MODEL 1
REMARK VINA RESULT:    -3.485      0.000      0.000
REMARK INTER + INTRA:          -4.337
REMARK INTER:                  -4.096
REMARK INTRA:                  -0.241
REMARK UNBOUND:                -0.241
REMARK SMILES O=c1c(O)c(-c2ccc(O)cc2)oc2cc(O)cc(O)c12
REMARK SMILES IDX 5 1 3 2 2 3 1 4 21 5 19 6 18 7 16 8 15 9 14 10 13 11 6 12
REMARK SMILES IDX 7 13 8 14 9 15 12 16 11 17 10 18 4 20 20 22 17 24
REMARK H PARENT 10 19 4 21 20 23 17 25
REMARK Flexibility Score: inf
ROOT
ATOM      1  C   UNL     1      16.281  -0.532  27.002  1.00  0.00     0.180 A 
ATOM      2  C   UNL     1      15.631  -1.023  28.146  1.00  0.00     0.208 A 
ATOM      3  C   UNL     1      16.312  -1.919  28.985  1.00  0.00     0.238 A 
ATOM      4  O   UNL     1      15.751  -2.297  30.047  1.00  0.00    -0.285 OA
ATOM      5  C   UNL     1      17.615  -2.355  28.641  1.00  0.00     0.111 A 
ATOM      6  C   UNL     1      18.382  -3.296  29.395  1.00  0.00     0.134 A 
ATOM      7  C   UNL     1      19.701  -3.573  29.014  1.00  0.00     0.093 A 
ATOM      8  C   UNL     1      20.259  -2.995  27.876  1.00  0.00     0.123 A 
ATOM      9  C   UNL     1      19.501  -2.117  27.101  1.00  0.00     0.094 A 
ATOM     10  C   UNL     1      18.195  -1.791  27.475  1.00  0.00     0.146 A 
ATOM     11  O   UNL     1      17.516  -0.934  26.722  1.00  0.00    -0.452 OA
ENDROOT
BRANCH   1  12
ATOM     12  C   UNL     1      15.635   0.426  26.077  1.00  0.00     0.021 A 
ATOM     13  C   UNL     1      15.480   1.783  26.416  1.00  0.00     0.016 A 
ATOM     14  C   UNL     1      14.887   2.674  25.515  1.00  0.00     0.047 A 
ATOM     15  C   UNL     1      14.456   2.226  24.264  1.00  0.00     0.115 A 
ATOM     16  C   UNL     1      15.218  -0.011  24.808  1.00  0.00     0.016 A 
ATOM     17  C   UNL     1      14.625   0.881  23.910  1.00  0.00     0.047 A 
BRANCH  15  18
ATOM     18  O   UNL     1      13.867   3.125  23.377  1.00  0.00    -0.508 OA
ATOM     19  H   UNL     1      13.469   4.001  23.696  1.00  0.00     0.293 HD
ENDBRANCH  15  18
ENDBRANCH   1  12
BRANCH   2  20
ATOM     20  O   UNL     1      14.317  -0.639  28.428  1.00  0.00    -0.502 OA
ATOM     21  H   UNL     1      13.520  -1.024  27.936  1.00  0.00     0.293 HD
ENDBRANCH   2  20
BRANCH   6  22
ATOM     22  O   UNL     1      17.893  -4.001  30.499  1.00  0.00    -0.507 OA
ATOM     23  H   UNL     1      18.337  -4.036  31.404  1.00  0.00     0.293 HD
ENDBRANCH   6  22
BRANCH   8  24
ATOM     24  O   UNL     1      21.570  -3.307  27.518  1.00  0.00    -0.508 OA
ATOM     25  H   UNL     1      22.053  -2.803  26.785  1.00  0.00     0.293 HD
ENDBRANCH   8  24
TORSDOF 5
ENDMDL
MODEL 2
REMARK VINA RESULT:    -3.076     10.969     13.647
REMARK INTER + INTRA:          -3.856
REMARK INTER:                  -3.630
REMARK INTRA:                  -0.226
REMARK UNBOUND:                -0.241
REMARK SMILES O=c1c(O)c(-c2ccc(O)cc2)oc2cc(O)cc(O)c12
REMARK SMILES IDX 5 1 3 2 2 3 1 4 21 5 19 6 18 7 16 8 15 9 14 10 13 11 6 12
REMARK SMILES IDX 7 13 8 14 9 15 12 16 11 17 10 18 4 20 20 22 17 24
REMARK H PARENT 10 19 4 21 20 23 17 25
REMARK Flexibility Score: inf
ROOT
ATOM      1  C   UNL     1      13.309 -13.054  28.415  1.00  0.00     0.180 A 
ATOM      2  C   UNL     1      12.020 -12.945  27.866  1.00  0.00     0.208 A 
ATOM      3  C   UNL     1      11.180 -11.908  28.300  1.00  0.00     0.238 A 
ATOM      4  O   UNL     1      10.056 -11.771  27.750  1.00  0.00    -0.285 OA
ATOM      5  C   UNL     1      11.616 -11.026  29.318  1.00  0.00     0.111 A 
ATOM      6  C   UNL     1      10.831  -9.966  29.867  1.00  0.00     0.134 A 
ATOM      7  C   UNL     1      11.407  -9.091  30.797  1.00  0.00     0.093 A 
ATOM      8  C   UNL     1      12.713  -9.273  31.245  1.00  0.00     0.123 A 
ATOM      9  C   UNL     1      13.472 -10.337  30.757  1.00  0.00     0.094 A 
ATOM     10  C   UNL     1      12.939 -11.205  29.800  1.00  0.00     0.146 A 
ATOM     11  O   UNL     1      13.703 -12.192  29.345  1.00  0.00    -0.452 OA
ENDROOT
BRANCH   1  12
ATOM     12  C   UNL     1      14.258 -14.110  27.998  1.00  0.00     0.021 A 
ATOM     13  C   UNL     1      14.500 -15.238  28.803  1.00  0.00     0.016 A 
ATOM     14  C   UNL     1      15.385 -16.235  28.377  1.00  0.00     0.047 A 
ATOM     15  C   UNL     1      16.024 -16.125  27.140  1.00  0.00     0.115 A 
ATOM     16  C   UNL     1      14.890 -14.018  26.747  1.00  0.00     0.016 A 
ATOM     17  C   UNL     1      15.773 -15.015  26.323  1.00  0.00     0.047 A 
BRANCH  15  18
ATOM     18  O   UNL     1      16.903 -17.125  26.728  1.00  0.00    -0.508 OA
ATOM     19  H   UNL     1      17.315 -17.773  27.389  1.00  0.00     0.293 HD
ENDBRANCH  15  18
ENDBRANCH   1  12
BRANCH   2  20
ATOM     20  O   UNL     1      11.580 -13.871  26.916  1.00  0.00    -0.502 OA
ATOM     21  H   UNL     1      11.681 -14.870  27.043  1.00  0.00     0.293 HD
ENDBRANCH   2  20
BRANCH   6  22
ATOM     22  O   UNL     1       9.485  -9.746  29.557  1.00  0.00    -0.507 OA
ATOM     23  H   UNL     1       8.757 -10.441  29.621  1.00  0.00     0.293 HD
ENDBRANCH   6  22
BRANCH   8  24
ATOM     24  O   UNL     1      13.247  -8.392  32.184  1.00  0.00    -0.508 OA
ATOM     25  H   UNL     1      13.762  -8.725  32.990  1.00  0.00     0.293 HD
ENDBRANCH   8  24
TORSDOF 5
ENDMDL
MODEL 3
REMARK VINA RESULT:    -2.259      1.138      2.905
REMARK INTER + INTRA:          -2.896
REMARK INTER:                  -2.766
REMARK INTRA:                  -0.130
REMARK UNBOUND:                -0.241
REMARK SMILES O=c1c(O)c(-c2ccc(O)cc2)oc2cc(O)cc(O)c12
REMARK SMILES IDX 5 1 3 2 2 3 1 4 21 5 19 6 18 7 16 8 15 9 14 10 13 11 6 12
REMARK SMILES IDX 7 13 8 14 9 15 12 16 11 17 10 18 4 20 20 22 17 24
REMARK H PARENT 10 19 4 21 20 23 17 25
REMARK Flexibility Score: inf
ROOT
ATOM      1  C   UNL     1      16.978  -0.559  26.409  1.00  0.00     0.180 A 
ATOM      2  C   UNL     1      18.210  -0.913  25.834  1.00  0.00     0.208 A 
ATOM      3  C   UNL     1      19.029  -1.841  26.496  1.00  0.00     0.238 A 
ATOM      4  O   UNL     1      20.096  -2.210  25.939  1.00  0.00    -0.285 OA
ATOM      5  C   UNL     1      18.632  -2.362  27.752  1.00  0.00     0.111 A 
ATOM      6  C   UNL     1      19.405  -3.275  28.534  1.00  0.00     0.134 A 
ATOM      7  C   UNL     1      18.863  -3.804  29.712  1.00  0.00     0.093 A 
ATOM      8  C   UNL     1      17.608  -3.408  30.170  1.00  0.00     0.123 A 
ATOM      9  C   UNL     1      16.868  -2.475  29.443  1.00  0.00     0.094 A 
ATOM     10  C   UNL     1      17.364  -1.957  28.244  1.00  0.00     0.146 A 
ATOM     11  O   UNL     1      16.618  -1.089  27.572  1.00  0.00    -0.452 OA
ENDROOT
BRANCH   1  12
ATOM     12  C   UNL     1      16.053   0.401  25.765  1.00  0.00     0.021 A 
ATOM     13  C   UNL     1      15.785   1.658  26.337  1.00  0.00     0.016 A 
ATOM     14  C   UNL     1      14.925   2.557  25.697  1.00  0.00     0.047 A 
ATOM     15  C   UNL     1      14.336   2.219  24.476  1.00  0.00     0.115 A 
ATOM     16  C   UNL     1      15.473   0.077  24.527  1.00  0.00     0.016 A 
ATOM     17  C   UNL     1      14.614   0.977  23.889  1.00  0.00     0.047 A 
BRANCH  15  18
ATOM     18  O   UNL     1      13.481   3.124  23.850  1.00  0.00    -0.508 OA
ATOM     19  H   UNL     1      12.474   3.045  23.932  1.00  0.00     0.293 HD
ENDBRANCH  15  18
ENDBRANCH   1  12
BRANCH   2  20
ATOM     20  O   UNL     1      18.619  -0.330  24.631  1.00  0.00    -0.502 OA
ATOM     21  H   UNL     1      18.248  -0.617  23.734  1.00  0.00     0.293 HD
ENDBRANCH   2  20
BRANCH   6  22
ATOM     22  O   UNL     1      20.708  -3.671  28.217  1.00  0.00    -0.507 OA
ATOM     23  H   UNL     1      21.374  -3.111  27.706  1.00  0.00     0.293 HD
ENDBRANCH   6  22
BRANCH   8  24
ATOM     24  O   UNL     1      17.108  -3.943  31.355  1.00  0.00    -0.508 OA
ATOM     25  H   UNL     1      16.830  -4.915  31.422  1.00  0.00     0.293 HD
ENDBRANCH   8  24
TORSDOF 5
ENDMDL
MODEL 4
REMARK VINA RESULT:    -2.106     11.502     13.589
REMARK INTER + INTRA:          -2.716
REMARK INTER:                  -2.588
REMARK INTRA:                  -0.128
REMARK UNBOUND:                -0.241
REMARK SMILES O=c1c(O)c(-c2ccc(O)cc2)oc2cc(O)cc(O)c12
REMARK SMILES IDX 5 1 3 2 2 3 1 4 21 5 19 6 18 7 16 8 15 9 14 10 13 11 6 12
REMARK SMILES IDX 7 13 8 14 9 15 12 16 11 17 10 18 4 20 20 22 17 24
REMARK H PARENT 10 19 4 21 20 23 17 25
REMARK Flexibility Score: inf
ROOT
ATOM      1  C   UNL     1      13.451 -12.976  29.539  1.00  0.00     0.180 A 
ATOM      2  C   UNL     1      13.682 -13.491  28.252  1.00  0.00     0.208 A 
ATOM      3  C   UNL     1      14.412 -14.683  28.116  1.00  0.00     0.238 A 
ATOM      4  O   UNL     1      14.551 -15.178  26.967  1.00  0.00    -0.285 OA
ATOM      5  C   UNL     1      14.950 -15.315  29.264  1.00  0.00     0.111 A 
ATOM      6  C   UNL     1      15.744 -16.502  29.240  1.00  0.00     0.134 A 
ATOM      7  C   UNL     1      16.132 -17.096  30.447  1.00  0.00     0.093 A 
ATOM      8  C   UNL     1      15.813 -16.515  31.673  1.00  0.00     0.123 A 
ATOM      9  C   UNL     1      15.085 -15.325  31.707  1.00  0.00     0.094 A 
ATOM     10  C   UNL     1      14.650 -14.728  30.521  1.00  0.00     0.146 A 
ATOM     11  O   UNL     1      13.940 -13.609  30.599  1.00  0.00    -0.452 OA
ENDROOT
BRANCH   1  12
ATOM     12  C   UNL     1      12.678 -11.734  29.765  1.00  0.00     0.021 A 
ATOM     13  C   UNL     1      11.328 -11.631  29.385  1.00  0.00     0.016 A 
ATOM     14  C   UNL     1      10.612 -10.454  29.630  1.00  0.00     0.047 A 
ATOM     15  C   UNL     1      11.229  -9.375  30.268  1.00  0.00     0.115 A 
ATOM     16  C   UNL     1      13.285 -10.652  30.424  1.00  0.00     0.016 A 
ATOM     17  C   UNL     1      12.568  -9.477  30.667  1.00  0.00     0.047 A 
BRANCH  15  18
ATOM     18  O   UNL     1      10.504  -8.209  30.505  1.00  0.00    -0.508 OA
ATOM     19  H   UNL     1       9.504  -8.230  30.665  1.00  0.00     0.293 HD
ENDBRANCH  15  18
ENDBRANCH   1  12
BRANCH   2  20
ATOM     20  O   UNL     1      13.208 -12.812  27.126  1.00  0.00    -0.502 OA
ATOM     21  H   UNL     1      13.020 -13.279  26.248  1.00  0.00     0.293 HD
ENDBRANCH   2  20
BRANCH   6  22
ATOM     22  O   UNL     1      16.196 -17.120  28.070  1.00  0.00    -0.507 OA
ATOM     23  H   UNL     1      16.912 -17.830  28.031  1.00  0.00     0.293 HD
ENDBRANCH   6  22
BRANCH   8  24
ATOM     24  O   UNL     1      16.232 -17.125  32.854  1.00  0.00    -0.508 OA
ATOM     25  H   UNL     1      15.579 -17.601  33.464  1.00  0.00     0.293 HD
ENDBRANCH   8  24
TORSDOF 5
ENDMDL
MODEL 5
REMARK VINA RESULT:    -1.824     11.065     13.682
REMARK INTER + INTRA:          -2.385
REMARK INTER:                  -2.111
REMARK INTRA:                  -0.274
REMARK UNBOUND:                -0.241
REMARK SMILES O=c1c(O)c(-c2ccc(O)cc2)oc2cc(O)cc(O)c12
REMARK SMILES IDX 5 1 3 2 2 3 1 4 21 5 19 6 18 7 16 8 15 9 14 10 13 11 6 12
REMARK SMILES IDX 7 13 8 14 9 15 12 16 11 17 10 18 4 20 20 22 17 24
REMARK H PARENT 10 19 4 21 20 23 17 25
REMARK Flexibility Score: inf
ROOT
ATOM      1  C   UNL     1      13.927 -12.905  28.839  1.00  0.00     0.180 A 
ATOM      2  C   UNL     1      14.539 -12.122  29.831  1.00  0.00     0.208 A 
ATOM      3  C   UNL     1      13.797 -11.104  30.452  1.00  0.00     0.238 A 
ATOM      4  O   UNL     1      14.329 -10.456  31.391  1.00  0.00    -0.285 OA
ATOM      5  C   UNL     1      12.469 -10.845  30.033  1.00  0.00     0.111 A 
ATOM      6  C   UNL     1      11.639  -9.809  30.560  1.00  0.00     0.134 A 
ATOM      7  C   UNL     1      10.306  -9.714  30.143  1.00  0.00     0.093 A 
ATOM      8  C   UNL     1       9.790 -10.573  29.174  1.00  0.00     0.123 A 
ATOM      9  C   UNL     1      10.608 -11.554  28.612  1.00  0.00     0.094 A 
ATOM     10  C   UNL     1      11.932 -11.699  29.035  1.00  0.00     0.146 A 
ATOM     11  O   UNL     1      12.669 -12.659  28.490  1.00  0.00    -0.452 OA
ENDROOT
BRANCH   1  12
ATOM     12  C   UNL     1      14.638 -14.005  28.150  1.00  0.00     0.021 A 
ATOM     13  C   UNL     1      14.791 -15.268  28.750  1.00  0.00     0.016 A 
ATOM     14  C   UNL     1      15.447 -16.300  28.070  1.00  0.00     0.047 A 
ATOM     15  C   UNL     1      15.944 -16.087  26.781  1.00  0.00     0.115 A 
ATOM     16  C   UNL     1      15.122 -13.806  26.846  1.00  0.00     0.016 A 
ATOM     17  C   UNL     1      15.778 -14.838  26.168  1.00  0.00     0.047 A 
BRANCH  15  18
ATOM     18  O   UNL     1      16.596 -17.123  26.115  1.00  0.00    -0.508 OA
ATOM     19  H   UNL     1      16.341 -17.390  25.171  1.00  0.00     0.293 HD
ENDBRANCH  15  18
ENDBRANCH   1  12
BRANCH   2  20
ATOM     20  O   UNL     1      15.875 -12.343  30.177  1.00  0.00    -0.502 OA
ATOM     21  H   UNL     1      16.532 -12.793  29.552  1.00  0.00     0.293 HD
ENDBRANCH   2  20
BRANCH   6  22
ATOM     22  O   UNL     1      12.076  -8.839  31.467  1.00  0.00    -0.507 OA
ATOM     23  H   UNL     1      12.824  -8.183  31.296  1.00  0.00     0.293 HD
ENDBRANCH   6  22
BRANCH   8  24
ATOM     24  O   UNL     1       8.463 -10.439  28.771  1.00  0.00    -0.508 OA
ATOM     25  H   UNL     1       7.714 -10.932  29.242  1.00  0.00     0.293 HD
ENDBRANCH   8  24
TORSDOF 5
ENDMDL
MODEL 6
REMARK VINA RESULT:    -0.871      2.630      6.379
REMARK INTER + INTRA:          -1.265
REMARK INTER:                  -1.072
REMARK INTRA:                  -0.193
REMARK UNBOUND:                -0.241
REMARK SMILES O=c1c(O)c(-c2ccc(O)cc2)oc2cc(O)cc(O)c12
REMARK SMILES IDX 5 1 3 2 2 3 1 4 21 5 19 6 18 7 16 8 15 9 14 10 13 11 6 12
REMARK SMILES IDX 7 13 8 14 9 15 12 16 11 17 10 18 4 20 20 22 17 24
REMARK H PARENT 10 19 4 21 20 23 17 25
REMARK Flexibility Score: inf
ROOT
ATOM      1  C   UNL     1      15.757  -1.852  26.955  1.00  0.00     0.180 A 
ATOM      2  C   UNL     1      15.856  -1.251  28.222  1.00  0.00     0.208 A 
ATOM      3  C   UNL     1      15.604   0.124  28.345  1.00  0.00     0.238 A 
ATOM      4  O   UNL     1      15.621   0.640  29.493  1.00  0.00    -0.285 OA
ATOM      5  C   UNL     1      15.312   0.894  27.193  1.00  0.00     0.111 A 
ATOM      6  C   UNL     1      15.085   2.304  27.194  1.00  0.00     0.134 A 
ATOM      7  C   UNL     1      14.700   2.941  26.007  1.00  0.00     0.093 A 
ATOM      8  C   UNL     1      14.596   2.236  24.811  1.00  0.00     0.123 A 
ATOM      9  C   UNL     1      14.870   0.868  24.786  1.00  0.00     0.094 A 
ATOM     10  C   UNL     1      15.219   0.196  25.961  1.00  0.00     0.146 A 
ATOM     11  O   UNL     1      15.449  -1.111  25.898  1.00  0.00    -0.452 OA
ENDROOT
BRANCH   1  12
ATOM     12  C   UNL     1      15.993  -3.298  26.747  1.00  0.00     0.021 A 
ATOM     13  C   UNL     1      14.941  -4.173  26.420  1.00  0.00     0.016 A 
ATOM     14  C   UNL     1      15.192  -5.532  26.205  1.00  0.00     0.047 A 
ATOM     15  C   UNL     1      16.494  -6.030  26.299  1.00  0.00     0.115 A 
ATOM     16  C   UNL     1      17.302  -3.803  26.820  1.00  0.00     0.016 A 
ATOM     17  C   UNL     1      17.551  -5.162  26.605  1.00  0.00     0.047 A 
BRANCH  15  18
ATOM     18  O   UNL     1      16.730  -7.387  26.084  1.00  0.00    -0.508 OA
ATOM     19  H   UNL     1      17.375  -7.911  26.663  1.00  0.00     0.293 HD
ENDBRANCH  15  18
ENDBRANCH   1  12
BRANCH   2  20
ATOM     20  O   UNL     1      16.221  -2.013  29.335  1.00  0.00    -0.502 OA
ATOM     21  H   UNL     1      15.814  -1.868  30.251  1.00  0.00     0.293 HD
ENDBRANCH   2  20
BRANCH   6  22
ATOM     22  O   UNL     1      15.247   3.123  28.315  1.00  0.00    -0.507 OA
ATOM     23  H   UNL     1      15.560   2.808  29.220  1.00  0.00     0.293 HD
ENDBRANCH   6  22
BRANCH   8  24
ATOM     24  O   UNL     1      14.227   2.906  23.646  1.00  0.00    -0.508 OA
ATOM     25  H   UNL     1      14.525   2.587  22.733  1.00  0.00     0.293 HD
ENDBRANCH   8  24
TORSDOF 5
ENDMDL
