MODEL 1
REMARK VINA RESULT:    -3.982      0.000      0.000
REMARK INTER + INTRA:          -9.513
REMARK INTER:                  -7.708
REMARK INTRA:                  -1.806
REMARK UNBOUND:                -1.806
REMARK SMILES CCCCCCCCCCCCCCCCCC(=O)[O-]
REMARK SMILES IDX 10 1 11 2 12 3 13 4 14 5 15 6 16 7 17 8 18 9 19 10 20 11
REMARK SMILES IDX 9 12 8 13 7 14 6 15 5 16 4 17 3 18 2 19 1 20
REMARK H PARENT
REMARK Flexibility Score: inf
ROOT
ATOM      1  C   UNL     1       3.833 -60.422 190.151  1.00  0.00     0.000 C 
ENDROOT
BRANCH   1   2
ATOM      2  C   UNL     1       4.313 -59.111 189.495  1.00  0.00     0.000 C 
BRANCH   2   3
ATOM      3  C   UNL     1       4.854 -58.057 190.478  1.00  0.00     0.000 C 
BRANCH   3   4
ATOM      4  C   UNL     1       5.511 -58.684 191.720  1.00  0.00     0.000 C 
BRANCH   4   5
ATOM      5  C   UNL     1       4.759 -58.347 193.016  1.00  0.00     0.000 C 
BRANCH   5   6
ATOM      6  C   UNL     1       5.540 -57.375 193.916  1.00  0.00     0.000 C 
BRANCH   6   7
ATOM      7  C   UNL     1       6.981 -57.207 193.422  1.00  0.00     0.006 C 
BRANCH   7   8
ATOM      8  C   UNL     1       7.364 -55.726 193.337  1.00  0.00     0.053 C 
BRANCH   8   9
ATOM      9  C   UNL     1       6.691 -55.077 192.168  1.00  0.00     0.041 C 
ATOM     10  O   UNL     1       5.819 -54.186 192.351  1.00  0.00    -0.550 OA
ATOM     11  O   UNL     1       7.067 -55.418 190.874  1.00  0.00    -0.550 OA
ENDBRANCH   8   9
ENDBRANCH   7   8
ENDBRANCH   6   7
ENDBRANCH   5   6
ENDBRANCH   4   5
ENDBRANCH   3   4
ENDBRANCH   2   3
ENDBRANCH   1   2
BRANCH   1  12
ATOM     12  C   UNL     1       2.516 -60.994 189.589  1.00  0.00     0.000 C 
BRANCH  12  13
ATOM     13  C   UNL     1       2.634 -61.679 188.216  1.00  0.00    -0.000 C 
BRANCH  13  14
ATOM     14  C   UNL     1       2.535 -63.213 188.305  1.00  0.00    -0.000 C 
BRANCH  14  15
ATOM     15  C   UNL     1       3.792 -63.917 187.766  1.00  0.00    -0.000 C 
BRANCH  15  16
ATOM     16  C   UNL     1       5.062 -63.062 187.927  1.00  0.00    -0.000 C 
BRANCH  16  17
ATOM     17  C   UNL     1       6.341 -63.910 188.062  1.00  0.00    -0.000 C 
BRANCH  17  18
ATOM     18  C   UNL     1       7.556 -63.170 188.652  1.00  0.00    -0.000 C 
BRANCH  18  19
ATOM     19  C   UNL     1       7.183 -61.822 189.288  1.00  0.00    -0.003 C 
ATOM     20  C   UNL     1       7.368 -61.859 190.802  1.00  0.00     0.004 C 
ENDBRANCH  18  19
ENDBRANCH  17  18
ENDBRANCH  16  17
ENDBRANCH  15  16
ENDBRANCH  14  15
ENDBRANCH  13  14
ENDBRANCH  12  13
ENDBRANCH   1  12
TORSDOF 16
ENDMDL
MODEL 2
REMARK VINA RESULT:    -3.957      1.477      3.338
REMARK INTER + INTRA:          -9.463
REMARK INTER:                  -7.786
REMARK INTRA:                  -1.677
REMARK UNBOUND:                -1.806
REMARK SMILES CCCCCCCCCCCCCCCCCC(=O)[O-]
REMARK SMILES IDX 10 1 11 2 12 3 13 4 14 5 15 6 16 7 17 8 18 9 19 10 20 11
REMARK SMILES IDX 9 12 8 13 7 14 6 15 5 16 4 17 3 18 2 19 1 20
REMARK H PARENT
REMARK Flexibility Score: inf
ROOT
ATOM      1  C   UNL     1       5.170 -60.106 190.109  1.00  0.00     0.000 C 
ENDROOT
BRANCH   1   2
ATOM      2  C   UNL     1       4.947 -58.581 190.056  1.00  0.00     0.000 C 
BRANCH   2   3
ATOM      3  C   UNL     1       3.475 -58.147 189.942  1.00  0.00     0.000 C 
BRANCH   3   4
ATOM      4  C   UNL     1       2.998 -57.336 191.159  1.00  0.00     0.000 C 
BRANCH   4   5
ATOM      5  C   UNL     1       3.326 -58.028 192.491  1.00  0.00     0.000 C 
BRANCH   5   6
ATOM      6  C   UNL     1       3.338 -57.050 193.677  1.00  0.00     0.000 C 
BRANCH   6   7
ATOM      7  C   UNL     1       4.638 -57.177 194.481  1.00  0.00     0.006 C 
BRANCH   7   8
ATOM      8  C   UNL     1       5.623 -58.122 193.786  1.00  0.00     0.053 C 
BRANCH   8   9
ATOM      9  C   UNL     1       6.843 -57.375 193.346  1.00  0.00     0.041 C 
ATOM     10  O   UNL     1       7.936 -57.530 193.951  1.00  0.00    -0.550 OA
ATOM     11  O   UNL     1       6.784 -56.549 192.229  1.00  0.00    -0.550 OA
ENDBRANCH   8   9
ENDBRANCH   7   8
ENDBRANCH   6   7
ENDBRANCH   5   6
ENDBRANCH   4   5
ENDBRANCH   3   4
ENDBRANCH   2   3
ENDBRANCH   1   2
BRANCH   1  12
ATOM     12  C   UNL     1       6.181 -60.587 191.170  1.00  0.00     0.000 C 
BRANCH  12  13
ATOM     13  C   UNL     1       6.789 -61.977 190.911  1.00  0.00    -0.000 C 
BRANCH  13  14
ATOM     14  C   UNL     1       7.858 -61.963 189.804  1.00  0.00    -0.000 C 
BRANCH  14  15
ATOM     15  C   UNL     1       7.268 -62.236 188.410  1.00  0.00    -0.000 C 
BRANCH  15  16
ATOM     16  C   UNL     1       7.152 -63.740 188.103  1.00  0.00    -0.000 C 
BRANCH  16  17
ATOM     17  C   UNL     1       5.708 -64.176 187.789  1.00  0.00    -0.000 C 
BRANCH  17  18
ATOM     18  C   UNL     1       4.625 -63.128 188.107  1.00  0.00    -0.000 C 
BRANCH  18  19
ATOM     19  C   UNL     1       3.476 -63.128 187.086  1.00  0.00    -0.003 C 
ATOM     20  C   UNL     1       2.568 -61.917 187.281  1.00  0.00     0.004 C 
ENDBRANCH  18  19
ENDBRANCH  17  18
ENDBRANCH  16  17
ENDBRANCH  15  16
ENDBRANCH  14  15
ENDBRANCH  13  14
ENDBRANCH  12  13
ENDBRANCH   1  12
TORSDOF 16
ENDMDL
MODEL 3
REMARK VINA RESULT:    -3.862      8.972     11.608
REMARK INTER + INTRA:          -9.280
REMARK INTER:                  -7.397
REMARK INTRA:                  -1.883
REMARK UNBOUND:                -1.806
REMARK SMILES CCCCCCCCCCCCCCCCCC(=O)[O-]
REMARK SMILES IDX 10 1 11 2 12 3 13 4 14 5 15 6 16 7 17 8 18 9 19 10 20 11
REMARK SMILES IDX 9 12 8 13 7 14 6 15 5 16 4 17 3 18 2 19 1 20
REMARK H PARENT
REMARK Flexibility Score: inf
ROOT
ATOM      1  C   UNL     1       4.624 -59.667 197.988  1.00  0.00     0.000 C 
ENDROOT
BRANCH   1   2
ATOM      2  C   UNL     1       4.010 -58.863 199.152  1.00  0.00     0.000 C 
BRANCH   2   3
ATOM      3  C   UNL     1       4.699 -59.069 200.513  1.00  0.00     0.000 C 
BRANCH   3   4
ATOM      4  C   UNL     1       4.532 -60.500 201.053  1.00  0.00     0.000 C 
BRANCH   4   5
ATOM      5  C   UNL     1       5.877 -61.221 201.233  1.00  0.00     0.000 C 
BRANCH   5   6
ATOM      6  C   UNL     1       5.837 -62.677 200.740  1.00  0.00     0.000 C 
BRANCH   6   7
ATOM      7  C   UNL     1       4.672 -62.896 199.768  1.00  0.00     0.006 C 
BRANCH   7   8
ATOM      8  C   UNL     1       4.979 -64.034 198.790  1.00  0.00     0.053 C 
BRANCH   8   9
ATOM      9  C   UNL     1       5.289 -65.295 199.535  1.00  0.00     0.041 C 
ATOM     10  O   UNL     1       4.421 -65.822 200.281  1.00  0.00    -0.550 OA
ATOM     11  O   UNL     1       6.520 -65.918 199.361  1.00  0.00    -0.550 OA
ENDBRANCH   8   9
ENDBRANCH   7   8
ENDBRANCH   6   7
ENDBRANCH   5   6
ENDBRANCH   4   5
ENDBRANCH   3   4
ENDBRANCH   2   3
ENDBRANCH   1   2
BRANCH   1  12
ATOM     12  C   UNL     1       6.165 -59.693 197.946  1.00  0.00     0.000 C 
BRANCH  12  13
ATOM     13  C   UNL     1       6.835 -58.327 197.711  1.00  0.00    -0.000 C 
BRANCH  13  14
ATOM     14  C   UNL     1       7.893 -57.990 198.776  1.00  0.00    -0.000 C 
BRANCH  14  15
ATOM     15  C   UNL     1       7.328 -57.131 199.919  1.00  0.00    -0.000 C 
BRANCH  15  16
ATOM     16  C   UNL     1       8.080 -57.344 201.245  1.00  0.00    -0.000 C 
BRANCH  16  17
ATOM     17  C   UNL     1       9.597 -57.107 201.118  1.00  0.00    -0.000 C 
BRANCH  17  18
ATOM     18  C   UNL     1      10.465 -58.377 201.196  1.00  0.00    -0.000 C 
BRANCH  18  19
ATOM     19  C   UNL     1      11.448 -58.502 200.022  1.00  0.00    -0.003 C 
ATOM     20  C   UNL     1      11.639 -57.161 199.320  1.00  0.00     0.004 C 
ENDBRANCH  18  19
ENDBRANCH  17  18
ENDBRANCH  16  17
ENDBRANCH  15  16
ENDBRANCH  14  15
ENDBRANCH  13  14
ENDBRANCH  12  13
ENDBRANCH   1  12
TORSDOF 16
ENDMDL
MODEL 4
REMARK VINA RESULT:    -3.846      2.885      7.234
REMARK INTER + INTRA:          -9.250
REMARK INTER:                  -7.791
REMARK INTRA:                  -1.458
REMARK UNBOUND:                -1.806
REMARK SMILES CCCCCCCCCCCCCCCCCC(=O)[O-]
REMARK SMILES IDX 10 1 11 2 12 3 13 4 14 5 15 6 16 7 17 8 18 9 19 10 20 11
REMARK SMILES IDX 9 12 8 13 7 14 6 15 5 16 4 17 3 18 2 19 1 20
REMARK H PARENT
REMARK Flexibility Score: inf
ROOT
ATOM      1  C   UNL     1       7.051 -61.520 190.926  1.00  0.00     0.000 C 
ENDROOT
BRANCH   1   2
ATOM      2  C   UNL     1       7.848 -61.759 189.628  1.00  0.00     0.000 C 
BRANCH   2   3
ATOM      3  C   UNL     1       7.703 -63.169 189.030  1.00  0.00     0.000 C 
BRANCH   3   4
ATOM      4  C   UNL     1       6.732 -63.212 187.838  1.00  0.00     0.000 C 
BRANCH   4   5
ATOM      5  C   UNL     1       6.029 -64.572 187.701  1.00  0.00     0.000 C 
BRANCH   5   6
ATOM      6  C   UNL     1       4.499 -64.442 187.638  1.00  0.00     0.000 C 
BRANCH   6   7
ATOM      7  C   UNL     1       4.057 -63.004 187.935  1.00  0.00     0.006 C 
BRANCH   7   8
ATOM      8  C   UNL     1       2.987 -62.542 186.940  1.00  0.00     0.053 C 
BRANCH   8   9
ATOM      9  C   UNL     1       2.294 -61.317 187.449  1.00  0.00     0.041 C 
ATOM     10  O   UNL     1       2.121 -61.152 188.686  1.00  0.00    -0.550 OA
ATOM     11  O   UNL     1       1.889 -60.329 186.558  1.00  0.00    -0.550 OA
ENDBRANCH   8   9
ENDBRANCH   7   8
ENDBRANCH   6   7
ENDBRANCH   5   6
ENDBRANCH   4   5
ENDBRANCH   3   4
ENDBRANCH   2   3
ENDBRANCH   1   2
BRANCH   1  12
ATOM     12  C   UNL     1       5.568 -61.146 190.727  1.00  0.00     0.000 C 
BRANCH  12  13
ATOM     13  C   UNL     1       5.322 -59.857 189.923  1.00  0.00    -0.000 C 
BRANCH  13  14
ATOM     14  C   UNL     1       4.666 -58.747 190.762  1.00  0.00    -0.000 C 
BRANCH  14  15
ATOM     15  C   UNL     1       4.870 -57.349 190.153  1.00  0.00    -0.000 C 
BRANCH  15  16
ATOM     16  C   UNL     1       5.715 -56.431 191.054  1.00  0.00    -0.000 C 
BRANCH  16  17
ATOM     17  C   UNL     1       6.329 -57.173 192.257  1.00  0.00    -0.000 C 
BRANCH  17  18
ATOM     18  C   UNL     1       7.108 -56.284 193.244  1.00  0.00    -0.000 C 
BRANCH  18  19
ATOM     19  C   UNL     1       7.492 -57.021 194.537  1.00  0.00    -0.003 C 
ATOM     20  C   UNL     1       6.294 -57.762 195.124  1.00  0.00     0.004 C 
ENDBRANCH  18  19
ENDBRANCH  17  18
ENDBRANCH  16  17
ENDBRANCH  15  16
ENDBRANCH  14  15
ENDBRANCH  13  14
ENDBRANCH  12  13
ENDBRANCH   1  12
TORSDOF 16
ENDMDL
MODEL 5
REMARK VINA RESULT:    -3.821      7.796     10.102
REMARK INTER + INTRA:          -9.201
REMARK INTER:                  -6.742
REMARK INTRA:                  -2.459
REMARK UNBOUND:                -1.806
REMARK SMILES CCCCCCCCCCCCCCCCCC(=O)[O-]
REMARK SMILES IDX 10 1 11 2 12 3 13 4 14 5 15 6 16 7 17 8 18 9 19 10 20 11
REMARK SMILES IDX 9 12 8 13 7 14 6 15 5 16 4 17 3 18 2 19 1 20
REMARK H PARENT
REMARK Flexibility Score: inf
ROOT
ATOM      1  C   UNL     1       3.034 -61.245 197.518  1.00  0.00     0.000 C 
ENDROOT
BRANCH   1   2
ATOM      2  C   UNL     1       3.845 -59.934 197.478  1.00  0.00     0.000 C 
BRANCH   2   3
ATOM      3  C   UNL     1       5.216 -60.043 196.788  1.00  0.00     0.000 C 
BRANCH   3   4
ATOM      4  C   UNL     1       6.386 -59.741 197.740  1.00  0.00     0.000 C 
BRANCH   4   5
ATOM      5  C   UNL     1       6.791 -58.259 197.723  1.00  0.00     0.000 C 
BRANCH   5   6
ATOM      6  C   UNL     1       8.012 -57.970 198.612  1.00  0.00     0.000 C 
BRANCH   6   7
ATOM      7  C   UNL     1       7.587 -57.726 200.065  1.00  0.00     0.006 C 
BRANCH   7   8
ATOM      8  C   UNL     1       8.485 -58.497 201.038  1.00  0.00     0.053 C 
BRANCH   8   9
ATOM      9  C   UNL     1       9.844 -57.872 201.102  1.00  0.00     0.041 C 
ATOM     10  O   UNL     1       9.968 -56.648 201.374  1.00  0.00    -0.550 OA
ATOM     11  O   UNL     1      10.977 -58.656 200.917  1.00  0.00    -0.550 OA
ENDBRANCH   8   9
ENDBRANCH   7   8
ENDBRANCH   6   7
ENDBRANCH   5   6
ENDBRANCH   4   5
ENDBRANCH   3   4
ENDBRANCH   2   3
ENDBRANCH   1   2
BRANCH   1  12
ATOM     12  C   UNL     1       3.867 -62.528 197.710  1.00  0.00     0.000 C 
BRANCH  12  13
ATOM     13  C   UNL     1       3.666 -63.242 199.059  1.00  0.00    -0.000 C 
BRANCH  13  14
ATOM     14  C   UNL     1       4.981 -63.775 199.654  1.00  0.00    -0.000 C 
BRANCH  14  15
ATOM     15  C   UNL     1       6.007 -62.659 199.911  1.00  0.00    -0.000 C 
BRANCH  15  16
ATOM     16  C   UNL     1       5.762 -61.926 201.242  1.00  0.00    -0.000 C 
BRANCH  16  17
ATOM     17  C   UNL     1       5.362 -60.451 201.049  1.00  0.00    -0.000 C 
BRANCH  17  18
ATOM     18  C   UNL     1       3.847 -60.175 201.079  1.00  0.00    -0.000 C 
BRANCH  18  19
ATOM     19  C   UNL     1       3.483 -58.930 201.902  1.00  0.00    -0.003 C 
ATOM     20  C   UNL     1       4.484 -57.803 201.666  1.00  0.00     0.004 C 
ENDBRANCH  18  19
ENDBRANCH  17  18
ENDBRANCH  16  17
ENDBRANCH  15  16
ENDBRANCH  14  15
ENDBRANCH  13  14
ENDBRANCH  12  13
ENDBRANCH   1  12
TORSDOF 16
ENDMDL
MODEL 6
REMARK VINA RESULT:    -3.720      1.743      3.363
REMARK INTER + INTRA:          -9.006
REMARK INTER:                  -7.607
REMARK INTRA:                  -1.398
REMARK UNBOUND:                -1.806
REMARK SMILES CCCCCCCCCCCCCCCCCC(=O)[O-]
REMARK SMILES IDX 10 1 11 2 12 3 13 4 14 5 15 6 16 7 17 8 18 9 19 10 20 11
REMARK SMILES IDX 9 12 8 13 7 14 6 15 5 16 4 17 3 18 2 19 1 20
REMARK H PARENT
REMARK Flexibility Score: inf
ROOT
ATOM      1  C   UNL     1       4.997 -59.781 191.252  1.00  0.00     0.000 C 
ENDROOT
BRANCH   1   2
ATOM      2  C   UNL     1       4.921 -58.249 191.412  1.00  0.00     0.000 C 
BRANCH   2   3
ATOM      3  C   UNL     1       3.975 -57.762 192.524  1.00  0.00     0.000 C 
BRANCH   3   4
ATOM      4  C   UNL     1       4.469 -58.140 193.932  1.00  0.00     0.000 C 
BRANCH   4   5
ATOM      5  C   UNL     1       5.103 -56.951 194.671  1.00  0.00     0.000 C 
BRANCH   5   6
ATOM      6  C   UNL     1       6.532 -57.249 195.153  1.00  0.00     0.000 C 
BRANCH   6   7
ATOM      7  C   UNL     1       7.531 -57.168 193.993  1.00  0.00     0.006 C 
BRANCH   7   8
ATOM      8  C   UNL     1       7.467 -55.800 193.307  1.00  0.00     0.053 C 
BRANCH   8   9
ATOM      9  C   UNL     1       8.415 -54.843 193.958  1.00  0.00     0.041 C 
ATOM     10  O   UNL     1       8.089 -54.251 195.021  1.00  0.00    -0.550 OA
ATOM     11  O   UNL     1       9.682 -54.648 193.419  1.00  0.00    -0.550 OA
ENDBRANCH   8   9
ENDBRANCH   7   8
ENDBRANCH   6   7
ENDBRANCH   5   6
ENDBRANCH   4   5
ENDBRANCH   3   4
ENDBRANCH   2   3
ENDBRANCH   1   2
BRANCH   1  12
ATOM     12  C   UNL     1       6.389 -60.399 191.491  1.00  0.00     0.000 C 
BRANCH  12  13
ATOM     13  C   UNL     1       6.608 -61.783 190.854  1.00  0.00    -0.000 C 
BRANCH  13  14
ATOM     14  C   UNL     1       7.755 -61.792 189.828  1.00  0.00    -0.000 C 
BRANCH  14  15
ATOM     15  C   UNL     1       7.272 -62.120 188.405  1.00  0.00    -0.000 C 
BRANCH  15  16
ATOM     16  C   UNL     1       7.212 -63.634 188.136  1.00  0.00    -0.000 C 
BRANCH  16  17
ATOM     17  C   UNL     1       5.803 -64.117 187.742  1.00  0.00    -0.000 C 
BRANCH  17  18
ATOM     18  C   UNL     1       4.677 -63.087 187.951  1.00  0.00    -0.000 C 
BRANCH  18  19
ATOM     19  C   UNL     1       3.465 -63.333 187.040  1.00  0.00    -0.003 C 
ATOM     20  C   UNL     1       3.541 -64.709 186.384  1.00  0.00     0.004 C 
ENDBRANCH  18  19
ENDBRANCH  17  18
ENDBRANCH  16  17
ENDBRANCH  15  16
ENDBRANCH  14  15
ENDBRANCH  13  14
ENDBRANCH  12  13
ENDBRANCH   1  12
TORSDOF 16
ENDMDL
MODEL 7
REMARK VINA RESULT:    -3.706      7.579      9.890
REMARK INTER + INTRA:          -8.977
REMARK INTER:                  -6.738
REMARK INTRA:                  -2.239
REMARK UNBOUND:                -1.806
REMARK SMILES CCCCCCCCCCCCCCCCCC(=O)[O-]
REMARK SMILES IDX 10 1 11 2 12 3 13 4 14 5 15 6 16 7 17 8 18 9 19 10 20 11
REMARK SMILES IDX 9 12 8 13 7 14 6 15 5 16 4 17 3 18 2 19 1 20
REMARK H PARENT
REMARK Flexibility Score: inf
ROOT
ATOM      1  C   UNL     1       3.973 -58.925 196.617  1.00  0.00     0.000 C 
ENDROOT
BRANCH   1   2
ATOM      2  C   UNL     1       5.413 -59.472 196.686  1.00  0.00     0.000 C 
BRANCH   2   3
ATOM      3  C   UNL     1       6.483 -58.430 197.057  1.00  0.00     0.000 C 
BRANCH   3   4
ATOM      4  C   UNL     1       7.201 -58.759 198.377  1.00  0.00     0.000 C 
BRANCH   4   5
ATOM      5  C   UNL     1       6.954 -57.698 199.461  1.00  0.00     0.000 C 
BRANCH   5   6
ATOM      6  C   UNL     1       7.426 -58.153 200.851  1.00  0.00     0.000 C 
BRANCH   6   7
ATOM      7  C   UNL     1       8.600 -57.298 201.340  1.00  0.00     0.006 C 
BRANCH   7   8
ATOM      8  C   UNL     1       9.774 -58.177 201.784  1.00  0.00     0.053 C 
BRANCH   8   9
ATOM      9  C   UNL     1      10.799 -58.269 200.697  1.00  0.00     0.041 C 
ATOM     10  O   UNL     1      10.868 -57.375 199.812  1.00  0.00    -0.550 OA
ATOM     11  O   UNL     1      11.715 -59.314 200.695  1.00  0.00    -0.550 OA
ENDBRANCH   8   9
ENDBRANCH   7   8
ENDBRANCH   6   7
ENDBRANCH   5   6
ENDBRANCH   4   5
ENDBRANCH   3   4
ENDBRANCH   2   3
ENDBRANCH   1   2
BRANCH   1  12
ATOM     12  C   UNL     1       3.087 -59.253 197.835  1.00  0.00     0.000 C 
BRANCH  12  13
ATOM     13  C   UNL     1       3.070 -58.180 198.939  1.00  0.00    -0.000 C 
BRANCH  13  14
ATOM     14  C   UNL     1       3.682 -58.674 200.261  1.00  0.00    -0.000 C 
BRANCH  14  15
ATOM     15  C   UNL     1       3.602 -60.203 200.413  1.00  0.00    -0.000 C 
BRANCH  15  16
ATOM     16  C   UNL     1       4.940 -60.823 200.854  1.00  0.00    -0.000 C 
BRANCH  16  17
ATOM     17  C   UNL     1       5.574 -61.712 199.767  1.00  0.00    -0.000 C 
BRANCH  17  18
ATOM     18  C   UNL     1       5.835 -63.170 200.186  1.00  0.00    -0.000 C 
BRANCH  18  19
ATOM     19  C   UNL     1       4.918 -64.172 199.466  1.00  0.00    -0.003 C 
ATOM     20  C   UNL     1       5.536 -65.567 199.446  1.00  0.00     0.004 C 
ENDBRANCH  18  19
ENDBRANCH  17  18
ENDBRANCH  16  17
ENDBRANCH  15  16
ENDBRANCH  14  15
ENDBRANCH  13  14
ENDBRANCH  12  13
ENDBRANCH   1  12
TORSDOF 16
ENDMDL
MODEL 8
REMARK VINA RESULT:    -3.665      8.372      9.986
REMARK INTER + INTRA:          -8.899
REMARK INTER:                  -7.101
REMARK INTRA:                  -1.798
REMARK UNBOUND:                -1.806
REMARK SMILES CCCCCCCCCCCCCCCCCC(=O)[O-]
REMARK SMILES IDX 10 1 11 2 12 3 13 4 14 5 15 6 16 7 17 8 18 9 19 10 20 11
REMARK SMILES IDX 9 12 8 13 7 14 6 15 5 16 4 17 3 18 2 19 1 20
REMARK H PARENT
REMARK Flexibility Score: inf
ROOT
ATOM      1  C   UNL     1       6.324 -57.521 198.968  1.00  0.00     0.000 C 
ENDROOT
BRANCH   1   2
ATOM      2  C   UNL     1       7.133 -57.317 200.265  1.00  0.00     0.000 C 
BRANCH   2   3
ATOM      3  C   UNL     1       7.987 -58.524 200.690  1.00  0.00     0.000 C 
BRANCH   3   4
ATOM      4  C   UNL     1       9.063 -58.156 201.727  1.00  0.00     0.000 C 
BRANCH   4   5
ATOM      5  C   UNL     1      10.488 -58.294 201.170  1.00  0.00     0.000 C 
BRANCH   5   6
ATOM      6  C   UNL     1      10.536 -58.189 199.637  1.00  0.00     0.000 C 
BRANCH   6   7
ATOM      7  C   UNL     1      11.574 -57.154 199.189  1.00  0.00     0.006 C 
BRANCH   7   8
ATOM      8  C   UNL     1      10.895 -55.925 198.575  1.00  0.00     0.053 C 
BRANCH   8   9
ATOM      9  C   UNL     1      10.276 -56.272 197.258  1.00  0.00     0.041 C 
ATOM     10  O   UNL     1       9.024 -56.248 197.119  1.00  0.00    -0.550 OA
ATOM     11  O   UNL     1      11.086 -56.567 196.168  1.00  0.00    -0.550 OA
ENDBRANCH   8   9
ENDBRANCH   7   8
ENDBRANCH   6   7
ENDBRANCH   5   6
ENDBRANCH   4   5
ENDBRANCH   3   4
ENDBRANCH   2   3
ENDBRANCH   1   2
BRANCH   1  12
ATOM     12  C   UNL     1       6.731 -58.746 198.125  1.00  0.00     0.000 C 
BRANCH  12  13
ATOM     13  C   UNL     1       5.755 -59.935 198.187  1.00  0.00    -0.000 C 
BRANCH  13  14
ATOM     14  C   UNL     1       4.512 -59.642 199.046  1.00  0.00    -0.000 C 
BRANCH  14  15
ATOM     15  C   UNL     1       4.233 -60.749 200.077  1.00  0.00    -0.000 C 
BRANCH  15  16
ATOM     16  C   UNL     1       5.499 -61.178 200.839  1.00  0.00    -0.000 C 
BRANCH  16  17
ATOM     17  C   UNL     1       5.871 -62.654 200.599  1.00  0.00    -0.000 C 
BRANCH  17  18
ATOM     18  C   UNL     1       5.025 -63.375 199.534  1.00  0.00    -0.000 C 
BRANCH  18  19
ATOM     19  C   UNL     1       4.850 -64.874 199.825  1.00  0.00    -0.003 C 
ATOM     20  C   UNL     1       6.106 -65.656 199.451  1.00  0.00     0.004 C 
ENDBRANCH  18  19
ENDBRANCH  17  18
ENDBRANCH  16  17
ENDBRANCH  15  16
ENDBRANCH  14  15
ENDBRANCH  13  14
ENDBRANCH  12  13
ENDBRANCH   1  12
TORSDOF 16
ENDMDL
MODEL 9
REMARK VINA RESULT:    -3.648      8.567     10.666
REMARK INTER + INTRA:          -8.865
REMARK INTER:                  -7.246
REMARK INTRA:                  -1.618
REMARK UNBOUND:                -1.806
REMARK SMILES CCCCCCCCCCCCCCCCCC(=O)[O-]
REMARK SMILES IDX 10 1 11 2 12 3 13 4 14 5 15 6 16 7 17 8 18 9 19 10 20 11
REMARK SMILES IDX 9 12 8 13 7 14 6 15 5 16 4 17 3 18 2 19 1 20
REMARK H PARENT
REMARK Flexibility Score: inf
ROOT
ATOM      1  C   UNL     1       9.556 -58.508 201.624  1.00  0.00     0.000 C 
ENDROOT
BRANCH   1   2
ATOM      2  C   UNL     1      10.912 -58.529 200.889  1.00  0.00     0.000 C 
BRANCH   2   3
ATOM      3  C   UNL     1      10.843 -58.168 199.395  1.00  0.00     0.000 C 
BRANCH   3   4
ATOM      4  C   UNL     1      11.709 -56.948 199.037  1.00  0.00     0.000 C 
BRANCH   4   5
ATOM      5  C   UNL     1      10.871 -55.685 198.786  1.00  0.00     0.000 C 
BRANCH   5   6
ATOM      6  C   UNL     1      11.348 -54.894 197.557  1.00  0.00     0.000 C 
BRANCH   6   7
ATOM      7  C   UNL     1      12.380 -55.696 196.755  1.00  0.00     0.006 C 
BRANCH   7   8
ATOM      8  C   UNL     1      11.798 -56.154 195.414  1.00  0.00     0.053 C 
BRANCH   8   9
ATOM      9  C   UNL     1      12.831 -56.058 194.335  1.00  0.00     0.041 C 
ATOM     10  O   UNL     1      14.042 -56.287 194.593  1.00  0.00    -0.550 OA
ATOM     11  O   UNL     1      12.446 -55.768 193.031  1.00  0.00    -0.550 OA
ENDBRANCH   8   9
ENDBRANCH   7   8
ENDBRANCH   6   7
ENDBRANCH   5   6
ENDBRANCH   4   5
ENDBRANCH   3   4
ENDBRANCH   2   3
ENDBRANCH   1   2
BRANCH   1  12
ATOM     12  C   UNL     1       8.808 -57.160 201.585  1.00  0.00     0.000 C 
BRANCH  12  13
ATOM     13  C   UNL     1       7.615 -57.103 200.613  1.00  0.00    -0.000 C 
BRANCH  13  14
ATOM     14  C   UNL     1       7.058 -58.496 200.270  1.00  0.00    -0.000 C 
BRANCH  14  15
ATOM     15  C   UNL     1       7.120 -58.801 198.763  1.00  0.00    -0.000 C 
BRANCH  15  16
ATOM     16  C   UNL     1       6.231 -59.993 198.366  1.00  0.00    -0.000 C 
BRANCH  16  17
ATOM     17  C   UNL     1       5.115 -60.275 199.390  1.00  0.00    -0.000 C 
BRANCH  17  18
ATOM     18  C   UNL     1       4.708 -61.754 199.521  1.00  0.00    -0.000 C 
BRANCH  18  19
ATOM     19  C   UNL     1       5.782 -62.610 200.213  1.00  0.00    -0.003 C 
ATOM     20  C   UNL     1       6.187 -62.005 201.554  1.00  0.00     0.004 C 
ENDBRANCH  18  19
ENDBRANCH  17  18
ENDBRANCH  16  17
ENDBRANCH  15  16
ENDBRANCH  14  15
ENDBRANCH  13  14
ENDBRANCH  12  13
ENDBRANCH   1  12
TORSDOF 16
ENDMDL
