MODEL 1
REMARK VINA RESULT:    -4.305      0.000      0.000
REMARK INTER + INTRA:          -5.497
REMARK INTER:                  -5.186
REMARK INTRA:                  -0.311
REMARK UNBOUND:                -0.311
REMARK SMILES Oc1cc(O)c2cc(O)c(-c3ccc(O)c(O)c3)[o+]c2c1
REMARK SMILES IDX 10 1 19 2 20 3 21 4 2 5 3 6 4 7 6 8 7 9 8 10 11 11 12 12
REMARK SMILES IDX 13 13 14 14 18 15 16 16 15 17 17 19 9 21 1 23 5 25
REMARK H PARENT 15 18 17 20 9 22 1 24 5 26
REMARK Flexibility Score: inf
ROOT
ATOM      1  C   UNL     1     156.405 158.301 144.673  1.00  0.00     0.402 A 
ATOM      2  O   UNL     1     155.743 158.269 145.827  1.00  0.00    -0.202 OA
ATOM      3  C   UNL     1     156.341 158.248 147.012  1.00  0.00     0.368 A 
ATOM      4  C   UNL     1     155.559 158.218 148.169  1.00  0.00     0.162 A 
ATOM      5  C   UNL     1     156.159 158.198 149.428  1.00  0.00     0.128 A 
ATOM      6  C   UNL     1     157.555 158.209 149.534  1.00  0.00     0.093 A 
ATOM      7  C   UNL     1     158.362 158.239 148.390  1.00  0.00     0.136 A 
ATOM      8  C   UNL     1     157.755 158.256 147.108  1.00  0.00     0.125 A 
ATOM      9  C   UNL     1     158.484 158.273 145.908  1.00  0.00     0.078 A 
ATOM     10  C   UNL     1     157.813 158.285 144.680  1.00  0.00     0.223 A 
ENDROOT
BRANCH   1  11
ATOM     11  C   UNL     1     155.624 158.333 143.417  1.00  0.00     0.087 A 
ATOM     12  C   UNL     1     155.018 159.516 142.960  1.00  0.00     0.022 A 
ATOM     13  C   UNL     1     154.265 159.515 141.783  1.00  0.00     0.051 A 
ATOM     14  C   UNL     1     154.096 158.333 141.051  1.00  0.00     0.157 A 
ATOM     15  C   UNL     1     155.434 157.145 142.691  1.00  0.00     0.068 A 
ATOM     16  C   UNL     1     154.682 157.141 141.510  1.00  0.00     0.158 A 
BRANCH  14  17
ATOM     17  O   UNL     1     153.347 158.336 139.876  1.00  0.00    -0.504 OA
ATOM     18  H   UNL     1     153.766 158.127 138.978  1.00  0.00     0.293 HD
ENDBRANCH  14  17
BRANCH  16  19
ATOM     19  O   UNL     1     154.528 155.945 140.809  1.00  0.00    -0.504 OA
ATOM     20  H   UNL     1     154.792 155.856 139.835  1.00  0.00     0.293 HD
ENDBRANCH  16  19
ENDBRANCH   1  11
BRANCH  10  21
ATOM     21  O   UNL     1     158.536 158.251 143.489  1.00  0.00    -0.500 OA
ATOM     22  H   UNL     1     158.085 158.364 142.588  1.00  0.00     0.294 HD
ENDBRANCH  10  21
BRANCH   5  23
ATOM     23  O   UNL     1     155.361 158.168 150.569  1.00  0.00    -0.507 OA
ATOM     24  H   UNL     1     155.278 157.331 151.135  1.00  0.00     0.293 HD
ENDBRANCH   5  23
BRANCH   7  25
ATOM     25  O   UNL     1     159.747 158.251 148.579  1.00  0.00    -0.507 OA
ATOM     26  H   UNL     1     160.327 159.073 148.500  1.00  0.00     0.293 HD
ENDBRANCH   7  25
TORSDOF 6
ENDMDL
MODEL 2
REMARK VINA RESULT:    -4.098      3.554      7.158
REMARK INTER + INTRA:          -5.247
REMARK INTER:                  -4.912
REMARK INTRA:                  -0.335
REMARK UNBOUND:                -0.311
REMARK SMILES Oc1cc(O)c2cc(O)c(-c3ccc(O)c(O)c3)[o+]c2c1
REMARK SMILES IDX 10 1 19 2 20 3 21 4 2 5 3 6 4 7 6 8 7 9 8 10 11 11 12 12
REMARK SMILES IDX 13 13 14 14 18 15 16 16 15 17 17 19 9 21 1 23 5 25
REMARK H PARENT 15 18 17 20 9 22 1 24 5 26
REMARK Flexibility Score: inf
ROOT
ATOM      1  C   UNL     1     158.390 156.500 145.403  1.00  0.00     0.402 A 
ATOM      2  O   UNL     1     158.654 155.196 145.364  1.00  0.00    -0.202 OA
ATOM      3  C   UNL     1     159.059 154.565 144.268  1.00  0.00     0.368 A 
ATOM      4  C   UNL     1     159.314 153.193 144.327  1.00  0.00     0.162 A 
ATOM      5  C   UNL     1     159.743 152.505 143.193  1.00  0.00     0.128 A 
ATOM      6  C   UNL     1     159.921 153.192 141.986  1.00  0.00     0.093 A 
ATOM      7  C   UNL     1     159.672 154.568 141.900  1.00  0.00     0.136 A 
ATOM      8  C   UNL     1     159.233 155.270 143.052  1.00  0.00     0.125 A 
ATOM      9  C   UNL     1     158.947 156.646 143.055  1.00  0.00     0.078 A 
ATOM     10  C   UNL     1     158.513 157.268 144.230  1.00  0.00     0.223 A 
ENDROOT
BRANCH   1  11
ATOM     11  C   UNL     1     157.956 157.089 146.689  1.00  0.00     0.087 A 
ATOM     12  C   UNL     1     156.611 157.046 147.098  1.00  0.00     0.022 A 
ATOM     13  C   UNL     1     156.221 157.631 148.306  1.00  0.00     0.051 A 
ATOM     14  C   UNL     1     157.164 158.277 149.117  1.00  0.00     0.157 A 
ATOM     15  C   UNL     1     158.892 157.756 147.496  1.00  0.00     0.068 A 
ATOM     16  C   UNL     1     158.506 158.341 148.707  1.00  0.00     0.158 A 
BRANCH  14  17
ATOM     17  O   UNL     1     156.771 158.856 150.322  1.00  0.00    -0.504 OA
ATOM     18  H   UNL     1     155.950 158.538 150.822  1.00  0.00     0.293 HD
ENDBRANCH  14  17
BRANCH  16  19
ATOM     19  O   UNL     1     159.468 158.982 149.487  1.00  0.00    -0.504 OA
ATOM     20  H   UNL     1     160.459 158.816 149.361  1.00  0.00     0.293 HD
ENDBRANCH  16  19
ENDBRANCH   1  11
BRANCH  10  21
ATOM     21  O   UNL     1     158.182 158.622 144.222  1.00  0.00    -0.500 OA
ATOM     22  H   UNL     1     158.463 159.236 143.465  1.00  0.00     0.294 HD
ENDBRANCH  10  21
BRANCH   5  23
ATOM     23  O   UNL     1     159.992 151.136 143.272  1.00  0.00    -0.507 OA
ATOM     24  H   UNL     1     160.802 150.772 143.761  1.00  0.00     0.293 HD
ENDBRANCH   5  23
BRANCH   7  25
ATOM     25  O   UNL     1     159.876 155.182 140.662  1.00  0.00    -0.507 OA
ATOM     26  H   UNL     1     160.168 156.141 140.541  1.00  0.00     0.293 HD
ENDBRANCH   7  25
TORSDOF 6
ENDMDL
MODEL 3
REMARK VINA RESULT:    -4.023      3.398      4.133
REMARK INTER + INTRA:          -5.157
REMARK INTER:                  -4.813
REMARK INTRA:                  -0.344
REMARK UNBOUND:                -0.311
REMARK SMILES Oc1cc(O)c2cc(O)c(-c3ccc(O)c(O)c3)[o+]c2c1
REMARK SMILES IDX 10 1 19 2 20 3 21 4 2 5 3 6 4 7 6 8 7 9 8 10 11 11 12 12
REMARK SMILES IDX 13 13 14 14 18 15 16 16 15 17 17 19 9 21 1 23 5 25
REMARK H PARENT 15 18 17 20 9 22 1 24 5 26
REMARK Flexibility Score: inf
ROOT
ATOM      1  C   UNL     1     157.923 157.458 146.765  1.00  0.00     0.402 A 
ATOM      2  O   UNL     1     156.643 157.786 146.925  1.00  0.00    -0.202 OA
ATOM      3  C   UNL     1     156.128 158.170 148.087  1.00  0.00     0.368 A 
ATOM      4  C   UNL     1     154.771 158.497 148.155  1.00  0.00     0.162 A 
ATOM      5  C   UNL     1     154.202 158.906 149.361  1.00  0.00     0.128 A 
ATOM      6  C   UNL     1     154.995 158.992 150.512  1.00  0.00     0.093 A 
ATOM      7  C   UNL     1     156.358 158.669 150.470  1.00  0.00     0.136 A 
ATOM      8  C   UNL     1     156.939 158.250 149.246  1.00  0.00     0.125 A 
ATOM      9  C   UNL     1     158.291 157.895 149.114  1.00  0.00     0.078 A 
ATOM     10  C   UNL     1     158.791 157.486 147.873  1.00  0.00     0.223 A 
ENDROOT
BRANCH   1  11
ATOM     11  C   UNL     1     158.380 157.056 145.416  1.00  0.00     0.087 A 
ATOM     12  C   UNL     1     158.278 155.725 144.974  1.00  0.00     0.022 A 
ATOM     13  C   UNL     1     158.739 155.365 143.705  1.00  0.00     0.051 A 
ATOM     14  C   UNL     1     159.319 156.324 142.864  1.00  0.00     0.157 A 
ATOM     15  C   UNL     1     158.981 158.009 144.577  1.00  0.00     0.068 A 
ATOM     16  C   UNL     1     159.443 157.652 143.305  1.00  0.00     0.158 A 
BRANCH  14  17
ATOM     17  O   UNL     1     159.775 155.961 141.598  1.00  0.00    -0.504 OA
ATOM     18  H   UNL     1     159.213 155.396 140.973  1.00  0.00     0.293 HD
ENDBRANCH  14  17
BRANCH  16  19
ATOM     19  O   UNL     1     160.021 158.629 142.495  1.00  0.00    -0.504 OA
ATOM     20  H   UNL     1     161.019 158.664 142.325  1.00  0.00     0.293 HD
ENDBRANCH  16  19
ENDBRANCH   1  11
BRANCH  10  21
ATOM     21  O   UNL     1     160.121 157.087 147.753  1.00  0.00    -0.500 OA
ATOM     22  H   UNL     1     160.390 156.295 147.181  1.00  0.00     0.294 HD
ENDBRANCH  10  21
BRANCH   5  23
ATOM     23  O   UNL     1     152.848 159.227 149.408  1.00  0.00    -0.507 OA
ATOM     24  H   UNL     1     152.477 159.858 150.109  1.00  0.00     0.293 HD
ENDBRANCH   5  23
BRANCH   7  25
ATOM     25  O   UNL     1     157.082 158.783 151.660  1.00  0.00    -0.507 OA
ATOM     26  H   UNL     1     156.669 158.787 152.582  1.00  0.00     0.293 HD
ENDBRANCH   7  25
TORSDOF 6
ENDMDL
MODEL 4
REMARK VINA RESULT:    -3.955      2.986      4.149
REMARK INTER + INTRA:          -5.075
REMARK INTER:                  -4.742
REMARK INTRA:                  -0.333
REMARK UNBOUND:                -0.311
REMARK SMILES Oc1cc(O)c2cc(O)c(-c3ccc(O)c(O)c3)[o+]c2c1
REMARK SMILES IDX 10 1 19 2 20 3 21 4 2 5 3 6 4 7 6 8 7 9 8 10 11 11 12 12
REMARK SMILES IDX 13 13 14 14 18 15 16 16 15 17 17 19 9 21 1 23 5 25
REMARK H PARENT 15 18 17 20 9 22 1 24 5 26
REMARK Flexibility Score: inf
ROOT
ATOM      1  C   UNL     1     157.127 157.553 146.296  1.00  0.00     0.402 A 
ATOM      2  O   UNL     1     157.851 157.601 147.412  1.00  0.00    -0.202 OA
ATOM      3  C   UNL     1     157.351 157.951 148.591  1.00  0.00     0.368 A 
ATOM      4  C   UNL     1     158.191 157.968 149.708  1.00  0.00     0.162 A 
ATOM      5  C   UNL     1     157.694 158.329 150.960  1.00  0.00     0.128 A 
ATOM      6  C   UNL     1     156.345 158.676 151.101  1.00  0.00     0.093 A 
ATOM      7  C   UNL     1     155.482 158.667 149.997  1.00  0.00     0.136 A 
ATOM      8  C   UNL     1     155.985 158.303 148.722  1.00  0.00     0.125 A 
ATOM      9  C   UNL     1     155.198 158.279 147.559  1.00  0.00     0.078 A 
ATOM     10  C   UNL     1     155.766 157.914 146.335  1.00  0.00     0.223 A 
ENDROOT
BRANCH   1  11
ATOM     11  C   UNL     1     157.796 157.137 145.043  1.00  0.00     0.087 A 
ATOM     12  C   UNL     1     157.650 155.836 144.531  1.00  0.00     0.022 A 
ATOM     13  C   UNL     1     158.312 155.459 143.359  1.00  0.00     0.051 A 
ATOM     14  C   UNL     1     159.137 156.371 142.689  1.00  0.00     0.157 A 
ATOM     15  C   UNL     1     158.642 158.040 144.378  1.00  0.00     0.068 A 
ATOM     16  C   UNL     1     159.305 157.667 143.204  1.00  0.00     0.158 A 
BRANCH  14  17
ATOM     17  O   UNL     1     159.793 155.992 141.519  1.00  0.00    -0.504 OA
ATOM     18  H   UNL     1     160.794 155.838 141.497  1.00  0.00     0.293 HD
ENDBRANCH  14  17
BRANCH  16  19
ATOM     19  O   UNL     1     160.125 158.597 142.564  1.00  0.00    -0.504 OA
ATOM     20  H   UNL     1     160.417 158.481 141.601  1.00  0.00     0.293 HD
ENDBRANCH  16  19
ENDBRANCH   1  11
BRANCH  10  21
ATOM     21  O   UNL     1     154.997 157.937 145.172  1.00  0.00    -0.500 OA
ATOM     22  H   UNL     1     155.421 157.999 144.254  1.00  0.00     0.294 HD
ENDBRANCH  10  21
BRANCH   5  23
ATOM     23  O   UNL     1     158.548 158.340 152.061  1.00  0.00    -0.507 OA
ATOM     24  H   UNL     1     158.434 157.685 152.826  1.00  0.00     0.293 HD
ENDBRANCH   5  23
BRANCH   7  25
ATOM     25  O   UNL     1     154.150 159.023 150.220  1.00  0.00    -0.507 OA
ATOM     26  H   UNL     1     153.411 158.927 149.538  1.00  0.00     0.293 HD
ENDBRANCH   7  25
TORSDOF 6
ENDMDL
MODEL 5
REMARK VINA RESULT:    -3.942     13.067     14.818
REMARK INTER + INTRA:          -5.059
REMARK INTER:                  -4.707
REMARK INTRA:                  -0.353
REMARK UNBOUND:                -0.311
REMARK SMILES Oc1cc(O)c2cc(O)c(-c3ccc(O)c(O)c3)[o+]c2c1
REMARK SMILES IDX 10 1 19 2 20 3 21 4 2 5 3 6 4 7 6 8 7 9 8 10 11 11 12 12
REMARK SMILES IDX 13 13 14 14 18 15 16 16 15 17 17 19 9 21 1 23 5 25
REMARK H PARENT 15 18 17 20 9 22 1 24 5 26
REMARK Flexibility Score: inf
ROOT
ATOM      1  C   UNL     1     142.131 155.553 143.486  1.00  0.00     0.402 A 
ATOM      2  O   UNL     1     141.564 156.036 144.589  1.00  0.00    -0.202 OA
ATOM      3  C   UNL     1     141.987 157.133 145.207  1.00  0.00     0.368 A 
ATOM      4  C   UNL     1     141.324 157.562 146.359  1.00  0.00     0.162 A 
ATOM      5  C   UNL     1     141.743 158.712 147.028  1.00  0.00     0.128 A 
ATOM      6  C   UNL     1     142.835 159.442 146.541  1.00  0.00     0.093 A 
ATOM      7  C   UNL     1     143.516 159.032 145.389  1.00  0.00     0.136 A 
ATOM      8  C   UNL     1     143.094 157.862 144.708  1.00  0.00     0.125 A 
ATOM      9  C   UNL     1     143.725 157.369 143.553  1.00  0.00     0.078 A 
ATOM     10  C   UNL     1     143.254 156.205 142.939  1.00  0.00     0.223 A 
ENDROOT
BRANCH   1  11
ATOM     11  C   UNL     1     141.561 154.327 142.883  1.00  0.00     0.087 A 
ATOM     12  C   UNL     1     140.621 154.391 141.840  1.00  0.00     0.022 A 
ATOM     13  C   UNL     1     140.080 153.220 141.303  1.00  0.00     0.051 A 
ATOM     14  C   UNL     1     140.459 151.969 141.809  1.00  0.00     0.157 A 
ATOM     15  C   UNL     1     141.922 153.072 143.400  1.00  0.00     0.068 A 
ATOM     16  C   UNL     1     141.383 151.896 142.865  1.00  0.00     0.158 A 
BRANCH  14  17
ATOM     17  O   UNL     1     139.919 150.803 141.270  1.00  0.00    -0.504 OA
ATOM     18  H   UNL     1     138.951 150.752 140.978  1.00  0.00     0.293 HD
ENDBRANCH  14  17
BRANCH  16  19
ATOM     19  O   UNL     1     141.776 150.668 143.395  1.00  0.00    -0.504 OA
ATOM     20  H   UNL     1     142.252 149.969 142.836  1.00  0.00     0.293 HD
ENDBRANCH  16  19
ENDBRANCH   1  11
BRANCH  10  21
ATOM     21  O   UNL     1     143.910 155.688 141.823  1.00  0.00    -0.500 OA
ATOM     22  H   UNL     1     144.630 154.980 141.908  1.00  0.00     0.294 HD
ENDBRANCH  10  21
BRANCH   5  23
ATOM     23  O   UNL     1     141.069 159.124 148.175  1.00  0.00    -0.507 OA
ATOM     24  H   UNL     1     140.070 158.990 148.280  1.00  0.00     0.293 HD
ENDBRANCH   5  23
BRANCH   7  25
ATOM     25  O   UNL     1     144.593 159.816 144.965  1.00  0.00    -0.507 OA
ATOM     26  H   UNL     1     145.343 159.486 144.375  1.00  0.00     0.293 HD
ENDBRANCH   7  25
TORSDOF 6
ENDMDL
MODEL 6
REMARK VINA RESULT:    -3.857      7.944     11.773
REMARK INTER + INTRA:          -4.956
REMARK INTER:                  -4.612
REMARK INTRA:                  -0.344
REMARK UNBOUND:                -0.311
REMARK SMILES Oc1cc(O)c2cc(O)c(-c3ccc(O)c(O)c3)[o+]c2c1
REMARK SMILES IDX 10 1 19 2 20 3 21 4 2 5 3 6 4 7 6 8 7 9 8 10 11 11 12 12
REMARK SMILES IDX 13 13 14 14 18 15 16 16 15 17 17 19 9 21 1 23 5 25
REMARK H PARENT 15 18 17 20 9 22 1 24 5 26
REMARK Flexibility Score: inf
ROOT
ATOM      1  C   UNL     1     157.481 156.285 155.860  1.00  0.00     0.402 A 
ATOM      2  O   UNL     1     158.422 155.557 156.456  1.00  0.00    -0.202 OA
ATOM      3  C   UNL     1     158.208 154.848 157.559  1.00  0.00     0.368 A 
ATOM      4  C   UNL     1     159.259 154.112 158.109  1.00  0.00     0.162 A 
ATOM      5  C   UNL     1     159.063 153.356 159.265  1.00  0.00     0.128 A 
ATOM      6  C   UNL     1     157.805 153.334 159.878  1.00  0.00     0.093 A 
ATOM      7  C   UNL     1     156.734 154.064 159.346  1.00  0.00     0.136 A 
ATOM      8  C   UNL     1     156.931 154.835 158.172  1.00  0.00     0.125 A 
ATOM      9  C   UNL     1     155.920 155.608 157.577  1.00  0.00     0.078 A 
ATOM     10  C   UNL     1     156.191 156.347 156.421  1.00  0.00     0.223 A 
ENDROOT
BRANCH   1  11
ATOM     11  C   UNL     1     157.841 157.024 154.629  1.00  0.00     0.087 A 
ATOM     12  C   UNL     1     158.264 158.364 154.675  1.00  0.00     0.022 A 
ATOM     13  C   UNL     1     158.575 159.047 153.496  1.00  0.00     0.051 A 
ATOM     14  C   UNL     1     158.457 158.407 152.255  1.00  0.00     0.157 A 
ATOM     15  C   UNL     1     157.705 156.394 153.381  1.00  0.00     0.068 A 
ATOM     16  C   UNL     1     158.017 157.074 152.198  1.00  0.00     0.158 A 
BRANCH  14  17
ATOM     17  O   UNL     1     158.771 159.091 151.082  1.00  0.00    -0.504 OA
ATOM     18  H   UNL     1     158.163 159.064 150.273  1.00  0.00     0.293 HD
ENDBRANCH  14  17
BRANCH  16  19
ATOM     19  O   UNL     1     157.882 156.411 150.979  1.00  0.00    -0.504 OA
ATOM     20  H   UNL     1     158.624 155.838 150.595  1.00  0.00     0.293 HD
ENDBRANCH  16  19
ENDBRANCH   1  11
BRANCH  10  21
ATOM     21  O   UNL     1     155.202 157.153 155.859  1.00  0.00    -0.500 OA
ATOM     22  H   UNL     1     154.228 157.064 156.123  1.00  0.00     0.294 HD
ENDBRANCH  10  21
BRANCH   5  23
ATOM     23  O   UNL     1     160.125 152.629 159.799  1.00  0.00    -0.507 OA
ATOM     24  H   UNL     1     159.991 151.700 160.182  1.00  0.00     0.293 HD
ENDBRANCH   5  23
BRANCH   7  25
ATOM     25  O   UNL     1     155.509 153.988 160.014  1.00  0.00    -0.507 OA
ATOM     26  H   UNL     1     154.663 154.446 159.710  1.00  0.00     0.293 HD
ENDBRANCH   7  25
TORSDOF 6
ENDMDL
MODEL 7
REMARK VINA RESULT:    -3.830      8.480     12.769
REMARK INTER + INTRA:          -4.925
REMARK INTER:                  -4.582
REMARK INTRA:                  -0.343
REMARK UNBOUND:                -0.311
REMARK SMILES Oc1cc(O)c2cc(O)c(-c3ccc(O)c(O)c3)[o+]c2c1
REMARK SMILES IDX 10 1 19 2 20 3 21 4 2 5 3 6 4 7 6 8 7 9 8 10 11 11 12 12
REMARK SMILES IDX 13 13 14 14 18 15 16 16 15 17 17 19 9 21 1 23 5 25
REMARK H PARENT 15 18 17 20 9 22 1 24 5 26
REMARK Flexibility Score: inf
ROOT
ATOM      1  C   UNL     1     157.787 155.752 156.265  1.00  0.00     0.402 A 
ATOM      2  O   UNL     1     158.423 156.143 155.164  1.00  0.00    -0.202 OA
ATOM      3  C   UNL     1     158.106 157.242 154.488  1.00  0.00     0.368 A 
ATOM      4  C   UNL     1     158.836 157.571 153.344  1.00  0.00     0.162 A 
ATOM      5  C   UNL     1     158.529 158.721 152.616  1.00  0.00     0.128 A 
ATOM      6  C   UNL     1     157.483 159.552 153.035  1.00  0.00     0.093 A 
ATOM      7  C   UNL     1     156.736 159.244 154.180  1.00  0.00     0.136 A 
ATOM      8  C   UNL     1     157.044 158.074 154.920  1.00  0.00     0.125 A 
ATOM      9  C   UNL     1     156.342 157.681 156.071  1.00  0.00     0.078 A 
ATOM     10  C   UNL     1     156.702 156.510 156.746  1.00  0.00     0.223 A 
ENDROOT
BRANCH   1  11
ATOM     11  C   UNL     1     158.240 154.513 156.934  1.00  0.00     0.087 A 
ATOM     12  C   UNL     1     159.296 154.525 157.863  1.00  0.00     0.022 A 
ATOM     13  C   UNL     1     159.722 153.337 158.464  1.00  0.00     0.051 A 
ATOM     14  C   UNL     1     159.109 152.120 158.138  1.00  0.00     0.157 A 
ATOM     15  C   UNL     1     157.644 153.287 156.597  1.00  0.00     0.068 A 
ATOM     16  C   UNL     1     158.066 152.096 157.197  1.00  0.00     0.158 A 
BRANCH  14  17
ATOM     17  O   UNL     1     159.535 150.938 158.742  1.00  0.00    -0.504 OA
ATOM     18  H   UNL     1     159.065 150.057 158.574  1.00  0.00     0.293 HD
ENDBRANCH  14  17
BRANCH  16  19
ATOM     19  O   UNL     1     157.440 150.900 156.846  1.00  0.00    -0.504 OA
ATOM     20  H   UNL     1     157.823 150.279 156.144  1.00  0.00     0.293 HD
ENDBRANCH  16  19
ENDBRANCH   1  11
BRANCH  10  21
ATOM     21  O   UNL     1     155.973 156.093 157.859  1.00  0.00    -0.500 OA
ATOM     22  H   UNL     1     155.679 155.130 157.973  1.00  0.00     0.294 HD
ENDBRANCH  10  21
BRANCH   5  23
ATOM     23  O   UNL     1     159.268 159.031 151.477  1.00  0.00    -0.507 OA
ATOM     24  H   UNL     1     158.827 159.124 150.569  1.00  0.00     0.293 HD
ENDBRANCH   5  23
BRANCH   7  25
ATOM     25  O   UNL     1     155.710 160.125 154.534  1.00  0.00    -0.507 OA
ATOM     26  H   UNL     1     155.410 160.300 155.482  1.00  0.00     0.293 HD
ENDBRANCH   7  25
TORSDOF 6
ENDMDL
MODEL 8
REMARK VINA RESULT:    -3.442      1.393      7.046
REMARK INTER + INTRA:          -4.456
REMARK INTER:                  -4.239
REMARK INTRA:                  -0.218
REMARK UNBOUND:                -0.311
REMARK SMILES Oc1cc(O)c2cc(O)c(-c3ccc(O)c(O)c3)[o+]c2c1
REMARK SMILES IDX 10 1 19 2 20 3 21 4 2 5 3 6 4 7 6 8 7 9 8 10 11 11 12 12
REMARK SMILES IDX 13 13 14 14 18 15 16 16 15 17 17 19 9 21 1 23 5 25
REMARK H PARENT 15 18 17 20 9 22 1 24 5 26
REMARK Flexibility Score: inf
ROOT
ATOM      1  C   UNL     1     156.624 157.381 144.434  1.00  0.00     0.402 A 
ATOM      2  O   UNL     1     155.943 158.343 143.817  1.00  0.00    -0.202 OA
ATOM      3  C   UNL     1     155.247 158.145 142.703  1.00  0.00     0.368 A 
ATOM      4  C   UNL     1     154.562 159.219 142.130  1.00  0.00     0.162 A 
ATOM      5  C   UNL     1     153.821 159.041 140.962  1.00  0.00     0.128 A 
ATOM      6  C   UNL     1     153.761 157.779 140.359  1.00  0.00     0.093 A 
ATOM      7  C   UNL     1     154.440 156.686 140.914  1.00  0.00     0.136 A 
ATOM      8  C   UNL     1     155.197 156.864 142.100  1.00  0.00     0.125 A 
ATOM      9  C   UNL     1     155.919 155.830 142.719  1.00  0.00     0.078 A 
ATOM     10  C   UNL     1     156.647 156.084 143.886  1.00  0.00     0.223 A 
ENDROOT
BRANCH   1  11
ATOM     11  C   UNL     1     157.353 157.723 145.676  1.00  0.00     0.087 A 
ATOM     12  C   UNL     1     158.758 157.704 145.731  1.00  0.00     0.022 A 
ATOM     13  C   UNL     1     159.423 158.009 146.921  1.00  0.00     0.051 A 
ATOM     14  C   UNL     1     158.696 158.324 148.077  1.00  0.00     0.157 A 
ATOM     15  C   UNL     1     156.629 158.020 146.842  1.00  0.00     0.068 A 
ATOM     16  C   UNL     1     157.292 158.327 148.037  1.00  0.00     0.158 A 
BRANCH  14  17
ATOM     17  O   UNL     1     159.363 158.630 149.262  1.00  0.00    -0.504 OA
ATOM     18  H   UNL     1     158.907 159.136 150.012  1.00  0.00     0.293 HD
ENDBRANCH  14  17
BRANCH  16  19
ATOM     19  O   UNL     1     156.538 158.631 149.171  1.00  0.00    -0.504 OA
ATOM     20  H   UNL     1     155.602 159.013 149.107  1.00  0.00     0.293 HD
ENDBRANCH  16  19
ENDBRANCH   1  11
BRANCH  10  21
ATOM     21  O   UNL     1     157.403 155.070 144.472  1.00  0.00    -0.500 OA
ATOM     22  H   UNL     1     157.456 154.958 145.478  1.00  0.00     0.294 HD
ENDBRANCH  10  21
BRANCH   5  23
ATOM     23  O   UNL     1     153.145 160.125 140.405  1.00  0.00    -0.507 OA
ATOM     24  H   UNL     1     152.232 160.410 140.742  1.00  0.00     0.293 HD
ENDBRANCH   5  23
BRANCH   7  25
ATOM     25  O   UNL     1     154.329 155.459 140.255  1.00  0.00    -0.507 OA
ATOM     26  H   UNL     1     153.892 155.331 139.354  1.00  0.00     0.293 HD
ENDBRANCH   7  25
TORSDOF 6
ENDMDL
MODEL 9
REMARK VINA RESULT:    -3.065     21.546     22.585
REMARK INTER + INTRA:          -4.002
REMARK INTER:                  -3.747
REMARK INTRA:                  -0.255
REMARK UNBOUND:                -0.311
REMARK SMILES Oc1cc(O)c2cc(O)c(-c3ccc(O)c(O)c3)[o+]c2c1
REMARK SMILES IDX 10 1 19 2 20 3 21 4 2 5 3 6 4 7 6 8 7 9 8 10 11 11 12 12
REMARK SMILES IDX 13 13 14 14 18 15 16 16 15 17 17 19 9 21 1 23 5 25
REMARK H PARENT 15 18 17 20 9 22 1 24 5 26
REMARK Flexibility Score: inf
ROOT
ATOM      1  C   UNL     1     141.970 143.777 154.676  1.00  0.00     0.402 A 
ATOM      2  O   UNL     1     141.639 145.042 154.428  1.00  0.00    -0.202 OA
ATOM      3  C   UNL     1     141.074 145.839 155.328  1.00  0.00     0.368 A 
ATOM      4  C   UNL     1     140.767 147.155 154.973  1.00  0.00     0.162 A 
ATOM      5  C   UNL     1     140.176 148.016 155.898  1.00  0.00     0.128 A 
ATOM      6  C   UNL     1     139.890 147.560 157.191  1.00  0.00     0.093 A 
ATOM      7  C   UNL     1     140.188 146.246 157.571  1.00  0.00     0.136 A 
ATOM      8  C   UNL     1     140.787 145.367 156.632  1.00  0.00     0.125 A 
ATOM      9  C   UNL     1     141.109 144.030 156.921  1.00  0.00     0.078 A 
ATOM     10  C   UNL     1     141.693 143.222 155.941  1.00  0.00     0.223 A 
ENDROOT
BRANCH   1  11
ATOM     11  C   UNL     1     142.604 142.993 153.593  1.00  0.00     0.087 A 
ATOM     12  C   UNL     1     143.939 142.563 153.685  1.00  0.00     0.022 A 
ATOM     13  C   UNL     1     144.523 141.844 152.639  1.00  0.00     0.051 A 
ATOM     14  C   UNL     1     143.788 141.554 151.482  1.00  0.00     0.157 A 
ATOM     15  C   UNL     1     141.878 142.718 152.423  1.00  0.00     0.068 A 
ATOM     16  C   UNL     1     142.459 141.997 151.373  1.00  0.00     0.158 A 
BRANCH  14  17
ATOM     17  O   UNL     1     144.373 140.835 150.441  1.00  0.00    -0.504 OA
ATOM     18  H   UNL     1     145.122 140.174 150.608  1.00  0.00     0.293 HD
ENDBRANCH  14  17
BRANCH  16  19
ATOM     19  O   UNL     1     141.701 141.732 150.233  1.00  0.00    -0.504 OA
ATOM     20  H   UNL     1     141.643 142.387 149.462  1.00  0.00     0.293 HD
ENDBRANCH  16  19
ENDBRANCH   1  11
BRANCH  10  21
ATOM     21  O   UNL     1     141.967 141.882 156.211  1.00  0.00    -0.500 OA
ATOM     22  H   UNL     1     141.307 141.147 155.986  1.00  0.00     0.294 HD
ENDBRANCH  10  21
BRANCH   5  23
ATOM     23  O   UNL     1     139.876 149.324 155.525  1.00  0.00    -0.507 OA
ATOM     24  H   UNL     1     140.605 149.991 155.301  1.00  0.00     0.293 HD
ENDBRANCH   5  23
BRANCH   7  25
ATOM     25  O   UNL     1     139.875 145.868 158.880  1.00  0.00    -0.507 OA
ATOM     26  H   UNL     1     140.207 146.343 159.706  1.00  0.00     0.293 HD
ENDBRANCH   7  25
TORSDOF 6
ENDMDL
