MODEL 1
REMARK VINA RESULT:    -3.759      0.000      0.000
REMARK INTER + INTRA:         -11.371
REMARK INTER:                  -8.154
REMARK INTRA:                  -3.217
REMARK UNBOUND:                -3.217
REMARK SMILES CCCCCCCCCCCCCCCCCCCCCC(=O)[O-]
REMARK SMILES IDX 12 1 11 2 10 3 9 4 8 5 7 6 6 7 5 8 4 9 3 10 2 11 1 12 13 13
REMARK SMILES IDX 14 14 15 15 16 16 17 17 18 18 19 19 20 20 21 21 22 22 23 23
REMARK SMILES IDX 24 24
REMARK H PARENT
REMARK Flexibility Score: inf
ROOT
ATOM      1  C   UNL     1     130.385 142.870 120.771  1.00  0.00     0.000 C 
ENDROOT
BRANCH   1   2
ATOM      2  C   UNL     1     130.385 143.766 122.025  1.00  0.00     0.000 C 
BRANCH   2   3
ATOM      3  C   UNL     1     131.776 144.175 122.546  1.00  0.00     0.000 C 
BRANCH   3   4
ATOM      4  C   UNL     1     132.012 145.695 122.504  1.00  0.00    -0.000 C 
BRANCH   4   5
ATOM      5  C   UNL     1     131.019 146.425 121.580  1.00  0.00    -0.000 C 
BRANCH   5   6
ATOM      6  C   UNL     1     131.551 146.744 120.170  1.00  0.00    -0.000 C 
BRANCH   6   7
ATOM      7  C   UNL     1     132.756 145.898 119.724  1.00  0.00    -0.000 C 
BRANCH   7   8
ATOM      8  C   UNL     1     133.925 146.753 119.202  1.00  0.00    -0.000 C 
BRANCH   8   9
ATOM      9  C   UNL     1     135.158 145.898 118.840  1.00  0.00    -0.000 C 
BRANCH   9  10
ATOM     10  C   UNL     1     136.276 145.955 119.896  1.00  0.00    -0.000 C 
BRANCH  10  11
ATOM     11  C   UNL     1     135.833 146.624 121.204  1.00  0.00    -0.003 C 
ATOM     12  C   UNL     1     135.733 145.606 122.335  1.00  0.00     0.004 C 
ENDBRANCH  10  11
ENDBRANCH   9  10
ENDBRANCH   8   9
ENDBRANCH   7   8
ENDBRANCH   6   7
ENDBRANCH   5   6
ENDBRANCH   4   5
ENDBRANCH   3   4
ENDBRANCH   2   3
ENDBRANCH   1   2
BRANCH   1  13
ATOM     13  C   UNL     1     129.814 143.512 119.491  1.00  0.00     0.000 C 
BRANCH  13  14
ATOM     14  C   UNL     1     128.281 143.403 119.359  1.00  0.00     0.000 C 
BRANCH  14  15
ATOM     15  C   UNL     1     127.626 144.703 118.856  1.00  0.00     0.000 C 
BRANCH  15  16
ATOM     16  C   UNL     1     127.990 145.930 119.719  1.00  0.00     0.000 C 
BRANCH  16  17
ATOM     17  C   UNL     1     126.982 146.227 120.848  1.00  0.00     0.000 C 
BRANCH  17  18
ATOM     18  C   UNL     1     127.252 145.508 122.183  1.00  0.00     0.000 C 
BRANCH  18  19
ATOM     19  C   UNL     1     127.178 146.399 123.441  1.00  0.00     0.000 C 
BRANCH  19  20
ATOM     20  C   UNL     1     128.494 146.541 124.229  1.00  0.00     0.006 C 
BRANCH  20  21
ATOM     21  C   UNL     1     128.883 145.290 125.036  1.00  0.00     0.053 C 
BRANCH  21  22
ATOM     22  C   UNL     1     127.722 144.685 125.766  1.00  0.00     0.041 C 
ATOM     23  O   UNL     1     127.228 145.264 126.770  1.00  0.00    -0.550 OA
ATOM     24  O   UNL     1     127.153 143.501 125.308  1.00  0.00    -0.550 OA
ENDBRANCH  21  22
ENDBRANCH  20  21
ENDBRANCH  19  20
ENDBRANCH  18  19
ENDBRANCH  17  18
ENDBRANCH  16  17
ENDBRANCH  15  16
ENDBRANCH  14  15
ENDBRANCH  13  14
ENDBRANCH   1  13
TORSDOF 20
ENDMDL
MODEL 2
REMARK VINA RESULT:    -3.746      3.562      6.812
REMARK INTER + INTRA:         -11.342
REMARK INTER:                  -8.256
REMARK INTRA:                  -3.086
REMARK UNBOUND:                -3.217
REMARK SMILES CCCCCCCCCCCCCCCCCCCCCC(=O)[O-]
REMARK SMILES IDX 12 1 11 2 10 3 9 4 8 5 7 6 6 7 5 8 4 9 3 10 2 11 1 12 13 13
REMARK SMILES IDX 14 14 15 15 16 16 17 17 18 18 19 19 20 20 21 21 22 22 23 23
REMARK SMILES IDX 24 24
REMARK H PARENT
REMARK Flexibility Score: inf
ROOT
ATOM      1  C   UNL     1     129.600 146.299 123.978  1.00  0.00     0.000 C 
ENDROOT
BRANCH   1   2
ATOM      2  C   UNL     1     130.127 144.902 123.594  1.00  0.00     0.000 C 
BRANCH   2   3
ATOM      3  C   UNL     1     130.366 143.938 124.771  1.00  0.00     0.000 C 
BRANCH   3   4
ATOM      4  C   UNL     1     129.111 143.716 125.632  1.00  0.00    -0.000 C 
BRANCH   4   5
ATOM      5  C   UNL     1     127.982 143.003 124.866  1.00  0.00    -0.000 C 
BRANCH   5   6
ATOM      6  C   UNL     1     128.403 141.718 124.127  1.00  0.00    -0.000 C 
BRANCH   6   7
ATOM      7  C   UNL     1     128.308 141.791 122.593  1.00  0.00    -0.000 C 
BRANCH   7   8
ATOM      8  C   UNL     1     127.994 140.429 121.950  1.00  0.00    -0.000 C 
BRANCH   8   9
ATOM      9  C   UNL     1     127.819 140.531 120.420  1.00  0.00    -0.000 C 
BRANCH   9  10
ATOM     10  C   UNL     1     127.157 139.292 119.793  1.00  0.00    -0.000 C 
BRANCH  10  11
ATOM     11  C   UNL     1     128.001 138.020 119.942  1.00  0.00    -0.003 C 
ATOM     12  C   UNL     1     128.756 137.709 118.653  1.00  0.00     0.004 C 
ENDBRANCH  10  11
ENDBRANCH   9  10
ENDBRANCH   8   9
ENDBRANCH   7   8
ENDBRANCH   6   7
ENDBRANCH   5   6
ENDBRANCH   4   5
ENDBRANCH   3   4
ENDBRANCH   2   3
ENDBRANCH   1   2
BRANCH   1  13
ATOM     13  C   UNL     1     128.305 146.743 123.269  1.00  0.00     0.000 C 
BRANCH  13  14
ATOM     14  C   UNL     1     127.594 145.617 122.488  1.00  0.00     0.000 C 
BRANCH  14  15
ATOM     15  C   UNL     1     127.361 145.967 121.007  1.00  0.00     0.000 C 
BRANCH  15  16
ATOM     16  C   UNL     1     127.246 144.716 120.108  1.00  0.00     0.000 C 
BRANCH  16  17
ATOM     17  C   UNL     1     128.417 144.542 119.119  1.00  0.00     0.000 C 
BRANCH  17  18
ATOM     18  C   UNL     1     129.602 143.707 119.637  1.00  0.00     0.000 C 
BRANCH  18  19
ATOM     19  C   UNL     1     130.851 144.514 120.049  1.00  0.00     0.000 C 
BRANCH  19  20
ATOM     20  C   UNL     1     130.784 146.027 119.763  1.00  0.00     0.006 C 
BRANCH  20  21
ATOM     21  C   UNL     1     131.580 146.891 120.758  1.00  0.00     0.053 C 
BRANCH  21  22
ATOM     22  C   UNL     1     133.064 146.743 120.600  1.00  0.00     0.041 C 
ATOM     23  O   UNL     1     133.825 146.858 121.597  1.00  0.00    -0.550 OA
ATOM     24  O   UNL     1     133.602 146.430 119.357  1.00  0.00    -0.550 OA
ENDBRANCH  21  22
ENDBRANCH  20  21
ENDBRANCH  19  20
ENDBRANCH  18  19
ENDBRANCH  17  18
ENDBRANCH  16  17
ENDBRANCH  15  16
ENDBRANCH  14  15
ENDBRANCH  13  14
ENDBRANCH   1  13
TORSDOF 20
ENDMDL
MODEL 3
REMARK VINA RESULT:    -3.730      1.594      2.142
REMARK INTER + INTRA:         -11.308
REMARK INTER:                  -8.164
REMARK INTRA:                  -3.144
REMARK UNBOUND:                -3.217
REMARK SMILES CCCCCCCCCCCCCCCCCCCCCC(=O)[O-]
REMARK SMILES IDX 12 1 11 2 10 3 9 4 8 5 7 6 6 7 5 8 4 9 3 10 2 11 1 12 13 13
REMARK SMILES IDX 14 14 15 15 16 16 17 17 18 18 19 19 20 20 21 21 22 22 23 23
REMARK SMILES IDX 24 24
REMARK H PARENT
REMARK Flexibility Score: inf
ROOT
ATOM      1  C   UNL     1     129.711 141.896 121.085  1.00  0.00     0.000 C 
ENDROOT
BRANCH   1   2
ATOM      2  C   UNL     1     130.882 141.889 120.082  1.00  0.00     0.000 C 
BRANCH   2   3
ATOM      3  C   UNL     1     131.209 143.249 119.435  1.00  0.00     0.000 C 
BRANCH   3   4
ATOM      4  C   UNL     1     131.116 144.423 120.424  1.00  0.00    -0.000 C 
BRANCH   4   5
ATOM      5  C   UNL     1     130.777 145.757 119.733  1.00  0.00    -0.000 C 
BRANCH   5   6
ATOM      6  C   UNL     1     131.836 146.865 119.894  1.00  0.00    -0.000 C 
BRANCH   6   7
ATOM      7  C   UNL     1     133.273 146.362 120.114  1.00  0.00    -0.000 C 
BRANCH   7   8
ATOM      8  C   UNL     1     134.185 146.609 118.899  1.00  0.00    -0.000 C 
BRANCH   8   9
ATOM      9  C   UNL     1     135.224 145.484 118.710  1.00  0.00    -0.000 C 
BRANCH   9  10
ATOM     10  C   UNL     1     134.599 144.124 118.354  1.00  0.00    -0.000 C 
BRANCH  10  11
ATOM     11  C   UNL     1     135.197 142.961 119.156  1.00  0.00    -0.003 C 
ATOM     12  C   UNL     1     134.724 142.993 120.606  1.00  0.00     0.004 C 
ENDBRANCH  10  11
ENDBRANCH   9  10
ENDBRANCH   8   9
ENDBRANCH   7   8
ENDBRANCH   6   7
ENDBRANCH   5   6
ENDBRANCH   4   5
ENDBRANCH   3   4
ENDBRANCH   2   3
ENDBRANCH   1   2
BRANCH   1  13
ATOM     13  C   UNL     1     128.350 141.438 120.526  1.00  0.00     0.000 C 
BRANCH  13  14
ATOM     14  C   UNL     1     127.339 142.583 120.305  1.00  0.00     0.000 C 
BRANCH  14  15
ATOM     15  C   UNL     1     127.576 143.784 121.239  1.00  0.00     0.000 C 
BRANCH  15  16
ATOM     16  C   UNL     1     127.214 145.134 120.582  1.00  0.00     0.000 C 
BRANCH  16  17
ATOM     17  C   UNL     1     127.236 146.332 121.554  1.00  0.00     0.000 C 
BRANCH  17  18
ATOM     18  C   UNL     1     128.482 146.434 122.451  1.00  0.00     0.000 C 
BRANCH  18  19
ATOM     19  C   UNL     1     128.200 146.641 123.955  1.00  0.00     0.000 C 
BRANCH  19  20
ATOM     20  C   UNL     1     129.109 145.847 124.914  1.00  0.00     0.006 C 
BRANCH  20  21
ATOM     21  C   UNL     1     129.171 144.339 124.616  1.00  0.00     0.053 C 
BRANCH  21  22
ATOM     22  C   UNL     1     127.910 143.619 124.989  1.00  0.00     0.041 C 
ATOM     23  O   UNL     1     127.665 142.477 124.519  1.00  0.00    -0.550 OA
ATOM     24  O   UNL     1     127.024 144.194 125.894  1.00  0.00    -0.550 OA
ENDBRANCH  21  22
ENDBRANCH  20  21
ENDBRANCH  19  20
ENDBRANCH  18  19
ENDBRANCH  17  18
ENDBRANCH  16  17
ENDBRANCH  15  16
ENDBRANCH  14  15
ENDBRANCH  13  14
ENDBRANCH   1  13
TORSDOF 20
ENDMDL
MODEL 4
REMARK VINA RESULT:    -3.715      1.869      3.131
REMARK INTER + INTRA:         -11.275
REMARK INTER:                  -7.792
REMARK INTRA:                  -3.483
REMARK UNBOUND:                -3.217
REMARK SMILES CCCCCCCCCCCCCCCCCCCCCC(=O)[O-]
REMARK SMILES IDX 12 1 11 2 10 3 9 4 8 5 7 6 6 7 5 8 4 9 3 10 2 11 1 12 13 13
REMARK SMILES IDX 14 14 15 15 16 16 17 17 18 18 19 19 20 20 21 21 22 22 23 23
REMARK SMILES IDX 24 24
REMARK H PARENT
REMARK Flexibility Score: inf
ROOT
ATOM      1  C   UNL     1     131.915 146.464 120.367  1.00  0.00     0.000 C 
ENDROOT
BRANCH   1   2
ATOM      2  C   UNL     1     131.914 145.971 121.827  1.00  0.00     0.000 C 
BRANCH   2   3
ATOM      3  C   UNL     1     133.267 145.454 122.353  1.00  0.00     0.000 C 
BRANCH   3   4
ATOM      4  C   UNL     1     134.444 146.377 121.996  1.00  0.00    -0.000 C 
BRANCH   4   5
ATOM      5  C   UNL     1     135.751 145.603 121.744  1.00  0.00    -0.000 C 
BRANCH   5   6
ATOM      6  C   UNL     1     136.311 145.714 120.312  1.00  0.00    -0.000 C 
BRANCH   6   7
ATOM      7  C   UNL     1     135.561 146.696 119.396  1.00  0.00    -0.000 C 
BRANCH   7   8
ATOM      8  C   UNL     1     134.799 145.990 118.260  1.00  0.00    -0.000 C 
BRANCH   8   9
ATOM      9  C   UNL     1     134.976 144.457 118.303  1.00  0.00    -0.000 C 
BRANCH   9  10
ATOM     10  C   UNL     1     133.668 143.696 118.583  1.00  0.00    -0.000 C 
BRANCH  10  11
ATOM     11  C   UNL     1     133.732 142.839 119.853  1.00  0.00    -0.003 C 
ATOM     12  C   UNL     1     132.334 142.441 120.318  1.00  0.00     0.004 C 
ENDBRANCH  10  11
ENDBRANCH   9  10
ENDBRANCH   8   9
ENDBRANCH   7   8
ENDBRANCH   6   7
ENDBRANCH   5   6
ENDBRANCH   4   5
ENDBRANCH   3   4
ENDBRANCH   2   3
ENDBRANCH   1   2
BRANCH   1  13
ATOM     13  C   UNL     1     130.544 146.467 119.662  1.00  0.00     0.000 C 
BRANCH  13  14
ATOM     14  C   UNL     1     129.782 145.128 119.755  1.00  0.00     0.000 C 
BRANCH  14  15
ATOM     15  C   UNL     1     128.366 145.198 119.153  1.00  0.00     0.000 C 
BRANCH  15  16
ATOM     16  C   UNL     1     127.256 145.114 120.223  1.00  0.00     0.000 C 
BRANCH  16  17
ATOM     17  C   UNL     1     126.875 146.475 120.843  1.00  0.00     0.000 C 
BRANCH  17  18
ATOM     18  C   UNL     1     126.985 146.558 122.376  1.00  0.00     0.000 C 
BRANCH  18  19
ATOM     19  C   UNL     1     128.418 146.470 122.943  1.00  0.00     0.000 C 
BRANCH  19  20
ATOM     20  C   UNL     1     128.521 146.016 124.412  1.00  0.00     0.006 C 
BRANCH  20  21
ATOM     21  C   UNL     1     129.917 145.511 124.817  1.00  0.00     0.053 C 
BRANCH  21  22
ATOM     22  C   UNL     1     130.674 146.499 125.653  1.00  0.00     0.041 C 
ATOM     23  O   UNL     1     131.653 147.125 125.169  1.00  0.00    -0.550 OA
ATOM     24  O   UNL     1     130.267 146.762 126.957  1.00  0.00    -0.550 OA
ENDBRANCH  21  22
ENDBRANCH  20  21
ENDBRANCH  19  20
ENDBRANCH  18  19
ENDBRANCH  17  18
ENDBRANCH  16  17
ENDBRANCH  15  16
ENDBRANCH  14  15
ENDBRANCH  13  14
ENDBRANCH   1  13
TORSDOF 20
ENDMDL
MODEL 5
REMARK VINA RESULT:    -3.713      1.927      5.800
REMARK INTER + INTRA:         -11.271
REMARK INTER:                  -7.482
REMARK INTRA:                  -3.790
REMARK UNBOUND:                -3.217
REMARK SMILES CCCCCCCCCCCCCCCCCCCCCC(=O)[O-]
REMARK SMILES IDX 12 1 11 2 10 3 9 4 8 5 7 6 6 7 5 8 4 9 3 10 2 11 1 12 13 13
REMARK SMILES IDX 14 14 15 15 16 16 17 17 18 18 19 19 20 20 21 21 22 22 23 23
REMARK SMILES IDX 24 24
REMARK H PARENT
REMARK Flexibility Score: inf
ROOT
ATOM      1  C   UNL     1     134.218 142.700 119.406  1.00  0.00     0.000 C 
ENDROOT
BRANCH   1   2
ATOM      2  C   UNL     1     132.865 143.065 118.764  1.00  0.00     0.000 C 
BRANCH   2   3
ATOM      3  C   UNL     1     131.621 142.758 119.619  1.00  0.00     0.000 C 
BRANCH   3   4
ATOM      4  C   UNL     1     131.143 143.966 120.442  1.00  0.00    -0.000 C 
BRANCH   4   5
ATOM      5  C   UNL     1     131.495 145.312 119.783  1.00  0.00    -0.000 C 
BRANCH   5   6
ATOM      6  C   UNL     1     130.340 146.329 119.713  1.00  0.00    -0.000 C 
BRANCH   6   7
ATOM      7  C   UNL     1     128.945 145.713 119.508  1.00  0.00    -0.000 C 
BRANCH   7   8
ATOM      8  C   UNL     1     127.932 146.161 120.577  1.00  0.00    -0.000 C 
BRANCH   8   9
ATOM      9  C   UNL     1     127.268 144.966 121.290  1.00  0.00    -0.000 C 
BRANCH   9  10
ATOM     10  C   UNL     1     127.459 143.628 120.555  1.00  0.00    -0.000 C 
BRANCH  10  11
ATOM     11  C   UNL     1     127.732 142.454 121.504  1.00  0.00    -0.003 C 
ATOM     12  C   UNL     1     128.400 142.932 122.790  1.00  0.00     0.004 C 
ENDBRANCH  10  11
ENDBRANCH   9  10
ENDBRANCH   8   9
ENDBRANCH   7   8
ENDBRANCH   6   7
ENDBRANCH   5   6
ENDBRANCH   4   5
ENDBRANCH   3   4
ENDBRANCH   2   3
ENDBRANCH   1   2
BRANCH   1  13
ATOM     13  C   UNL     1     135.390 143.646 119.078  1.00  0.00     0.000 C 
BRANCH  13  14
ATOM     14  C   UNL     1     134.999 144.862 118.213  1.00  0.00     0.000 C 
BRANCH  14  15
ATOM     15  C   UNL     1     134.980 146.183 119.003  1.00  0.00     0.000 C 
BRANCH  15  16
ATOM     16  C   UNL     1     135.594 146.045 120.414  1.00  0.00     0.000 C 
BRANCH  16  17
ATOM     17  C   UNL     1     134.631 146.422 121.558  1.00  0.00     0.000 C 
BRANCH  17  18
ATOM     18  C   UNL     1     134.010 145.236 122.318  1.00  0.00     0.000 C 
BRANCH  18  19
ATOM     19  C   UNL     1     133.292 145.598 123.636  1.00  0.00     0.000 C 
BRANCH  19  20
ATOM     20  C   UNL     1     132.167 146.644 123.511  1.00  0.00     0.006 C 
BRANCH  20  21
ATOM     21  C   UNL     1     130.760 146.038 123.359  1.00  0.00     0.053 C 
BRANCH  21  22
ATOM     22  C   UNL     1     129.825 146.458 124.453  1.00  0.00     0.041 C 
ATOM     23  O   UNL     1     128.578 146.385 124.288  1.00  0.00    -0.550 OA
ATOM     24  O   UNL     1     130.333 146.889 125.674  1.00  0.00    -0.550 OA
ENDBRANCH  21  22
ENDBRANCH  20  21
ENDBRANCH  19  20
ENDBRANCH  18  19
ENDBRANCH  17  18
ENDBRANCH  16  17
ENDBRANCH  15  16
ENDBRANCH  14  15
ENDBRANCH  13  14
ENDBRANCH   1  13
TORSDOF 20
ENDMDL
MODEL 6
REMARK VINA RESULT:    -3.681      2.181      3.428
REMARK INTER + INTRA:         -11.203
REMARK INTER:                  -7.133
REMARK INTRA:                  -4.070
REMARK UNBOUND:                -3.217
REMARK SMILES CCCCCCCCCCCCCCCCCCCCCC(=O)[O-]
REMARK SMILES IDX 12 1 11 2 10 3 9 4 8 5 7 6 6 7 5 8 4 9 3 10 2 11 1 12 13 13
REMARK SMILES IDX 14 14 15 15 16 16 17 17 18 18 19 19 20 20 21 21 22 22 23 23
REMARK SMILES IDX 24 24
REMARK H PARENT
REMARK Flexibility Score: inf
ROOT
ATOM      1  C   UNL     1     127.645 143.410 119.716  1.00  0.00     0.000 C 
ENDROOT
BRANCH   1   2
ATOM      2  C   UNL     1     128.964 143.745 118.993  1.00  0.00     0.000 C 
BRANCH   2   3
ATOM      3  C   UNL     1     130.250 143.338 119.737  1.00  0.00     0.000 C 
BRANCH   3   4
ATOM      4  C   UNL     1     131.251 144.497 119.885  1.00  0.00    -0.000 C 
BRANCH   4   5
ATOM      5  C   UNL     1     130.583 145.879 119.770  1.00  0.00    -0.000 C 
BRANCH   5   6
ATOM      6  C   UNL     1     131.388 147.047 120.371  1.00  0.00    -0.000 C 
BRANCH   6   7
ATOM      7  C   UNL     1     132.827 146.697 120.788  1.00  0.00    -0.000 C 
BRANCH   7   8
ATOM      8  C   UNL     1     133.088 146.929 122.287  1.00  0.00    -0.000 C 
BRANCH   8   9
ATOM      9  C   UNL     1     133.347 145.611 123.045  1.00  0.00    -0.000 C 
BRANCH   9  10
ATOM     10  C   UNL     1     134.571 144.835 122.527  1.00  0.00    -0.000 C 
BRANCH  10  11
ATOM     11  C   UNL     1     134.197 143.523 121.825  1.00  0.00    -0.003 C 
ATOM     12  C   UNL     1     133.204 142.718 122.658  1.00  0.00     0.004 C 
ENDBRANCH  10  11
ENDBRANCH   9  10
ENDBRANCH   8   9
ENDBRANCH   7   8
ENDBRANCH   6   7
ENDBRANCH   5   6
ENDBRANCH   4   5
ENDBRANCH   3   4
ENDBRANCH   2   3
ENDBRANCH   1   2
BRANCH   1  13
ATOM     13  C   UNL     1     127.273 144.336 120.891  1.00  0.00     0.000 C 
BRANCH  13  14
ATOM     14  C   UNL     1     126.925 145.780 120.472  1.00  0.00     0.000 C 
BRANCH  14  15
ATOM     15  C   UNL     1     127.162 146.807 121.594  1.00  0.00     0.000 C 
BRANCH  15  16
ATOM     16  C   UNL     1     127.464 146.146 122.957  1.00  0.00     0.000 C 
BRANCH  16  17
ATOM     17  C   UNL     1     128.613 146.814 123.740  1.00  0.00     0.000 C 
BRANCH  17  18
ATOM     18  C   UNL     1     129.777 145.885 124.130  1.00  0.00     0.000 C 
BRANCH  18  19
ATOM     19  C   UNL     1     129.906 144.598 123.287  1.00  0.00     0.000 C 
BRANCH  19  20
ATOM     20  C   UNL     1     129.732 143.278 124.065  1.00  0.00     0.006 C 
BRANCH  20  21
ATOM     21  C   UNL     1     128.341 142.637 123.912  1.00  0.00     0.053 C 
BRANCH  21  22
ATOM     22  C   UNL     1     128.405 141.214 123.444  1.00  0.00     0.041 C 
ATOM     23  O   UNL     1     127.947 140.893 122.316  1.00  0.00    -0.550 OA
ATOM     24  O   UNL     1     129.013 140.249 124.239  1.00  0.00    -0.550 OA
ENDBRANCH  21  22
ENDBRANCH  20  21
ENDBRANCH  19  20
ENDBRANCH  18  19
ENDBRANCH  17  18
ENDBRANCH  16  17
ENDBRANCH  15  16
ENDBRANCH  14  15
ENDBRANCH  13  14
ENDBRANCH   1  13
TORSDOF 20
ENDMDL
MODEL 7
REMARK VINA RESULT:    -3.681      3.009      5.577
REMARK INTER + INTRA:         -11.202
REMARK INTER:                  -6.928
REMARK INTRA:                  -4.274
REMARK UNBOUND:                -3.217
REMARK SMILES CCCCCCCCCCCCCCCCCCCCCC(=O)[O-]
REMARK SMILES IDX 12 1 11 2 10 3 9 4 8 5 7 6 6 7 5 8 4 9 3 10 2 11 1 12 13 13
REMARK SMILES IDX 14 14 15 15 16 16 17 17 18 18 19 19 20 20 21 21 22 22 23 23
REMARK SMILES IDX 24 24
REMARK H PARENT
REMARK Flexibility Score: inf
ROOT
ATOM      1  C   UNL     1     129.996 142.690 123.977  1.00  0.00     0.000 C 
ENDROOT
BRANCH   1   2
ATOM      2  C   UNL     1     129.206 143.243 122.774  1.00  0.00     0.000 C 
BRANCH   2   3
ATOM      3  C   UNL     1     128.417 142.198 121.963  1.00  0.00     0.000 C 
BRANCH   3   4
ATOM      4  C   UNL     1     128.792 142.185 120.471  1.00  0.00    -0.000 C 
BRANCH   4   5
ATOM      5  C   UNL     1     130.311 142.100 120.241  1.00  0.00    -0.000 C 
BRANCH   5   6
ATOM      6  C   UNL     1     130.911 143.245 119.401  1.00  0.00    -0.000 C 
BRANCH   6   7
ATOM      7  C   UNL     1     131.877 144.170 120.160  1.00  0.00    -0.000 C 
BRANCH   7   8
ATOM      8  C   UNL     1     131.303 145.581 120.381  1.00  0.00    -0.000 C 
BRANCH   8   9
ATOM      9  C   UNL     1     129.999 145.811 119.589  1.00  0.00    -0.000 C 
BRANCH   9  10
ATOM     10  C   UNL     1     128.763 146.006 120.484  1.00  0.00    -0.000 C 
BRANCH  10  11
ATOM     11  C   UNL     1     127.442 145.747 119.748  1.00  0.00    -0.003 C 
ATOM     12  C   UNL     1     127.676 144.963 118.461  1.00  0.00     0.004 C 
ENDBRANCH  10  11
ENDBRANCH   9  10
ENDBRANCH   8   9
ENDBRANCH   7   8
ENDBRANCH   6   7
ENDBRANCH   5   6
ENDBRANCH   4   5
ENDBRANCH   3   4
ENDBRANCH   2   3
ENDBRANCH   1   2
BRANCH   1  13
ATOM     13  C   UNL     1     129.478 143.109 125.367  1.00  0.00     0.000 C 
BRANCH  13  14
ATOM     14  C   UNL     1     127.985 143.496 125.394  1.00  0.00     0.000 C 
BRANCH  14  15
ATOM     15  C   UNL     1     127.749 144.957 125.819  1.00  0.00     0.000 C 
BRANCH  15  16
ATOM     16  C   UNL     1     127.196 145.832 124.674  1.00  0.00     0.000 C 
BRANCH  16  17
ATOM     17  C   UNL     1     128.261 146.704 123.977  1.00  0.00     0.000 C 
BRANCH  17  18
ATOM     18  C   UNL     1     129.644 146.727 124.654  1.00  0.00     0.000 C 
BRANCH  18  19
ATOM     19  C   UNL     1     130.838 146.418 123.727  1.00  0.00     0.000 C 
BRANCH  19  20
ATOM     20  C   UNL     1     132.176 146.141 124.441  1.00  0.00     0.006 C 
BRANCH  20  21
ATOM     21  C   UNL     1     132.957 144.943 123.872  1.00  0.00     0.053 C 
BRANCH  21  22
ATOM     22  C   UNL     1     134.166 145.358 123.088  1.00  0.00     0.041 C 
ATOM     23  O   UNL     1     134.111 146.342 122.305  1.00  0.00    -0.550 OA
ATOM     24  O   UNL     1     135.370 144.682 123.258  1.00  0.00    -0.550 OA
ENDBRANCH  21  22
ENDBRANCH  20  21
ENDBRANCH  19  20
ENDBRANCH  18  19
ENDBRANCH  17  18
ENDBRANCH  16  17
ENDBRANCH  15  16
ENDBRANCH  14  15
ENDBRANCH  13  14
ENDBRANCH   1  13
TORSDOF 20
ENDMDL
MODEL 8
REMARK VINA RESULT:    -3.673      1.664      3.113
REMARK INTER + INTRA:         -11.185
REMARK INTER:                  -7.566
REMARK INTRA:                  -3.619
REMARK UNBOUND:                -3.217
REMARK SMILES CCCCCCCCCCCCCCCCCCCCCC(=O)[O-]
REMARK SMILES IDX 12 1 11 2 10 3 9 4 8 5 7 6 6 7 5 8 4 9 3 10 2 11 1 12 13 13
REMARK SMILES IDX 14 14 15 15 16 16 17 17 18 18 19 19 20 20 21 21 22 22 23 23
REMARK SMILES IDX 24 24
REMARK H PARENT
REMARK Flexibility Score: inf
ROOT
ATOM      1  C   UNL     1     131.002 144.943 121.200  1.00  0.00     0.000 C 
ENDROOT
BRANCH   1   2
ATOM      2  C   UNL     1     130.802 146.157 120.271  1.00  0.00     0.000 C 
BRANCH   2   3
ATOM      3  C   UNL     1     132.095 146.838 119.784  1.00  0.00     0.000 C 
BRANCH   3   4
ATOM      4  C   UNL     1     133.255 146.716 120.787  1.00  0.00    -0.000 C 
BRANCH   4   5
ATOM      5  C   UNL     1     134.597 146.390 120.107  1.00  0.00    -0.000 C 
BRANCH   5   6
ATOM      6  C   UNL     1     134.485 145.789 118.692  1.00  0.00    -0.000 C 
BRANCH   6   7
ATOM      7  C   UNL     1     134.811 144.289 118.597  1.00  0.00    -0.000 C 
BRANCH   7   8
ATOM      8  C   UNL     1     133.739 143.403 119.257  1.00  0.00    -0.000 C 
BRANCH   8   9
ATOM      9  C   UNL     1     134.132 142.978 120.687  1.00  0.00    -0.000 C 
BRANCH   9  10
ATOM     10  C   UNL     1     133.332 141.773 121.212  1.00  0.00    -0.000 C 
BRANCH  10  11
ATOM     11  C   UNL     1     132.821 140.858 120.091  1.00  0.00    -0.003 C 
ATOM     12  C   UNL     1     131.443 140.295 120.428  1.00  0.00     0.004 C 
ENDBRANCH  10  11
ENDBRANCH   9  10
ENDBRANCH   8   9
ENDBRANCH   7   8
ENDBRANCH   6   7
ENDBRANCH   5   6
ENDBRANCH   4   5
ENDBRANCH   3   4
ENDBRANCH   2   3
ENDBRANCH   1   2
BRANCH   1  13
ATOM     13  C   UNL     1     130.177 143.690 120.849  1.00  0.00     0.000 C 
BRANCH  13  14
ATOM     14  C   UNL     1     129.665 143.657 119.394  1.00  0.00     0.000 C 
BRANCH  14  15
ATOM     15  C   UNL     1     128.133 143.774 119.292  1.00  0.00     0.000 C 
BRANCH  15  16
ATOM     16  C   UNL     1     127.676 145.099 118.642  1.00  0.00     0.000 C 
BRANCH  16  17
ATOM     17  C   UNL     1     126.931 146.047 119.605  1.00  0.00     0.000 C 
BRANCH  17  18
ATOM     18  C   UNL     1     126.967 145.645 121.091  1.00  0.00     0.000 C 
BRANCH  18  19
ATOM     19  C   UNL     1     127.259 146.793 122.080  1.00  0.00     0.000 C 
BRANCH  19  20
ATOM     20  C   UNL     1     128.231 146.448 123.225  1.00  0.00     0.006 C 
BRANCH  20  21
ATOM     21  C   UNL     1     128.245 144.957 123.610  1.00  0.00     0.053 C 
BRANCH  21  22
ATOM     22  C   UNL     1     127.649 144.699 124.961  1.00  0.00     0.041 C 
ATOM     23  O   UNL     1     127.408 145.656 125.744  1.00  0.00    -0.550 OA
ATOM     24  O   UNL     1     127.316 143.403 125.337  1.00  0.00    -0.550 OA
ENDBRANCH  21  22
ENDBRANCH  20  21
ENDBRANCH  19  20
ENDBRANCH  18  19
ENDBRANCH  17  18
ENDBRANCH  16  17
ENDBRANCH  15  16
ENDBRANCH  14  15
ENDBRANCH  13  14
ENDBRANCH   1  13
TORSDOF 20
ENDMDL
MODEL 9
REMARK VINA RESULT:    -3.604      2.067      5.627
REMARK INTER + INTRA:         -11.036
REMARK INTER:                  -7.095
REMARK INTRA:                  -3.941
REMARK UNBOUND:                -3.217
REMARK SMILES CCCCCCCCCCCCCCCCCCCCCC(=O)[O-]
REMARK SMILES IDX 12 1 11 2 10 3 9 4 8 5 7 6 6 7 5 8 4 9 3 10 2 11 1 12 13 13
REMARK SMILES IDX 14 14 15 15 16 16 17 17 18 18 19 19 20 20 21 21 22 22 23 23
REMARK SMILES IDX 24 24
REMARK H PARENT
REMARK Flexibility Score: inf
ROOT
ATOM      1  C   UNL     1     131.663 142.883 121.709  1.00  0.00     0.000 C 
ENDROOT
BRANCH   1   2
ATOM      2  C   UNL     1     130.218 143.097 121.216  1.00  0.00     0.000 C 
BRANCH   2   3
ATOM      3  C   UNL     1     130.075 143.494 119.735  1.00  0.00     0.000 C 
BRANCH   3   4
ATOM      4  C   UNL     1     128.618 143.763 119.321  1.00  0.00    -0.000 C 
BRANCH   4   5
ATOM      5  C   UNL     1     128.366 145.238 118.957  1.00  0.00    -0.000 C 
BRANCH   5   6
ATOM      6  C   UNL     1     127.400 145.987 119.895  1.00  0.00    -0.000 C 
BRANCH   6   7
ATOM      7  C   UNL     1     127.240 145.365 121.294  1.00  0.00    -0.000 C 
BRANCH   7   8
ATOM      8  C   UNL     1     128.124 146.047 122.354  1.00  0.00    -0.000 C 
BRANCH   8   9
ATOM      9  C   UNL     1     127.356 146.325 123.663  1.00  0.00    -0.000 C 
BRANCH   9  10
ATOM     10  C   UNL     1     127.949 145.606 124.887  1.00  0.00    -0.000 C 
BRANCH  10  11
ATOM     11  C   UNL     1     128.749 144.350 124.516  1.00  0.00    -0.003 C 
ATOM     12  C   UNL     1     128.041 143.087 124.997  1.00  0.00     0.004 C 
ENDBRANCH  10  11
ENDBRANCH   9  10
ENDBRANCH   8   9
ENDBRANCH   7   8
ENDBRANCH   6   7
ENDBRANCH   5   6
ENDBRANCH   4   5
ENDBRANCH   3   4
ENDBRANCH   2   3
ENDBRANCH   1   2
BRANCH   1  13
ATOM     13  C   UNL     1     132.730 142.733 120.606  1.00  0.00     0.000 C 
BRANCH  13  14
ATOM     14  C   UNL     1     133.816 143.828 120.623  1.00  0.00     0.000 C 
BRANCH  14  15
ATOM     15  C   UNL     1     133.779 144.733 119.378  1.00  0.00     0.000 C 
BRANCH  15  16
ATOM     16  C   UNL     1     133.565 146.222 119.726  1.00  0.00     0.000 C 
BRANCH  16  17
ATOM     17  C   UNL     1     132.090 146.673 119.683  1.00  0.00     0.000 C 
BRANCH  17  18
ATOM     18  C   UNL     1     131.362 146.686 121.040  1.00  0.00     0.000 C 
BRANCH  18  19
ATOM     19  C   UNL     1     132.278 146.743 122.281  1.00  0.00     0.000 C 
BRANCH  19  20
ATOM     20  C   UNL     1     131.737 146.029 123.535  1.00  0.00     0.006 C 
BRANCH  20  21
ATOM     21  C   UNL     1     131.508 146.960 124.739  1.00  0.00     0.053 C 
BRANCH  21  22
ATOM     22  C   UNL     1     131.962 146.357 126.035  1.00  0.00     0.041 C 
ATOM     23  O   UNL     1     131.137 145.785 126.795  1.00  0.00    -0.550 OA
ATOM     24  O   UNL     1     133.309 146.389 126.381  1.00  0.00    -0.550 OA
ENDBRANCH  21  22
ENDBRANCH  20  21
ENDBRANCH  19  20
ENDBRANCH  18  19
ENDBRANCH  17  18
ENDBRANCH  16  17
ENDBRANCH  15  16
ENDBRANCH  14  15
ENDBRANCH  13  14
ENDBRANCH   1  13
TORSDOF 20
ENDMDL
