MODEL 1
REMARK VINA RESULT:    -4.625      0.000      0.000
REMARK INTER + INTRA:         -16.495
REMARK INTER:                 -11.655
REMARK INTRA:                  -4.840
REMARK UNBOUND:                -4.840
REMARK SMILES CCCCCCCCCCCCCCCCCCCCCCCCCCCC(=O)[O-]
REMARK SMILES IDX 15 1 16 2 17 3 18 4 19 5 20 6 21 7 22 8 23 9 24 10 25 11
REMARK SMILES IDX 26 12 27 13 28 14 29 15 30 16 14 17 13 18 12 19 11 20 10 21
REMARK SMILES IDX 9 22 8 23 7 24 6 25 5 26 4 27 3 28 2 29 1 30
REMARK H PARENT
REMARK Flexibility Score: inf
ROOT
ATOM      1  C   UNL     1      24.459  11.143  31.821  1.00  0.00     0.000 C 
ENDROOT
BRANCH   1   2
ATOM      2  C   UNL     1      23.728  12.364  31.224  1.00  0.00     0.000 C 
BRANCH   2   3
ATOM      3  C   UNL     1      22.346  12.664  31.834  1.00  0.00     0.000 C 
BRANCH   3   4
ATOM      4  C   UNL     1      22.140  11.996  33.203  1.00  0.00     0.000 C 
BRANCH   4   5
ATOM      5  C   UNL     1      22.337  12.968  34.383  1.00  0.00     0.000 C 
BRANCH   5   6
ATOM      6  C   UNL     1      23.021  12.372  35.627  1.00  0.00     0.000 C 
BRANCH   6   7
ATOM      7  C   UNL     1      24.535  12.632  35.666  1.00  0.00     0.000 C 
BRANCH   7   8
ATOM      8  C   UNL     1      25.369  11.382  35.327  1.00  0.00     0.000 C 
BRANCH   8   9
ATOM      9  C   UNL     1      26.763  11.657  34.732  1.00  0.00     0.000 C 
BRANCH   9  10
ATOM     10  C   UNL     1      27.125  13.152  34.721  1.00  0.00     0.000 C 
BRANCH  10  11
ATOM     11  C   UNL     1      27.924  13.569  33.475  1.00  0.00     0.000 C 
BRANCH  11  12
ATOM     12  C   UNL     1      28.208  12.442  32.461  1.00  0.00     0.006 C 
BRANCH  12  13
ATOM     13  C   UNL     1      28.551  12.939  31.044  1.00  0.00     0.053 C 
BRANCH  13  14
ATOM     14  C   UNL     1      27.881  12.130  29.973  1.00  0.00     0.041 C 
ATOM     15  O   UNL     1      28.400  11.058  29.567  1.00  0.00    -0.550 OA
ATOM     16  O   UNL     1      26.700  12.580  29.396  1.00  0.00    -0.550 OA
ENDBRANCH  13  14
ENDBRANCH  12  13
ENDBRANCH  11  12
ENDBRANCH  10  11
ENDBRANCH   9  10
ENDBRANCH   8   9
ENDBRANCH   7   8
ENDBRANCH   6   7
ENDBRANCH   5   6
ENDBRANCH   4   5
ENDBRANCH   3   4
ENDBRANCH   2   3
ENDBRANCH   1   2
BRANCH   1  17
ATOM     17  C   UNL     1      24.748  10.004  30.828  1.00  0.00     0.000 C 
BRANCH  17  18
ATOM     18  C   UNL     1      23.646   9.838  29.771  1.00  0.00     0.000 C 
BRANCH  18  19
ATOM     19  C   UNL     1      22.386   9.209  30.383  1.00  0.00     0.000 C 
BRANCH  19  20
ATOM     20  C   UNL     1      21.156   9.334  29.469  1.00  0.00     0.000 C 
BRANCH  20  21
ATOM     21  C   UNL     1      19.830   9.183  30.233  1.00  0.00     0.000 C 
BRANCH  21  22
ATOM     22  C   UNL     1      19.894   9.780  31.649  1.00  0.00    -0.000 C 
BRANCH  22  23
ATOM     23  C   UNL     1      18.629  10.576  32.011  1.00  0.00    -0.000 C 
BRANCH  23  24
ATOM     24  C   UNL     1      18.722  12.055  31.604  1.00  0.00    -0.000 C 
BRANCH  24  25
ATOM     25  C   UNL     1      18.636  13.006  32.807  1.00  0.00    -0.000 C 
BRANCH  25  26
ATOM     26  C   UNL     1      18.144  12.267  34.057  1.00  0.00    -0.000 C 
BRANCH  26  27
ATOM     27  C   UNL     1      18.780  12.849  35.329  1.00  0.00    -0.000 C 
BRANCH  27  28
ATOM     28  C   UNL     1      19.260  11.751  36.300  1.00  0.00    -0.000 C 
BRANCH  28  29
ATOM     29  C   UNL     1      19.746  10.472  35.595  1.00  0.00    -0.003 C 
ATOM     30  C   UNL     1      19.348   9.193  36.329  1.00  0.00     0.004 C 
ENDBRANCH  28  29
ENDBRANCH  27  28
ENDBRANCH  26  27
ENDBRANCH  25  26
ENDBRANCH  24  25
ENDBRANCH  23  24
ENDBRANCH  22  23
ENDBRANCH  21  22
ENDBRANCH  20  21
ENDBRANCH  19  20
ENDBRANCH  18  19
ENDBRANCH  17  18
ENDBRANCH   1  17
TORSDOF 26
ENDMDL
MODEL 2
REMARK VINA RESULT:    -4.425      2.339      6.107
REMARK INTER + INTRA:         -15.991
REMARK INTER:                 -11.872
REMARK INTRA:                  -4.119
REMARK UNBOUND:                -4.840
REMARK SMILES CCCCCCCCCCCCCCCCCCCCCCCCCCCC(=O)[O-]
REMARK SMILES IDX 15 1 16 2 17 3 18 4 19 5 20 6 21 7 22 8 23 9 24 10 25 11
REMARK SMILES IDX 26 12 27 13 28 14 29 15 30 16 14 17 13 18 12 19 11 20 10 21
REMARK SMILES IDX 9 22 8 23 7 24 6 25 5 26 4 27 3 28 2 29 1 30
REMARK H PARENT
REMARK Flexibility Score: inf
ROOT
ATOM      1  C   UNL     1      27.965  13.869  33.791  1.00  0.00     0.000 C 
ENDROOT
BRANCH   1   2
ATOM      2  C   UNL     1      27.547  13.364  32.395  1.00  0.00     0.000 C 
BRANCH   2   3
ATOM      3  C   UNL     1      28.710  13.055  31.433  1.00  0.00     0.000 C 
BRANCH   3   4
ATOM      4  C   UNL     1      28.335  12.027  30.354  1.00  0.00     0.000 C 
BRANCH   4   5
ATOM      5  C   UNL     1      27.611  10.792  30.924  1.00  0.00     0.000 C 
BRANCH   5   6
ATOM      6  C   UNL     1      26.304  10.400  30.211  1.00  0.00     0.000 C 
BRANCH   6   7
ATOM      7  C   UNL     1      25.055  10.606  31.084  1.00  0.00     0.000 C 
BRANCH   7   8
ATOM      8  C   UNL     1      24.577  12.070  31.113  1.00  0.00     0.000 C 
BRANCH   8   9
ATOM      9  C   UNL     1      23.115  12.297  30.689  1.00  0.00     0.000 C 
BRANCH   9  10
ATOM     10  C   UNL     1      22.376  10.989  30.359  1.00  0.00     0.000 C 
BRANCH  10  11
ATOM     11  C   UNL     1      21.290  10.635  31.390  1.00  0.00     0.000 C 
BRANCH  11  12
ATOM     12  C   UNL     1      19.850  11.017  30.993  1.00  0.00     0.006 C 
BRANCH  12  13
ATOM     13  C   UNL     1      19.395  12.392  31.517  1.00  0.00     0.053 C 
BRANCH  13  14
ATOM     14  C   UNL     1      19.235  13.402  30.420  1.00  0.00     0.041 C 
ATOM     15  O   UNL     1      18.191  13.415  29.716  1.00  0.00    -0.550 OA
ATOM     16  O   UNL     1      20.255  14.303  30.148  1.00  0.00    -0.550 OA
ENDBRANCH  13  14
ENDBRANCH  12  13
ENDBRANCH  11  12
ENDBRANCH  10  11
ENDBRANCH   9  10
ENDBRANCH   8   9
ENDBRANCH   7   8
ENDBRANCH   6   7
ENDBRANCH   5   6
ENDBRANCH   4   5
ENDBRANCH   3   4
ENDBRANCH   2   3
ENDBRANCH   1   2
BRANCH   1  17
ATOM     17  C   UNL     1      27.704  12.887  34.947  1.00  0.00     0.000 C 
BRANCH  17  18
ATOM     18  C   UNL     1      27.180  11.525  34.468  1.00  0.00     0.000 C 
BRANCH  18  19
ATOM     19  C   UNL     1      25.700  11.343  34.835  1.00  0.00     0.000 C 
BRANCH  19  20
ATOM     20  C   UNL     1      25.138  12.527  35.638  1.00  0.00     0.000 C 
BRANCH  20  21
ATOM     21  C   UNL     1      23.601  12.569  35.639  1.00  0.00     0.000 C 
BRANCH  21  22
ATOM     22  C   UNL     1      23.011  12.587  34.219  1.00  0.00    -0.000 C 
BRANCH  22  23
ATOM     23  C   UNL     1      21.630  13.263  34.162  1.00  0.00    -0.000 C 
BRANCH  23  24
ATOM     24  C   UNL     1      20.903  13.242  35.515  1.00  0.00    -0.000 C 
BRANCH  24  25
ATOM     25  C   UNL     1      19.665  12.334  35.507  1.00  0.00    -0.000 C 
BRANCH  25  26
ATOM     26  C   UNL     1      20.056  10.875  35.243  1.00  0.00    -0.000 C 
BRANCH  26  27
ATOM     27  C   UNL     1      18.918  10.115  34.544  1.00  0.00    -0.000 C 
BRANCH  27  28
ATOM     28  C   UNL     1      18.649   8.740  35.187  1.00  0.00    -0.000 C 
BRANCH  28  29
ATOM     29  C   UNL     1      19.473   8.481  36.461  1.00  0.00    -0.003 C 
ATOM     30  C   UNL     1      18.614   8.096  37.664  1.00  0.00     0.004 C 
ENDBRANCH  28  29
ENDBRANCH  27  28
ENDBRANCH  26  27
ENDBRANCH  25  26
ENDBRANCH  24  25
ENDBRANCH  23  24
ENDBRANCH  22  23
ENDBRANCH  21  22
ENDBRANCH  20  21
ENDBRANCH  19  20
ENDBRANCH  18  19
ENDBRANCH  17  18
ENDBRANCH   1  17
TORSDOF 26
ENDMDL
MODEL 3
REMARK VINA RESULT:    -4.359      2.555      7.165
REMARK INTER + INTRA:         -15.824
REMARK INTER:                 -11.357
REMARK INTRA:                  -4.467
REMARK UNBOUND:                -4.840
REMARK SMILES CCCCCCCCCCCCCCCCCCCCCCCCCCCC(=O)[O-]
REMARK SMILES IDX 15 1 16 2 17 3 18 4 19 5 20 6 21 7 22 8 23 9 24 10 25 11
REMARK SMILES IDX 26 12 27 13 28 14 29 15 30 16 14 17 13 18 12 19 11 20 10 21
REMARK SMILES IDX 9 22 8 23 7 24 6 25 5 26 4 27 3 28 2 29 1 30
REMARK H PARENT
REMARK Flexibility Score: inf
ROOT
ATOM      1  C   UNL     1      26.547  12.459  34.924  1.00  0.00     0.000 C 
ENDROOT
BRANCH   1   2
ATOM      2  C   UNL     1      25.295  11.730  35.453  1.00  0.00     0.000 C 
BRANCH   2   3
ATOM      3  C   UNL     1      23.975  12.512  35.320  1.00  0.00     0.000 C 
BRANCH   3   4
ATOM      4  C   UNL     1      23.511  12.654  33.861  1.00  0.00     0.000 C 
BRANCH   4   5
ATOM      5  C   UNL     1      21.990  12.471  33.693  1.00  0.00     0.000 C 
BRANCH   5   6
ATOM      6  C   UNL     1      21.139  13.734  33.921  1.00  0.00     0.000 C 
BRANCH   6   7
ATOM      7  C   UNL     1      20.479  13.774  35.309  1.00  0.00     0.000 C 
BRANCH   7   8
ATOM      8  C   UNL     1      19.136  13.022  35.358  1.00  0.00     0.000 C 
BRANCH   8   9
ATOM      9  C   UNL     1      19.118  11.755  36.233  1.00  0.00     0.000 C 
BRANCH   9  10
ATOM     10  C   UNL     1      19.821  10.559  35.570  1.00  0.00     0.000 C 
BRANCH  10  11
ATOM     11  C   UNL     1      18.842   9.594  34.877  1.00  0.00     0.000 C 
BRANCH  11  12
ATOM     12  C   UNL     1      18.334  10.046  33.493  1.00  0.00     0.006 C 
BRANCH  12  13
ATOM     13  C   UNL     1      19.449  10.470  32.519  1.00  0.00     0.053 C 
BRANCH  13  14
ATOM     14  C   UNL     1      18.979  11.473  31.507  1.00  0.00     0.041 C 
ATOM     15  O   UNL     1      19.097  11.238  30.276  1.00  0.00    -0.550 OA
ATOM     16  O   UNL     1      18.446  12.686  31.924  1.00  0.00    -0.550 OA
ENDBRANCH  13  14
ENDBRANCH  12  13
ENDBRANCH  11  12
ENDBRANCH  10  11
ENDBRANCH   9  10
ENDBRANCH   8   9
ENDBRANCH   7   8
ENDBRANCH   6   7
ENDBRANCH   5   6
ENDBRANCH   4   5
ENDBRANCH   3   4
ENDBRANCH   2   3
ENDBRANCH   1   2
BRANCH   1  17
ATOM     17  C   UNL     1      27.758  11.553  34.633  1.00  0.00     0.000 C 
BRANCH  17  18
ATOM     18  C   UNL     1      28.726  12.163  33.608  1.00  0.00     0.000 C 
BRANCH  18  19
ATOM     19  C   UNL     1      28.025  13.227  32.752  1.00  0.00     0.000 C 
BRANCH  19  20
ATOM     20  C   UNL     1      28.449  13.175  31.276  1.00  0.00     0.000 C 
BRANCH  20  21
ATOM     21  C   UNL     1      27.430  12.437  30.390  1.00  0.00     0.000 C 
BRANCH  21  22
ATOM     22  C   UNL     1      27.689  10.922  30.330  1.00  0.00    -0.000 C 
BRANCH  22  23
ATOM     23  C   UNL     1      26.535  10.102  30.932  1.00  0.00    -0.000 C 
BRANCH  23  24
ATOM     24  C   UNL     1      25.335  10.973  31.332  1.00  0.00    -0.000 C 
BRANCH  24  25
ATOM     25  C   UNL     1      23.988  10.302  31.023  1.00  0.00    -0.000 C 
BRANCH  25  26
ATOM     26  C   UNL     1      23.020  11.293  30.365  1.00  0.00    -0.000 C 
BRANCH  26  27
ATOM     27  C   UNL     1      23.779  12.327  29.518  1.00  0.00    -0.000 C 
BRANCH  27  28
ATOM     28  C   UNL     1      23.185  13.744  29.653  1.00  0.00    -0.000 C 
BRANCH  28  29
ATOM     29  C   UNL     1      21.761  13.765  30.236  1.00  0.00    -0.003 C 
ATOM     30  C   UNL     1      21.155  15.166  30.291  1.00  0.00     0.004 C 
ENDBRANCH  28  29
ENDBRANCH  27  28
ENDBRANCH  26  27
ENDBRANCH  25  26
ENDBRANCH  24  25
ENDBRANCH  23  24
ENDBRANCH  22  23
ENDBRANCH  21  22
ENDBRANCH  20  21
ENDBRANCH  19  20
ENDBRANCH  18  19
ENDBRANCH  17  18
ENDBRANCH   1  17
TORSDOF 26
ENDMDL
MODEL 4
REMARK VINA RESULT:    -4.285      2.971      7.303
REMARK INTER + INTRA:         -15.637
REMARK INTER:                 -11.163
REMARK INTRA:                  -4.474
REMARK UNBOUND:                -4.840
REMARK SMILES CCCCCCCCCCCCCCCCCCCCCCCCCCCC(=O)[O-]
REMARK SMILES IDX 15 1 16 2 17 3 18 4 19 5 20 6 21 7 22 8 23 9 24 10 25 11
REMARK SMILES IDX 26 12 27 13 28 14 29 15 30 16 14 17 13 18 12 19 11 20 10 21
REMARK SMILES IDX 9 22 8 23 7 24 6 25 5 26 4 27 3 28 2 29 1 30
REMARK H PARENT
REMARK Flexibility Score: inf
ROOT
ATOM      1  C   UNL     1      23.026   9.788  30.527  1.00  0.00     0.000 C 
ENDROOT
BRANCH   1   2
ATOM      2  C   UNL     1      22.170   8.523  30.314  1.00  0.00     0.000 C 
BRANCH   2   3
ATOM      3  C   UNL     1      21.131   8.616  29.182  1.00  0.00     0.000 C 
BRANCH   3   4
ATOM      4  C   UNL     1      19.701   8.843  29.701  1.00  0.00     0.000 C 
BRANCH   4   5
ATOM      5  C   UNL     1      19.369  10.332  29.918  1.00  0.00     0.000 C 
BRANCH   5   6
ATOM      6  C   UNL     1      19.132  10.753  31.380  1.00  0.00     0.000 C 
BRANCH   6   7
ATOM      7  C   UNL     1      20.293  11.570  31.968  1.00  0.00     0.000 C 
BRANCH   7   8
ATOM      8  C   UNL     1      19.953  13.063  32.139  1.00  0.00     0.000 C 
BRANCH   8   9
ATOM      9  C   UNL     1      21.038  13.915  32.823  1.00  0.00     0.000 C 
BRANCH   9  10
ATOM     10  C   UNL     1      20.898  13.947  34.354  1.00  0.00     0.000 C 
BRANCH  10  11
ATOM     11  C   UNL     1      19.492  13.551  34.839  1.00  0.00     0.000 C 
BRANCH  11  12
ATOM     12  C   UNL     1      19.452  12.504  35.970  1.00  0.00     0.006 C 
BRANCH  12  13
ATOM     13  C   UNL     1      20.374  11.292  35.742  1.00  0.00     0.053 C 
BRANCH  13  14
ATOM     14  C   UNL     1      19.612  10.010  35.580  1.00  0.00     0.041 C 
ATOM     15  O   UNL     1      18.699   9.918  34.718  1.00  0.00    -0.550 OA
ATOM     16  O   UNL     1      19.882   8.929  36.409  1.00  0.00    -0.550 OA
ENDBRANCH  13  14
ENDBRANCH  12  13
ENDBRANCH  11  12
ENDBRANCH  10  11
ENDBRANCH   9  10
ENDBRANCH   8   9
ENDBRANCH   7   8
ENDBRANCH   6   7
ENDBRANCH   5   6
ENDBRANCH   4   5
ENDBRANCH   3   4
ENDBRANCH   2   3
ENDBRANCH   1   2
BRANCH   1  17
ATOM     17  C   UNL     1      23.046  10.772  29.343  1.00  0.00     0.000 C 
BRANCH  17  18
ATOM     18  C   UNL     1      23.219  12.233  29.784  1.00  0.00     0.000 C 
BRANCH  18  19
ATOM     19  C   UNL     1      24.601  12.459  30.415  1.00  0.00     0.000 C 
BRANCH  19  20
ATOM     20  C   UNL     1      25.751  12.013  29.499  1.00  0.00     0.000 C 
BRANCH  20  21
ATOM     21  C   UNL     1      26.521  10.804  30.058  1.00  0.00     0.000 C 
BRANCH  21  22
ATOM     22  C   UNL     1      27.968  11.154  30.444  1.00  0.00    -0.000 C 
BRANCH  22  23
ATOM     23  C   UNL     1      28.186  12.668  30.605  1.00  0.00    -0.000 C 
BRANCH  23  24
ATOM     24  C   UNL     1      28.650  13.053  32.018  1.00  0.00    -0.000 C 
BRANCH  24  25
ATOM     25  C   UNL     1      27.480  13.231  32.997  1.00  0.00    -0.000 C 
BRANCH  25  26
ATOM     26  C   UNL     1      27.760  12.514  34.323  1.00  0.00    -0.000 C 
BRANCH  26  27
ATOM     27  C   UNL     1      26.597  11.583  34.703  1.00  0.00    -0.000 C 
BRANCH  27  28
ATOM     28  C   UNL     1      25.493  11.555  33.627  1.00  0.00    -0.000 C 
BRANCH  28  29
ATOM     29  C   UNL     1      24.167  12.187  34.085  1.00  0.00    -0.003 C 
ATOM     30  C   UNL     1      24.096  12.408  35.595  1.00  0.00     0.004 C 
ENDBRANCH  28  29
ENDBRANCH  27  28
ENDBRANCH  26  27
ENDBRANCH  25  26
ENDBRANCH  24  25
ENDBRANCH  23  24
ENDBRANCH  22  23
ENDBRANCH  21  22
ENDBRANCH  20  21
ENDBRANCH  19  20
ENDBRANCH  18  19
ENDBRANCH  17  18
ENDBRANCH   1  17
TORSDOF 26
ENDMDL
MODEL 5
REMARK VINA RESULT:    -4.260      1.832      5.182
REMARK INTER + INTRA:         -15.575
REMARK INTER:                 -11.614
REMARK INTRA:                  -3.960
REMARK UNBOUND:                -4.840
REMARK SMILES CCCCCCCCCCCCCCCCCCCCCCCCCCCC(=O)[O-]
REMARK SMILES IDX 15 1 16 2 17 3 18 4 19 5 20 6 21 7 22 8 23 9 24 10 25 11
REMARK SMILES IDX 26 12 27 13 28 14 29 15 30 16 14 17 13 18 12 19 11 20 10 21
REMARK SMILES IDX 9 22 8 23 7 24 6 25 5 26 4 27 3 28 2 29 1 30
REMARK H PARENT
REMARK Flexibility Score: inf
ROOT
ATOM      1  C   UNL     1      27.296  12.142  35.052  1.00  0.00     0.000 C 
ENDROOT
BRANCH   1   2
ATOM      2  C   UNL     1      27.673  13.427  34.287  1.00  0.00     0.000 C 
BRANCH   2   3
ATOM      3  C   UNL     1      27.411  13.389  32.771  1.00  0.00     0.000 C 
BRANCH   3   4
ATOM      4  C   UNL     1      28.666  13.028  31.958  1.00  0.00     0.000 C 
BRANCH   4   5
ATOM      5  C   UNL     1      28.392  12.921  30.445  1.00  0.00     0.000 C 
BRANCH   5   6
ATOM      6  C   UNL     1      28.554  11.515  29.839  1.00  0.00     0.000 C 
BRANCH   6   7
ATOM      7  C   UNL     1      27.218  10.885  29.411  1.00  0.00     0.000 C 
BRANCH   7   8
ATOM      8  C   UNL     1      26.328  10.494  30.606  1.00  0.00     0.000 C 
BRANCH   8   9
ATOM      9  C   UNL     1      25.066  11.355  30.802  1.00  0.00     0.000 C 
BRANCH   9  10
ATOM     10  C   UNL     1      23.925  10.596  31.500  1.00  0.00     0.000 C 
BRANCH  10  11
ATOM     11  C   UNL     1      22.543  10.895  30.894  1.00  0.00     0.000 C 
BRANCH  11  12
ATOM     12  C   UNL     1      22.559  11.590  29.517  1.00  0.00     0.006 C 
BRANCH  12  13
ATOM     13  C   UNL     1      21.590  12.781  29.400  1.00  0.00     0.053 C 
BRANCH  13  14
ATOM     14  C   UNL     1      22.299  14.103  29.404  1.00  0.00     0.041 C 
ATOM     15  O   UNL     1      23.548  14.155  29.253  1.00  0.00    -0.550 OA
ATOM     16  O   UNL     1      21.586  15.276  29.614  1.00  0.00    -0.550 OA
ENDBRANCH  13  14
ENDBRANCH  12  13
ENDBRANCH  11  12
ENDBRANCH  10  11
ENDBRANCH   9  10
ENDBRANCH   8   9
ENDBRANCH   7   8
ENDBRANCH   6   7
ENDBRANCH   5   6
ENDBRANCH   4   5
ENDBRANCH   3   4
ENDBRANCH   2   3
ENDBRANCH   1   2
BRANCH   1  17
ATOM     17  C   UNL     1      25.934  11.531  34.677  1.00  0.00     0.000 C 
BRANCH  17  18
ATOM     18  C   UNL     1      24.752  12.254  35.340  1.00  0.00     0.000 C 
BRANCH  18  19
ATOM     19  C   UNL     1      23.687  12.636  34.302  1.00  0.00     0.000 C 
BRANCH  19  20
ATOM     20  C   UNL     1      22.262  12.612  34.878  1.00  0.00     0.000 C 
BRANCH  20  21
ATOM     21  C   UNL     1      21.391  13.768  34.357  1.00  0.00     0.000 C 
BRANCH  21  22
ATOM     22  C   UNL     1      20.961  13.570  32.894  1.00  0.00    -0.000 C 
BRANCH  22  23
ATOM     23  C   UNL     1      19.485  13.160  32.762  1.00  0.00    -0.000 C 
BRANCH  23  24
ATOM     24  C   UNL     1      19.301  11.640  32.632  1.00  0.00    -0.000 C 
BRANCH  24  25
ATOM     25  C   UNL     1      18.593  11.023  33.847  1.00  0.00    -0.000 C 
BRANCH  25  26
ATOM     26  C   UNL     1      18.547  12.014  35.016  1.00  0.00    -0.000 C 
BRANCH  26  27
ATOM     27  C   UNL     1      19.077  11.369  36.307  1.00  0.00    -0.000 C 
BRANCH  27  28
ATOM     28  C   UNL     1      19.644   9.955  36.065  1.00  0.00    -0.000 C 
BRANCH  28  29
ATOM     29  C   UNL     1      18.994   8.871  36.943  1.00  0.00    -0.003 C 
ATOM     30  C   UNL     1      18.456   7.689  36.138  1.00  0.00     0.004 C 
ENDBRANCH  28  29
ENDBRANCH  27  28
ENDBRANCH  26  27
ENDBRANCH  25  26
ENDBRANCH  24  25
ENDBRANCH  23  24
ENDBRANCH  22  23
ENDBRANCH  21  22
ENDBRANCH  20  21
ENDBRANCH  19  20
ENDBRANCH  18  19
ENDBRANCH  17  18
ENDBRANCH   1  17
TORSDOF 26
ENDMDL
MODEL 6
REMARK VINA RESULT:    -4.234      3.482      7.981
REMARK INTER + INTRA:         -15.509
REMARK INTER:                 -11.754
REMARK INTRA:                  -3.755
REMARK UNBOUND:                -4.840
REMARK SMILES CCCCCCCCCCCCCCCCCCCCCCCCCCCC(=O)[O-]
REMARK SMILES IDX 15 1 16 2 17 3 18 4 19 5 20 6 21 7 22 8 23 9 24 10 25 11
REMARK SMILES IDX 26 12 27 13 28 14 29 15 30 16 14 17 13 18 12 19 11 20 10 21
REMARK SMILES IDX 9 22 8 23 7 24 6 25 5 26 4 27 3 28 2 29 1 30
REMARK H PARENT
REMARK Flexibility Score: inf
ROOT
ATOM      1  C   UNL     1      23.258  12.598  35.542  1.00  0.00     0.000 C 
ENDROOT
BRANCH   1   2
ATOM      2  C   UNL     1      21.807  12.259  35.141  1.00  0.00     0.000 C 
BRANCH   2   3
ATOM      3  C   UNL     1      20.814  13.432  35.216  1.00  0.00     0.000 C 
BRANCH   3   4
ATOM      4  C   UNL     1      20.116  13.710  33.875  1.00  0.00     0.000 C 
BRANCH   4   5
ATOM      5  C   UNL     1      20.982  14.540  32.907  1.00  0.00     0.000 C 
BRANCH   5   6
ATOM      6  C   UNL     1      21.206  13.917  31.516  1.00  0.00     0.000 C 
BRANCH   6   7
ATOM      7  C   UNL     1      19.894  13.580  30.788  1.00  0.00     0.000 C 
BRANCH   7   8
ATOM      8  C   UNL     1      19.815  12.107  30.343  1.00  0.00     0.000 C 
BRANCH   8   9
ATOM      9  C   UNL     1      20.573  11.105  31.232  1.00  0.00     0.000 C 
BRANCH   9  10
ATOM     10  C   UNL     1      19.645  10.081  31.906  1.00  0.00     0.000 C 
BRANCH  10  11
ATOM     11  C   UNL     1      19.004  10.610  33.201  1.00  0.00     0.000 C 
BRANCH  11  12
ATOM     12  C   UNL     1      18.494   9.532  34.178  1.00  0.00     0.006 C 
BRANCH  12  13
ATOM     13  C   UNL     1      19.225   9.512  35.533  1.00  0.00     0.053 C 
BRANCH  13  14
ATOM     14  C   UNL     1      18.786   8.375  36.407  1.00  0.00     0.041 C 
ATOM     15  O   UNL     1      18.190   7.384  35.910  1.00  0.00    -0.550 OA
ATOM     16  O   UNL     1      19.001   8.426  37.778  1.00  0.00    -0.550 OA
ENDBRANCH  13  14
ENDBRANCH  12  13
ENDBRANCH  11  12
ENDBRANCH  10  11
ENDBRANCH   9  10
ENDBRANCH   8   9
ENDBRANCH   7   8
ENDBRANCH   6   7
ENDBRANCH   5   6
ENDBRANCH   4   5
ENDBRANCH   3   4
ENDBRANCH   2   3
ENDBRANCH   1   2
BRANCH   1  17
ATOM     17  C   UNL     1      24.322  12.286  34.475  1.00  0.00     0.000 C 
BRANCH  17  18
ATOM     18  C   UNL     1      23.716  11.992  33.095  1.00  0.00     0.000 C 
BRANCH  18  19
ATOM     19  C   UNL     1      24.686  11.174  32.230  1.00  0.00     0.000 C 
BRANCH  19  20
ATOM     20  C   UNL     1      24.008  10.563  30.993  1.00  0.00     0.000 C 
BRANCH  20  21
ATOM     21  C   UNL     1      24.464  11.221  29.680  1.00  0.00     0.000 C 
BRANCH  21  22
ATOM     22  C   UNL     1      24.877  12.690  29.868  1.00  0.00    -0.000 C 
BRANCH  22  23
ATOM     23  C   UNL     1      26.347  12.943  29.490  1.00  0.00    -0.000 C 
BRANCH  23  24
ATOM     24  C   UNL     1      27.186  11.656  29.476  1.00  0.00    -0.000 C 
BRANCH  24  25
ATOM     25  C   UNL     1      28.489  11.791  30.277  1.00  0.00    -0.000 C 
BRANCH  25  26
ATOM     26  C   UNL     1      28.455  13.033  31.176  1.00  0.00    -0.000 C 
BRANCH  26  27
ATOM     27  C   UNL     1      27.626  12.774  32.444  1.00  0.00    -0.000 C 
BRANCH  27  28
ATOM     28  C   UNL     1      28.506  12.382  33.649  1.00  0.00    -0.000 C 
BRANCH  28  29
ATOM     29  C   UNL     1      27.973  12.898  34.997  1.00  0.00    -0.003 C 
ATOM     30  C   UNL     1      27.678  14.397  34.993  1.00  0.00     0.004 C 
ENDBRANCH  28  29
ENDBRANCH  27  28
ENDBRANCH  26  27
ENDBRANCH  25  26
ENDBRANCH  24  25
ENDBRANCH  23  24
ENDBRANCH  22  23
ENDBRANCH  21  22
ENDBRANCH  20  21
ENDBRANCH  19  20
ENDBRANCH  18  19
ENDBRANCH  17  18
ENDBRANCH   1  17
TORSDOF 26
ENDMDL
MODEL 7
REMARK VINA RESULT:    -4.225      3.178      7.623
REMARK INTER + INTRA:         -15.486
REMARK INTER:                 -11.193
REMARK INTRA:                  -4.294
REMARK UNBOUND:                -4.840
REMARK SMILES CCCCCCCCCCCCCCCCCCCCCCCCCCCC(=O)[O-]
REMARK SMILES IDX 15 1 16 2 17 3 18 4 19 5 20 6 21 7 22 8 23 9 24 10 25 11
REMARK SMILES IDX 26 12 27 13 28 14 29 15 30 16 14 17 13 18 12 19 11 20 10 21
REMARK SMILES IDX 9 22 8 23 7 24 6 25 5 26 4 27 3 28 2 29 1 30
REMARK H PARENT
REMARK Flexibility Score: inf
ROOT
ATOM      1  C   UNL     1      25.764  10.429  30.925  1.00  0.00     0.000 C 
ENDROOT
BRANCH   1   2
ATOM      2  C   UNL     1      25.107  10.849  29.595  1.00  0.00     0.000 C 
BRANCH   2   3
ATOM      3  C   UNL     1      24.025  11.938  29.712  1.00  0.00     0.000 C 
BRANCH   3   4
ATOM      4  C   UNL     1      22.609  11.404  29.440  1.00  0.00     0.000 C 
BRANCH   4   5
ATOM      5  C   UNL     1      22.529   9.865  29.473  1.00  0.00     0.000 C 
BRANCH   5   6
ATOM      6  C   UNL     1      21.190   9.280  29.960  1.00  0.00     0.000 C 
BRANCH   6   7
ATOM      7  C   UNL     1      20.579  10.066  31.131  1.00  0.00     0.000 C 
BRANCH   7   8
ATOM      8  C   UNL     1      19.250  10.754  30.765  1.00  0.00     0.000 C 
BRANCH   8   9
ATOM      9  C   UNL     1      18.526  11.458  31.927  1.00  0.00     0.000 C 
BRANCH   9  10
ATOM     10  C   UNL     1      18.806  10.804  33.291  1.00  0.00     0.000 C 
BRANCH  10  11
ATOM     11  C   UNL     1      18.437  11.709  34.480  1.00  0.00     0.000 C 
BRANCH  11  12
ATOM     12  C   UNL     1      19.117  11.357  35.818  1.00  0.00     0.006 C 
BRANCH  12  13
ATOM     13  C   UNL     1      19.853  10.004  35.814  1.00  0.00     0.053 C 
BRANCH  13  14
ATOM     14  C   UNL     1      18.992   8.879  36.309  1.00  0.00     0.041 C 
ATOM     15  O   UNL     1      18.939   8.612  37.538  1.00  0.00    -0.550 OA
ATOM     16  O   UNL     1      18.279   8.100  35.408  1.00  0.00    -0.550 OA
ENDBRANCH  13  14
ENDBRANCH  12  13
ENDBRANCH  11  12
ENDBRANCH  10  11
ENDBRANCH   9  10
ENDBRANCH   8   9
ENDBRANCH   7   8
ENDBRANCH   6   7
ENDBRANCH   5   6
ENDBRANCH   4   5
ENDBRANCH   3   4
ENDBRANCH   2   3
ENDBRANCH   1   2
BRANCH   1  17
ATOM     17  C   UNL     1      27.272  10.718  31.030  1.00  0.00     0.000 C 
BRANCH  17  18
ATOM     18  C   UNL     1      27.739  11.817  30.064  1.00  0.00     0.000 C 
BRANCH  18  19
ATOM     19  C   UNL     1      28.360  12.996  30.828  1.00  0.00     0.000 C 
BRANCH  19  20
ATOM     20  C   UNL     1      28.579  12.687  32.318  1.00  0.00     0.000 C 
BRANCH  20  21
ATOM     21  C   UNL     1      27.814  13.648  33.243  1.00  0.00     0.000 C 
BRANCH  21  22
ATOM     22  C   UNL     1      27.599  13.067  34.650  1.00  0.00    -0.000 C 
BRANCH  22  23
ATOM     23  C   UNL     1      27.357  11.548  34.631  1.00  0.00    -0.000 C 
BRANCH  23  24
ATOM     24  C   UNL     1      25.883  11.179  34.856  1.00  0.00    -0.000 C 
BRANCH  24  25
ATOM     25  C   UNL     1      25.152  12.189  35.753  1.00  0.00    -0.000 C 
BRANCH  25  26
ATOM     26  C   UNL     1      23.819  12.615  35.126  1.00  0.00    -0.000 C 
BRANCH  26  27
ATOM     27  C   UNL     1      23.783  12.281  33.626  1.00  0.00    -0.000 C 
BRANCH  27  28
ATOM     28  C   UNL     1      22.343  12.193  33.080  1.00  0.00    -0.000 C 
BRANCH  28  29
ATOM     29  C   UNL     1      21.451  13.377  33.493  1.00  0.00    -0.003 C 
ATOM     30  C   UNL     1      21.138  14.325  32.337  1.00  0.00     0.004 C 
ENDBRANCH  28  29
ENDBRANCH  27  28
ENDBRANCH  26  27
ENDBRANCH  25  26
ENDBRANCH  24  25
ENDBRANCH  23  24
ENDBRANCH  22  23
ENDBRANCH  21  22
ENDBRANCH  20  21
ENDBRANCH  19  20
ENDBRANCH  18  19
ENDBRANCH  17  18
ENDBRANCH   1  17
TORSDOF 26
ENDMDL
MODEL 8
REMARK VINA RESULT:    -4.199      1.805      6.823
REMARK INTER + INTRA:         -15.422
REMARK INTER:                 -10.789
REMARK INTRA:                  -4.633
REMARK UNBOUND:                -4.840
REMARK SMILES CCCCCCCCCCCCCCCCCCCCCCCCCCCC(=O)[O-]
REMARK SMILES IDX 15 1 16 2 17 3 18 4 19 5 20 6 21 7 22 8 23 9 24 10 25 11
REMARK SMILES IDX 26 12 27 13 28 14 29 15 30 16 14 17 13 18 12 19 11 20 10 21
REMARK SMILES IDX 9 22 8 23 7 24 6 25 5 26 4 27 3 28 2 29 1 30
REMARK H PARENT
REMARK Flexibility Score: inf
ROOT
ATOM      1  C   UNL     1      21.932  13.065  33.259  1.00  0.00     0.000 C 
ENDROOT
BRANCH   1   2
ATOM      2  C   UNL     1      21.713  12.968  34.782  1.00  0.00     0.000 C 
BRANCH   2   3
ATOM      3  C   UNL     1      20.327  13.418  35.277  1.00  0.00     0.000 C 
BRANCH   3   4
ATOM      4  C   UNL     1      19.557  12.298  35.996  1.00  0.00     0.000 C 
BRANCH   4   5
ATOM      5  C   UNL     1      19.567  10.967  35.220  1.00  0.00     0.000 C 
BRANCH   5   6
ATOM      6  C   UNL     1      18.582  10.880  34.039  1.00  0.00     0.000 C 
BRANCH   6   7
ATOM      7  C   UNL     1      18.961   9.795  33.017  1.00  0.00     0.000 C 
BRANCH   7   8
ATOM      8  C   UNL     1      19.322  10.370  31.635  1.00  0.00     0.000 C 
BRANCH   8   9
ATOM      9  C   UNL     1      19.826   9.345  30.602  1.00  0.00     0.000 C 
BRANCH   9  10
ATOM     10  C   UNL     1      21.304   9.549  30.228  1.00  0.00     0.000 C 
BRANCH  10  11
ATOM     11  C   UNL     1      21.490  10.272  28.883  1.00  0.00     0.000 C 
BRANCH  11  12
ATOM     12  C   UNL     1      22.284  11.592  28.944  1.00  0.00     0.006 C 
BRANCH  12  13
ATOM     13  C   UNL     1      21.410  12.858  28.875  1.00  0.00     0.053 C 
BRANCH  13  14
ATOM     14  C   UNL     1      22.044  14.033  29.559  1.00  0.00     0.041 C 
ATOM     15  O   UNL     1      21.390  14.713  30.392  1.00  0.00    -0.550 OA
ATOM     16  O   UNL     1      23.346  14.402  29.246  1.00  0.00    -0.550 OA
ENDBRANCH  13  14
ENDBRANCH  12  13
ENDBRANCH  11  12
ENDBRANCH  10  11
ENDBRANCH   9  10
ENDBRANCH   8   9
ENDBRANCH   7   8
ENDBRANCH   6   7
ENDBRANCH   5   6
ENDBRANCH   4   5
ENDBRANCH   3   4
ENDBRANCH   2   3
ENDBRANCH   1   2
BRANCH   1  17
ATOM     17  C   UNL     1      22.626  11.850  32.618  1.00  0.00     0.000 C 
BRANCH  17  18
ATOM     18  C   UNL     1      24.040  12.169  32.110  1.00  0.00     0.000 C 
BRANCH  18  19
ATOM     19  C   UNL     1      24.934  10.921  32.149  1.00  0.00     0.000 C 
BRANCH  19  20
ATOM     20  C   UNL     1      24.896  10.122  30.837  1.00  0.00     0.000 C 
BRANCH  20  21
ATOM     21  C   UNL     1      26.128  10.377  29.951  1.00  0.00     0.000 C 
BRANCH  21  22
ATOM     22  C   UNL     1      26.012  11.678  29.139  1.00  0.00    -0.000 C 
BRANCH  22  23
ATOM     23  C   UNL     1      26.880  12.810  29.712  1.00  0.00    -0.000 C 
BRANCH  23  24
ATOM     24  C   UNL     1      28.264  12.324  30.169  1.00  0.00    -0.000 C 
BRANCH  24  25
ATOM     25  C   UNL     1      28.801  13.112  31.372  1.00  0.00    -0.000 C 
BRANCH  25  26
ATOM     26  C   UNL     1      27.835  13.027  32.559  1.00  0.00    -0.000 C 
BRANCH  26  27
ATOM     27  C   UNL     1      28.463  12.251  33.728  1.00  0.00    -0.000 C 
BRANCH  27  28
ATOM     28  C   UNL     1      27.405  11.733  34.723  1.00  0.00    -0.000 C 
BRANCH  28  29
ATOM     29  C   UNL     1      26.423  12.817  35.202  1.00  0.00    -0.003 C 
ATOM     30  C   UNL     1      25.056  12.260  35.593  1.00  0.00     0.004 C 
ENDBRANCH  28  29
ENDBRANCH  27  28
ENDBRANCH  26  27
ENDBRANCH  25  26
ENDBRANCH  24  25
ENDBRANCH  23  24
ENDBRANCH  22  23
ENDBRANCH  21  22
ENDBRANCH  20  21
ENDBRANCH  19  20
ENDBRANCH  18  19
ENDBRANCH  17  18
ENDBRANCH   1  17
TORSDOF 26
ENDMDL
MODEL 9
REMARK VINA RESULT:    -4.162      2.455      6.795
REMARK INTER + INTRA:         -15.327
REMARK INTER:                 -10.635
REMARK INTRA:                  -4.692
REMARK UNBOUND:                -4.840
REMARK SMILES CCCCCCCCCCCCCCCCCCCCCCCCCCCC(=O)[O-]
REMARK SMILES IDX 15 1 16 2 17 3 18 4 19 5 20 6 21 7 22 8 23 9 24 10 25 11
REMARK SMILES IDX 26 12 27 13 28 14 29 15 30 16 14 17 13 18 12 19 11 20 10 21
REMARK SMILES IDX 9 22 8 23 7 24 6 25 5 26 4 27 3 28 2 29 1 30
REMARK H PARENT
REMARK Flexibility Score: inf
ROOT
ATOM      1  C   UNL     1      26.342  12.369  34.509  1.00  0.00     0.000 C 
ENDROOT
BRANCH   1   2
ATOM      2  C   UNL     1      25.152  11.686  35.215  1.00  0.00     0.000 C 
BRANCH   2   3
ATOM      3  C   UNL     1      24.007  12.627  35.631  1.00  0.00     0.000 C 
BRANCH   3   4
ATOM      4  C   UNL     1      22.841  12.627  34.628  1.00  0.00     0.000 C 
BRANCH   4   5
ATOM      5  C   UNL     1      21.486  12.289  35.281  1.00  0.00     0.000 C 
BRANCH   5   6
ATOM      6  C   UNL     1      20.445  13.424  35.276  1.00  0.00     0.000 C 
BRANCH   6   7
ATOM      7  C   UNL     1      19.039  12.954  35.681  1.00  0.00     0.000 C 
BRANCH   7   8
ATOM      8  C   UNL     1      18.025  13.024  34.524  1.00  0.00     0.000 C 
BRANCH   8   9
ATOM      9  C   UNL     1      17.875  11.735  33.695  1.00  0.00     0.000 C 
BRANCH   9  10
ATOM     10  C   UNL     1      18.807  11.698  32.472  1.00  0.00     0.000 C 
BRANCH  10  11
ATOM     11  C   UNL     1      19.838  10.558  32.536  1.00  0.00     0.000 C 
BRANCH  11  12
ATOM     12  C   UNL     1      21.198  10.856  31.873  1.00  0.00     0.006 C 
BRANCH  12  13
ATOM     13  C   UNL     1      21.567   9.893  30.729  1.00  0.00     0.053 C 
BRANCH  13  14
ATOM     14  C   UNL     1      20.397   9.575  29.845  1.00  0.00     0.041 C 
ATOM     15  O   UNL     1      19.838  10.484  29.178  1.00  0.00    -0.550 OA
ATOM     16  O   UNL     1      19.899   8.279  29.788  1.00  0.00    -0.550 OA
ENDBRANCH  13  14
ENDBRANCH  12  13
ENDBRANCH  11  12
ENDBRANCH  10  11
ENDBRANCH   9  10
ENDBRANCH   8   9
ENDBRANCH   7   8
ENDBRANCH   6   7
ENDBRANCH   5   6
ENDBRANCH   4   5
ENDBRANCH   3   4
ENDBRANCH   2   3
ENDBRANCH   1   2
BRANCH   1  17
ATOM     17  C   UNL     1      27.672  11.597  34.573  1.00  0.00     0.000 C 
BRANCH  17  18
ATOM     18  C   UNL     1      28.751  12.191  33.655  1.00  0.00     0.000 C 
BRANCH  18  19
ATOM     19  C   UNL     1      28.137  13.170  32.643  1.00  0.00     0.000 C 
BRANCH  19  20
ATOM     20  C   UNL     1      28.183  12.640  31.202  1.00  0.00     0.000 C 
BRANCH  20  21
ATOM     21  C   UNL     1      27.860  11.138  31.111  1.00  0.00     0.000 C 
BRANCH  21  22
ATOM     22  C   UNL     1      26.535  10.864  30.381  1.00  0.00    -0.000 C 
BRANCH  22  23
ATOM     23  C   UNL     1      25.314  10.991  31.308  1.00  0.00    -0.000 C 
BRANCH  23  24
ATOM     24  C   UNL     1      24.509  12.275  31.056  1.00  0.00    -0.000 C 
BRANCH  24  25
ATOM     25  C   UNL     1      25.008  13.055  29.830  1.00  0.00    -0.000 C 
BRANCH  25  26
ATOM     26  C   UNL     1      23.868  13.852  29.185  1.00  0.00    -0.000 C 
BRANCH  26  27
ATOM     27  C   UNL     1      22.512  13.170  29.428  1.00  0.00    -0.000 C 
BRANCH  27  28
ATOM     28  C   UNL     1      21.329  14.148  29.274  1.00  0.00    -0.000 C 
BRANCH  28  29
ATOM     29  C   UNL     1      20.446  14.253  30.531  1.00  0.00    -0.003 C 
ATOM     30  C   UNL     1      21.246  14.510  31.807  1.00  0.00     0.004 C 
ENDBRANCH  28  29
ENDBRANCH  27  28
ENDBRANCH  26  27
ENDBRANCH  25  26
ENDBRANCH  24  25
ENDBRANCH  23  24
ENDBRANCH  22  23
ENDBRANCH  21  22
ENDBRANCH  20  21
ENDBRANCH  19  20
ENDBRANCH  18  19
ENDBRANCH  17  18
ENDBRANCH   1  17
TORSDOF 26
ENDMDL
