MODEL 1
REMARK VINA RESULT:    -5.303      0.000      0.000
REMARK INTER + INTRA:         -15.798
REMARK INTER:                 -13.363
REMARK INTRA:                  -2.436
REMARK UNBOUND:                -2.436
REMARK SMILES CCCCCCCCCCCCCCCCCCCCCCCCCCCC(=O)[O-]
REMARK SMILES IDX 15 1 16 2 17 3 18 4 19 5 20 6 21 7 22 8 23 9 24 10 25 11
REMARK SMILES IDX 26 12 27 13 28 14 29 15 30 16 14 17 13 18 12 19 11 20 10 21
REMARK SMILES IDX 9 22 8 23 7 24 6 25 5 26 4 27 3 28 2 29 1 30
REMARK H PARENT
REMARK Flexibility Score: inf
ROOT
ATOM      1  C   UNL     1      97.295 127.957 127.861  1.00  0.00     0.000 C 
ENDROOT
BRANCH   1   2
ATOM      2  C   UNL     1      97.675 126.486 128.141  1.00  0.00     0.000 C 
BRANCH   2   3
ATOM      3  C   UNL     1      97.839 125.577 126.903  1.00  0.00     0.000 C 
BRANCH   3   4
ATOM      4  C   UNL     1      98.034 124.078 127.194  1.00  0.00     0.000 C 
BRANCH   4   5
ATOM      5  C   UNL     1      98.072 123.218 125.918  1.00  0.00     0.000 C 
BRANCH   5   6
ATOM      6  C   UNL     1      96.838 123.427 125.027  1.00  0.00     0.000 C 
BRANCH   6   7
ATOM      7  C   UNL     1      96.651 122.288 124.010  1.00  0.00     0.000 C 
BRANCH   7   8
ATOM      8  C   UNL     1      96.091 122.782 122.667  1.00  0.00     0.000 C 
BRANCH   8   9
ATOM      9  C   UNL     1      94.570 122.579 122.545  1.00  0.00     0.000 C 
BRANCH   9  10
ATOM     10  C   UNL     1      94.205 121.405 121.614  1.00  0.00     0.000 C 
BRANCH  10  11
ATOM     11  C   UNL     1      92.998 121.680 120.695  1.00  0.00     0.000 C 
BRANCH  11  12
ATOM     12  C   UNL     1      93.263 121.394 119.203  1.00  0.00     0.006 C 
BRANCH  12  13
ATOM     13  C   UNL     1      92.043 121.700 118.323  1.00  0.00     0.053 C 
BRANCH  13  14
ATOM     14  C   UNL     1      92.470 122.333 117.035  1.00  0.00     0.041 C 
ATOM     15  O   UNL     1      92.658 121.623 116.011  1.00  0.00    -0.550 OA
ATOM     16  O   UNL     1      92.715 123.700 116.981  1.00  0.00    -0.550 OA
ENDBRANCH  13  14
ENDBRANCH  12  13
ENDBRANCH  11  12
ENDBRANCH  10  11
ENDBRANCH   9  10
ENDBRANCH   8   9
ENDBRANCH   7   8
ENDBRANCH   6   7
ENDBRANCH   5   6
ENDBRANCH   4   5
ENDBRANCH   3   4
ENDBRANCH   2   3
ENDBRANCH   1   2
BRANCH   1  17
ATOM     17  C   UNL     1      96.382 128.601 128.920  1.00  0.00     0.000 C 
BRANCH  17  18
ATOM     18  C   UNL     1      96.734 130.070 129.226  1.00  0.00     0.000 C 
BRANCH  18  19
ATOM     19  C   UNL     1      97.252 130.267 130.658  1.00  0.00     0.000 C 
BRANCH  19  20
ATOM     20  C   UNL     1      98.249 129.174 131.081  1.00  0.00     0.000 C 
BRANCH  20  21
ATOM     21  C   UNL     1      99.714 129.641 131.011  1.00  0.00     0.000 C 
BRANCH  21  22
ATOM     22  C   UNL     1     100.718 128.557 130.581  1.00  0.00    -0.000 C 
BRANCH  22  23
ATOM     23  C   UNL     1     101.251 128.763 129.153  1.00  0.00    -0.000 C 
BRANCH  23  24
ATOM     24  C   UNL     1     100.312 129.649 128.305  1.00  0.00    -0.000 C 
BRANCH  24  25
ATOM     25  C   UNL     1     101.047 130.510 127.266  1.00  0.00    -0.000 C 
BRANCH  25  26
ATOM     26  C   UNL     1     101.260 129.781 125.930  1.00  0.00    -0.000 C 
BRANCH  26  27
ATOM     27  C   UNL     1     100.496 128.449 125.848  1.00  0.00    -0.000 C 
BRANCH  27  28
ATOM     28  C   UNL     1     100.871 127.592 124.620  1.00  0.00    -0.000 C 
BRANCH  28  29
ATOM     29  C   UNL     1     101.925 126.527 124.952  1.00  0.00    -0.003 C 
ATOM     30  C   UNL     1     101.546 125.751 126.209  1.00  0.00     0.004 C 
ENDBRANCH  28  29
ENDBRANCH  27  28
ENDBRANCH  26  27
ENDBRANCH  25  26
ENDBRANCH  24  25
ENDBRANCH  23  24
ENDBRANCH  22  23
ENDBRANCH  21  22
ENDBRANCH  20  21
ENDBRANCH  19  20
ENDBRANCH  18  19
ENDBRANCH  17  18
ENDBRANCH   1  17
TORSDOF 26
ENDMDL
MODEL 2
REMARK VINA RESULT:    -5.225      1.201      4.073
REMARK INTER + INTRA:         -15.602
REMARK INTER:                 -12.755
REMARK INTRA:                  -2.846
REMARK UNBOUND:                -2.436
REMARK SMILES CCCCCCCCCCCCCCCCCCCCCCCCCCCC(=O)[O-]
REMARK SMILES IDX 15 1 16 2 17 3 18 4 19 5 20 6 21 7 22 8 23 9 24 10 25 11
REMARK SMILES IDX 26 12 27 13 28 14 29 15 30 16 14 17 13 18 12 19 11 20 10 21
REMARK SMILES IDX 9 22 8 23 7 24 6 25 5 26 4 27 3 28 2 29 1 30
REMARK H PARENT
REMARK Flexibility Score: inf
ROOT
ATOM      1  C   UNL     1     100.420 124.627 128.347  1.00  0.00     0.000 C 
ENDROOT
BRANCH   1   2
ATOM      2  C   UNL     1      99.013 124.416 127.744  1.00  0.00     0.000 C 
BRANCH   2   3
ATOM      3  C   UNL     1      98.890 123.311 126.672  1.00  0.00     0.000 C 
BRANCH   3   4
ATOM      4  C   UNL     1      97.560 123.277 125.897  1.00  0.00     0.000 C 
BRANCH   4   5
ATOM      5  C   UNL     1      97.091 124.672 125.448  1.00  0.00     0.000 C 
BRANCH   5   6
ATOM      6  C   UNL     1      96.318 124.637 124.120  1.00  0.00     0.000 C 
BRANCH   6   7
ATOM      7  C   UNL     1      95.000 123.849 124.231  1.00  0.00     0.000 C 
BRANCH   7   8
ATOM      8  C   UNL     1      95.090 122.456 123.591  1.00  0.00     0.000 C 
BRANCH   8   9
ATOM      9  C   UNL     1      96.178 122.368 122.505  1.00  0.00     0.000 C 
BRANCH   9  10
ATOM     10  C   UNL     1      95.690 121.627 121.243  1.00  0.00     0.000 C 
BRANCH  10  11
ATOM     11  C   UNL     1      94.158 121.617 121.070  1.00  0.00     0.000 C 
BRANCH  11  12
ATOM     12  C   UNL     1      93.681 121.079 119.706  1.00  0.00     0.006 C 
BRANCH  12  13
ATOM     13  C   UNL     1      92.635 121.993 119.050  1.00  0.00     0.053 C 
BRANCH  13  14
ATOM     14  C   UNL     1      92.583 121.755 117.573  1.00  0.00     0.041 C 
ATOM     15  O   UNL     1      91.695 122.308 116.872  1.00  0.00    -0.550 OA
ATOM     16  O   UNL     1      93.481 120.875 116.980  1.00  0.00    -0.550 OA
ENDBRANCH  13  14
ENDBRANCH  12  13
ENDBRANCH  11  12
ENDBRANCH  10  11
ENDBRANCH   9  10
ENDBRANCH   8   9
ENDBRANCH   7   8
ENDBRANCH   6   7
ENDBRANCH   5   6
ENDBRANCH   4   5
ENDBRANCH   3   4
ENDBRANCH   2   3
ENDBRANCH   1   2
BRANCH   1  17
ATOM     17  C   UNL     1     101.156 125.883 127.846  1.00  0.00     0.000 C 
BRANCH  17  18
ATOM     18  C   UNL     1     101.749 125.728 126.433  1.00  0.00     0.000 C 
BRANCH  18  19
ATOM     19  C   UNL     1     100.996 126.557 125.382  1.00  0.00     0.000 C 
BRANCH  19  20
ATOM     20  C   UNL     1     100.062 127.604 126.016  1.00  0.00     0.000 C 
BRANCH  20  21
ATOM     21  C   UNL     1     100.721 128.987 126.153  1.00  0.00     0.000 C 
BRANCH  21  22
ATOM     22  C   UNL     1     100.203 129.835 127.329  1.00  0.00    -0.000 C 
BRANCH  22  23
ATOM     23  C   UNL     1     101.332 130.499 128.135  1.00  0.00    -0.000 C 
BRANCH  23  24
ATOM     24  C   UNL     1     101.381 129.989 129.592  1.00  0.00    -0.000 C 
BRANCH  24  25
ATOM     25  C   UNL     1     100.454 128.793 129.860  1.00  0.00    -0.000 C 
BRANCH  25  26
ATOM     26  C   UNL     1      99.396 129.087 130.935  1.00  0.00    -0.000 C 
BRANCH  26  27
ATOM     27  C   UNL     1      98.183 128.146 130.851  1.00  0.00    -0.000 C 
BRANCH  27  28
ATOM     28  C   UNL     1      97.684 127.902 129.410  1.00  0.00    -0.000 C 
BRANCH  28  29
ATOM     29  C   UNL     1      96.297 128.513 129.163  1.00  0.00    -0.003 C 
ATOM     30  C   UNL     1      96.201 129.918 129.751  1.00  0.00     0.004 C 
ENDBRANCH  28  29
ENDBRANCH  27  28
ENDBRANCH  26  27
ENDBRANCH  25  26
ENDBRANCH  24  25
ENDBRANCH  23  24
ENDBRANCH  22  23
ENDBRANCH  21  22
ENDBRANCH  20  21
ENDBRANCH  19  20
ENDBRANCH  18  19
ENDBRANCH  17  18
ENDBRANCH   1  17
TORSDOF 26
ENDMDL
MODEL 3
REMARK VINA RESULT:    -5.187      3.487     10.310
REMARK INTER + INTRA:         -15.505
REMARK INTER:                 -12.836
REMARK INTRA:                  -2.670
REMARK UNBOUND:                -2.436
REMARK SMILES CCCCCCCCCCCCCCCCCCCCCCCCCCCC(=O)[O-]
REMARK SMILES IDX 15 1 16 2 17 3 18 4 19 5 20 6 21 7 22 8 23 9 24 10 25 11
REMARK SMILES IDX 26 12 27 13 28 14 29 15 30 16 14 17 13 18 12 19 11 20 10 21
REMARK SMILES IDX 9 22 8 23 7 24 6 25 5 26 4 27 3 28 2 29 1 30
REMARK H PARENT
REMARK Flexibility Score: inf
ROOT
ATOM      1  C   UNL     1      99.342 122.763 127.825  1.00  0.00     0.000 C 
ENDROOT
BRANCH   1   2
ATOM      2  C   UNL     1      99.750 122.944 129.304  1.00  0.00     0.000 C 
BRANCH   2   3
ATOM      3  C   UNL     1     100.386 124.302 129.674  1.00  0.00     0.000 C 
BRANCH   3   4
ATOM      4  C   UNL     1      99.577 125.175 130.651  1.00  0.00     0.000 C 
BRANCH   4   5
ATOM      5  C   UNL     1      98.062 125.131 130.383  1.00  0.00     0.000 C 
BRANCH   5   6
ATOM      6  C   UNL     1      97.449 126.531 130.225  1.00  0.00     0.000 C 
BRANCH   6   7
ATOM      7  C   UNL     1      98.007 127.281 129.003  1.00  0.00     0.000 C 
BRANCH   7   8
ATOM      8  C   UNL     1      98.649 128.625 129.378  1.00  0.00     0.000 C 
BRANCH   8   9
ATOM      9  C   UNL     1     100.184 128.547 129.470  1.00  0.00     0.000 C 
BRANCH   9  10
ATOM     10  C   UNL     1     100.871 129.823 128.943  1.00  0.00     0.000 C 
BRANCH  10  11
ATOM     11  C   UNL     1     100.594 130.120 127.455  1.00  0.00     0.000 C 
BRANCH  11  12
ATOM     12  C   UNL     1     101.565 129.425 126.481  1.00  0.00     0.006 C 
BRANCH  12  13
ATOM     13  C   UNL     1     101.253 127.931 126.310  1.00  0.00     0.053 C 
BRANCH  13  14
ATOM     14  C   UNL     1     101.455 127.512 124.888  1.00  0.00     0.041 C 
ATOM     15  O   UNL     1     101.030 128.234 123.947  1.00  0.00    -0.550 OA
ATOM     16  O   UNL     1     102.061 126.294 124.603  1.00  0.00    -0.550 OA
ENDBRANCH  13  14
ENDBRANCH  12  13
ENDBRANCH  11  12
ENDBRANCH  10  11
ENDBRANCH   9  10
ENDBRANCH   8   9
ENDBRANCH   7   8
ENDBRANCH   6   7
ENDBRANCH   5   6
ENDBRANCH   4   5
ENDBRANCH   3   4
ENDBRANCH   2   3
ENDBRANCH   1   2
BRANCH   1  17
ATOM     17  C   UNL     1      99.824 123.879 126.880  1.00  0.00     0.000 C 
BRANCH  17  18
ATOM     18  C   UNL     1      98.774 124.982 126.643  1.00  0.00     0.000 C 
BRANCH  18  19
ATOM     19  C   UNL     1      97.345 124.427 126.560  1.00  0.00     0.000 C 
BRANCH  19  20
ATOM     20  C   UNL     1      96.805 124.398 125.120  1.00  0.00     0.000 C 
BRANCH  20  21
ATOM     21  C   UNL     1      96.783 122.982 124.518  1.00  0.00     0.000 C 
BRANCH  21  22
ATOM     22  C   UNL     1      96.025 122.859 123.185  1.00  0.00    -0.000 C 
BRANCH  22  23
ATOM     23  C   UNL     1      94.515 123.119 123.325  1.00  0.00    -0.000 C 
BRANCH  23  24
ATOM     24  C   UNL     1      93.672 122.037 122.617  1.00  0.00    -0.000 C 
BRANCH  24  25
ATOM     25  C   UNL     1      94.406 121.338 121.462  1.00  0.00    -0.000 C 
BRANCH  25  26
ATOM     26  C   UNL     1      93.518 121.138 120.224  1.00  0.00    -0.000 C 
BRANCH  26  27
ATOM     27  C   UNL     1      94.315 121.157 118.908  1.00  0.00    -0.000 C 
BRANCH  27  28
ATOM     28  C   UNL     1      93.428 121.227 117.646  1.00  0.00    -0.000 C 
BRANCH  28  29
ATOM     29  C   UNL     1      92.335 122.298 117.762  1.00  0.00    -0.003 C 
ATOM     30  C   UNL     1      92.703 123.549 116.969  1.00  0.00     0.004 C 
ENDBRANCH  28  29
ENDBRANCH  27  28
ENDBRANCH  26  27
ENDBRANCH  25  26
ENDBRANCH  24  25
ENDBRANCH  23  24
ENDBRANCH  22  23
ENDBRANCH  21  22
ENDBRANCH  20  21
ENDBRANCH  19  20
ENDBRANCH  18  19
ENDBRANCH  17  18
ENDBRANCH   1  17
TORSDOF 26
ENDMDL
MODEL 4
REMARK VINA RESULT:    -4.916      1.825      4.557
REMARK INTER + INTRA:         -14.823
REMARK INTER:                 -10.997
REMARK INTRA:                  -3.826
REMARK UNBOUND:                -2.436
REMARK SMILES CCCCCCCCCCCCCCCCCCCCCCCCCCCC(=O)[O-]
REMARK SMILES IDX 15 1 16 2 17 3 18 4 19 5 20 6 21 7 22 8 23 9 24 10 25 11
REMARK SMILES IDX 26 12 27 13 28 14 29 15 30 16 14 17 13 18 12 19 11 20 10 21
REMARK SMILES IDX 9 22 8 23 7 24 6 25 5 26 4 27 3 28 2 29 1 30
REMARK H PARENT
REMARK Flexibility Score: inf
ROOT
ATOM      1  C   UNL     1     100.934 127.378 129.855  1.00  0.00     0.000 C 
ENDROOT
BRANCH   1   2
ATOM      2  C   UNL     1      99.467 127.387 130.339  1.00  0.00     0.000 C 
BRANCH   2   3
ATOM      3  C   UNL     1      98.586 126.209 129.869  1.00  0.00     0.000 C 
BRANCH   3   4
ATOM      4  C   UNL     1      97.445 126.572 128.901  1.00  0.00     0.000 C 
BRANCH   4   5
ATOM      5  C   UNL     1      97.903 126.640 127.433  1.00  0.00     0.000 C 
BRANCH   5   6
ATOM      6  C   UNL     1      97.592 125.352 126.656  1.00  0.00     0.000 C 
BRANCH   6   7
ATOM      7  C   UNL     1      97.689 125.549 125.133  1.00  0.00     0.000 C 
BRANCH   7   8
ATOM      8  C   UNL     1      96.446 125.037 124.390  1.00  0.00     0.000 C 
BRANCH   8   9
ATOM      9  C   UNL     1      96.370 123.500 124.345  1.00  0.00     0.000 C 
BRANCH   9  10
ATOM     10  C   UNL     1      95.713 122.981 123.050  1.00  0.00     0.000 C 
BRANCH  10  11
ATOM     11  C   UNL     1      94.327 122.337 123.259  1.00  0.00     0.000 C 
BRANCH  11  12
ATOM     12  C   UNL     1      93.481 122.228 121.975  1.00  0.00     0.006 C 
BRANCH  12  13
ATOM     13  C   UNL     1      93.838 120.988 121.143  1.00  0.00     0.053 C 
BRANCH  13  14
ATOM     14  C   UNL     1      93.847 121.319 119.683  1.00  0.00     0.041 C 
ATOM     15  O   UNL     1      94.924 121.289 119.032  1.00  0.00    -0.550 OA
ATOM     16  O   UNL     1      92.672 121.718 119.056  1.00  0.00    -0.550 OA
ENDBRANCH  13  14
ENDBRANCH  12  13
ENDBRANCH  11  12
ENDBRANCH  10  11
ENDBRANCH   9  10
ENDBRANCH   8   9
ENDBRANCH   7   8
ENDBRANCH   6   7
ENDBRANCH   5   6
ENDBRANCH   4   5
ENDBRANCH   3   4
ENDBRANCH   2   3
ENDBRANCH   1   2
BRANCH   1  17
ATOM     17  C   UNL     1     101.342 128.595 129.005  1.00  0.00     0.000 C 
BRANCH  17  18
ATOM     18  C   UNL     1     100.172 129.219 128.220  1.00  0.00     0.000 C 
BRANCH  18  19
ATOM     19  C   UNL     1     100.624 130.359 127.295  1.00  0.00     0.000 C 
BRANCH  19  20
ATOM     20  C   UNL     1     101.056 129.856 125.907  1.00  0.00     0.000 C 
BRANCH  20  21
ATOM     21  C   UNL     1     100.398 128.519 125.524  1.00  0.00     0.000 C 
BRANCH  21  22
ATOM     22  C   UNL     1     101.124 127.736 124.415  1.00  0.00    -0.000 C 
BRANCH  22  23
ATOM     23  C   UNL     1     101.892 126.513 124.946  1.00  0.00    -0.000 C 
BRANCH  23  24
ATOM     24  C   UNL     1     101.395 126.078 126.341  1.00  0.00    -0.000 C 
BRANCH  24  25
ATOM     25  C   UNL     1     101.199 124.560 126.482  1.00  0.00    -0.000 C 
BRANCH  25  26
ATOM     26  C   UNL     1     100.919 124.125 127.929  1.00  0.00    -0.000 C 
BRANCH  26  27
ATOM     27  C   UNL     1     100.120 122.814 128.015  1.00  0.00    -0.000 C 
BRANCH  27  28
ATOM     28  C   UNL     1     100.204 122.125 129.394  1.00  0.00    -0.000 C 
BRANCH  28  29
ATOM     29  C   UNL     1      99.551 122.960 130.504  1.00  0.00    -0.003 C 
ATOM     30  C   UNL     1      98.057 122.666 130.608  1.00  0.00     0.004 C 
ENDBRANCH  28  29
ENDBRANCH  27  28
ENDBRANCH  26  27
ENDBRANCH  25  26
ENDBRANCH  24  25
ENDBRANCH  23  24
ENDBRANCH  22  23
ENDBRANCH  21  22
ENDBRANCH  20  21
ENDBRANCH  19  20
ENDBRANCH  18  19
ENDBRANCH  17  18
ENDBRANCH   1  17
TORSDOF 26
ENDMDL
MODEL 5
REMARK VINA RESULT:    -4.915      2.080      4.224
REMARK INTER + INTRA:         -14.821
REMARK INTER:                 -11.859
REMARK INTRA:                  -2.961
REMARK UNBOUND:                -2.436
REMARK SMILES CCCCCCCCCCCCCCCCCCCCCCCCCCCC(=O)[O-]
REMARK SMILES IDX 15 1 16 2 17 3 18 4 19 5 20 6 21 7 22 8 23 9 24 10 25 11
REMARK SMILES IDX 26 12 27 13 28 14 29 15 30 16 14 17 13 18 12 19 11 20 10 21
REMARK SMILES IDX 9 22 8 23 7 24 6 25 5 26 4 27 3 28 2 29 1 30
REMARK H PARENT
REMARK Flexibility Score: inf
ROOT
ATOM      1  C   UNL     1      99.986 128.592 128.082  1.00  0.00     0.000 C 
ENDROOT
BRANCH   1   2
ATOM      2  C   UNL     1     100.019 128.928 126.575  1.00  0.00     0.000 C 
BRANCH   2   3
ATOM      3  C   UNL     1     100.327 127.754 125.621  1.00  0.00     0.000 C 
BRANCH   3   4
ATOM      4  C   UNL     1      99.514 126.468 125.858  1.00  0.00     0.000 C 
BRANCH   4   5
ATOM      5  C   UNL     1      98.083 126.551 125.298  1.00  0.00     0.000 C 
BRANCH   5   6
ATOM      6  C   UNL     1      97.288 125.253 125.513  1.00  0.00     0.000 C 
BRANCH   6   7
ATOM      7  C   UNL     1      96.493 124.840 124.262  1.00  0.00     0.000 C 
BRANCH   7   8
ATOM      8  C   UNL     1      95.869 123.442 124.393  1.00  0.00     0.000 C 
BRANCH   8   9
ATOM      9  C   UNL     1      96.569 122.392 123.511  1.00  0.00     0.000 C 
BRANCH   9  10
ATOM     10  C   UNL     1      95.879 122.219 122.143  1.00  0.00     0.000 C 
BRANCH  10  11
ATOM     11  C   UNL     1      94.338 122.281 122.201  1.00  0.00     0.000 C 
BRANCH  11  12
ATOM     12  C   UNL     1      93.632 121.180 121.384  1.00  0.00     0.006 C 
BRANCH  12  13
ATOM     13  C   UNL     1      92.846 121.749 120.194  1.00  0.00     0.053 C 
BRANCH  13  14
ATOM     14  C   UNL     1      93.602 121.544 118.919  1.00  0.00     0.041 C 
ATOM     15  O   UNL     1      93.105 121.907 117.820  1.00  0.00    -0.550 OA
ATOM     16  O   UNL     1      94.834 120.899 118.939  1.00  0.00    -0.550 OA
ENDBRANCH  13  14
ENDBRANCH  12  13
ENDBRANCH  11  12
ENDBRANCH  10  11
ENDBRANCH   9  10
ENDBRANCH   8   9
ENDBRANCH   7   8
ENDBRANCH   6   7
ENDBRANCH   5   6
ENDBRANCH   4   5
ENDBRANCH   3   4
ENDBRANCH   2   3
ENDBRANCH   1   2
BRANCH   1  17
ATOM     17  C   UNL     1      99.160 129.564 128.944  1.00  0.00     0.000 C 
BRANCH  17  18
ATOM     18  C   UNL     1      97.701 129.718 128.472  1.00  0.00     0.000 C 
BRANCH  18  19
ATOM     19  C   UNL     1      96.942 128.383 128.454  1.00  0.00     0.000 C 
BRANCH  19  20
ATOM     20  C   UNL     1      96.273 128.066 129.803  1.00  0.00     0.000 C 
BRANCH  20  21
ATOM     21  C   UNL     1      96.887 126.840 130.502  1.00  0.00     0.000 C 
BRANCH  21  22
ATOM     22  C   UNL     1      98.000 126.134 129.707  1.00  0.00    -0.000 C 
BRANCH  22  23
ATOM     23  C   UNL     1      98.565 124.900 130.430  1.00  0.00    -0.000 C 
BRANCH  23  24
ATOM     24  C   UNL     1      98.726 123.694 129.480  1.00  0.00    -0.000 C 
BRANCH  24  25
ATOM     25  C   UNL     1      99.160 122.401 130.190  1.00  0.00    -0.000 C 
BRANCH  25  26
ATOM     26  C   UNL     1     100.330 121.697 129.485  1.00  0.00    -0.000 C 
BRANCH  26  27
ATOM     27  C   UNL     1     100.828 122.461 128.246  1.00  0.00    -0.000 C 
BRANCH  27  28
ATOM     28  C   UNL     1     101.141 121.551 127.039  1.00  0.00    -0.000 C 
BRANCH  28  29
ATOM     29  C   UNL     1      99.873 120.942 126.425  1.00  0.00    -0.003 C 
ATOM     30  C   UNL     1      98.802 122.006 126.205  1.00  0.00     0.004 C 
ENDBRANCH  28  29
ENDBRANCH  27  28
ENDBRANCH  26  27
ENDBRANCH  25  26
ENDBRANCH  24  25
ENDBRANCH  23  24
ENDBRANCH  22  23
ENDBRANCH  21  22
ENDBRANCH  20  21
ENDBRANCH  19  20
ENDBRANCH  18  19
ENDBRANCH  17  18
ENDBRANCH   1  17
TORSDOF 26
ENDMDL
MODEL 6
REMARK VINA RESULT:    -4.886      1.658      3.588
REMARK INTER + INTRA:         -14.747
REMARK INTER:                 -11.103
REMARK INTRA:                  -3.643
REMARK UNBOUND:                -2.436
REMARK SMILES CCCCCCCCCCCCCCCCCCCCCCCCCCCC(=O)[O-]
REMARK SMILES IDX 15 1 16 2 17 3 18 4 19 5 20 6 21 7 22 8 23 9 24 10 25 11
REMARK SMILES IDX 26 12 27 13 28 14 29 15 30 16 14 17 13 18 12 19 11 20 10 21
REMARK SMILES IDX 9 22 8 23 7 24 6 25 5 26 4 27 3 28 2 29 1 30
REMARK H PARENT
REMARK Flexibility Score: inf
ROOT
ATOM      1  C   UNL     1     100.362 126.667 125.891  1.00  0.00     0.000 C 
ENDROOT
BRANCH   1   2
ATOM      2  C   UNL     1      98.848 126.364 125.924  1.00  0.00     0.000 C 
BRANCH   2   3
ATOM      3  C   UNL     1      98.437 124.911 125.600  1.00  0.00     0.000 C 
BRANCH   3   4
ATOM      4  C   UNL     1      97.233 124.364 126.389  1.00  0.00     0.000 C 
BRANCH   4   5
ATOM      5  C   UNL     1      96.080 123.902 125.482  1.00  0.00     0.000 C 
BRANCH   5   6
ATOM      6  C   UNL     1      96.468 123.882 123.995  1.00  0.00     0.000 C 
BRANCH   6   7
ATOM      7  C   UNL     1      96.525 122.454 123.423  1.00  0.00     0.000 C 
BRANCH   7   8
ATOM      8  C   UNL     1      95.584 122.261 122.225  1.00  0.00     0.000 C 
BRANCH   8   9
ATOM      9  C   UNL     1      94.119 122.596 122.558  1.00  0.00     0.000 C 
BRANCH   9  10
ATOM     10  C   UNL     1      93.124 121.642 121.866  1.00  0.00     0.000 C 
BRANCH  10  11
ATOM     11  C   UNL     1      93.618 121.088 120.513  1.00  0.00     0.000 C 
BRANCH  11  12
ATOM     12  C   UNL     1      92.857 121.639 119.291  1.00  0.00     0.006 C 
BRANCH  12  13
ATOM     13  C   UNL     1      93.564 121.316 117.967  1.00  0.00     0.053 C 
BRANCH  13  14
ATOM     14  C   UNL     1      92.763 121.820 116.807  1.00  0.00     0.041 C 
ATOM     15  O   UNL     1      92.458 121.045 115.862  1.00  0.00    -0.550 OA
ATOM     16  O   UNL     1      92.402 123.161 116.743  1.00  0.00    -0.550 OA
ENDBRANCH  13  14
ENDBRANCH  12  13
ENDBRANCH  11  12
ENDBRANCH  10  11
ENDBRANCH   9  10
ENDBRANCH   8   9
ENDBRANCH   7   8
ENDBRANCH   6   7
ENDBRANCH   5   6
ENDBRANCH   4   5
ENDBRANCH   3   4
ENDBRANCH   2   3
ENDBRANCH   1   2
BRANCH   1  17
ATOM     17  C   UNL     1     101.035 126.753 127.274  1.00  0.00     0.000 C 
BRANCH  17  18
ATOM     18  C   UNL     1     101.482 128.177 127.654  1.00  0.00     0.000 C 
BRANCH  18  19
ATOM     19  C   UNL     1     100.748 129.261 126.850  1.00  0.00     0.000 C 
BRANCH  19  20
ATOM     20  C   UNL     1      99.997 130.256 127.751  1.00  0.00     0.000 C 
BRANCH  20  21
ATOM     21  C   UNL     1      99.099 129.562 128.791  1.00  0.00     0.000 C 
BRANCH  21  22
ATOM     22  C   UNL     1      97.676 129.240 128.302  1.00  0.00    -0.000 C 
BRANCH  22  23
ATOM     23  C   UNL     1      97.259 127.785 128.582  1.00  0.00    -0.000 C 
BRANCH  23  24
ATOM     24  C   UNL     1      98.147 127.125 129.658  1.00  0.00    -0.000 C 
BRANCH  24  25
ATOM     25  C   UNL     1      97.987 125.598 129.740  1.00  0.00    -0.000 C 
BRANCH  25  26
ATOM     26  C   UNL     1      99.331 124.864 129.876  1.00  0.00    -0.000 C 
BRANCH  26  27
ATOM     27  C   UNL     1      99.347 123.509 129.150  1.00  0.00    -0.000 C 
BRANCH  27  28
ATOM     28  C   UNL     1     100.738 122.841 129.112  1.00  0.00    -0.000 C 
BRANCH  28  29
ATOM     29  C   UNL     1     101.005 122.125 127.781  1.00  0.00    -0.003 C 
ATOM     30  C   UNL     1     101.328 123.124 126.674  1.00  0.00     0.004 C 
ENDBRANCH  28  29
ENDBRANCH  27  28
ENDBRANCH  26  27
ENDBRANCH  25  26
ENDBRANCH  24  25
ENDBRANCH  23  24
ENDBRANCH  22  23
ENDBRANCH  21  22
ENDBRANCH  20  21
ENDBRANCH  19  20
ENDBRANCH  18  19
ENDBRANCH  17  18
ENDBRANCH   1  17
TORSDOF 26
ENDMDL
MODEL 7
REMARK VINA RESULT:    -4.879      1.317      2.448
REMARK INTER + INTRA:         -14.731
REMARK INTER:                 -11.779
REMARK INTRA:                  -2.952
REMARK UNBOUND:                -2.436
REMARK SMILES CCCCCCCCCCCCCCCCCCCCCCCCCCCC(=O)[O-]
REMARK SMILES IDX 15 1 16 2 17 3 18 4 19 5 20 6 21 7 22 8 23 9 24 10 25 11
REMARK SMILES IDX 26 12 27 13 28 14 29 15 30 16 14 17 13 18 12 19 11 20 10 21
REMARK SMILES IDX 9 22 8 23 7 24 6 25 5 26 4 27 3 28 2 29 1 30
REMARK H PARENT
REMARK Flexibility Score: inf
ROOT
ATOM      1  C   UNL     1      97.332 128.484 128.553  1.00  0.00     0.000 C 
ENDROOT
BRANCH   1   2
ATOM      2  C   UNL     1      97.944 127.079 128.354  1.00  0.00     0.000 C 
BRANCH   2   3
ATOM      3  C   UNL     1      97.555 126.345 127.053  1.00  0.00     0.000 C 
BRANCH   3   4
ATOM      4  C   UNL     1      98.328 125.046 126.762  1.00  0.00     0.000 C 
BRANCH   4   5
ATOM      5  C   UNL     1      97.418 123.900 126.285  1.00  0.00     0.000 C 
BRANCH   5   6
ATOM      6  C   UNL     1      96.670 124.240 124.986  1.00  0.00     0.000 C 
BRANCH   6   7
ATOM      7  C   UNL     1      96.223 122.981 124.221  1.00  0.00     0.000 C 
BRANCH   7   8
ATOM      8  C   UNL     1      95.288 123.305 123.046  1.00  0.00     0.000 C 
BRANCH   8   9
ATOM      9  C   UNL     1      94.120 122.310 122.922  1.00  0.00     0.000 C 
BRANCH   9  10
ATOM     10  C   UNL     1      94.266 121.381 121.700  1.00  0.00     0.000 C 
BRANCH  10  11
ATOM     11  C   UNL     1      93.131 121.519 120.664  1.00  0.00     0.000 C 
BRANCH  11  12
ATOM     12  C   UNL     1      93.588 121.351 119.201  1.00  0.00     0.006 C 
BRANCH  12  13
ATOM     13  C   UNL     1      92.413 121.098 118.246  1.00  0.00     0.053 C 
BRANCH  13  14
ATOM     14  C   UNL     1      92.488 122.015 117.066  1.00  0.00     0.041 C 
ATOM     15  O   UNL     1      92.428 121.552 115.897  1.00  0.00    -0.550 OA
ATOM     16  O   UNL     1      92.681 123.378 117.259  1.00  0.00    -0.550 OA
ENDBRANCH  13  14
ENDBRANCH  12  13
ENDBRANCH  11  12
ENDBRANCH  10  11
ENDBRANCH   9  10
ENDBRANCH   8   9
ENDBRANCH   7   8
ENDBRANCH   6   7
ENDBRANCH   5   6
ENDBRANCH   4   5
ENDBRANCH   3   4
ENDBRANCH   2   3
ENDBRANCH   1   2
BRANCH   1  17
ATOM     17  C   UNL     1      98.342 129.580 128.942  1.00  0.00     0.000 C 
BRANCH  17  18
ATOM     18  C   UNL     1      99.811 129.124 128.854  1.00  0.00     0.000 C 
BRANCH  18  19
ATOM     19  C   UNL     1     100.685 129.736 129.959  1.00  0.00     0.000 C 
BRANCH  19  20
ATOM     20  C   UNL     1     101.151 128.692 130.988  1.00  0.00     0.000 C 
BRANCH  20  21
ATOM     21  C   UNL     1     100.352 127.379 130.914  1.00  0.00     0.000 C 
BRANCH  21  22
ATOM     22  C   UNL     1     101.209 126.105 130.817  1.00  0.00    -0.000 C 
BRANCH  22  23
ATOM     23  C   UNL     1     100.642 125.072 129.828  1.00  0.00    -0.000 C 
BRANCH  23  24
ATOM     24  C   UNL     1     101.757 124.354 129.038  1.00  0.00    -0.000 C 
BRANCH  24  25
ATOM     25  C   UNL     1     101.837 124.773 127.561  1.00  0.00    -0.000 C 
BRANCH  25  26
ATOM     26  C   UNL     1     101.845 126.299 127.374  1.00  0.00    -0.000 C 
BRANCH  26  27
ATOM     27  C   UNL     1     101.807 126.719 125.895  1.00  0.00    -0.000 C 
BRANCH  27  28
ATOM     28  C   UNL     1     100.601 127.611 125.533  1.00  0.00    -0.000 C 
BRANCH  28  29
ATOM     29  C   UNL     1     100.994 128.780 124.619  1.00  0.00    -0.003 C 
ATOM     30  C   UNL     1     101.500 129.968 125.431  1.00  0.00     0.004 C 
ENDBRANCH  28  29
ENDBRANCH  27  28
ENDBRANCH  26  27
ENDBRANCH  25  26
ENDBRANCH  24  25
ENDBRANCH  23  24
ENDBRANCH  22  23
ENDBRANCH  21  22
ENDBRANCH  20  21
ENDBRANCH  19  20
ENDBRANCH  18  19
ENDBRANCH  17  18
ENDBRANCH   1  17
TORSDOF 26
ENDMDL
MODEL 8
REMARK VINA RESULT:    -4.829      1.353      2.681
REMARK INTER + INTRA:         -14.604
REMARK INTER:                 -12.203
REMARK INTRA:                  -2.401
REMARK UNBOUND:                -2.436
REMARK SMILES CCCCCCCCCCCCCCCCCCCCCCCCCCCC(=O)[O-]
REMARK SMILES IDX 15 1 16 2 17 3 18 4 19 5 20 6 21 7 22 8 23 9 24 10 25 11
REMARK SMILES IDX 26 12 27 13 28 14 29 15 30 16 14 17 13 18 12 19 11 20 10 21
REMARK SMILES IDX 9 22 8 23 7 24 6 25 5 26 4 27 3 28 2 29 1 30
REMARK H PARENT
REMARK Flexibility Score: inf
ROOT
ATOM      1  C   UNL     1      96.556 128.258 129.954  1.00  0.00     0.000 C 
ENDROOT
BRANCH   1   2
ATOM      2  C   UNL     1      96.544 126.893 129.231  1.00  0.00     0.000 C 
BRANCH   2   3
ATOM      3  C   UNL     1      97.553 126.726 128.074  1.00  0.00     0.000 C 
BRANCH   3   4
ATOM      4  C   UNL     1      98.245 125.355 127.982  1.00  0.00     0.000 C 
BRANCH   4   5
ATOM      5  C   UNL     1      97.417 124.314 127.208  1.00  0.00     0.000 C 
BRANCH   5   6
ATOM      6  C   UNL     1      97.299 124.647 125.712  1.00  0.00     0.000 C 
BRANCH   6   7
ATOM      7  C   UNL     1      96.563 123.548 124.924  1.00  0.00     0.000 C 
BRANCH   7   8
ATOM      8  C   UNL     1      95.431 124.106 124.049  1.00  0.00     0.000 C 
BRANCH   8   9
ATOM      9  C   UNL     1      94.091 123.384 124.277  1.00  0.00     0.000 C 
BRANCH   9  10
ATOM     10  C   UNL     1      93.570 122.695 122.999  1.00  0.00     0.000 C 
BRANCH  10  11
ATOM     11  C   UNL     1      94.463 121.544 122.493  1.00  0.00     0.000 C 
BRANCH  11  12
ATOM     12  C   UNL     1      94.126 121.063 121.068  1.00  0.00     0.006 C 
BRANCH  12  13
ATOM     13  C   UNL     1      93.027 121.909 120.410  1.00  0.00     0.053 C 
BRANCH  13  14
ATOM     14  C   UNL     1      92.952 121.624 118.943  1.00  0.00     0.041 C 
ATOM     15  O   UNL     1      94.001 121.394 118.286  1.00  0.00    -0.550 OA
ATOM     16  O   UNL     1      91.726 121.668 118.289  1.00  0.00    -0.550 OA
ENDBRANCH  13  14
ENDBRANCH  12  13
ENDBRANCH  11  12
ENDBRANCH  10  11
ENDBRANCH   9  10
ENDBRANCH   8   9
ENDBRANCH   7   8
ENDBRANCH   6   7
ENDBRANCH   5   6
ENDBRANCH   4   5
ENDBRANCH   3   4
ENDBRANCH   2   3
ENDBRANCH   1   2
BRANCH   1  17
ATOM     17  C   UNL     1      97.809 128.528 130.807  1.00  0.00     0.000 C 
BRANCH  17  18
ATOM     18  C   UNL     1      98.896 129.331 130.069  1.00  0.00     0.000 C 
BRANCH  18  19
ATOM     19  C   UNL     1     100.245 129.311 130.803  1.00  0.00     0.000 C 
BRANCH  19  20
ATOM     20  C   UNL     1     101.324 128.529 130.034  1.00  0.00     0.000 C 
BRANCH  20  21
ATOM     21  C   UNL     1     101.453 127.070 130.504  1.00  0.00     0.000 C 
BRANCH  21  22
ATOM     22  C   UNL     1     101.965 126.090 129.433  1.00  0.00    -0.000 C 
BRANCH  22  23
ATOM     23  C   UNL     1     102.121 126.740 128.047  1.00  0.00    -0.000 C 
BRANCH  23  24
ATOM     24  C   UNL     1     101.308 125.999 126.964  1.00  0.00    -0.000 C 
BRANCH  24  25
ATOM     25  C   UNL     1     101.847 126.204 125.539  1.00  0.00    -0.000 C 
BRANCH  25  26
ATOM     26  C   UNL     1     101.022 127.218 124.729  1.00  0.00    -0.000 C 
BRANCH  26  27
ATOM     27  C   UNL     1     101.862 128.403 124.225  1.00  0.00    -0.000 C 
BRANCH  27  28
ATOM     28  C   UNL     1     101.563 129.731 124.954  1.00  0.00    -0.000 C 
BRANCH  28  29
ATOM     29  C   UNL     1     101.306 129.527 126.454  1.00  0.00    -0.003 C 
ATOM     30  C   UNL     1     100.238 130.490 126.965  1.00  0.00     0.004 C 
ENDBRANCH  28  29
ENDBRANCH  27  28
ENDBRANCH  26  27
ENDBRANCH  25  26
ENDBRANCH  24  25
ENDBRANCH  23  24
ENDBRANCH  22  23
ENDBRANCH  21  22
ENDBRANCH  20  21
ENDBRANCH  19  20
ENDBRANCH  18  19
ENDBRANCH  17  18
ENDBRANCH   1  17
TORSDOF 26
ENDMDL
MODEL 9
REMARK VINA RESULT:    -4.671      1.909      4.392
REMARK INTER + INTRA:         -14.206
REMARK INTER:                 -10.376
REMARK INTRA:                  -3.830
REMARK UNBOUND:                -2.436
REMARK SMILES CCCCCCCCCCCCCCCCCCCCCCCCCCCC(=O)[O-]
REMARK SMILES IDX 15 1 16 2 17 3 18 4 19 5 20 6 21 7 22 8 23 9 24 10 25 11
REMARK SMILES IDX 26 12 27 13 28 14 29 15 30 16 14 17 13 18 12 19 11 20 10 21
REMARK SMILES IDX 9 22 8 23 7 24 6 25 5 26 4 27 3 28 2 29 1 30
REMARK H PARENT
REMARK Flexibility Score: inf
ROOT
ATOM      1  C   UNL     1     100.749 125.784 129.477  1.00  0.00     0.000 C 
ENDROOT
BRANCH   1   2
ATOM      2  C   UNL     1     101.238 124.615 128.593  1.00  0.00     0.000 C 
BRANCH   2   3
ATOM      3  C   UNL     1     100.812 124.658 127.110  1.00  0.00     0.000 C 
BRANCH   3   4
ATOM      4  C   UNL     1     101.482 125.747 126.252  1.00  0.00     0.000 C 
BRANCH   4   5
ATOM      5  C   UNL     1     100.467 126.649 125.528  1.00  0.00     0.000 C 
BRANCH   5   6
ATOM      6  C   UNL     1      99.068 126.596 126.162  1.00  0.00     0.000 C 
BRANCH   6   7
ATOM      7  C   UNL     1      97.988 126.150 125.161  1.00  0.00     0.000 C 
BRANCH   7   8
ATOM      8  C   UNL     1      96.871 125.330 125.824  1.00  0.00     0.000 C 
BRANCH   8   9
ATOM      9  C   UNL     1      97.279 123.868 126.084  1.00  0.00     0.000 C 
BRANCH   9  10
ATOM     10  C   UNL     1      97.238 123.010 124.804  1.00  0.00     0.000 C 
BRANCH  10  11
ATOM     11  C   UNL     1      95.965 123.202 123.955  1.00  0.00     0.000 C 
BRANCH  11  12
ATOM     12  C   UNL     1      95.622 122.001 123.051  1.00  0.00     0.006 C 
BRANCH  12  13
ATOM     13  C   UNL     1      94.128 121.942 122.698  1.00  0.00     0.053 C 
BRANCH  13  14
ATOM     14  C   UNL     1      93.943 121.586 121.256  1.00  0.00     0.041 C 
ATOM     15  O   UNL     1      94.926 121.213 120.564  1.00  0.00    -0.550 OA
ATOM     16  O   UNL     1      92.693 121.721 120.663  1.00  0.00    -0.550 OA
ENDBRANCH  13  14
ENDBRANCH  12  13
ENDBRANCH  11  12
ENDBRANCH  10  11
ENDBRANCH   9  10
ENDBRANCH   8   9
ENDBRANCH   7   8
ENDBRANCH   6   7
ENDBRANCH   5   6
ENDBRANCH   4   5
ENDBRANCH   3   4
ENDBRANCH   2   3
ENDBRANCH   1   2
BRANCH   1  17
ATOM     17  C   UNL     1      99.886 125.365 130.682  1.00  0.00     0.000 C 
BRANCH  17  18
ATOM     18  C   UNL     1      98.507 126.052 130.720  1.00  0.00     0.000 C 
BRANCH  18  19
ATOM     19  C   UNL     1      97.667 125.758 129.469  1.00  0.00     0.000 C 
BRANCH  19  20
ATOM     20  C   UNL     1      96.663 126.881 129.155  1.00  0.00     0.000 C 
BRANCH  20  21
ATOM     21  C   UNL     1      96.379 127.785 130.367  1.00  0.00     0.000 C 
BRANCH  21  22
ATOM     22  C   UNL     1      95.872 129.195 130.017  1.00  0.00    -0.000 C 
BRANCH  22  23
ATOM     23  C   UNL     1      96.859 130.306 130.416  1.00  0.00    -0.000 C 
BRANCH  23  24
ATOM     24  C   UNL     1      98.137 129.738 131.070  1.00  0.00    -0.000 C 
BRANCH  24  25
ATOM     25  C   UNL     1      99.318 129.596 130.097  1.00  0.00    -0.000 C 
BRANCH  25  26
ATOM     26  C   UNL     1     100.609 129.129 130.789  1.00  0.00    -0.000 C 
BRANCH  26  27
ATOM     27  C   UNL     1     101.880 129.613 130.071  1.00  0.00    -0.000 C 
BRANCH  27  28
ATOM     28  C   UNL     1     101.906 129.281 128.563  1.00  0.00    -0.000 C 
BRANCH  28  29
ATOM     29  C   UNL     1     101.475 130.473 127.697  1.00  0.00    -0.003 C 
ATOM     30  C   UNL     1     100.540 130.029 126.575  1.00  0.00     0.004 C 
ENDBRANCH  28  29
ENDBRANCH  27  28
ENDBRANCH  26  27
ENDBRANCH  25  26
ENDBRANCH  24  25
ENDBRANCH  23  24
ENDBRANCH  22  23
ENDBRANCH  21  22
ENDBRANCH  20  21
ENDBRANCH  19  20
ENDBRANCH  18  19
ENDBRANCH  17  18
ENDBRANCH   1  17
TORSDOF 26
ENDMDL
