MODEL 1
REMARK VINA RESULT:    -5.518      0.000      0.000
REMARK INTER + INTRA:          -6.852
REMARK INTER:                  -6.648
REMARK INTRA:                  -0.205
REMARK UNBOUND:                -0.205
REMARK SMILES O=c1c(O)c(-c2ccc(O)c(O)c2)oc2cc(O)cc(O)c12
REMARK SMILES IDX 5 1 3 2 2 3 1 4 22 5 20 6 19 7 17 8 16 9 15 10 14 11 6 12
REMARK SMILES IDX 7 13 8 14 9 15 13 16 11 17 10 18 12 20 4 22 21 24 18 26
REMARK H PARENT 10 19 12 21 4 23 21 25 18 27
REMARK Flexibility Score: inf
ROOT
ATOM      1  C   UNL     1      -6.652 -13.432 -19.675  1.00  0.00     0.180 A 
ATOM      2  C   UNL     1      -5.357 -13.236 -20.192  1.00  0.00     0.208 A 
ATOM      3  C   UNL     1      -4.797 -11.949 -20.150  1.00  0.00     0.238 A 
ATOM      4  O   UNL     1      -3.642 -11.758 -20.619  1.00  0.00    -0.285 OA
ATOM      5  C   UNL     1      -5.530 -10.889 -19.576  1.00  0.00     0.111 A 
ATOM      6  C   UNL     1      -5.036  -9.564 -19.491  1.00  0.00     0.134 A 
ATOM      7  C   UNL     1      -5.823  -8.567 -18.896  1.00  0.00     0.093 A 
ATOM      8  C   UNL     1      -7.092  -8.868 -18.387  1.00  0.00     0.123 A 
ATOM      9  C   UNL     1      -7.582 -10.173 -18.469  1.00  0.00     0.094 A 
ATOM     10  C   UNL     1      -6.814 -11.181 -19.059  1.00  0.00     0.146 A 
ATOM     11  O   UNL     1      -7.307 -12.412 -19.128  1.00  0.00    -0.452 OA
ENDROOT
BRANCH   1  12
ATOM     12  C   UNL     1      -7.317 -14.755 -19.700  1.00  0.00     0.025 A 
ATOM     13  C   UNL     1      -8.448 -14.991 -20.503  1.00  0.00     0.016 A 
ATOM     14  C   UNL     1      -9.074 -16.240 -20.492  1.00  0.00     0.051 A 
ATOM     15  C   UNL     1      -8.592 -17.265 -19.672  1.00  0.00     0.157 A 
ATOM     16  C   UNL     1      -6.849 -15.779 -18.862  1.00  0.00     0.062 A 
ATOM     17  C   UNL     1      -7.476 -17.034 -18.850  1.00  0.00     0.158 A 
BRANCH  15  18
ATOM     18  O   UNL     1      -9.236 -18.501 -19.683  1.00  0.00    -0.504 OA
ATOM     19  H   UNL     1      -9.488 -18.970 -20.545  1.00  0.00     0.293 HD
ENDBRANCH  15  18
BRANCH  17  20
ATOM     20  O   UNL     1      -6.995 -18.049 -18.025  1.00  0.00    -0.504 OA
ATOM     21  H   UNL     1      -6.352 -18.753 -18.369  1.00  0.00     0.293 HD
ENDBRANCH  17  20
ENDBRANCH   1  12
BRANCH   2  22
ATOM     22  O   UNL     1      -4.632 -14.313 -20.710  1.00  0.00    -0.502 OA
ATOM     23  H   UNL     1      -4.927 -15.274 -20.588  1.00  0.00     0.293 HD
ENDBRANCH   2  22
BRANCH   6  24
ATOM     24  O   UNL     1      -3.776  -9.233 -19.989  1.00  0.00    -0.507 OA
ATOM     25  H   UNL     1      -3.297  -9.821 -20.661  1.00  0.00     0.293 HD
ENDBRANCH   6  24
BRANCH   8  26
ATOM     26  O   UNL     1      -7.872  -7.877 -17.796  1.00  0.00    -0.508 OA
ATOM     27  H   UNL     1      -7.606  -6.900 -17.832  1.00  0.00     0.293 HD
ENDBRANCH   8  26
TORSDOF 6
ENDMDL
MODEL 2
REMARK VINA RESULT:    -5.396      1.842      3.075
REMARK INTER + INTRA:          -6.704
REMARK INTER:                  -6.875
REMARK INTRA:                   0.171
REMARK UNBOUND:                -0.205
REMARK SMILES O=c1c(O)c(-c2ccc(O)c(O)c2)oc2cc(O)cc(O)c12
REMARK SMILES IDX 5 1 3 2 2 3 1 4 22 5 20 6 19 7 17 8 16 9 15 10 14 11 6 12
REMARK SMILES IDX 7 13 8 14 9 15 13 16 11 17 10 18 12 20 4 22 21 24 18 26
REMARK H PARENT 10 19 12 21 4 23 21 25 18 27
REMARK Flexibility Score: inf
ROOT
ATOM      1  C   UNL     1      -6.963 -14.076 -19.916  1.00  0.00     0.180 A 
ATOM      2  C   UNL     1      -7.793 -12.985 -20.238  1.00  0.00     0.208 A 
ATOM      3  C   UNL     1      -7.202 -11.746 -20.535  1.00  0.00     0.238 A 
ATOM      4  O   UNL     1      -7.935 -10.759 -20.815  1.00  0.00    -0.285 OA
ATOM      5  C   UNL     1      -5.797 -11.624 -20.524  1.00  0.00     0.111 A 
ATOM      6  C   UNL     1      -5.123 -10.413 -20.815  1.00  0.00     0.134 A 
ATOM      7  C   UNL     1      -3.721 -10.376 -20.793  1.00  0.00     0.093 A 
ATOM      8  C   UNL     1      -2.982 -11.525 -20.486  1.00  0.00     0.123 A 
ATOM      9  C   UNL     1      -3.642 -12.720 -20.198  1.00  0.00     0.094 A 
ATOM     10  C   UNL     1      -5.039 -12.778 -20.213  1.00  0.00     0.146 A 
ATOM     11  O   UNL     1      -5.641 -13.927 -19.931  1.00  0.00    -0.452 OA
ENDROOT
BRANCH   1  12
ATOM     12  C   UNL     1      -7.511 -15.408 -19.575  1.00  0.00     0.025 A 
ATOM     13  C   UNL     1      -8.635 -15.929 -20.240  1.00  0.00     0.016 A 
ATOM     14  C   UNL     1      -9.151 -17.178 -19.885  1.00  0.00     0.051 A 
ATOM     15  C   UNL     1      -8.563 -17.918 -18.854  1.00  0.00     0.157 A 
ATOM     16  C   UNL     1      -6.937 -16.144 -18.526  1.00  0.00     0.062 A 
ATOM     17  C   UNL     1      -7.453 -17.398 -18.167  1.00  0.00     0.158 A 
BRANCH  15  18
ATOM     18  O   UNL     1      -9.098 -19.162 -18.523  1.00  0.00    -0.504 OA
ATOM     19  H   UNL     1      -9.753 -19.280 -17.759  1.00  0.00     0.293 HD
ENDBRANCH  15  18
BRANCH  17  20
ATOM     20  O   UNL     1      -6.867 -18.127 -17.135  1.00  0.00    -0.504 OA
ATOM     21  H   UNL     1      -6.747 -19.132 -17.195  1.00  0.00     0.293 HD
ENDBRANCH  17  20
ENDBRANCH   1  12
BRANCH   2  22
ATOM     22  O   UNL     1      -9.181 -13.144 -20.290  1.00  0.00    -0.502 OA
ATOM     23  H   UNL     1      -9.822 -12.402 -20.035  1.00  0.00     0.293 HD
ENDBRANCH   2  22
BRANCH   6  24
ATOM     24  O   UNL     1      -5.832  -9.253 -21.125  1.00  0.00    -0.507 OA
ATOM     25  H   UNL     1      -6.110  -9.035 -22.075  1.00  0.00     0.293 HD
ENDBRANCH   6  24
BRANCH   8  26
ATOM     26  O   UNL     1      -1.589 -11.487 -20.464  1.00  0.00    -0.508 OA
ATOM     27  H   UNL     1      -1.085 -10.873 -19.836  1.00  0.00     0.293 HD
ENDBRANCH   8  26
TORSDOF 6
ENDMDL
MODEL 3
REMARK VINA RESULT:    -5.080      1.847      7.246
REMARK INTER + INTRA:          -6.325
REMARK INTER:                  -5.994
REMARK INTRA:                  -0.330
REMARK UNBOUND:                -0.205
REMARK SMILES O=c1c(O)c(-c2ccc(O)c(O)c2)oc2cc(O)cc(O)c12
REMARK SMILES IDX 5 1 3 2 2 3 1 4 22 5 20 6 19 7 17 8 16 9 15 10 14 11 6 12
REMARK SMILES IDX 7 13 8 14 9 15 13 16 11 17 10 18 12 20 4 22 21 24 18 26
REMARK H PARENT 10 19 12 21 4 23 21 25 18 27
REMARK Flexibility Score: inf
ROOT
ATOM      1  C   UNL     1      -6.716 -14.603 -19.440  1.00  0.00     0.180 A 
ATOM      2  C   UNL     1      -7.899 -14.817 -20.174  1.00  0.00     0.208 A 
ATOM      3  C   UNL     1      -8.660 -15.968 -19.914  1.00  0.00     0.238 A 
ATOM      4  O   UNL     1      -9.715 -16.177 -20.572  1.00  0.00    -0.285 OA
ATOM      5  C   UNL     1      -8.239 -16.870 -18.915  1.00  0.00     0.111 A 
ATOM      6  C   UNL     1      -8.951 -18.050 -18.588  1.00  0.00     0.134 A 
ATOM      7  C   UNL     1      -8.472 -18.892 -17.574  1.00  0.00     0.093 A 
ATOM      8  C   UNL     1      -7.297 -18.577 -16.881  1.00  0.00     0.123 A 
ATOM      9  C   UNL     1      -6.592 -17.415 -17.199  1.00  0.00     0.094 A 
ATOM     10  C   UNL     1      -7.052 -16.564 -18.208  1.00  0.00     0.146 A 
ATOM     11  O   UNL     1      -6.359 -15.467 -18.495  1.00  0.00    -0.452 OA
ENDROOT
BRANCH   1  12
ATOM     12  C   UNL     1      -5.851 -13.423 -19.669  1.00  0.00     0.025 A 
ATOM     13  C   UNL     1      -4.863 -13.423 -20.670  1.00  0.00     0.016 A 
ATOM     14  C   UNL     1      -4.042 -12.308 -20.852  1.00  0.00     0.051 A 
ATOM     15  C   UNL     1      -4.184 -11.184 -20.032  1.00  0.00     0.157 A 
ATOM     16  C   UNL     1      -5.976 -12.302 -18.833  1.00  0.00     0.062 A 
ATOM     17  C   UNL     1      -5.153 -11.180 -19.014  1.00  0.00     0.158 A 
BRANCH  15  18
ATOM     18  O   UNL     1      -3.351 -10.085 -20.238  1.00  0.00    -0.504 OA
ATOM     19  H   UNL     1      -2.504  -9.943 -19.702  1.00  0.00     0.293 HD
ENDBRANCH  15  18
BRANCH  17  20
ATOM     20  O   UNL     1      -5.295 -10.067 -18.189  1.00  0.00    -0.504 OA
ATOM     21  H   UNL     1      -6.082  -9.970 -17.558  1.00  0.00     0.293 HD
ENDBRANCH  17  20
ENDBRANCH   1  12
BRANCH   2  22
ATOM     22  O   UNL     1      -8.320 -13.883 -21.125  1.00  0.00    -0.502 OA
ATOM     23  H   UNL     1      -9.085 -13.241 -20.954  1.00  0.00     0.293 HD
ENDBRANCH   2  22
BRANCH   6  24
ATOM     24  O   UNL     1     -10.125 -18.391 -19.260  1.00  0.00    -0.507 OA
ATOM     25  H   UNL     1     -10.256 -19.307 -19.673  1.00  0.00     0.293 HD
ENDBRANCH   6  24
BRANCH   8  26
ATOM     26  O   UNL     1      -6.822 -19.413 -15.873  1.00  0.00    -0.508 OA
ATOM     27  H   UNL     1      -7.356 -20.212 -15.551  1.00  0.00     0.293 HD
ENDBRANCH   8  26
TORSDOF 6
ENDMDL
MODEL 4
REMARK VINA RESULT:    -4.742      1.695      2.251
REMARK INTER + INTRA:          -5.917
REMARK INTER:                  -5.791
REMARK INTRA:                  -0.126
REMARK UNBOUND:                -0.205
REMARK SMILES O=c1c(O)c(-c2ccc(O)c(O)c2)oc2cc(O)cc(O)c12
REMARK SMILES IDX 5 1 3 2 2 3 1 4 22 5 20 6 19 7 17 8 16 9 15 10 14 11 6 12
REMARK SMILES IDX 7 13 8 14 9 15 13 16 11 17 10 18 12 20 4 22 21 24 18 26
REMARK H PARENT 10 19 12 21 4 23 21 25 18 27
REMARK Flexibility Score: inf
ROOT
ATOM      1  C   UNL     1      -8.154 -14.175 -18.841  1.00  0.00     0.180 A 
ATOM      2  C   UNL     1      -6.856 -13.916 -19.322  1.00  0.00     0.208 A 
ATOM      3  C   UNL     1      -6.424 -12.585 -19.427  1.00  0.00     0.238 A 
ATOM      4  O   UNL     1      -5.268 -12.340 -19.866  1.00  0.00    -0.285 OA
ATOM      5  C   UNL     1      -7.285 -11.539 -19.031  1.00  0.00     0.111 A 
ATOM      6  C   UNL     1      -6.925 -10.172 -19.101  1.00  0.00     0.134 A 
ATOM      7  C   UNL     1      -7.834  -9.191 -18.679  1.00  0.00     0.093 A 
ATOM      8  C   UNL     1      -9.095  -9.552 -18.189  1.00  0.00     0.123 A 
ATOM      9  C   UNL     1      -9.455 -10.899 -18.119  1.00  0.00     0.094 A 
ATOM     10  C   UNL     1      -8.562 -11.891 -18.536  1.00  0.00     0.146 A 
ATOM     11  O   UNL     1      -8.932 -13.165 -18.464  1.00  0.00    -0.452 OA
ENDROOT
BRANCH   1  12
ATOM     12  C   UNL     1      -8.688 -15.551 -18.719  1.00  0.00     0.025 A 
ATOM     13  C   UNL     1      -9.026 -16.096 -17.468  1.00  0.00     0.016 A 
ATOM     14  C   UNL     1      -9.506 -17.405 -17.374  1.00  0.00     0.051 A 
ATOM     15  C   UNL     1      -9.642 -18.192 -18.521  1.00  0.00     0.157 A 
ATOM     16  C   UNL     1      -8.806 -16.351 -19.867  1.00  0.00     0.062 A 
ATOM     17  C   UNL     1      -9.288 -17.665 -19.775  1.00  0.00     0.158 A 
BRANCH  15  18
ATOM     18  O   UNL     1     -10.124 -19.495 -18.397  1.00  0.00    -0.504 OA
ATOM     19  H   UNL     1      -9.680 -20.178 -17.796  1.00  0.00     0.293 HD
ENDBRANCH  15  18
BRANCH  17  20
ATOM     20  O   UNL     1      -9.414 -18.447 -20.922  1.00  0.00    -0.504 OA
ATOM     21  H   UNL     1     -10.140 -18.271 -21.607  1.00  0.00     0.293 HD
ENDBRANCH  17  20
ENDBRANCH   1  12
BRANCH   2  22
ATOM     22  O   UNL     1      -6.005 -14.972 -19.661  1.00  0.00    -0.502 OA
ATOM     23  H   UNL     1      -5.098 -15.098 -19.227  1.00  0.00     0.293 HD
ENDBRANCH   2  22
BRANCH   6  24
ATOM     24  O   UNL     1      -5.675  -9.781 -19.584  1.00  0.00    -0.507 OA
ATOM     25  H   UNL     1      -4.815 -10.100 -19.154  1.00  0.00     0.293 HD
ENDBRANCH   6  24
BRANCH   8  26
ATOM     26  O   UNL     1      -9.998  -8.578 -17.770  1.00  0.00    -0.508 OA
ATOM     27  H   UNL     1     -10.287  -7.824 -18.382  1.00  0.00     0.293 HD
ENDBRANCH   8  26
TORSDOF 6
ENDMDL
MODEL 5
REMARK VINA RESULT:    -3.974      2.947      7.503
REMARK INTER + INTRA:          -4.992
REMARK INTER:                  -5.297
REMARK INTRA:                   0.305
REMARK UNBOUND:                -0.205
REMARK SMILES O=c1c(O)c(-c2ccc(O)c(O)c2)oc2cc(O)cc(O)c12
REMARK SMILES IDX 5 1 3 2 2 3 1 4 22 5 20 6 19 7 17 8 16 9 15 10 14 11 6 12
REMARK SMILES IDX 7 13 8 14 9 15 13 16 11 17 10 18 12 20 4 22 21 24 18 26
REMARK H PARENT 10 19 12 21 4 23 21 25 18 27
REMARK Flexibility Score: inf
ROOT
ATOM      1  C   UNL     1      -9.395 -13.762 -18.509  1.00  0.00     0.180 A 
ATOM      2  C   UNL     1      -9.304 -14.299 -19.807  1.00  0.00     0.208 A 
ATOM      3  C   UNL     1      -9.291 -15.694 -19.965  1.00  0.00     0.238 A 
ATOM      4  O   UNL     1      -9.199 -16.188 -21.122  1.00  0.00    -0.285 OA
ATOM      5  C   UNL     1      -9.390 -16.525 -18.829  1.00  0.00     0.111 A 
ATOM      6  C   UNL     1      -9.389 -17.939 -18.902  1.00  0.00     0.134 A 
ATOM      7  C   UNL     1      -9.502 -18.696 -17.727  1.00  0.00     0.093 A 
ATOM      8  C   UNL     1      -9.615 -18.065 -16.481  1.00  0.00     0.123 A 
ATOM      9  C   UNL     1      -9.616 -16.672 -16.405  1.00  0.00     0.094 A 
ATOM     10  C   UNL     1      -9.504 -15.900 -17.565  1.00  0.00     0.146 A 
ATOM     11  O   UNL     1      -9.502 -14.576 -17.463  1.00  0.00    -0.452 OA
ENDROOT
BRANCH   1  12
ATOM     12  C   UNL     1      -9.396 -12.302 -18.260  1.00  0.00     0.025 A 
ATOM     13  C   UNL     1     -10.118 -11.743 -17.191  1.00  0.00     0.016 A 
ATOM     14  C   UNL     1     -10.125 -10.360 -16.989  1.00  0.00     0.051 A 
ATOM     15  C   UNL     1      -9.425  -9.516 -17.856  1.00  0.00     0.157 A 
ATOM     16  C   UNL     1      -8.712 -11.450 -19.142  1.00  0.00     0.062 A 
ATOM     17  C   UNL     1      -8.717 -10.061 -18.941  1.00  0.00     0.158 A 
BRANCH  15  18
ATOM     18  O   UNL     1      -9.448  -8.140 -17.630  1.00  0.00    -0.504 OA
ATOM     19  H   UNL     1      -8.956  -7.714 -16.855  1.00  0.00     0.293 HD
ENDBRANCH  15  18
BRANCH  17  20
ATOM     20  O   UNL     1      -8.023  -9.225 -19.813  1.00  0.00    -0.504 OA
ATOM     21  H   UNL     1      -8.416  -8.944 -20.705  1.00  0.00     0.293 HD
ENDBRANCH  17  20
ENDBRANCH   1  12
BRANCH   2  22
ATOM     22  O   UNL     1      -9.256 -13.455 -20.920  1.00  0.00    -0.502 OA
ATOM     23  H   UNL     1      -8.457 -12.865 -21.120  1.00  0.00     0.293 HD
ENDBRANCH   2  22
BRANCH   6  24
ATOM     24  O   UNL     1      -9.278 -18.595 -20.128  1.00  0.00    -0.507 OA
ATOM     25  H   UNL     1      -9.996 -19.228 -20.461  1.00  0.00     0.293 HD
ENDBRANCH   6  24
BRANCH   8  26
ATOM     26  O   UNL     1      -9.727 -18.817 -15.314  1.00  0.00    -0.508 OA
ATOM     27  H   UNL     1      -9.414 -18.459 -14.420  1.00  0.00     0.293 HD
ENDBRANCH   8  26
TORSDOF 6
ENDMDL
MODEL 6
REMARK VINA RESULT:    -3.927      2.018      3.114
REMARK INTER + INTRA:          -4.935
REMARK INTER:                  -4.809
REMARK INTRA:                  -0.126
REMARK UNBOUND:                -0.205
REMARK SMILES O=c1c(O)c(-c2ccc(O)c(O)c2)oc2cc(O)cc(O)c12
REMARK SMILES IDX 5 1 3 2 2 3 1 4 22 5 20 6 19 7 17 8 16 9 15 10 14 11 6 12
REMARK SMILES IDX 7 13 8 14 9 15 13 16 11 17 10 18 12 20 4 22 21 24 18 26
REMARK H PARENT 10 19 12 21 4 23 21 25 18 27
REMARK Flexibility Score: inf
ROOT
ATOM      1  C   UNL     1      -8.046 -13.687 -19.212  1.00  0.00     0.180 A 
ATOM      2  C   UNL     1      -9.077 -13.179 -20.024  1.00  0.00     0.208 A 
ATOM      3  C   UNL     1      -9.044 -11.826 -20.397  1.00  0.00     0.238 A 
ATOM      4  O   UNL     1      -9.968 -11.356 -21.116  1.00  0.00    -0.285 OA
ATOM      5  C   UNL     1      -7.974 -11.012 -19.971  1.00  0.00     0.111 A 
ATOM      6  C   UNL     1      -7.863  -9.641 -20.306  1.00  0.00     0.134 A 
ATOM      7  C   UNL     1      -6.762  -8.900 -19.851  1.00  0.00     0.093 A 
ATOM      8  C   UNL     1      -5.771  -9.505 -19.068  1.00  0.00     0.123 A 
ATOM      9  C   UNL     1      -5.876 -10.857 -18.735  1.00  0.00     0.094 A 
ATOM     10  C   UNL     1      -6.967 -11.611 -19.178  1.00  0.00     0.146 A 
ATOM     11  O   UNL     1      -7.045 -12.893 -18.842  1.00  0.00    -0.452 OA
ENDROOT
BRANCH   1  12
ATOM     12  C   UNL     1      -8.020 -15.098 -18.762  1.00  0.00     0.025 A 
ATOM     13  C   UNL     1      -6.994 -15.974 -19.158  1.00  0.00     0.016 A 
ATOM     14  C   UNL     1      -7.003 -17.307 -18.742  1.00  0.00     0.051 A 
ATOM     15  C   UNL     1      -8.041 -17.790 -17.938  1.00  0.00     0.157 A 
ATOM     16  C   UNL     1      -9.072 -15.591 -17.974  1.00  0.00     0.062 A 
ATOM     17  C   UNL     1      -9.084 -16.929 -17.554  1.00  0.00     0.158 A 
BRANCH  15  18
ATOM     18  O   UNL     1      -8.023 -19.125 -17.537  1.00  0.00    -0.504 OA
ATOM     19  H   UNL     1      -8.720 -19.790 -17.849  1.00  0.00     0.293 HD
ENDBRANCH  15  18
BRANCH  17  20
ATOM     20  O   UNL     1     -10.124 -17.405 -16.759  1.00  0.00    -0.504 OA
ATOM     21  H   UNL     1      -9.975 -18.129 -16.066  1.00  0.00     0.293 HD
ENDBRANCH  17  20
ENDBRANCH   1  12
BRANCH   2  22
ATOM     22  O   UNL     1     -10.101 -14.018 -20.474  1.00  0.00    -0.502 OA
ATOM     23  H   UNL     1     -10.017 -14.572 -21.318  1.00  0.00     0.293 HD
ENDBRANCH   2  22
BRANCH   6  24
ATOM     24  O   UNL     1      -8.834  -9.010 -21.085  1.00  0.00    -0.507 OA
ATOM     25  H   UNL     1      -9.765  -9.395 -21.190  1.00  0.00     0.293 HD
ENDBRANCH   6  24
BRANCH   8  26
ATOM     26  O   UNL     1      -4.678  -8.770 -18.616  1.00  0.00    -0.508 OA
ATOM     27  H   UNL     1      -4.238  -8.063 -19.194  1.00  0.00     0.293 HD
ENDBRANCH   8  26
TORSDOF 6
ENDMDL
MODEL 7
REMARK VINA RESULT:    -3.527      1.865      7.082
REMARK INTER + INTRA:          -4.453
REMARK INTER:                  -4.421
REMARK INTRA:                  -0.032
REMARK UNBOUND:                -0.205
REMARK SMILES O=c1c(O)c(-c2ccc(O)c(O)c2)oc2cc(O)cc(O)c12
REMARK SMILES IDX 5 1 3 2 2 3 1 4 22 5 20 6 19 7 17 8 16 9 15 10 14 11 6 12
REMARK SMILES IDX 7 13 8 14 9 15 13 16 11 17 10 18 12 20 4 22 21 24 18 26
REMARK H PARENT 10 19 12 21 4 23 21 25 18 27
REMARK Flexibility Score: inf
ROOT
ATOM      1  C   UNL     1      -5.952 -12.596 -20.197  1.00  0.00     0.180 A 
ATOM      2  C   UNL     1      -7.275 -12.338 -20.602  1.00  0.00     0.208 A 
ATOM      3  C   UNL     1      -8.242 -13.344 -20.446  1.00  0.00     0.238 A 
ATOM      4  O   UNL     1      -9.428 -13.129 -20.815  1.00  0.00    -0.285 OA
ATOM      5  C   UNL     1      -7.875 -14.578 -19.870  1.00  0.00     0.111 A 
ATOM      6  C   UNL     1      -8.789 -15.642 -19.673  1.00  0.00     0.134 A 
ATOM      7  C   UNL     1      -8.348 -16.836 -19.084  1.00  0.00     0.093 A 
ATOM      8  C   UNL     1      -7.013 -16.986 -18.688  1.00  0.00     0.123 A 
ATOM      9  C   UNL     1      -6.110 -15.940 -18.881  1.00  0.00     0.094 A 
ATOM     10  C   UNL     1      -6.529 -14.743 -19.468  1.00  0.00     0.146 A 
ATOM     11  O   UNL     1      -5.646 -13.766 -19.643  1.00  0.00    -0.452 OA
ENDROOT
BRANCH   1  12
ATOM     12  C   UNL     1      -4.873 -11.592 -20.346  1.00  0.00     0.025 A 
ATOM     13  C   UNL     1      -3.671 -11.903 -21.006  1.00  0.00     0.016 A 
ATOM     14  C   UNL     1      -2.657 -10.948 -21.114  1.00  0.00     0.051 A 
ATOM     15  C   UNL     1      -2.820  -9.676 -20.555  1.00  0.00     0.157 A 
ATOM     16  C   UNL     1      -5.026 -10.322 -19.766  1.00  0.00     0.062 A 
ATOM     17  C   UNL     1      -4.009  -9.362 -19.873  1.00  0.00     0.158 A 
BRANCH  15  18
ATOM     18  O   UNL     1      -1.792  -8.743 -20.679  1.00  0.00    -0.504 OA
ATOM     19  H   UNL     1      -1.912  -7.772 -20.420  1.00  0.00     0.293 HD
ENDBRANCH  15  18
BRANCH  17  20
ATOM     20  O   UNL     1      -4.175  -8.099 -19.307  1.00  0.00    -0.504 OA
ATOM     21  H   UNL     1      -5.096  -7.711 -19.136  1.00  0.00     0.293 HD
ENDBRANCH  17  20
ENDBRANCH   1  12
BRANCH   2  22
ATOM     22  O   UNL     1      -7.624 -11.089 -21.125  1.00  0.00    -0.502 OA
ATOM     23  H   UNL     1      -8.311 -10.489 -20.684  1.00  0.00     0.293 HD
ENDBRANCH   2  22
BRANCH   6  24
ATOM     24  O   UNL     1     -10.125 -15.522 -20.056  1.00  0.00    -0.507 OA
ATOM     25  H   UNL     1     -10.428 -14.822 -20.722  1.00  0.00     0.293 HD
ENDBRANCH   6  24
BRANCH   8  26
ATOM     26  O   UNL     1      -6.577 -18.172 -18.103  1.00  0.00    -0.508 OA
ATOM     27  H   UNL     1      -5.998 -18.833 -18.609  1.00  0.00     0.293 HD
ENDBRANCH   8  26
TORSDOF 6
ENDMDL
MODEL 8
REMARK VINA RESULT:    -3.119      2.324      6.704
REMARK INTER + INTRA:          -3.963
REMARK INTER:                  -3.651
REMARK INTRA:                  -0.311
REMARK UNBOUND:                -0.205
REMARK SMILES O=c1c(O)c(-c2ccc(O)c(O)c2)oc2cc(O)cc(O)c12
REMARK SMILES IDX 5 1 3 2 2 3 1 4 22 5 20 6 19 7 17 8 16 9 15 10 14 11 6 12
REMARK SMILES IDX 7 13 8 14 9 15 13 16 11 17 10 18 12 20 4 22 21 24 18 26
REMARK H PARENT 10 19 12 21 4 23 21 25 18 27
REMARK Flexibility Score: inf
ROOT
ATOM      1  C   UNL     1      -8.343 -13.220 -19.275  1.00  0.00     0.180 A 
ATOM      2  C   UNL     1      -7.161 -13.718 -19.856  1.00  0.00     0.208 A 
ATOM      3  C   UNL     1      -6.768 -15.036 -19.573  1.00  0.00     0.238 A 
ATOM      4  O   UNL     1      -5.706 -15.490 -20.078  1.00  0.00    -0.285 OA
ATOM      5  C   UNL     1      -7.570 -15.836 -18.733  1.00  0.00     0.111 A 
ATOM      6  C   UNL     1      -7.248 -17.174 -18.400  1.00  0.00     0.134 A 
ATOM      7  C   UNL     1      -8.103 -17.909 -17.565  1.00  0.00     0.093 A 
ATOM      8  C   UNL     1      -9.273 -17.330 -17.058  1.00  0.00     0.123 A 
ATOM      9  C   UNL     1      -9.595 -16.012 -17.383  1.00  0.00     0.094 A 
ATOM     10  C   UNL     1      -8.754 -15.263 -18.212  1.00  0.00     0.146 A 
ATOM     11  O   UNL     1      -9.082 -14.009 -18.501  1.00  0.00    -0.452 OA
ENDROOT
BRANCH   1  12
ATOM     12  C   UNL     1      -8.813 -11.836 -19.512  1.00  0.00     0.025 A 
ATOM     13  C   UNL     1      -9.553 -11.501 -20.660  1.00  0.00     0.016 A 
ATOM     14  C   UNL     1      -9.966 -10.184 -20.875  1.00  0.00     0.051 A 
ATOM     15  C   UNL     1      -9.636  -9.180 -19.959  1.00  0.00     0.157 A 
ATOM     16  C   UNL     1      -8.465 -10.823 -18.604  1.00  0.00     0.062 A 
ATOM     17  C   UNL     1      -8.879  -9.499 -18.818  1.00  0.00     0.158 A 
BRANCH  15  18
ATOM     18  O   UNL     1     -10.063  -7.875 -20.199  1.00  0.00    -0.504 OA
ATOM     19  H   UNL     1     -11.010  -7.574 -20.004  1.00  0.00     0.293 HD
ENDBRANCH  15  18
BRANCH  17  20
ATOM     20  O   UNL     1      -8.541  -8.503 -17.904  1.00  0.00    -0.504 OA
ATOM     21  H   UNL     1      -9.248  -7.939 -17.448  1.00  0.00     0.293 HD
ENDBRANCH  17  20
ENDBRANCH   1  12
BRANCH   2  22
ATOM     22  O   UNL     1      -6.410 -12.921 -20.724  1.00  0.00    -0.502 OA
ATOM     23  H   UNL     1      -5.520 -12.516 -20.457  1.00  0.00     0.293 HD
ENDBRANCH   2  22
BRANCH   6  24
ATOM     24  O   UNL     1      -6.090 -17.778 -18.891  1.00  0.00    -0.507 OA
ATOM     25  H   UNL     1      -5.833 -17.722 -19.870  1.00  0.00     0.293 HD
ENDBRANCH   6  24
BRANCH   8  26
ATOM     26  O   UNL     1     -10.122 -18.060 -16.229  1.00  0.00    -0.508 OA
ATOM     27  H   UNL     1     -10.987 -18.460 -16.575  1.00  0.00     0.293 HD
ENDBRANCH   8  26
TORSDOF 6
ENDMDL
