MODEL 1
REMARK VINA RESULT:    11.945      0.000      0.000
REMARK INTER + INTRA:          14.805
REMARK INTER:                  14.389
REMARK INTRA:                   0.416
REMARK UNBOUND:                 0.416
REMARK SMILES O=c1c(O)c(-c2ccc(O)c(O)c2)oc2cc(O)cc(O)c12
REMARK SMILES IDX 5 1 3 2 2 3 1 4 22 5 20 6 19 7 17 8 16 9 15 10 14 11 6 12
REMARK SMILES IDX 7 13 8 14 9 15 13 16 11 17 10 18 12 20 4 22 21 24 18 26
REMARK H PARENT 10 19 12 21 4 23 21 25 18 27
REMARK Flexibility Score: inf
ROOT
ATOM      1  C   UNL     1     -18.604 -12.970  13.757  1.00  0.00     0.180 A 
ATOM      2  C   UNL     1     -18.885 -14.308  14.087  1.00  0.00     0.208 A 
ATOM      3  C   UNL     1     -18.905 -15.271  13.065  1.00  0.00     0.238 A 
ATOM      4  O   UNL     1     -19.104 -16.475  13.373  1.00  0.00    -0.285 OA
ATOM      5  C   UNL     1     -18.660 -14.883  11.726  1.00  0.00     0.111 A 
ATOM      6  C   UNL     1     -18.694 -15.767  10.606  1.00  0.00     0.134 A 
ATOM      7  C   UNL     1     -18.308 -15.300   9.345  1.00  0.00     0.093 A 
ATOM      8  C   UNL     1     -17.951 -13.967   9.149  1.00  0.00     0.123 A 
ATOM      9  C   UNL     1     -17.971 -13.079  10.225  1.00  0.00     0.094 A 
ATOM     10  C   UNL     1     -18.317 -13.524  11.503  1.00  0.00     0.146 A 
ATOM     11  O   UNL     1     -18.313 -12.650  12.502  1.00  0.00    -0.452 OA
ENDROOT
BRANCH   1  12
ATOM     12  C   UNL     1     -18.590 -11.895  14.775  1.00  0.00     0.025 A 
ATOM     13  C   UNL     1     -19.124 -12.095  16.059  1.00  0.00     0.016 A 
ATOM     14  C   UNL     1     -19.122 -11.058  16.994  1.00  0.00     0.051 A 
ATOM     15  C   UNL     1     -18.599  -9.802  16.658  1.00  0.00     0.157 A 
ATOM     16  C   UNL     1     -18.085 -10.628  14.434  1.00  0.00     0.062 A 
ATOM     17  C   UNL     1     -18.081  -9.587  15.370  1.00  0.00     0.158 A 
BRANCH  15  18
ATOM     18  O   UNL     1     -18.597  -8.770  17.595  1.00  0.00    -0.504 OA
ATOM     19  H   UNL     1     -18.740  -7.805  17.322  1.00  0.00     0.293 HD
ENDBRANCH  15  18
BRANCH  17  20
ATOM     20  O   UNL     1     -17.560  -8.347  15.001  1.00  0.00    -0.504 OA
ATOM     21  H   UNL     1     -17.989  -7.476  15.290  1.00  0.00     0.293 HD
ENDBRANCH  17  20
ENDBRANCH   1  12
BRANCH   2  22
ATOM     22  O   UNL     1     -19.102 -14.673  15.418  1.00  0.00    -0.502 OA
ATOM     23  H   UNL     1     -19.362 -14.002  16.132  1.00  0.00     0.293 HD
ENDBRANCH   2  22
BRANCH   6  24
ATOM     24  O   UNL     1     -19.124 -17.097  10.675  1.00  0.00    -0.507 OA
ATOM     25  H   UNL     1     -19.247 -17.618  11.530  1.00  0.00     0.293 HD
ENDBRANCH   6  24
BRANCH   8  26
ATOM     26  O   UNL     1     -17.587 -13.532   7.876  1.00  0.00    -0.508 OA
ATOM     27  H   UNL     1     -17.237 -14.177   7.176  1.00  0.00     0.293 HD
ENDBRANCH   8  26
TORSDOF 6
ENDMDL
MODEL 2
REMARK VINA RESULT:    12.577      1.250      6.554
REMARK INTER + INTRA:          15.565
REMARK INTER:                  15.157
REMARK INTRA:                   0.408
REMARK UNBOUND:                 0.416
REMARK SMILES O=c1c(O)c(-c2ccc(O)c(O)c2)oc2cc(O)cc(O)c12
REMARK SMILES IDX 5 1 3 2 2 3 1 4 22 5 20 6 19 7 17 8 16 9 15 10 14 11 6 12
REMARK SMILES IDX 7 13 8 14 9 15 13 16 11 17 10 18 12 20 4 22 21 24 18 26
REMARK H PARENT 10 19 12 21 4 23 21 25 18 27
REMARK Flexibility Score: inf
ROOT
ATOM      1  C   UNL     1     -18.859 -13.574  13.202  1.00  0.00     0.180 A 
ATOM      2  C   UNL     1     -18.941 -14.429  14.316  1.00  0.00     0.208 A 
ATOM      3  C   UNL     1     -18.997 -13.868  15.602  1.00  0.00     0.238 A 
ATOM      4  O   UNL     1     -19.125 -14.636  16.591  1.00  0.00    -0.285 OA
ATOM      5  C   UNL     1     -18.952 -12.462  15.760  1.00  0.00     0.111 A 
ATOM      6  C   UNL     1     -18.961 -11.787  17.017  1.00  0.00     0.134 A 
ATOM      7  C   UNL     1     -19.045 -10.390  17.051  1.00  0.00     0.093 A 
ATOM      8  C   UNL     1     -19.056  -9.641  15.875  1.00  0.00     0.123 A 
ATOM      9  C   UNL     1     -18.987 -10.287  14.641  1.00  0.00     0.094 A 
ATOM     10  C   UNL     1     -18.939 -11.682  14.574  1.00  0.00     0.146 A 
ATOM     11  O   UNL     1     -18.886 -12.259  13.380  1.00  0.00    -0.452 OA
ENDROOT
BRANCH   1  12
ATOM     12  C   UNL     1     -18.772 -14.091  11.818  1.00  0.00     0.025 A 
ATOM     13  C   UNL     1     -19.109 -15.420  11.510  1.00  0.00     0.016 A 
ATOM     14  C   UNL     1     -18.996 -15.892  10.200  1.00  0.00     0.051 A 
ATOM     15  C   UNL     1     -18.532 -15.050   9.181  1.00  0.00     0.157 A 
ATOM     16  C   UNL     1     -18.288 -13.255  10.797  1.00  0.00     0.062 A 
ATOM     17  C   UNL     1     -18.174 -13.725   9.484  1.00  0.00     0.158 A 
BRANCH  15  18
ATOM     18  O   UNL     1     -18.422 -15.524   7.875  1.00  0.00    -0.504 OA
ATOM     19  H   UNL     1     -17.521 -15.651   7.431  1.00  0.00     0.293 HD
ENDBRANCH  15  18
BRANCH  17  20
ATOM     20  O   UNL     1     -17.702 -12.863   8.494  1.00  0.00    -0.504 OA
ATOM     21  H   UNL     1     -17.160 -13.195   7.705  1.00  0.00     0.293 HD
ENDBRANCH  17  20
ENDBRANCH   1  12
BRANCH   2  22
ATOM     22  O   UNL     1     -19.007 -15.813  14.136  1.00  0.00    -0.502 OA
ATOM     23  H   UNL     1     -18.984 -16.245  13.220  1.00  0.00     0.293 HD
ENDBRANCH   2  22
BRANCH   6  24
ATOM     24  O   UNL     1     -18.861 -12.436  18.252  1.00  0.00    -0.507 OA
ATOM     25  H   UNL     1     -19.293 -13.320  18.474  1.00  0.00     0.293 HD
ENDBRANCH   6  24
BRANCH   8  26
ATOM     26  O   UNL     1     -19.125  -8.251  15.946  1.00  0.00    -0.508 OA
ATOM     27  H   UNL     1     -19.883  -7.781  16.429  1.00  0.00     0.293 HD
ENDBRANCH   8  26
TORSDOF 6
ENDMDL
