MODEL 1
REMARK VINA RESULT:    -6.122      0.000      0.000
REMARK INTER + INTRA:         -12.003
REMARK INTER:                 -11.133
REMARK INTRA:                  -0.870
REMARK UNBOUND:                -0.870
REMARK SMILES CCCCCCCCCCCCCCCC(=O)[O-]
REMARK SMILES IDX 9 1 10 2 11 3 12 4 13 5 14 6 15 7 16 8 17 9 18 10 8 11 7 12
REMARK SMILES IDX 6 13 5 14 4 15 3 16 2 17 1 18
REMARK H PARENT
REMARK Flexibility Score: inf
ROOT
ATOM      1  C   UNL     1      -3.146   8.984 -39.050  1.00  0.00     0.000 C 
ENDROOT
BRANCH   1   2
ATOM      2  C   UNL     1      -3.942   9.432 -40.285  1.00  0.00     0.000 C 
BRANCH   2   3
ATOM      3  C   UNL     1      -5.431   9.599 -39.946  1.00  0.00     0.000 C 
BRANCH   3   4
ATOM      4  C   UNL     1      -5.895   8.654 -38.826  1.00  0.00     0.000 C 
BRANCH   4   5
ATOM      5  C   UNL     1      -7.292   8.069 -39.085  1.00  0.00     0.000 C 
BRANCH   5   6
ATOM      6  C   UNL     1      -7.281   7.148 -40.314  1.00  0.00     0.006 C 
BRANCH   6   7
ATOM      7  C   UNL     1      -7.853   5.759 -40.005  1.00  0.00     0.053 C 
BRANCH   7   8
ATOM      8  C   UNL     1      -8.129   4.982 -41.255  1.00  0.00     0.041 C 
ATOM      9  O   UNL     1      -7.687   5.383 -42.363  1.00  0.00    -0.550 OA
ATOM     10  O   UNL     1      -8.848   3.795 -41.190  1.00  0.00    -0.550 OA
ENDBRANCH   7   8
ENDBRANCH   6   7
ENDBRANCH   5   6
ENDBRANCH   4   5
ENDBRANCH   3   4
ENDBRANCH   2   3
ENDBRANCH   1   2
BRANCH   1  11
ATOM     11  C   UNL     1      -1.806   8.323 -39.412  1.00  0.00     0.000 C 
BRANCH  11  12
ATOM     12  C   UNL     1      -0.638   8.852 -38.562  1.00  0.00    -0.000 C 
BRANCH  12  13
ATOM     13  C   UNL     1      -0.709  10.372 -38.343  1.00  0.00    -0.000 C 
BRANCH  13  14
ATOM     14  C   UNL     1       0.636  10.973 -37.907  1.00  0.00    -0.000 C 
BRANCH  14  15
ATOM     15  C   UNL     1       0.533  12.498 -37.762  1.00  0.00    -0.000 C 
BRANCH  15  16
ATOM     16  C   UNL     1      -0.921  13.003 -37.755  1.00  0.00    -0.000 C 
BRANCH  16  17
ATOM     17  C   UNL     1      -1.471  13.379 -36.367  1.00  0.00    -0.003 C 
ATOM     18  C   UNL     1      -2.254  12.245 -35.706  1.00  0.00     0.004 C 
ENDBRANCH  16  17
ENDBRANCH  15  16
ENDBRANCH  14  15
ENDBRANCH  13  14
ENDBRANCH  12  13
ENDBRANCH  11  12
ENDBRANCH   1  11
TORSDOF 14
ENDMDL
MODEL 2
REMARK VINA RESULT:    -5.653      2.879      4.885
REMARK INTER + INTRA:         -11.149
REMARK INTER:                 -10.643
REMARK INTRA:                  -0.506
REMARK UNBOUND:                -0.870
REMARK SMILES CCCCCCCCCCCCCCCC(=O)[O-]
REMARK SMILES IDX 9 1 10 2 11 3 12 4 13 5 14 6 15 7 16 8 17 9 18 10 8 11 7 12
REMARK SMILES IDX 6 13 5 14 4 15 3 16 2 17 1 18
REMARK H PARENT
REMARK Flexibility Score: inf
ROOT
ATOM      1  C   UNL     1      -2.489   9.599 -38.437  1.00  0.00     0.000 C 
ENDROOT
BRANCH   1   2
ATOM      2  C   UNL     1      -3.467   8.968 -39.440  1.00  0.00     0.000 C 
BRANCH   2   3
ATOM      3  C   UNL     1      -4.916   9.363 -39.115  1.00  0.00     0.000 C 
BRANCH   3   4
ATOM      4  C   UNL     1      -5.797   8.153 -38.766  1.00  0.00     0.000 C 
BRANCH   4   5
ATOM      5  C   UNL     1      -7.205   8.251 -39.371  1.00  0.00     0.000 C 
BRANCH   5   6
ATOM      6  C   UNL     1      -7.373   7.263 -40.535  1.00  0.00     0.006 C 
BRANCH   6   7
ATOM      7  C   UNL     1      -7.751   5.857 -40.054  1.00  0.00     0.053 C 
BRANCH   7   8
ATOM      8  C   UNL     1      -8.143   4.967 -41.193  1.00  0.00     0.041 C 
ATOM      9  O   UNL     1      -7.813   5.261 -42.371  1.00  0.00    -0.550 OA
ATOM     10  O   UNL     1      -8.849   3.795 -40.948  1.00  0.00    -0.550 OA
ENDBRANCH   7   8
ENDBRANCH   6   7
ENDBRANCH   5   6
ENDBRANCH   4   5
ENDBRANCH   3   4
ENDBRANCH   2   3
ENDBRANCH   1   2
BRANCH   1  11
ATOM     11  C   UNL     1      -1.037   9.144 -38.655  1.00  0.00     0.000 C 
BRANCH  11  12
ATOM     12  C   UNL     1      -0.944   7.726 -39.243  1.00  0.00    -0.000 C 
BRANCH  12  13
ATOM     13  C   UNL     1      -0.550   7.729 -40.729  1.00  0.00    -0.000 C 
BRANCH  13  14
ATOM     14  C   UNL     1       0.218   6.464 -41.143  1.00  0.00    -0.000 C 
BRANCH  14  15
ATOM     15  C   UNL     1       0.776   6.604 -42.568  1.00  0.00    -0.000 C 
BRANCH  15  16
ATOM     16  C   UNL     1       2.127   5.890 -42.755  1.00  0.00    -0.000 C 
BRANCH  16  17
ATOM     17  C   UNL     1       2.674   5.195 -41.495  1.00  0.00    -0.003 C 
ATOM     18  C   UNL     1       4.200   5.147 -41.452  1.00  0.00     0.004 C 
ENDBRANCH  16  17
ENDBRANCH  15  16
ENDBRANCH  14  15
ENDBRANCH  13  14
ENDBRANCH  12  13
ENDBRANCH  11  12
ENDBRANCH   1  11
TORSDOF 14
ENDMDL
MODEL 3
REMARK VINA RESULT:    -5.500      4.146      8.906
REMARK INTER + INTRA:         -10.872
REMARK INTER:                 -10.182
REMARK INTRA:                  -0.690
REMARK UNBOUND:                -0.870
REMARK SMILES CCCCCCCCCCCCCCCC(=O)[O-]
REMARK SMILES IDX 9 1 10 2 11 3 12 4 13 5 14 6 15 7 16 8 17 9 18 10 8 11 7 12
REMARK SMILES IDX 6 13 5 14 4 15 3 16 2 17 1 18
REMARK H PARENT
REMARK Flexibility Score: inf
ROOT
ATOM      1  C   UNL     1      -3.191   9.338 -39.363  1.00  0.00     0.000 C 
ENDROOT
BRANCH   1   2
ATOM      2  C   UNL     1      -2.051   8.309 -39.398  1.00  0.00     0.000 C 
BRANCH   2   3
ATOM      3  C   UNL     1      -0.869   8.771 -38.531  1.00  0.00     0.000 C 
BRANCH   3   4
ATOM      4  C   UNL     1      -0.880  10.286 -38.271  1.00  0.00     0.000 C 
BRANCH   4   5
ATOM      5  C   UNL     1       0.482  10.943 -38.541  1.00  0.00     0.000 C 
BRANCH   5   6
ATOM      6  C   UNL     1       0.554  12.338 -37.903  1.00  0.00     0.006 C 
BRANCH   6   7
ATOM      7  C   UNL     1      -0.338  12.456 -36.661  1.00  0.00     0.053 C 
BRANCH   7   8
ATOM      8  C   UNL     1      -1.474  13.407 -36.882  1.00  0.00     0.041 C 
ATOM      9  O   UNL     1      -2.379  13.528 -36.015  1.00  0.00    -0.550 OA
ATOM     10  O   UNL     1      -1.516  14.183 -38.033  1.00  0.00    -0.550 OA
ENDBRANCH   7   8
ENDBRANCH   6   7
ENDBRANCH   5   6
ENDBRANCH   4   5
ENDBRANCH   3   4
ENDBRANCH   2   3
ENDBRANCH   1   2
BRANCH   1  11
ATOM     11  C   UNL     1      -4.545   8.714 -38.988  1.00  0.00     0.000 C 
BRANCH  11  12
ATOM     12  C   UNL     1      -5.721   9.353 -39.746  1.00  0.00    -0.000 C 
BRANCH  12  13
ATOM     13  C   UNL     1      -7.086   8.862 -39.239  1.00  0.00    -0.000 C 
BRANCH  13  14
ATOM     14  C   UNL     1      -7.337   7.379 -39.550  1.00  0.00    -0.000 C 
BRANCH  14  15
ATOM     15  C   UNL     1      -7.358   7.132 -41.066  1.00  0.00    -0.000 C 
BRANCH  15  16
ATOM     16  C   UNL     1      -7.752   5.690 -41.434  1.00  0.00    -0.000 C 
BRANCH  16  17
ATOM     17  C   UNL     1      -8.251   4.834 -40.256  1.00  0.00    -0.003 C 
ATOM     18  C   UNL     1      -9.278   3.781 -40.674  1.00  0.00     0.004 C 
ENDBRANCH  16  17
ENDBRANCH  15  16
ENDBRANCH  14  15
ENDBRANCH  13  14
ENDBRANCH  12  13
ENDBRANCH  11  12
ENDBRANCH   1  11
TORSDOF 14
ENDMDL
MODEL 4
REMARK VINA RESULT:    -4.547      5.224      8.693
REMARK INTER + INTRA:          -9.138
REMARK INTER:                  -8.454
REMARK INTRA:                  -0.684
REMARK UNBOUND:                -0.870
REMARK SMILES CCCCCCCCCCCCCCCC(=O)[O-]
REMARK SMILES IDX 9 1 10 2 11 3 12 4 13 5 14 6 15 7 16 8 17 9 18 10 8 11 7 12
REMARK SMILES IDX 6 13 5 14 4 15 3 16 2 17 1 18
REMARK H PARENT
REMARK Flexibility Score: inf
ROOT
ATOM      1  C   UNL     1      -0.826   8.672 -38.961  1.00  0.00     0.000 C 
ENDROOT
BRANCH   1   2
ATOM      2  C   UNL     1      -0.770   7.885 -40.280  1.00  0.00     0.000 C 
BRANCH   2   3
ATOM      3  C   UNL     1      -0.764   6.371 -40.014  1.00  0.00     0.000 C 
BRANCH   3   4
ATOM      4  C   UNL     1      -0.071   5.575 -41.132  1.00  0.00     0.000 C 
BRANCH   4   5
ATOM      5  C   UNL     1       0.977   6.406 -41.888  1.00  0.00     0.000 C 
BRANCH   5   6
ATOM      6  C   UNL     1       2.193   5.546 -42.262  1.00  0.00     0.006 C 
BRANCH   6   7
ATOM      7  C   UNL     1       3.252   5.522 -41.153  1.00  0.00     0.053 C 
BRANCH   7   8
ATOM      8  C   UNL     1       4.533   4.906 -41.623  1.00  0.00     0.041 C 
ATOM      9  O   UNL     1       5.291   5.534 -42.408  1.00  0.00    -0.550 OA
ATOM     10  O   UNL     1       4.906   3.647 -41.167  1.00  0.00    -0.550 OA
ENDBRANCH   7   8
ENDBRANCH   6   7
ENDBRANCH   5   6
ENDBRANCH   4   5
ENDBRANCH   3   4
ENDBRANCH   2   3
ENDBRANCH   1   2
BRANCH   1  11
ATOM     11  C   UNL     1      -2.127   9.477 -38.804  1.00  0.00     0.000 C 
BRANCH  11  12
ATOM     12  C   UNL     1      -3.261   8.948 -39.697  1.00  0.00    -0.000 C 
BRANCH  12  13
ATOM     13  C   UNL     1      -4.559   8.695 -38.914  1.00  0.00    -0.000 C 
BRANCH  13  14
ATOM     14  C   UNL     1      -5.776   9.395 -39.538  1.00  0.00    -0.000 C 
BRANCH  14  15
ATOM     15  C   UNL     1      -7.054   8.570 -39.322  1.00  0.00    -0.000 C 
BRANCH  15  16
ATOM     16  C   UNL     1      -7.224   7.445 -40.359  1.00  0.00    -0.000 C 
BRANCH  16  17
ATOM     17  C   UNL     1      -7.774   6.122 -39.796  1.00  0.00    -0.003 C 
ATOM     18  C   UNL     1      -8.115   5.104 -40.883  1.00  0.00     0.004 C 
ENDBRANCH  16  17
ENDBRANCH  15  16
ENDBRANCH  14  15
ENDBRANCH  13  14
ENDBRANCH  12  13
ENDBRANCH  11  12
ENDBRANCH   1  11
TORSDOF 14
ENDMDL
MODEL 5
REMARK VINA RESULT:    -4.393      4.177      8.294
REMARK INTER + INTRA:          -8.858
REMARK INTER:                  -8.462
REMARK INTRA:                  -0.396
REMARK UNBOUND:                -0.870
REMARK SMILES CCCCCCCCCCCCCCCC(=O)[O-]
REMARK SMILES IDX 9 1 10 2 11 3 12 4 13 5 14 6 15 7 16 8 17 9 18 10 8 11 7 12
REMARK SMILES IDX 6 13 5 14 4 15 3 16 2 17 1 18
REMARK H PARENT
REMARK Flexibility Score: inf
ROOT
ATOM      1  C   UNL     1      -2.973   9.495 -39.379  1.00  0.00     0.000 C 
ENDROOT
BRANCH   1   2
ATOM      2  C   UNL     1      -1.913   9.462 -38.267  1.00  0.00     0.000 C 
BRANCH   2   3
ATOM      3  C   UNL     1      -0.593   8.870 -38.785  1.00  0.00     0.000 C 
BRANCH   3   4
ATOM      4  C   UNL     1      -0.809   7.702 -39.761  1.00  0.00     0.000 C 
BRANCH   4   5
ATOM      5  C   UNL     1      -0.820   8.152 -41.230  1.00  0.00     0.000 C 
BRANCH   5   6
ATOM      6  C   UNL     1       0.138   7.297 -42.072  1.00  0.00     0.006 C 
BRANCH   6   7
ATOM      7  C   UNL     1       0.799   6.184 -41.251  1.00  0.00     0.053 C 
BRANCH   7   8
ATOM      8  C   UNL     1       2.090   5.735 -41.863  1.00  0.00     0.041 C 
ATOM      9  O   UNL     1       2.328   5.956 -43.079  1.00  0.00    -0.550 OA
ATOM     10  O   UNL     1       3.046   5.100 -41.079  1.00  0.00    -0.550 OA
ENDBRANCH   7   8
ENDBRANCH   6   7
ENDBRANCH   5   6
ENDBRANCH   4   5
ENDBRANCH   3   4
ENDBRANCH   2   3
ENDBRANCH   1   2
BRANCH   1  11
ATOM     11  C   UNL     1      -4.304   8.855 -38.953  1.00  0.00     0.000 C 
BRANCH  11  12
ATOM     12  C   UNL     1      -5.489   9.329 -39.812  1.00  0.00    -0.000 C 
BRANCH  12  13
ATOM     13  C   UNL     1      -6.842   8.838 -39.273  1.00  0.00    -0.000 C 
BRANCH  13  14
ATOM     14  C   UNL     1      -7.091   7.349 -39.558  1.00  0.00    -0.000 C 
BRANCH  14  15
ATOM     15  C   UNL     1      -7.419   7.122 -41.041  1.00  0.00    -0.000 C 
BRANCH  15  16
ATOM     16  C   UNL     1      -7.789   5.661 -41.356  1.00  0.00    -0.000 C 
BRANCH  16  17
ATOM     17  C   UNL     1      -8.369   4.868 -40.171  1.00  0.00    -0.003 C 
ATOM     18  C   UNL     1      -9.291   3.730 -40.605  1.00  0.00     0.004 C 
ENDBRANCH  16  17
ENDBRANCH  15  16
ENDBRANCH  14  15
ENDBRANCH  13  14
ENDBRANCH  12  13
ENDBRANCH  11  12
ENDBRANCH   1  11
TORSDOF 14
ENDMDL
MODEL 6
REMARK VINA RESULT:    -4.337      4.480      8.982
REMARK INTER + INTRA:          -8.756
REMARK INTER:                  -8.036
REMARK INTRA:                  -0.720
REMARK UNBOUND:                -0.870
REMARK SMILES CCCCCCCCCCCCCCCC(=O)[O-]
REMARK SMILES IDX 9 1 10 2 11 3 12 4 13 5 14 6 15 7 16 8 17 9 18 10 8 11 7 12
REMARK SMILES IDX 6 13 5 14 4 15 3 16 2 17 1 18
REMARK H PARENT
REMARK Flexibility Score: inf
ROOT
ATOM      1  C   UNL     1      -1.854   8.883 -38.409  1.00  0.00     0.000 C 
ENDROOT
BRANCH   1   2
ATOM      2  C   UNL     1      -0.909  10.095 -38.380  1.00  0.00     0.000 C 
BRANCH   2   3
ATOM      3  C   UNL     1      -1.544  11.266 -37.615  1.00  0.00     0.000 C 
BRANCH   3   4
ATOM      4  C   UNL     1      -0.642  12.511 -37.580  1.00  0.00     0.000 C 
BRANCH   4   5
ATOM      5  C   UNL     1       0.846  12.168 -37.749  1.00  0.00     0.000 C 
BRANCH   5   6
ATOM      6  C   UNL     1       1.385  12.707 -39.082  1.00  0.00     0.006 C 
BRANCH   6   7
ATOM      7  C   UNL     1       1.969  11.597 -39.965  1.00  0.00     0.053 C 
BRANCH   7   8
ATOM      8  C   UNL     1       2.646  12.153 -41.180  1.00  0.00     0.041 C 
ATOM      9  O   UNL     1       3.123  13.318 -41.165  1.00  0.00    -0.550 OA
ATOM     10  O   UNL     1       2.777  11.370 -42.320  1.00  0.00    -0.550 OA
ENDBRANCH   7   8
ENDBRANCH   6   7
ENDBRANCH   5   6
ENDBRANCH   4   5
ENDBRANCH   3   4
ENDBRANCH   2   3
ENDBRANCH   1   2
BRANCH   1  11
ATOM     11  C   UNL     1      -2.978   9.030 -39.447  1.00  0.00     0.000 C 
BRANCH  11  12
ATOM     12  C   UNL     1      -4.367   8.723 -38.861  1.00  0.00    -0.000 C 
BRANCH  12  13
ATOM     13  C   UNL     1      -5.507   9.314 -39.705  1.00  0.00    -0.000 C 
BRANCH  13  14
ATOM     14  C   UNL     1      -6.895   9.040 -39.105  1.00  0.00    -0.000 C 
BRANCH  14  15
ATOM     15  C   UNL     1      -7.374   7.624 -39.457  1.00  0.00    -0.000 C 
BRANCH  15  16
ATOM     16  C   UNL     1      -7.143   7.263 -40.935  1.00  0.00    -0.000 C 
BRANCH  16  17
ATOM     17  C   UNL     1      -7.870   5.993 -41.414  1.00  0.00    -0.003 C 
ATOM     18  C   UNL     1      -8.166   5.010 -40.282  1.00  0.00     0.004 C 
ENDBRANCH  16  17
ENDBRANCH  15  16
ENDBRANCH  14  15
ENDBRANCH  13  14
ENDBRANCH  12  13
ENDBRANCH  11  12
ENDBRANCH   1  11
TORSDOF 14
ENDMDL
MODEL 7
REMARK VINA RESULT:    -4.154      1.628      2.735
REMARK INTER + INTRA:          -8.424
REMARK INTER:                  -7.555
REMARK INTRA:                  -0.869
REMARK UNBOUND:                -0.870
REMARK SMILES CCCCCCCCCCCCCCCC(=O)[O-]
REMARK SMILES IDX 9 1 10 2 11 3 12 4 13 5 14 6 15 7 16 8 17 9 18 10 8 11 7 12
REMARK SMILES IDX 6 13 5 14 4 15 3 16 2 17 1 18
REMARK H PARENT
REMARK Flexibility Score: inf
ROOT
ATOM      1  C   UNL     1      -2.302   8.259 -39.395  1.00  0.00     0.000 C 
ENDROOT
BRANCH   1   2
ATOM      2  C   UNL     1      -3.520   9.092 -39.823  1.00  0.00     0.000 C 
BRANCH   2   3
ATOM      3  C   UNL     1      -4.493   9.282 -38.649  1.00  0.00     0.000 C 
BRANCH   3   4
ATOM      4  C   UNL     1      -5.589   8.206 -38.606  1.00  0.00     0.000 C 
BRANCH   4   5
ATOM      5  C   UNL     1      -6.848   8.611 -39.388  1.00  0.00     0.000 C 
BRANCH   5   6
ATOM      6  C   UNL     1      -7.235   7.527 -40.405  1.00  0.00     0.006 C 
BRANCH   6   7
ATOM      7  C   UNL     1      -7.401   6.149 -39.752  1.00  0.00     0.053 C 
BRANCH   7   8
ATOM      8  C   UNL     1      -8.083   5.180 -40.667  1.00  0.00     0.041 C 
ATOM      9  O   UNL     1      -8.871   4.314 -40.203  1.00  0.00    -0.550 OA
ATOM     10  O   UNL     1      -7.871   5.252 -42.038  1.00  0.00    -0.550 OA
ENDBRANCH   7   8
ENDBRANCH   6   7
ENDBRANCH   5   6
ENDBRANCH   4   5
ENDBRANCH   3   4
ENDBRANCH   2   3
ENDBRANCH   1   2
BRANCH   1  11
ATOM     11  C   UNL     1      -1.023   9.101 -39.257  1.00  0.00     0.000 C 
BRANCH  11  12
ATOM     12  C   UNL     1      -0.923   9.803 -37.892  1.00  0.00    -0.000 C 
BRANCH  12  13
ATOM     13  C   UNL     1      -0.981  11.334 -38.010  1.00  0.00    -0.000 C 
BRANCH  13  14
ATOM     14  C   UNL     1       0.306  12.017 -37.524  1.00  0.00    -0.000 C 
BRANCH  14  15
ATOM     15  C   UNL     1       1.037  12.701 -38.689  1.00  0.00    -0.000 C 
BRANCH  15  16
ATOM     16  C   UNL     1       1.868  11.718 -39.535  1.00  0.00    -0.000 C 
BRANCH  16  17
ATOM     17  C   UNL     1       2.376  12.284 -40.873  1.00  0.00    -0.003 C 
ATOM     18  C   UNL     1       2.383  11.249 -41.997  1.00  0.00     0.004 C 
ENDBRANCH  16  17
ENDBRANCH  15  16
ENDBRANCH  14  15
ENDBRANCH  13  14
ENDBRANCH  12  13
ENDBRANCH  11  12
ENDBRANCH   1  11
TORSDOF 14
ENDMDL
MODEL 8
REMARK VINA RESULT:    -3.761     14.654     16.735
REMARK INTER + INTRA:          -7.710
REMARK INTER:                  -5.264
REMARK INTRA:                  -2.446
REMARK UNBOUND:                -0.870
REMARK SMILES CCCCCCCCCCCCCCCC(=O)[O-]
REMARK SMILES IDX 9 1 10 2 11 3 12 4 13 5 14 6 15 7 16 8 17 9 18 10 8 11 7 12
REMARK SMILES IDX 6 13 5 14 4 15 3 16 2 17 1 18
REMARK H PARENT
REMARK Flexibility Score: inf
ROOT
ATOM      1  C   UNL     1     -12.950   5.662 -28.871  1.00  0.00     0.000 C 
ENDROOT
BRANCH   1   2
ATOM      2  C   UNL     1     -11.503   5.957 -28.449  1.00  0.00     0.000 C 
BRANCH   2   3
ATOM      3  C   UNL     1     -11.467   6.779 -27.151  1.00  0.00     0.000 C 
BRANCH   3   4
ATOM      4  C   UNL     1     -12.756   7.585 -26.923  1.00  0.00     0.000 C 
BRANCH   4   5
ATOM      5  C   UNL     1     -13.407   7.289 -25.564  1.00  0.00     0.000 C 
BRANCH   5   6
ATOM      6  C   UNL     1     -12.757   6.066 -24.899  1.00  0.00     0.006 C 
BRANCH   6   7
ATOM      7  C   UNL     1     -12.277   6.365 -23.474  1.00  0.00     0.053 C 
BRANCH   7   8
ATOM      8  C   UNL     1     -11.139   7.338 -23.464  1.00  0.00     0.041 C 
ATOM      9  O   UNL     1     -10.033   7.027 -23.980  1.00  0.00    -0.550 OA
ATOM     10  O   UNL     1     -11.310   8.602 -22.912  1.00  0.00    -0.550 OA
ENDBRANCH   7   8
ENDBRANCH   6   7
ENDBRANCH   5   6
ENDBRANCH   4   5
ENDBRANCH   3   4
ENDBRANCH   2   3
ENDBRANCH   1   2
BRANCH   1  11
ATOM     11  C   UNL     1     -13.311   4.171 -28.757  1.00  0.00     0.000 C 
BRANCH  11  12
ATOM     12  C   UNL     1     -13.773   3.782 -27.342  1.00  0.00    -0.000 C 
BRANCH  12  13
ATOM     13  C   UNL     1     -13.037   2.547 -26.800  1.00  0.00    -0.000 C 
BRANCH  13  14
ATOM     14  C   UNL     1     -11.726   2.259 -27.549  1.00  0.00    -0.000 C 
BRANCH  14  15
ATOM     15  C   UNL     1     -10.547   2.157 -26.570  1.00  0.00    -0.000 C 
BRANCH  15  16
ATOM     16  C   UNL     1     -10.365   3.424 -25.716  1.00  0.00    -0.000 C 
BRANCH  16  17
ATOM     17  C   UNL     1      -9.070   4.210 -25.990  1.00  0.00    -0.003 C 
ATOM     18  C   UNL     1      -7.880   3.309 -26.316  1.00  0.00     0.004 C 
ENDBRANCH  16  17
ENDBRANCH  15  16
ENDBRANCH  14  15
ENDBRANCH  13  14
ENDBRANCH  12  13
ENDBRANCH  11  12
ENDBRANCH   1  11
TORSDOF 14
ENDMDL
MODEL 9
REMARK VINA RESULT:    -3.699     13.752     15.718
REMARK INTER + INTRA:          -7.597
REMARK INTER:                  -5.753
REMARK INTRA:                  -1.844
REMARK UNBOUND:                -0.870
REMARK SMILES CCCCCCCCCCCCCCCC(=O)[O-]
REMARK SMILES IDX 9 1 10 2 11 3 12 4 13 5 14 6 15 7 16 8 17 9 18 10 8 11 7 12
REMARK SMILES IDX 6 13 5 14 4 15 3 16 2 17 1 18
REMARK H PARENT
REMARK Flexibility Score: inf
ROOT
ATOM      1  C   UNL     1     -11.429   4.385 -27.337  1.00  0.00     0.000 C 
ENDROOT
BRANCH   1   2
ATOM      2  C   UNL     1     -10.699   3.900 -26.075  1.00  0.00     0.000 C 
BRANCH   2   3
ATOM      3  C   UNL     1      -9.390   4.676 -25.866  1.00  0.00     0.000 C 
BRANCH   3   4
ATOM      4  C   UNL     1      -8.223   3.770 -25.444  1.00  0.00     0.000 C 
BRANCH   4   5
ATOM      5  C   UNL     1      -8.416   2.311 -25.886  1.00  0.00     0.000 C 
BRANCH   5   6
ATOM      6  C   UNL     1      -7.337   1.897 -26.897  1.00  0.00     0.006 C 
BRANCH   6   7
ATOM      7  C   UNL     1      -6.157   2.876 -26.921  1.00  0.00     0.053 C 
BRANCH   7   8
ATOM      8  C   UNL     1      -5.450   2.861 -28.242  1.00  0.00     0.041 C 
ATOM      9  O   UNL     1      -5.711   3.733 -29.112  1.00  0.00    -0.550 OA
ATOM     10  O   UNL     1      -4.480   1.900 -28.500  1.00  0.00    -0.550 OA
ENDBRANCH   7   8
ENDBRANCH   6   7
ENDBRANCH   5   6
ENDBRANCH   4   5
ENDBRANCH   3   4
ENDBRANCH   2   3
ENDBRANCH   1   2
BRANCH   1  11
ATOM     11  C   UNL     1     -10.900   5.734 -27.849  1.00  0.00     0.000 C 
BRANCH  11  12
ATOM     12  C   UNL     1     -12.029   6.682 -28.289  1.00  0.00    -0.000 C 
BRANCH  12  13
ATOM     13  C   UNL     1     -13.346   6.418 -27.542  1.00  0.00    -0.000 C 
BRANCH  13  14
ATOM     14  C   UNL     1     -13.803   7.619 -26.700  1.00  0.00    -0.000 C 
BRANCH  14  15
ATOM     15  C   UNL     1     -13.979   7.219 -25.227  1.00  0.00    -0.000 C 
BRANCH  15  16
ATOM     16  C   UNL     1     -12.759   6.472 -24.658  1.00  0.00    -0.000 C 
BRANCH  16  17
ATOM     17  C   UNL     1     -11.704   7.370 -23.987  1.00  0.00    -0.003 C 
ATOM     18  C   UNL     1     -10.804   8.090 -24.991  1.00  0.00     0.004 C 
ENDBRANCH  16  17
ENDBRANCH  15  16
ENDBRANCH  14  15
ENDBRANCH  13  14
ENDBRANCH  12  13
ENDBRANCH  11  12
ENDBRANCH   1  11
TORSDOF 14
ENDMDL
