MODEL 1
REMARK VINA RESULT:    -7.478      0.000      0.000
REMARK INTER + INTRA:          -9.259
REMARK INTER:                  -9.009
REMARK INTRA:                  -0.250
REMARK UNBOUND:                -0.250
REMARK SMILES O=c1c(O)c(-c2ccc(O)c(O)c2)oc2cc(O)cc(O)c12
REMARK SMILES IDX 5 1 3 2 2 3 1 4 22 5 20 6 19 7 17 8 16 9 15 10 14 11 6 12
REMARK SMILES IDX 7 13 8 14 9 15 13 16 11 17 10 18 12 20 4 22 21 24 18 26
REMARK H PARENT 10 19 12 21 4 23 21 25 18 27
REMARK Flexibility Score: inf
ROOT
ATOM      1  C   UNL     1      -2.699 -14.023   4.371  1.00  0.00     0.180 A 
ATOM      2  C   UNL     1      -2.881 -12.667   4.706  1.00  0.00     0.208 A 
ATOM      3  C   UNL     1      -2.090 -12.107   5.723  1.00  0.00     0.238 A 
ATOM      4  O   UNL     1      -2.253 -10.897   6.039  1.00  0.00    -0.285 OA
ATOM      5  C   UNL     1      -1.121 -12.901   6.369  1.00  0.00     0.111 A 
ATOM      6  C   UNL     1      -0.282 -12.414   7.399  1.00  0.00     0.134 A 
ATOM      7  C   UNL     1       0.665 -13.266   7.987  1.00  0.00     0.093 A 
ATOM      8  C   UNL     1       0.790 -14.591   7.566  1.00  0.00     0.123 A 
ATOM      9  C   UNL     1      -0.037 -15.079   6.549  1.00  0.00     0.094 A 
ATOM     10  C   UNL     1      -0.989 -14.247   5.951  1.00  0.00     0.146 A 
ATOM     11  O   UNL     1      -1.765 -14.737   4.993  1.00  0.00    -0.452 OA
ENDROOT
BRANCH   1  12
ATOM     12  C   UNL     1      -3.506 -14.690   3.325  1.00  0.00     0.025 A 
ATOM     13  C   UNL     1      -2.970 -14.976   2.057  1.00  0.00     0.016 A 
ATOM     14  C   UNL     1      -3.758 -15.585   1.077  1.00  0.00     0.051 A 
ATOM     15  C   UNL     1      -5.094 -15.903   1.341  1.00  0.00     0.157 A 
ATOM     16  C   UNL     1      -4.854 -14.992   3.580  1.00  0.00     0.062 A 
ATOM     17  C   UNL     1      -5.647 -15.604   2.597  1.00  0.00     0.158 A 
BRANCH  15  18
ATOM     18  O   UNL     1      -5.855 -16.513   0.344  1.00  0.00    -0.504 OA
ATOM     19  H   UNL     1      -5.529 -17.328  -0.159  1.00  0.00     0.293 HD
ENDBRANCH  15  18
BRANCH  17  20
ATOM     20  O   UNL     1      -6.980 -15.913   2.865  1.00  0.00    -0.504 OA
ATOM     21  H   UNL     1      -7.358 -16.835   2.682  1.00  0.00     0.293 HD
ENDBRANCH  17  20
ENDBRANCH   1  12
BRANCH   2  22
ATOM     22  O   UNL     1      -3.814 -11.888   4.017  1.00  0.00    -0.502 OA
ATOM     23  H   UNL     1      -3.600 -10.958   3.678  1.00  0.00     0.293 HD
ENDBRANCH   2  22
BRANCH   6  24
ATOM     24  O   UNL     1      -0.381 -11.093   7.841  1.00  0.00    -0.507 OA
ATOM     25  H   UNL     1      -1.277 -10.666   8.045  1.00  0.00     0.293 HD
ENDBRANCH   6  24
BRANCH   8  26
ATOM     26  O   UNL     1       1.739 -15.416   8.166  1.00  0.00    -0.508 OA
ATOM     27  H   UNL     1       1.471 -16.256   8.666  1.00  0.00     0.293 HD
ENDBRANCH   8  26
TORSDOF 6
ENDMDL
MODEL 2
REMARK VINA RESULT:    -7.384      3.625      5.833
REMARK INTER + INTRA:          -9.146
REMARK INTER:                  -8.823
REMARK INTRA:                  -0.322
REMARK UNBOUND:                -0.250
REMARK SMILES O=c1c(O)c(-c2ccc(O)c(O)c2)oc2cc(O)cc(O)c12
REMARK SMILES IDX 5 1 3 2 2 3 1 4 22 5 20 6 19 7 17 8 16 9 15 10 14 11 6 12
REMARK SMILES IDX 7 13 8 14 9 15 13 16 11 17 10 18 12 20 4 22 21 24 18 26
REMARK H PARENT 10 19 12 21 4 23 21 25 18 27
REMARK Flexibility Score: inf
ROOT
ATOM      1  C   UNL     1      -6.602 -13.279   2.062  1.00  0.00     0.180 A 
ATOM      2  C   UNL     1      -6.152 -14.333   1.243  1.00  0.00     0.208 A 
ATOM      3  C   UNL     1      -4.859 -14.843   1.443  1.00  0.00     0.238 A 
ATOM      4  O   UNL     1      -4.442 -15.779   0.707  1.00  0.00    -0.285 OA
ATOM      5  C   UNL     1      -4.050 -14.309   2.466  1.00  0.00     0.111 A 
ATOM      6  C   UNL     1      -2.738 -14.769   2.735  1.00  0.00     0.134 A 
ATOM      7  C   UNL     1      -1.999 -14.191   3.778  1.00  0.00     0.093 A 
ATOM      8  C   UNL     1      -2.543 -13.167   4.555  1.00  0.00     0.123 A 
ATOM      9  C   UNL     1      -3.838 -12.708   4.293  1.00  0.00     0.094 A 
ATOM     10  C   UNL     1      -4.591 -13.269   3.257  1.00  0.00     0.146 A 
ATOM     11  O   UNL     1      -5.815 -12.810   3.026  1.00  0.00    -0.452 OA
ENDROOT
BRANCH   1  12
ATOM     12  C   UNL     1      -7.944 -12.675   1.901  1.00  0.00     0.025 A 
ATOM     13  C   UNL     1      -8.190 -11.686   0.933  1.00  0.00     0.016 A 
ATOM     14  C   UNL     1      -9.459 -11.112   0.816  1.00  0.00     0.051 A 
ATOM     15  C   UNL     1     -10.495 -11.506   1.668  1.00  0.00     0.157 A 
ATOM     16  C   UNL     1      -8.981 -13.054   2.769  1.00  0.00     0.062 A 
ATOM     17  C   UNL     1     -10.256 -12.480   2.652  1.00  0.00     0.158 A 
BRANCH  15  18
ATOM     18  O   UNL     1     -11.751 -10.918   1.525  1.00  0.00    -0.504 OA
ATOM     19  H   UNL     1     -12.049 -10.139   2.100  1.00  0.00     0.293 HD
ENDBRANCH  15  18
BRANCH  17  20
ATOM     20  O   UNL     1     -11.283 -12.873   3.510  1.00  0.00    -0.504 OA
ATOM     21  H   UNL     1     -12.250 -12.633   3.324  1.00  0.00     0.293 HD
ENDBRANCH  17  20
ENDBRANCH   1  12
BRANCH   2  22
ATOM     22  O   UNL     1      -6.992 -14.878   0.269  1.00  0.00    -0.502 OA
ATOM     23  H   UNL     1      -6.668 -15.102  -0.664  1.00  0.00     0.293 HD
ENDBRANCH   2  22
BRANCH   6  24
ATOM     24  O   UNL     1      -2.167 -15.792   1.977  1.00  0.00    -0.507 OA
ATOM     25  H   UNL     1      -1.194 -15.764   1.692  1.00  0.00     0.293 HD
ENDBRANCH   6  24
BRANCH   8  26
ATOM     26  O   UNL     1      -1.788 -12.610   5.585  1.00  0.00    -0.508 OA
ATOM     27  H   UNL     1      -1.914 -12.896   6.549  1.00  0.00     0.293 HD
ENDBRANCH   8  26
TORSDOF 6
ENDMDL
MODEL 3
REMARK VINA RESULT:    -7.268     13.489     16.232
REMARK INTER + INTRA:          -9.005
REMARK INTER:                  -8.682
REMARK INTRA:                  -0.323
REMARK UNBOUND:                -0.250
REMARK SMILES O=c1c(O)c(-c2ccc(O)c(O)c2)oc2cc(O)cc(O)c12
REMARK SMILES IDX 5 1 3 2 2 3 1 4 22 5 20 6 19 7 17 8 16 9 15 10 14 11 6 12
REMARK SMILES IDX 7 13 8 14 9 15 13 16 11 17 10 18 12 20 4 22 21 24 18 26
REMARK H PARENT 10 19 12 21 4 23 21 25 18 27
REMARK Flexibility Score: inf
ROOT
ATOM      1  C   UNL     1      -7.854 -21.514  -7.941  1.00  0.00     0.180 A 
ATOM      2  C   UNL     1      -9.003 -21.325  -8.733  1.00  0.00     0.208 A 
ATOM      3  C   UNL     1     -10.215 -20.998  -8.104  1.00  0.00     0.238 A 
ATOM      4  O   UNL     1     -11.252 -20.838  -8.803  1.00  0.00    -0.285 OA
ATOM      5  C   UNL     1     -10.254 -20.845  -6.704  1.00  0.00     0.111 A 
ATOM      6  C   UNL     1     -11.432 -20.513  -5.993  1.00  0.00     0.134 A 
ATOM      7  C   UNL     1     -11.387 -20.369  -4.599  1.00  0.00     0.093 A 
ATOM      8  C   UNL     1     -10.191 -20.550  -3.902  1.00  0.00     0.123 A 
ATOM      9  C   UNL     1      -9.023 -20.879  -4.598  1.00  0.00     0.094 A 
ATOM     10  C   UNL     1      -9.047 -21.029  -5.988  1.00  0.00     0.146 A 
ATOM     11  O   UNL     1      -7.926 -21.347  -6.623  1.00  0.00    -0.452 OA
ENDROOT
BRANCH   1  12
ATOM     12  C   UNL     1      -6.545 -21.879  -8.527  1.00  0.00     0.025 A 
ATOM     13  C   UNL     1      -6.125 -23.218  -8.605  1.00  0.00     0.016 A 
ATOM     14  C   UNL     1      -4.874 -23.537  -9.141  1.00  0.00     0.051 A 
ATOM     15  C   UNL     1      -4.020 -22.527  -9.593  1.00  0.00     0.157 A 
ATOM     16  C   UNL     1      -5.676 -20.865  -8.964  1.00  0.00     0.062 A 
ATOM     17  C   UNL     1      -4.420 -21.184  -9.502  1.00  0.00     0.158 A 
BRANCH  15  18
ATOM     18  O   UNL     1      -2.779 -22.876 -10.125  1.00  0.00    -0.504 OA
ATOM     19  H   UNL     1      -2.445 -22.499 -11.003  1.00  0.00     0.293 HD
ENDBRANCH  15  18
BRANCH  17  20
ATOM     20  O   UNL     1      -3.571 -20.170  -9.945  1.00  0.00    -0.504 OA
ATOM     21  H   UNL     1      -3.574 -19.251  -9.520  1.00  0.00     0.293 HD
ENDBRANCH  17  20
ENDBRANCH   1  12
BRANCH   2  22
ATOM     22  O   UNL     1      -8.927 -21.434 -10.124  1.00  0.00    -0.502 OA
ATOM     23  H   UNL     1      -8.870 -22.329 -10.596  1.00  0.00     0.293 HD
ENDBRANCH   2  22
BRANCH   6  24
ATOM     24  O   UNL     1     -12.644 -20.324  -6.661  1.00  0.00    -0.507 OA
ATOM     25  H   UNL     1     -13.372 -21.030  -6.653  1.00  0.00     0.293 HD
ENDBRANCH   6  24
BRANCH   8  26
ATOM     26  O   UNL     1     -10.173 -20.401  -2.517  1.00  0.00    -0.508 OA
ATOM     27  H   UNL     1      -9.414 -20.767  -1.954  1.00  0.00     0.293 HD
ENDBRANCH   8  26
TORSDOF 6
ENDMDL
MODEL 4
REMARK VINA RESULT:    -7.038      3.432      7.243
REMARK INTER + INTRA:          -8.728
REMARK INTER:                  -9.162
REMARK INTRA:                   0.433
REMARK UNBOUND:                -0.250
REMARK SMILES O=c1c(O)c(-c2ccc(O)c(O)c2)oc2cc(O)cc(O)c12
REMARK SMILES IDX 5 1 3 2 2 3 1 4 22 5 20 6 19 7 17 8 16 9 15 10 14 11 6 12
REMARK SMILES IDX 7 13 8 14 9 15 13 16 11 17 10 18 12 20 4 22 21 24 18 26
REMARK H PARENT 10 19 12 21 4 23 21 25 18 27
REMARK Flexibility Score: inf
ROOT
ATOM      1  C   UNL     1      -4.707 -13.218   2.414  1.00  0.00     0.180 A 
ATOM      2  C   UNL     1      -5.167 -13.216   1.083  1.00  0.00     0.208 A 
ATOM      3  C   UNL     1      -6.481 -12.799   0.819  1.00  0.00     0.238 A 
ATOM      4  O   UNL     1      -6.906 -12.805  -0.368  1.00  0.00    -0.285 OA
ATOM      5  C   UNL     1      -7.304 -12.373   1.881  1.00  0.00     0.111 A 
ATOM      6  C   UNL     1      -8.637 -11.935   1.701  1.00  0.00     0.134 A 
ATOM      7  C   UNL     1      -9.389 -11.517   2.810  1.00  0.00     0.093 A 
ATOM      8  C   UNL     1      -8.835 -11.529   4.091  1.00  0.00     0.123 A 
ATOM      9  C   UNL     1      -7.518 -11.963   4.276  1.00  0.00     0.094 A 
ATOM     10  C   UNL     1      -6.753 -12.384   3.185  1.00  0.00     0.146 A 
ATOM     11  O   UNL     1      -5.508 -12.796   3.389  1.00  0.00    -0.452 OA
ENDROOT
BRANCH   1  12
ATOM     12  C   UNL     1      -3.342 -13.662   2.775  1.00  0.00     0.025 A 
ATOM     13  C   UNL     1      -2.499 -14.276   1.833  1.00  0.00     0.016 A 
ATOM     14  C   UNL     1      -1.222 -14.709   2.202  1.00  0.00     0.051 A 
ATOM     15  C   UNL     1      -0.774 -14.549   3.517  1.00  0.00     0.157 A 
ATOM     16  C   UNL     1      -2.897 -13.521   4.100  1.00  0.00     0.062 A 
ATOM     17  C   UNL     1      -1.616 -13.954   4.472  1.00  0.00     0.158 A 
BRANCH  15  18
ATOM     18  O   UNL     1       0.505 -14.988   3.855  1.00  0.00    -0.504 OA
ATOM     19  H   UNL     1       1.277 -14.346   3.986  1.00  0.00     0.293 HD
ENDBRANCH  15  18
BRANCH  17  20
ATOM     20  O   UNL     1      -1.178 -13.797   5.787  1.00  0.00    -0.504 OA
ATOM     21  H   UNL     1      -1.495 -14.410   6.528  1.00  0.00     0.293 HD
ENDBRANCH  17  20
ENDBRANCH   1  12
BRANCH   2  22
ATOM     22  O   UNL     1      -4.316 -13.596   0.042  1.00  0.00    -0.502 OA
ATOM     23  H   UNL     1      -3.308 -13.520   0.110  1.00  0.00     0.293 HD
ENDBRANCH   2  22
BRANCH   6  24
ATOM     24  O   UNL     1      -9.219 -11.909   0.432  1.00  0.00    -0.507 OA
ATOM     25  H   UNL     1      -9.862 -11.176   0.156  1.00  0.00     0.293 HD
ENDBRANCH   6  24
BRANCH   8  26
ATOM     26  O   UNL     1      -9.603 -11.109   5.175  1.00  0.00    -0.508 OA
ATOM     27  H   UNL     1      -9.179 -10.863   6.062  1.00  0.00     0.293 HD
ENDBRANCH   8  26
TORSDOF 6
ENDMDL
MODEL 5
REMARK VINA RESULT:    -6.921     12.713     16.494
REMARK INTER + INTRA:          -8.587
REMARK INTER:                  -8.311
REMARK INTRA:                  -0.276
REMARK UNBOUND:                -0.250
REMARK SMILES O=c1c(O)c(-c2ccc(O)c(O)c2)oc2cc(O)cc(O)c12
REMARK SMILES IDX 5 1 3 2 2 3 1 4 22 5 20 6 19 7 17 8 16 9 15 10 14 11 6 12
REMARK SMILES IDX 7 13 8 14 9 15 13 16 11 17 10 18 12 20 4 22 21 24 18 26
REMARK H PARENT 10 19 12 21 4 23 21 25 18 27
REMARK Flexibility Score: inf
ROOT
ATOM      1  C   UNL     1     -11.616 -20.220  -5.176  1.00  0.00     0.180 A 
ATOM      2  C   UNL     1     -12.861 -20.534  -4.596  1.00  0.00     0.208 A 
ATOM      3  C   UNL     1     -14.020 -19.932  -5.111  1.00  0.00     0.238 A 
ATOM      4  O   UNL     1     -15.138 -20.197  -4.592  1.00  0.00    -0.285 OA
ATOM      5  C   UNL     1     -13.920 -19.048  -6.204  1.00  0.00     0.111 A 
ATOM      6  C   UNL     1     -15.039 -18.403  -6.784  1.00  0.00     0.134 A 
ATOM      7  C   UNL     1     -14.857 -17.543  -7.877  1.00  0.00     0.093 A 
ATOM      8  C   UNL     1     -13.583 -17.315  -8.400  1.00  0.00     0.123 A 
ATOM      9  C   UNL     1     -12.473 -17.948  -7.831  1.00  0.00     0.094 A 
ATOM     10  C   UNL     1     -12.633 -18.808  -6.740  1.00  0.00     0.146 A 
ATOM     11  O   UNL     1     -11.562 -19.392  -6.215  1.00  0.00    -0.452 OA
ENDROOT
BRANCH   1  12
ATOM     12  C   UNL     1     -10.348 -20.798  -4.678  1.00  0.00     0.025 A 
ATOM     13  C   UNL     1      -9.762 -20.356  -3.479  1.00  0.00     0.016 A 
ATOM     14  C   UNL     1      -8.552 -20.899  -3.041  1.00  0.00     0.051 A 
ATOM     15  C   UNL     1      -7.902 -21.879  -3.796  1.00  0.00     0.157 A 
ATOM     16  C   UNL     1      -9.681 -21.768  -5.445  1.00  0.00     0.062 A 
ATOM     17  C   UNL     1      -8.467 -22.315  -5.007  1.00  0.00     0.158 A 
BRANCH  15  18
ATOM     18  O   UNL     1      -6.696 -22.405  -3.332  1.00  0.00    -0.504 OA
ATOM     19  H   UNL     1      -5.956 -22.689  -3.962  1.00  0.00     0.293 HD
ENDBRANCH  15  18
BRANCH  17  20
ATOM     20  O   UNL     1      -7.820 -23.288  -5.769  1.00  0.00    -0.504 OA
ATOM     21  H   UNL     1      -8.315 -24.096  -6.127  1.00  0.00     0.293 HD
ENDBRANCH  17  20
ENDBRANCH   1  12
BRANCH   2  22
ATOM     22  O   UNL     1     -12.938 -21.452  -3.546  1.00  0.00    -0.502 OA
ATOM     23  H   UNL     1     -12.231 -21.511  -2.823  1.00  0.00     0.293 HD
ENDBRANCH   2  22
BRANCH   6  24
ATOM     24  O   UNL     1     -16.325 -18.611  -6.284  1.00  0.00    -0.507 OA
ATOM     25  H   UNL     1     -16.489 -19.153  -5.443  1.00  0.00     0.293 HD
ENDBRANCH   6  24
BRANCH   8  26
ATOM     26  O   UNL     1     -13.430 -16.456  -9.487  1.00  0.00    -0.508 OA
ATOM     27  H   UNL     1     -13.500 -15.451  -9.382  1.00  0.00     0.293 HD
ENDBRANCH   8  26
TORSDOF 6
ENDMDL
MODEL 6
REMARK VINA RESULT:    -6.884      1.821      7.520
REMARK INTER + INTRA:          -8.543
REMARK INTER:                  -8.931
REMARK INTRA:                   0.388
REMARK UNBOUND:                -0.250
REMARK SMILES O=c1c(O)c(-c2ccc(O)c(O)c2)oc2cc(O)cc(O)c12
REMARK SMILES IDX 5 1 3 2 2 3 1 4 22 5 20 6 19 7 17 8 16 9 15 10 14 11 6 12
REMARK SMILES IDX 7 13 8 14 9 15 13 16 11 17 10 18 12 20 4 22 21 24 18 26
REMARK H PARENT 10 19 12 21 4 23 21 25 18 27
REMARK Flexibility Score: inf
ROOT
ATOM      1  C   UNL     1      -3.749 -13.633   3.818  1.00  0.00     0.180 A 
ATOM      2  C   UNL     1      -3.246 -14.624   2.952  1.00  0.00     0.208 A 
ATOM      3  C   UNL     1      -4.121 -15.232   2.037  1.00  0.00     0.238 A 
ATOM      4  O   UNL     1      -3.684 -16.128   1.265  1.00  0.00    -0.285 OA
ATOM      5  C   UNL     1      -5.470 -14.827   1.987  1.00  0.00     0.111 A 
ATOM      6  C   UNL     1      -6.414 -15.385   1.093  1.00  0.00     0.134 A 
ATOM      7  C   UNL     1      -7.738 -14.921   1.099  1.00  0.00     0.093 A 
ATOM      8  C   UNL     1      -8.135 -13.913   1.979  1.00  0.00     0.123 A 
ATOM      9  C   UNL     1      -7.207 -13.357   2.866  1.00  0.00     0.094 A 
ATOM     10  C   UNL     1      -5.883 -13.807   2.877  1.00  0.00     0.146 A 
ATOM     11  O   UNL     1      -5.025 -13.267   3.733  1.00  0.00    -0.452 OA
ENDROOT
BRANCH   1  12
ATOM     12  C   UNL     1      -2.895 -12.960   4.823  1.00  0.00     0.025 A 
ATOM     13  C   UNL     1      -3.195 -11.670   5.292  1.00  0.00     0.016 A 
ATOM     14  C   UNL     1      -2.362 -11.044   6.223  1.00  0.00     0.051 A 
ATOM     15  C   UNL     1      -1.212 -11.689   6.689  1.00  0.00     0.157 A 
ATOM     16  C   UNL     1      -1.728 -13.597   5.277  1.00  0.00     0.062 A 
ATOM     17  C   UNL     1      -0.891 -12.971   6.212  1.00  0.00     0.158 A 
BRANCH  15  18
ATOM     18  O   UNL     1      -0.401 -11.041   7.619  1.00  0.00    -0.504 OA
ATOM     19  H   UNL     1      -0.775 -10.386   8.295  1.00  0.00     0.293 HD
ENDBRANCH  15  18
BRANCH  17  20
ATOM     20  O   UNL     1       0.258 -13.617   6.667  1.00  0.00    -0.504 OA
ATOM     21  H   UNL     1       1.153 -13.144   6.706  1.00  0.00     0.293 HD
ENDBRANCH  17  20
ENDBRANCH   1  12
BRANCH   2  22
ATOM     22  O   UNL     1      -1.894 -14.973   2.987  1.00  0.00    -0.502 OA
ATOM     23  H   UNL     1      -1.553 -15.774   3.505  1.00  0.00     0.293 HD
ENDBRANCH   2  22
BRANCH   6  24
ATOM     24  O   UNL     1      -6.048 -16.394   0.200  1.00  0.00    -0.507 OA
ATOM     25  H   UNL     1      -5.388 -17.120   0.458  1.00  0.00     0.293 HD
ENDBRANCH   6  24
BRANCH   8  26
ATOM     26  O   UNL     1      -9.456 -13.469   1.964  1.00  0.00    -0.508 OA
ATOM     27  H   UNL     1      -9.810 -12.833   2.669  1.00  0.00     0.293 HD
ENDBRANCH   8  26
TORSDOF 6
ENDMDL
MODEL 7
REMARK VINA RESULT:    -6.883      2.670      4.132
REMARK INTER + INTRA:          -8.542
REMARK INTER:                  -8.219
REMARK INTRA:                  -0.323
REMARK UNBOUND:                -0.250
REMARK SMILES O=c1c(O)c(-c2ccc(O)c(O)c2)oc2cc(O)cc(O)c12
REMARK SMILES IDX 5 1 3 2 2 3 1 4 22 5 20 6 19 7 17 8 16 9 15 10 14 11 6 12
REMARK SMILES IDX 7 13 8 14 9 15 13 16 11 17 10 18 12 20 4 22 21 24 18 26
REMARK H PARENT 10 19 12 21 4 23 21 25 18 27
REMARK Flexibility Score: inf
ROOT
ATOM      1  C   UNL     1      -5.013 -13.118   3.361  1.00  0.00     0.180 A 
ATOM      2  C   UNL     1      -4.199 -14.152   2.859  1.00  0.00     0.208 A 
ATOM      3  C   UNL     1      -2.912 -14.323   3.395  1.00  0.00     0.238 A 
ATOM      4  O   UNL     1      -2.171 -15.239   2.945  1.00  0.00    -0.285 OA
ATOM      5  C   UNL     1      -2.471 -13.477   4.433  1.00  0.00     0.111 A 
ATOM      6  C   UNL     1      -1.192 -13.585   5.029  1.00  0.00     0.134 A 
ATOM      7  C   UNL     1      -0.830 -12.710   6.064  1.00  0.00     0.093 A 
ATOM      8  C   UNL     1      -1.719 -11.732   6.513  1.00  0.00     0.123 A 
ATOM      9  C   UNL     1      -2.984 -11.619   5.927  1.00  0.00     0.094 A 
ATOM     10  C   UNL     1      -3.364 -12.481   4.893  1.00  0.00     0.146 A 
ATOM     11  O   UNL     1      -4.568 -12.348   4.350  1.00  0.00    -0.452 OA
ENDROOT
BRANCH   1  12
ATOM     12  C   UNL     1      -6.373 -12.862   2.836  1.00  0.00     0.025 A 
ATOM     13  C   UNL     1      -6.576 -12.098   1.673  1.00  0.00     0.016 A 
ATOM     14  C   UNL     1      -7.870 -11.848   1.208  1.00  0.00     0.051 A 
ATOM     15  C   UNL     1      -8.979 -12.343   1.902  1.00  0.00     0.157 A 
ATOM     16  C   UNL     1      -7.489 -13.340   3.542  1.00  0.00     0.062 A 
ATOM     17  C   UNL     1      -8.789 -13.091   3.077  1.00  0.00     0.158 A 
BRANCH  15  18
ATOM     18  O   UNL     1     -10.258 -12.080   1.414  1.00  0.00    -0.504 OA
ATOM     19  H   UNL     1     -11.041 -12.694   1.600  1.00  0.00     0.293 HD
ENDBRANCH  15  18
BRANCH  17  20
ATOM     20  O   UNL     1      -9.890 -13.582   3.778  1.00  0.00    -0.504 OA
ATOM     21  H   UNL     1     -10.050 -13.342   4.749  1.00  0.00     0.293 HD
ENDBRANCH  17  20
ENDBRANCH   1  12
BRANCH   2  22
ATOM     22  O   UNL     1      -4.678 -15.008   1.865  1.00  0.00    -0.502 OA
ATOM     23  H   UNL     1      -5.321 -15.765   2.064  1.00  0.00     0.293 HD
ENDBRANCH   2  22
BRANCH   6  24
ATOM     24  O   UNL     1      -0.281 -14.554   4.604  1.00  0.00    -0.507 OA
ATOM     25  H   UNL     1       0.719 -14.431   4.719  1.00  0.00     0.293 HD
ENDBRANCH   6  24
BRANCH   8  26
ATOM     26  O   UNL     1      -1.336 -10.875   7.543  1.00  0.00    -0.508 OA
ATOM     27  H   UNL     1      -1.784  -9.977   7.680  1.00  0.00     0.293 HD
ENDBRANCH   8  26
TORSDOF 6
ENDMDL
MODEL 8
REMARK VINA RESULT:    -6.860     12.829     16.320
REMARK INTER + INTRA:          -8.514
REMARK INTER:                  -8.388
REMARK INTRA:                  -0.126
REMARK UNBOUND:                -0.250
REMARK SMILES O=c1c(O)c(-c2ccc(O)c(O)c2)oc2cc(O)cc(O)c12
REMARK SMILES IDX 5 1 3 2 2 3 1 4 22 5 20 6 19 7 17 8 16 9 15 10 14 11 6 12
REMARK SMILES IDX 7 13 8 14 9 15 13 16 11 17 10 18 12 20 4 22 21 24 18 26
REMARK H PARENT 10 19 12 21 4 23 21 25 18 27
REMARK Flexibility Score: inf
ROOT
ATOM      1  C   UNL     1     -10.632 -20.625  -5.677  1.00  0.00     0.180 A 
ATOM      2  C   UNL     1     -10.567 -20.341  -7.055  1.00  0.00     0.208 A 
ATOM      3  C   UNL     1     -11.657 -19.703  -7.669  1.00  0.00     0.238 A 
ATOM      4  O   UNL     1     -11.615 -19.454  -8.904  1.00  0.00    -0.285 OA
ATOM      5  C   UNL     1     -12.780 -19.343  -6.895  1.00  0.00     0.111 A 
ATOM      6  C   UNL     1     -13.916 -18.695  -7.434  1.00  0.00     0.134 A 
ATOM      7  C   UNL     1     -14.990 -18.362  -6.595  1.00  0.00     0.093 A 
ATOM      8  C   UNL     1     -14.950 -18.661  -5.233  1.00  0.00     0.123 A 
ATOM      9  C   UNL     1     -13.830 -19.302  -4.694  1.00  0.00     0.094 A 
ATOM     10  C   UNL     1     -12.749 -19.645  -5.513  1.00  0.00     0.146 A 
ATOM     11  O   UNL     1     -11.701 -20.258  -4.977  1.00  0.00    -0.452 OA
ENDROOT
BRANCH   1  12
ATOM     12  C   UNL     1      -9.532 -21.312  -4.963  1.00  0.00     0.025 A 
ATOM     13  C   UNL     1      -8.810 -20.671  -3.941  1.00  0.00     0.016 A 
ATOM     14  C   UNL     1      -7.760 -21.330  -3.296  1.00  0.00     0.051 A 
ATOM     15  C   UNL     1      -7.405 -22.629  -3.671  1.00  0.00     0.157 A 
ATOM     16  C   UNL     1      -9.159 -22.609  -5.351  1.00  0.00     0.062 A 
ATOM     17  C   UNL     1      -8.106 -23.273  -4.705  1.00  0.00     0.158 A 
BRANCH  15  18
ATOM     18  O   UNL     1      -6.354 -23.263  -3.008  1.00  0.00    -0.504 OA
ATOM     19  H   UNL     1      -6.408 -24.231  -2.717  1.00  0.00     0.293 HD
ENDBRANCH  15  18
BRANCH  17  20
ATOM     20  O   UNL     1      -7.753 -24.566  -5.088  1.00  0.00    -0.504 OA
ATOM     21  H   UNL     1      -7.488 -25.268  -4.406  1.00  0.00     0.293 HD
ENDBRANCH  17  20
ENDBRANCH   1  12
BRANCH   2  22
ATOM     22  O   UNL     1      -9.423 -20.663  -7.790  1.00  0.00    -0.502 OA
ATOM     23  H   UNL     1      -8.832 -19.957  -8.211  1.00  0.00     0.293 HD
ENDBRANCH   2  22
BRANCH   6  24
ATOM     24  O   UNL     1     -13.987 -18.381  -8.792  1.00  0.00    -0.507 OA
ATOM     25  H   UNL     1     -13.208 -18.549  -9.419  1.00  0.00     0.293 HD
ENDBRANCH   6  24
BRANCH   8  26
ATOM     26  O   UNL     1     -16.030 -18.318  -4.421  1.00  0.00    -0.508 OA
ATOM     27  H   UNL     1     -16.921 -18.795  -4.495  1.00  0.00     0.293 HD
ENDBRANCH   8  26
TORSDOF 6
ENDMDL
MODEL 9
REMARK VINA RESULT:    -6.828      4.028      6.318
REMARK INTER + INTRA:          -8.475
REMARK INTER:                  -8.231
REMARK INTRA:                  -0.243
REMARK UNBOUND:                -0.250
REMARK SMILES O=c1c(O)c(-c2ccc(O)c(O)c2)oc2cc(O)cc(O)c12
REMARK SMILES IDX 5 1 3 2 2 3 1 4 22 5 20 6 19 7 17 8 16 9 15 10 14 11 6 12
REMARK SMILES IDX 7 13 8 14 9 15 13 16 11 17 10 18 12 20 4 22 21 24 18 26
REMARK H PARENT 10 19 12 21 4 23 21 25 18 27
REMARK Flexibility Score: inf
ROOT
ATOM      1  C   UNL     1      -7.130 -12.722   2.878  1.00  0.00     0.180 A 
ATOM      2  C   UNL     1      -6.188 -12.037   3.670  1.00  0.00     0.208 A 
ATOM      3  C   UNL     1      -4.866 -12.506   3.711  1.00  0.00     0.238 A 
ATOM      4  O   UNL     1      -4.017 -11.907   4.426  1.00  0.00    -0.285 OA
ATOM      5  C   UNL     1      -4.502 -13.634   2.946  1.00  0.00     0.111 A 
ATOM      6  C   UNL     1      -3.192 -14.167   2.928  1.00  0.00     0.134 A 
ATOM      7  C   UNL     1      -2.907 -15.288   2.133  1.00  0.00     0.093 A 
ATOM      8  C   UNL     1      -3.904 -15.883   1.358  1.00  0.00     0.123 A 
ATOM      9  C   UNL     1      -5.202 -15.361   1.372  1.00  0.00     0.094 A 
ATOM     10  C   UNL     1      -5.506 -14.246   2.159  1.00  0.00     0.146 A 
ATOM     11  O   UNL     1      -6.747 -13.774   2.159  1.00  0.00    -0.452 OA
ENDROOT
BRANCH   1  12
ATOM     12  C   UNL     1      -8.547 -12.301   2.798  1.00  0.00     0.025 A 
ATOM     13  C   UNL     1      -9.420 -12.461   3.888  1.00  0.00     0.016 A 
ATOM     14  C   UNL     1     -10.760 -12.078   3.782  1.00  0.00     0.051 A 
ATOM     15  C   UNL     1     -11.251 -11.545   2.586  1.00  0.00     0.157 A 
ATOM     16  C   UNL     1      -9.048 -11.785   1.592  1.00  0.00     0.062 A 
ATOM     17  C   UNL     1     -10.392 -11.399   1.484  1.00  0.00     0.158 A 
BRANCH  15  18
ATOM     18  O   UNL     1     -12.592 -11.170   2.511  1.00  0.00    -0.504 OA
ATOM     19  H   UNL     1     -13.284 -11.740   2.040  1.00  0.00     0.293 HD
ENDBRANCH  15  18
BRANCH  17  20
ATOM     20  O   UNL     1     -10.877 -10.875   0.286  1.00  0.00    -0.504 OA
ATOM     21  H   UNL     1     -10.357 -10.181  -0.238  1.00  0.00     0.293 HD
ENDBRANCH  17  20
ENDBRANCH   1  12
BRANCH   2  22
ATOM     22  O   UNL     1      -6.562 -10.893   4.380  1.00  0.00    -0.502 OA
ATOM     23  H   UNL     1      -7.271 -10.253   4.043  1.00  0.00     0.293 HD
ENDBRANCH   2  22
BRANCH   6  24
ATOM     24  O   UNL     1      -2.172 -13.594   3.691  1.00  0.00    -0.507 OA
ATOM     25  H   UNL     1      -1.578 -14.154   4.293  1.00  0.00     0.293 HD
ENDBRANCH   6  24
BRANCH   8  26
ATOM     26  O   UNL     1      -3.596 -16.995   0.577  1.00  0.00    -0.508 OA
ATOM     27  H   UNL     1      -4.245 -17.765   0.471  1.00  0.00     0.293 HD
ENDBRANCH   8  26
TORSDOF 6
ENDMDL
