MODEL 1
REMARK VINA RESULT:     3.379      0.000      0.000
REMARK INTER + INTRA:           6.461
REMARK INTER:                   7.331
REMARK INTRA:                  -0.870
REMARK UNBOUND:                -0.870
REMARK SMILES CCCCCCCCCCCCCCCCCCCCCC(=O)[O-]
REMARK SMILES IDX 12 1 11 2 10 3 9 4 8 5 7 6 6 7 5 8 4 9 3 10 2 11 1 12 13 13
REMARK SMILES IDX 14 14 15 15 16 16 17 17 18 18 19 19 20 20 21 21 22 22 23 23
REMARK SMILES IDX 24 24
REMARK H PARENT
REMARK Flexibility Score: inf
ROOT
ATOM      1  C   UNL     1       4.564  77.830   2.826  1.00  0.00     0.000 C 
ENDROOT
BRANCH   1   2
ATOM      2  C   UNL     1       4.643  77.360   4.289  1.00  0.00     0.000 C 
BRANCH   2   3
ATOM      3  C   UNL     1       3.369  76.630   4.754  1.00  0.00     0.000 C 
BRANCH   3   4
ATOM      4  C   UNL     1       2.149  77.541   4.979  1.00  0.00    -0.000 C 
BRANCH   4   5
ATOM      5  C   UNL     1       2.076  78.098   6.412  1.00  0.00    -0.000 C 
BRANCH   5   6
ATOM      6  C   UNL     1       2.628  77.116   7.456  1.00  0.00    -0.000 C 
BRANCH   6   7
ATOM      7  C   UNL     1       3.737  77.738   8.322  1.00  0.00    -0.000 C 
BRANCH   7   8
ATOM      8  C   UNL     1       3.322  79.088   8.929  1.00  0.00    -0.000 C 
BRANCH   8   9
ATOM      9  C   UNL     1       3.417  79.100  10.465  1.00  0.00    -0.000 C 
BRANCH   9  10
ATOM     10  C   UNL     1       3.620  77.695  11.061  1.00  0.00    -0.000 C 
BRANCH  10  11
ATOM     11  C   UNL     1       4.730  77.601  12.125  1.00  0.00    -0.003 C 
ATOM     12  C   UNL     1       6.122  77.419  11.522  1.00  0.00     0.004 C 
ENDBRANCH  10  11
ENDBRANCH   9  10
ENDBRANCH   8   9
ENDBRANCH   7   8
ENDBRANCH   6   7
ENDBRANCH   5   6
ENDBRANCH   4   5
ENDBRANCH   3   4
ENDBRANCH   2   3
ENDBRANCH   1   2
BRANCH   1  13
ATOM     13  C   UNL     1       5.721  78.766   2.445  1.00  0.00     0.000 C 
BRANCH  13  14
ATOM     14  C   UNL     1       6.005  78.764   0.933  1.00  0.00     0.000 C 
BRANCH  14  15
ATOM     15  C   UNL     1       5.822  77.377   0.296  1.00  0.00     0.000 C 
BRANCH  15  16
ATOM     16  C   UNL     1       7.159  76.731  -0.106  1.00  0.00     0.000 C 
BRANCH  16  17
ATOM     17  C   UNL     1       7.350  75.337   0.515  1.00  0.00     0.000 C 
BRANCH  17  18
ATOM     18  C   UNL     1       6.576  75.164   1.834  1.00  0.00     0.000 C 
BRANCH  18  19
ATOM     19  C   UNL     1       5.211  74.481   1.641  1.00  0.00     0.000 C 
BRANCH  19  20
ATOM     20  C   UNL     1       5.269  73.079   1.000  1.00  0.00     0.006 C 
BRANCH  20  21
ATOM     21  C   UNL     1       5.437  73.083  -0.527  1.00  0.00     0.053 C 
BRANCH  21  22
ATOM     22  C   UNL     1       4.392  73.917  -1.202  1.00  0.00     0.041 C 
ATOM     23  O   UNL     1       3.678  74.706  -0.528  1.00  0.00    -0.550 OA
ATOM     24  O   UNL     1       4.186  73.800  -2.570  1.00  0.00    -0.550 OA
ENDBRANCH  21  22
ENDBRANCH  20  21
ENDBRANCH  19  20
ENDBRANCH  18  19
ENDBRANCH  17  18
ENDBRANCH  16  17
ENDBRANCH  15  16
ENDBRANCH  14  15
ENDBRANCH  13  14
ENDBRANCH   1  13
TORSDOF 20
ENDMDL
MODEL 2
REMARK VINA RESULT:     3.514      5.340      9.573
REMARK INTER + INTRA:           6.752
REMARK INTER:                   7.376
REMARK INTRA:                  -0.624
REMARK UNBOUND:                -0.870
REMARK SMILES CCCCCCCCCCCCCCCCCCCCCC(=O)[O-]
REMARK SMILES IDX 12 1 11 2 10 3 9 4 8 5 7 6 6 7 5 8 4 9 3 10 2 11 1 12 13 13
REMARK SMILES IDX 14 14 15 15 16 16 17 17 18 18 19 19 20 20 21 21 22 22 23 23
REMARK SMILES IDX 24 24
REMARK H PARENT
REMARK Flexibility Score: inf
ROOT
ATOM      1  C   UNL     1       5.567  76.055   1.157  1.00  0.00     0.000 C 
ENDROOT
BRANCH   1   2
ATOM      2  C   UNL     1       6.850  75.810   0.344  1.00  0.00     0.000 C 
BRANCH   2   3
ATOM      3  C   UNL     1       7.655  74.598   0.848  1.00  0.00     0.000 C 
BRANCH   3   4
ATOM      4  C   UNL     1       8.786  74.939   1.836  1.00  0.00    -0.000 C 
BRANCH   4   5
ATOM      5  C   UNL     1       9.975  73.966   1.742  1.00  0.00    -0.000 C 
BRANCH   5   6
ATOM      6  C   UNL     1      11.015  74.199   2.848  1.00  0.00    -0.000 C 
BRANCH   6   7
ATOM      7  C   UNL     1      12.458  74.189   2.312  1.00  0.00    -0.000 C 
BRANCH   7   8
ATOM      8  C   UNL     1      13.090  75.589   2.296  1.00  0.00    -0.000 C 
BRANCH   8   9
ATOM      9  C   UNL     1      14.512  75.603   2.885  1.00  0.00    -0.000 C 
BRANCH   9  10
ATOM     10  C   UNL     1      14.649  74.713   4.134  1.00  0.00    -0.000 C 
BRANCH  10  11
ATOM     11  C   UNL     1      13.629  75.006   5.250  1.00  0.00    -0.003 C 
ATOM     12  C   UNL     1      14.137  74.626   6.639  1.00  0.00     0.004 C 
ENDBRANCH  10  11
ENDBRANCH   9  10
ENDBRANCH   8   9
ENDBRANCH   7   8
ENDBRANCH   6   7
ENDBRANCH   5   6
ENDBRANCH   4   5
ENDBRANCH   3   4
ENDBRANCH   2   3
ENDBRANCH   1   2
BRANCH   1  13
ATOM     13  C   UNL     1       5.598  77.390   1.918  1.00  0.00     0.000 C 
BRANCH  13  14
ATOM     14  C   UNL     1       5.611  77.196   3.445  1.00  0.00     0.000 C 
BRANCH  14  15
ATOM     15  C   UNL     1       4.228  76.835   4.009  1.00  0.00     0.000 C 
BRANCH  15  16
ATOM     16  C   UNL     1       4.109  77.130   5.515  1.00  0.00     0.000 C 
BRANCH  16  17
ATOM     17  C   UNL     1       2.687  76.898   6.050  1.00  0.00     0.000 C 
BRANCH  17  18
ATOM     18  C   UNL     1       1.934  78.211   6.326  1.00  0.00     0.000 C 
BRANCH  18  19
ATOM     19  C   UNL     1       2.421  78.923   7.601  1.00  0.00     0.000 C 
BRANCH  19  20
ATOM     20  C   UNL     1       3.160  78.019   8.608  1.00  0.00     0.006 C 
BRANCH  20  21
ATOM     21  C   UNL     1       3.652  78.741   9.872  1.00  0.00     0.053 C 
BRANCH  21  22
ATOM     22  C   UNL     1       4.036  77.777  10.951  1.00  0.00     0.041 C 
ATOM     23  O   UNL     1       5.250  77.574  11.217  1.00  0.00    -0.550 OA
ATOM     24  O   UNL     1       3.054  77.080  11.644  1.00  0.00    -0.550 OA
ENDBRANCH  21  22
ENDBRANCH  20  21
ENDBRANCH  19  20
ENDBRANCH  18  19
ENDBRANCH  17  18
ENDBRANCH  16  17
ENDBRANCH  15  16
ENDBRANCH  14  15
ENDBRANCH  13  14
ENDBRANCH   1  13
TORSDOF 20
ENDMDL
MODEL 3
REMARK VINA RESULT:     3.556      4.737      5.731
REMARK INTER + INTRA:           6.843
REMARK INTER:                   7.685
REMARK INTRA:                  -0.842
REMARK UNBOUND:                -0.870
REMARK SMILES CCCCCCCCCCCCCCCCCCCCCC(=O)[O-]
REMARK SMILES IDX 12 1 11 2 10 3 9 4 8 5 7 6 6 7 5 8 4 9 3 10 2 11 1 12 13 13
REMARK SMILES IDX 14 14 15 15 16 16 17 17 18 18 19 19 20 20 21 21 22 22 23 23
REMARK SMILES IDX 24 24
REMARK H PARENT
REMARK Flexibility Score: inf
ROOT
ATOM      1  C   UNL     1       5.746  77.301   1.468  1.00  0.00     0.000 C 
ENDROOT
BRANCH   1   2
ATOM      2  C   UNL     1       5.402  76.619   2.804  1.00  0.00     0.000 C 
BRANCH   2   3
ATOM      3  C   UNL     1       4.643  77.546   3.772  1.00  0.00     0.000 C 
BRANCH   3   4
ATOM      4  C   UNL     1       4.030  76.840   4.995  1.00  0.00    -0.000 C 
BRANCH   4   5
ATOM      5  C   UNL     1       2.573  77.262   5.260  1.00  0.00    -0.000 C 
BRANCH   5   6
ATOM      6  C   UNL     1       2.350  77.735   6.705  1.00  0.00    -0.000 C 
BRANCH   6   7
ATOM      7  C   UNL     1       3.161  76.915   7.724  1.00  0.00    -0.000 C 
BRANCH   7   8
ATOM      8  C   UNL     1       4.177  77.773   8.494  1.00  0.00    -0.000 C 
BRANCH   8   9
ATOM      9  C   UNL     1       3.517  78.641   9.579  1.00  0.00    -0.000 C 
BRANCH   9  10
ATOM     10  C   UNL     1       3.579  77.999  10.977  1.00  0.00    -0.000 C 
BRANCH  10  11
ATOM     11  C   UNL     1       4.722  78.514  11.872  1.00  0.00    -0.003 C 
ATOM     12  C   UNL     1       5.851  77.500  12.043  1.00  0.00     0.004 C 
ENDBRANCH  10  11
ENDBRANCH   9  10
ENDBRANCH   8   9
ENDBRANCH   7   8
ENDBRANCH   6   7
ENDBRANCH   5   6
ENDBRANCH   4   5
ENDBRANCH   3   4
ENDBRANCH   2   3
ENDBRANCH   1   2
BRANCH   1  13
ATOM     13  C   UNL     1       6.881  76.587   0.718  1.00  0.00     0.000 C 
BRANCH  13  14
ATOM     14  C   UNL     1       6.818  75.057   0.874  1.00  0.00     0.000 C 
BRANCH  14  15
ATOM     15  C   UNL     1       8.196  74.389   0.744  1.00  0.00     0.000 C 
BRANCH  15  16
ATOM     16  C   UNL     1       9.101  74.662   1.957  1.00  0.00     0.000 C 
BRANCH  16  17
ATOM     17  C   UNL     1      10.308  73.711   2.017  1.00  0.00     0.000 C 
BRANCH  17  18
ATOM     18  C   UNL     1      11.495  74.307   2.794  1.00  0.00     0.000 C 
BRANCH  18  19
ATOM     19  C   UNL     1      12.713  74.592   1.898  1.00  0.00     0.000 C 
BRANCH  19  20
ATOM     20  C   UNL     1      13.707  75.628   2.461  1.00  0.00     0.006 C 
BRANCH  20  21
ATOM     21  C   UNL     1      14.705  75.064   3.484  1.00  0.00     0.053 C 
BRANCH  21  22
ATOM     22  C   UNL     1      14.099  74.949   4.849  1.00  0.00     0.041 C 
ATOM     23  O   UNL     1      13.392  75.883   5.310  1.00  0.00    -0.550 OA
ATOM     24  O   UNL     1      14.342  73.822   5.624  1.00  0.00    -0.550 OA
ENDBRANCH  21  22
ENDBRANCH  20  21
ENDBRANCH  19  20
ENDBRANCH  18  19
ENDBRANCH  17  18
ENDBRANCH  16  17
ENDBRANCH  15  16
ENDBRANCH  14  15
ENDBRANCH  13  14
ENDBRANCH   1  13
TORSDOF 20
ENDMDL
MODEL 4
REMARK VINA RESULT:     3.596      5.565      6.987
REMARK INTER + INTRA:           6.931
REMARK INTER:                   7.719
REMARK INTRA:                  -0.787
REMARK UNBOUND:                -0.870
REMARK SMILES CCCCCCCCCCCCCCCCCCCCCC(=O)[O-]
REMARK SMILES IDX 12 1 11 2 10 3 9 4 8 5 7 6 6 7 5 8 4 9 3 10 2 11 1 12 13 13
REMARK SMILES IDX 14 14 15 15 16 16 17 17 18 18 19 19 20 20 21 21 22 22 23 23
REMARK SMILES IDX 24 24
REMARK H PARENT
REMARK Flexibility Score: inf
ROOT
ATOM      1  C   UNL     1       6.492  75.006   0.652  1.00  0.00     0.000 C 
ENDROOT
BRANCH   1   2
ATOM      2  C   UNL     1       6.903  76.478   0.829  1.00  0.00     0.000 C 
BRANCH   2   3
ATOM      3  C   UNL     1       5.739  77.373   1.293  1.00  0.00     0.000 C 
BRANCH   3   4
ATOM      4  C   UNL     1       5.671  77.609   2.813  1.00  0.00    -0.000 C 
BRANCH   4   5
ATOM      5  C   UNL     1       4.566  76.785   3.497  1.00  0.00    -0.000 C 
BRANCH   5   6
ATOM      6  C   UNL     1       4.346  77.194   4.961  1.00  0.00    -0.000 C 
BRANCH   6   7
ATOM      7  C   UNL     1       2.889  76.999   5.415  1.00  0.00    -0.000 C 
BRANCH   7   8
ATOM      8  C   UNL     1       2.616  77.610   6.799  1.00  0.00    -0.000 C 
BRANCH   8   9
ATOM      9  C   UNL     1       3.770  77.372   7.788  1.00  0.00    -0.000 C 
BRANCH   9  10
ATOM     10  C   UNL     1       3.281  77.121   9.226  1.00  0.00    -0.000 C 
BRANCH  10  11
ATOM     11  C   UNL     1       4.032  77.916  10.310  1.00  0.00    -0.003 C 
ATOM     12  C   UNL     1       3.116  78.422  11.423  1.00  0.00     0.004 C 
ENDBRANCH  10  11
ENDBRANCH   9  10
ENDBRANCH   8   9
ENDBRANCH   7   8
ENDBRANCH   6   7
ENDBRANCH   5   6
ENDBRANCH   4   5
ENDBRANCH   3   4
ENDBRANCH   2   3
ENDBRANCH   1   2
BRANCH   1  13
ATOM     13  C   UNL     1       7.658  74.035   0.900  1.00  0.00     0.000 C 
BRANCH  13  14
ATOM     14  C   UNL     1       8.852  74.716   1.592  1.00  0.00     0.000 C 
BRANCH  14  15
ATOM     15  C   UNL     1      10.040  73.763   1.801  1.00  0.00     0.000 C 
BRANCH  15  16
ATOM     16  C   UNL     1      11.093  74.336   2.765  1.00  0.00     0.000 C 
BRANCH  16  17
ATOM     17  C   UNL     1      12.513  74.300   2.175  1.00  0.00     0.000 C 
BRANCH  17  18
ATOM     18  C   UNL     1      13.171  75.690   2.126  1.00  0.00     0.000 C 
BRANCH  18  19
ATOM     19  C   UNL     1      14.523  75.737   2.859  1.00  0.00     0.000 C 
BRANCH  19  20
ATOM     20  C   UNL     1      14.696  74.686   3.974  1.00  0.00     0.006 C 
BRANCH  20  21
ATOM     21  C   UNL     1      13.793  74.900   5.199  1.00  0.00     0.053 C 
BRANCH  21  22
ATOM     22  C   UNL     1      14.401  74.337   6.446  1.00  0.00     0.041 C 
ATOM     23  O   UNL     1      14.888  73.176   6.445  1.00  0.00    -0.550 OA
ATOM     24  O   UNL     1      14.402  75.084   7.617  1.00  0.00    -0.550 OA
ENDBRANCH  21  22
ENDBRANCH  20  21
ENDBRANCH  19  20
ENDBRANCH  18  19
ENDBRANCH  17  18
ENDBRANCH  16  17
ENDBRANCH  15  16
ENDBRANCH  14  15
ENDBRANCH  13  14
ENDBRANCH   1  13
TORSDOF 20
ENDMDL
MODEL 5
REMARK VINA RESULT:     3.870      5.373      8.995
REMARK INTER + INTRA:           7.525
REMARK INTER:                   8.571
REMARK INTRA:                  -1.047
REMARK UNBOUND:                -0.870
REMARK SMILES CCCCCCCCCCCCCCCCCCCCCC(=O)[O-]
REMARK SMILES IDX 12 1 11 2 10 3 9 4 8 5 7 6 6 7 5 8 4 9 3 10 2 11 1 12 13 13
REMARK SMILES IDX 14 14 15 15 16 16 17 17 18 18 19 19 20 20 21 21 22 22 23 23
REMARK SMILES IDX 24 24
REMARK H PARENT
REMARK Flexibility Score: inf
ROOT
ATOM      1  C   UNL     1       7.223  75.140   0.238  1.00  0.00     0.000 C 
ENDROOT
BRANCH   1   2
ATOM      2  C   UNL     1       7.916  74.216   1.255  1.00  0.00     0.000 C 
BRANCH   2   3
ATOM      3  C   UNL     1       9.316  74.714   1.659  1.00  0.00     0.000 C 
BRANCH   3   4
ATOM      4  C   UNL     1      10.223  73.645   2.295  1.00  0.00    -0.000 C 
BRANCH   4   5
ATOM      5  C   UNL     1      11.451  74.247   3.002  1.00  0.00    -0.000 C 
BRANCH   5   6
ATOM      6  C   UNL     1      12.698  74.264   2.105  1.00  0.00    -0.000 C 
BRANCH   6   7
ATOM      7  C   UNL     1      13.378  75.644   2.069  1.00  0.00    -0.000 C 
BRANCH   7   8
ATOM      8  C   UNL     1      13.719  76.170   3.472  1.00  0.00    -0.000 C 
BRANCH   8   9
ATOM      9  C   UNL     1      14.625  75.208   4.260  1.00  0.00    -0.000 C 
BRANCH   9  10
ATOM     10  C   UNL     1      14.059  74.855   5.647  1.00  0.00    -0.000 C 
BRANCH  10  11
ATOM     11  C   UNL     1      14.650  73.581   6.280  1.00  0.00    -0.003 C 
ATOM     12  C   UNL     1      14.892  73.717   7.782  1.00  0.00     0.004 C 
ENDBRANCH  10  11
ENDBRANCH   9  10
ENDBRANCH   8   9
ENDBRANCH   7   8
ENDBRANCH   6   7
ENDBRANCH   5   6
ENDBRANCH   4   5
ENDBRANCH   3   4
ENDBRANCH   2   3
ENDBRANCH   1   2
BRANCH   1  13
ATOM     13  C   UNL     1       5.975  75.823   0.818  1.00  0.00     0.000 C 
BRANCH  13  14
ATOM     14  C   UNL     1       6.154  77.344   0.970  1.00  0.00     0.000 C 
BRANCH  14  15
ATOM     15  C   UNL     1       5.637  77.871   2.319  1.00  0.00     0.000 C 
BRANCH  15  16
ATOM     16  C   UNL     1       4.893  76.794   3.127  1.00  0.00     0.000 C 
BRANCH  16  17
ATOM     17  C   UNL     1       4.616  77.231   4.575  1.00  0.00     0.000 C 
BRANCH  17  18
ATOM     18  C   UNL     1       3.248  76.750   5.089  1.00  0.00     0.000 C 
BRANCH  18  19
ATOM     19  C   UNL     1       2.247  77.902   5.292  1.00  0.00     0.000 C 
BRANCH  19  20
ATOM     20  C   UNL     1       1.515  77.895   6.649  1.00  0.00     0.006 C 
BRANCH  20  21
ATOM     21  C   UNL     1       2.258  78.623   7.779  1.00  0.00     0.053 C 
BRANCH  21  22
ATOM     22  C   UNL     1       3.242  77.728   8.467  1.00  0.00     0.041 C 
ATOM     23  O   UNL     1       4.242  78.218   9.055  1.00  0.00    -0.550 OA
ATOM     24  O   UNL     1       3.069  76.350   8.434  1.00  0.00    -0.550 OA
ENDBRANCH  21  22
ENDBRANCH  20  21
ENDBRANCH  19  20
ENDBRANCH  18  19
ENDBRANCH  17  18
ENDBRANCH  16  17
ENDBRANCH  15  16
ENDBRANCH  14  15
ENDBRANCH  13  14
ENDBRANCH   1  13
TORSDOF 20
ENDMDL
MODEL 6
REMARK VINA RESULT:     4.980     14.727     18.519
REMARK INTER + INTRA:           9.934
REMARK INTER:                  10.399
REMARK INTRA:                  -0.465
REMARK UNBOUND:                -0.870
REMARK SMILES CCCCCCCCCCCCCCCCCCCCCC(=O)[O-]
REMARK SMILES IDX 12 1 11 2 10 3 9 4 8 5 7 6 6 7 5 8 4 9 3 10 2 11 1 12 13 13
REMARK SMILES IDX 14 14 15 15 16 16 17 17 18 18 19 19 20 20 21 21 22 22 23 23
REMARK SMILES IDX 24 24
REMARK H PARENT
REMARK Flexibility Score: inf
ROOT
ATOM      1  C   UNL     1       2.376  62.261  -6.258  1.00  0.00     0.000 C 
ENDROOT
BRANCH   1   2
ATOM      2  C   UNL     1       2.704  63.423  -7.211  1.00  0.00     0.000 C 
BRANCH   2   3
ATOM      3  C   UNL     1       2.433  64.805  -6.588  1.00  0.00     0.000 C 
BRANCH   3   4
ATOM      4  C   UNL     1       1.209  65.543  -7.159  1.00  0.00    -0.000 C 
BRANCH   4   5
ATOM      5  C   UNL     1       1.114  67.002  -6.679  1.00  0.00    -0.000 C 
BRANCH   5   6
ATOM      6  C   UNL     1      -0.335  67.510  -6.621  1.00  0.00    -0.000 C 
BRANCH   6   7
ATOM      7  C   UNL     1      -0.434  68.952  -6.091  1.00  0.00    -0.000 C 
BRANCH   7   8
ATOM      8  C   UNL     1      -1.387  69.075  -4.892  1.00  0.00    -0.000 C 
BRANCH   8   9
ATOM      9  C   UNL     1      -2.822  68.633  -5.231  1.00  0.00    -0.000 C 
BRANCH   9  10
ATOM     10  C   UNL     1      -3.488  69.529  -6.291  1.00  0.00    -0.000 C 
BRANCH  10  11
ATOM     11  C   UNL     1      -3.716  70.987  -5.851  1.00  0.00    -0.003 C 
ATOM     12  C   UNL     1      -5.066  71.543  -6.302  1.00  0.00     0.004 C 
ENDBRANCH  10  11
ENDBRANCH   9  10
ENDBRANCH   8   9
ENDBRANCH   7   8
ENDBRANCH   6   7
ENDBRANCH   5   6
ENDBRANCH   4   5
ENDBRANCH   3   4
ENDBRANCH   2   3
ENDBRANCH   1   2
BRANCH   1  13
ATOM     13  C   UNL     1       3.025  60.939  -6.695  1.00  0.00     0.000 C 
BRANCH  13  14
ATOM     14  C   UNL     1       2.554  59.744  -5.848  1.00  0.00     0.000 C 
BRANCH  14  15
ATOM     15  C   UNL     1       1.312  59.053  -6.434  1.00  0.00     0.000 C 
BRANCH  15  16
ATOM     16  C   UNL     1       0.058  59.259  -5.567  1.00  0.00     0.000 C 
BRANCH  16  17
ATOM     17  C   UNL     1       0.342  60.098  -4.310  1.00  0.00     0.000 C 
BRANCH  17  18
ATOM     18  C   UNL     1      -0.854  60.145  -3.344  1.00  0.00     0.000 C 
BRANCH  18  19
ATOM     19  C   UNL     1      -2.208  60.219  -4.072  1.00  0.00     0.000 C 
BRANCH  19  20
ATOM     20  C   UNL     1      -2.695  58.888  -4.679  1.00  0.00     0.006 C 
BRANCH  20  21
ATOM     21  C   UNL     1      -4.155  58.901  -5.156  1.00  0.00     0.053 C 
BRANCH  21  22
ATOM     22  C   UNL     1      -4.285  59.450  -6.543  1.00  0.00     0.041 C 
ATOM     23  O   UNL     1      -5.059  60.416  -6.772  1.00  0.00    -0.550 OA
ATOM     24  O   UNL     1      -3.573  58.875  -7.588  1.00  0.00    -0.550 OA
ENDBRANCH  21  22
ENDBRANCH  20  21
ENDBRANCH  19  20
ENDBRANCH  18  19
ENDBRANCH  17  18
ENDBRANCH  16  17
ENDBRANCH  15  16
ENDBRANCH  14  15
ENDBRANCH  13  14
ENDBRANCH   1  13
TORSDOF 20
ENDMDL
MODEL 7
REMARK VINA RESULT:     5.174     14.153     18.399
REMARK INTER + INTRA:          10.354
REMARK INTER:                  10.997
REMARK INTRA:                  -0.643
REMARK UNBOUND:                -0.870
REMARK SMILES CCCCCCCCCCCCCCCCCCCCCC(=O)[O-]
REMARK SMILES IDX 12 1 11 2 10 3 9 4 8 5 7 6 6 7 5 8 4 9 3 10 2 11 1 12 13 13
REMARK SMILES IDX 14 14 15 15 16 16 17 17 18 18 19 19 20 20 21 21 22 22 23 23
REMARK SMILES IDX 24 24
REMARK H PARENT
REMARK Flexibility Score: inf
ROOT
ATOM      1  C   UNL     1       2.578  62.493  -6.598  1.00  0.00     0.000 C 
ENDROOT
BRANCH   1   2
ATOM      2  C   UNL     1       2.909  61.719  -7.886  1.00  0.00     0.000 C 
BRANCH   2   3
ATOM      3  C   UNL     1       3.795  60.485  -7.632  1.00  0.00     0.000 C 
BRANCH   3   4
ATOM      4  C   UNL     1       3.024  59.192  -7.307  1.00  0.00    -0.000 C 
BRANCH   4   5
ATOM      5  C   UNL     1       2.721  59.037  -5.806  1.00  0.00    -0.000 C 
BRANCH   5   6
ATOM      6  C   UNL     1       1.237  59.259  -5.478  1.00  0.00    -0.000 C 
BRANCH   6   7
ATOM      7  C   UNL     1       1.030  60.265  -4.332  1.00  0.00    -0.000 C 
BRANCH   7   8
ATOM      8  C   UNL     1      -0.341  60.112  -3.655  1.00  0.00    -0.000 C 
BRANCH   8   9
ATOM      9  C   UNL     1      -1.365  59.391  -4.549  1.00  0.00    -0.000 C 
BRANCH   9  10
ATOM     10  C   UNL     1      -2.734  59.216  -3.868  1.00  0.00    -0.000 C 
BRANCH  10  11
ATOM     11  C   UNL     1      -3.946  59.415  -4.796  1.00  0.00    -0.003 C 
ATOM     12  C   UNL     1      -4.038  60.829  -5.366  1.00  0.00     0.004 C 
ENDBRANCH  10  11
ENDBRANCH   9  10
ENDBRANCH   8   9
ENDBRANCH   7   8
ENDBRANCH   6   7
ENDBRANCH   5   6
ENDBRANCH   4   5
ENDBRANCH   3   4
ENDBRANCH   2   3
ENDBRANCH   1   2
BRANCH   1  13
ATOM     13  C   UNL     1       2.552  64.014  -6.816  1.00  0.00     0.000 C 
BRANCH  13  14
ATOM     14  C   UNL     1       3.137  64.788  -5.621  1.00  0.00     0.000 C 
BRANCH  14  15
ATOM     15  C   UNL     1       2.728  66.270  -5.616  1.00  0.00     0.000 C 
BRANCH  15  16
ATOM     16  C   UNL     1       1.515  66.550  -6.520  1.00  0.00     0.000 C 
BRANCH  16  17
ATOM     17  C   UNL     1       0.683  67.748  -6.033  1.00  0.00     0.000 C 
BRANCH  17  18
ATOM     18  C   UNL     1      -0.363  68.204  -7.067  1.00  0.00     0.000 C 
BRANCH  18  19
ATOM     19  C   UNL     1      -1.718  68.557  -6.429  1.00  0.00     0.000 C 
BRANCH  19  20
ATOM     20  C   UNL     1      -1.660  69.646  -5.339  1.00  0.00     0.006 C 
BRANCH  20  21
ATOM     21  C   UNL     1      -3.031  70.095  -4.812  1.00  0.00     0.053 C 
BRANCH  21  22
ATOM     22  C   UNL     1      -3.986  70.397  -5.926  1.00  0.00     0.041 C 
ATOM     23  O   UNL     1      -4.381  71.577  -6.119  1.00  0.00    -0.550 OA
ATOM     24  O   UNL     1      -4.462  69.370  -6.731  1.00  0.00    -0.550 OA
ENDBRANCH  21  22
ENDBRANCH  20  21
ENDBRANCH  19  20
ENDBRANCH  18  19
ENDBRANCH  17  18
ENDBRANCH  16  17
ENDBRANCH  15  16
ENDBRANCH  14  15
ENDBRANCH  13  14
ENDBRANCH   1  13
TORSDOF 20
ENDMDL
MODEL 8
REMARK VINA RESULT:     5.747     14.391     17.610
REMARK INTER + INTRA:          11.596
REMARK INTER:                  11.648
REMARK INTRA:                  -0.052
REMARK UNBOUND:                -0.870
REMARK SMILES CCCCCCCCCCCCCCCCCCCCCC(=O)[O-]
REMARK SMILES IDX 12 1 11 2 10 3 9 4 8 5 7 6 6 7 5 8 4 9 3 10 2 11 1 12 13 13
REMARK SMILES IDX 14 14 15 15 16 16 17 17 18 18 19 19 20 20 21 21 22 22 23 23
REMARK SMILES IDX 24 24
REMARK H PARENT
REMARK Flexibility Score: inf
ROOT
ATOM      1  C   UNL     1       2.727  64.749  -6.264  1.00  0.00     0.000 C 
ENDROOT
BRANCH   1   2
ATOM      2  C   UNL     1       3.344  65.513  -5.080  1.00  0.00     0.000 C 
BRANCH   2   3
ATOM      3  C   UNL     1       3.075  67.028  -5.139  1.00  0.00     0.000 C 
BRANCH   3   4
ATOM      4  C   UNL     1       1.620  67.438  -4.847  1.00  0.00    -0.000 C 
BRANCH   4   5
ATOM      5  C   UNL     1       0.757  67.523  -6.119  1.00  0.00    -0.000 C 
BRANCH   5   6
ATOM      6  C   UNL     1      -0.041  68.833  -6.203  1.00  0.00    -0.000 C 
BRANCH   6   7
ATOM      7  C   UNL     1      -1.550  68.594  -6.384  1.00  0.00    -0.000 C 
BRANCH   7   8
ATOM      8  C   UNL     1      -2.375  69.105  -5.193  1.00  0.00    -0.000 C 
BRANCH   8   9
ATOM      9  C   UNL     1      -2.577  70.630  -5.225  1.00  0.00    -0.000 C 
BRANCH   9  10
ATOM     10  C   UNL     1      -3.811  71.052  -6.044  1.00  0.00    -0.000 C 
BRANCH  10  11
ATOM     11  C   UNL     1      -4.991  70.063  -5.987  1.00  0.00    -0.003 C 
ATOM     12  C   UNL     1      -4.900  68.963  -7.043  1.00  0.00     0.004 C 
ENDBRANCH  10  11
ENDBRANCH   9  10
ENDBRANCH   8   9
ENDBRANCH   7   8
ENDBRANCH   6   7
ENDBRANCH   5   6
ENDBRANCH   4   5
ENDBRANCH   3   4
ENDBRANCH   2   3
ENDBRANCH   1   2
BRANCH   1  13
ATOM     13  C   UNL     1       2.714  63.229  -6.041  1.00  0.00     0.000 C 
BRANCH  13  14
ATOM     14  C   UNL     1       2.714  62.441  -7.364  1.00  0.00     0.000 C 
BRANCH  14  15
ATOM     15  C   UNL     1       2.465  60.938  -7.160  1.00  0.00     0.000 C 
BRANCH  15  16
ATOM     16  C   UNL     1       2.899  60.452  -5.766  1.00  0.00     0.000 C 
BRANCH  16  17
ATOM     17  C   UNL     1       1.833  59.572  -5.091  1.00  0.00     0.000 C 
BRANCH  17  18
ATOM     18  C   UNL     1       0.689  59.188  -6.046  1.00  0.00     0.000 C 
BRANCH  18  19
ATOM     19  C   UNL     1      -0.693  59.230  -5.370  1.00  0.00     0.000 C 
BRANCH  19  20
ATOM     20  C   UNL     1      -0.742  60.003  -4.038  1.00  0.00     0.006 C 
BRANCH  20  21
ATOM     21  C   UNL     1      -2.157  60.378  -3.569  1.00  0.00     0.053 C 
BRANCH  21  22
ATOM     22  C   UNL     1      -3.212  59.765  -4.437  1.00  0.00     0.041 C 
ATOM     23  O   UNL     1      -3.291  60.075  -5.655  1.00  0.00    -0.550 OA
ATOM     24  O   UNL     1      -4.129  58.875  -3.892  1.00  0.00    -0.550 OA
ENDBRANCH  21  22
ENDBRANCH  20  21
ENDBRANCH  19  20
ENDBRANCH  18  19
ENDBRANCH  17  18
ENDBRANCH  16  17
ENDBRANCH  15  16
ENDBRANCH  14  15
ENDBRANCH  13  14
ENDBRANCH   1  13
TORSDOF 20
ENDMDL
