MODEL 1
REMARK VINA RESULT:    -5.180      0.000      0.000
REMARK INTER + INTRA:          -5.180
REMARK INTER:                  -5.180
REMARK INTRA:                   0.000
REMARK UNBOUND:                 0.000
REMARK SMILES CC1(C)O[C@]2(C)CC[C@H]1CC2
REMARK SMILES IDX 1 1 2 2 9 3 10 4 11 5 5 6 4 7 7 8 8 9 6 10 3 11
REMARK H PARENT
REMARK Flexibility Score: inf
ROOT
ATOM      1  C   UNL     1     120.362 121.323 118.961  1.00  0.00     0.042 C 
ATOM      2  C   UNL     1     119.915 119.891 119.327  1.00  0.00     0.066 C 
ATOM      3  C   UNL     1     120.055 118.928 118.085  1.00  0.00     0.021 C 
ATOM      4  C   UNL     1     119.547 117.525 118.493  1.00  0.00     0.009 C 
ATOM      5  C   UNL     1     118.137 117.657 119.118  1.00  0.00     0.035 C 
ATOM      6  C   UNL     1     117.665 119.138 119.045  1.00  0.00     0.066 C 
ATOM      7  O   UNL     1     118.561 119.954 119.801  1.00  0.00    -0.369 OA
ATOM      8  C   UNL     1     117.681 119.601 117.560  1.00  0.00     0.035 C 
ATOM      9  C   UNL     1     119.102 119.423 116.970  1.00  0.00     0.009 C 
ATOM     10  C   UNL     1     116.256 119.278 119.630  1.00  0.00     0.042 C 
ATOM     11  C   UNL     1     120.809 119.414 120.492  1.00  0.00     0.042 C 
ENDROOT
TORSDOF 0
ENDMDL
MODEL 2
REMARK VINA RESULT:    -5.180      1.300      2.471
REMARK INTER + INTRA:          -5.180
REMARK INTER:                  -5.180
REMARK INTRA:                   0.000
REMARK UNBOUND:                 0.000
REMARK SMILES CC1(C)O[C@]2(C)CC[C@H]1CC2
REMARK SMILES IDX 1 1 2 2 9 3 10 4 11 5 5 6 4 7 7 8 8 9 6 10 3 11
REMARK H PARENT
REMARK Flexibility Score: inf
ROOT
ATOM      1  C   UNL     1     121.277 117.227 118.974  1.00  0.00     0.042 C 
ATOM      2  C   UNL     1     119.873 117.732 119.372  1.00  0.00     0.066 C 
ATOM      3  C   UNL     1     118.862 117.573 118.171  1.00  0.00     0.021 C 
ATOM      4  C   UNL     1     117.490 118.140 118.607  1.00  0.00     0.009 C 
ATOM      5  C   UNL     1     117.686 119.568 119.171  1.00  0.00     0.035 C 
ATOM      6  C   UNL     1     119.177 119.992 119.027  1.00  0.00     0.066 C 
ATOM      7  O   UNL     1     119.993 119.100 119.789  1.00  0.00    -0.369 OA
ATOM      8  C   UNL     1     119.584 119.903 117.528  1.00  0.00     0.035 C 
ATOM      9  C   UNL     1     119.344 118.467 117.002  1.00  0.00     0.009 C 
ATOM     10  C   UNL     1     119.380 121.417 119.550  1.00  0.00     0.042 C 
ATOM     11  C   UNL     1     119.412 116.899 120.587  1.00  0.00     0.042 C 
ENDROOT
TORSDOF 0
ENDMDL
MODEL 3
REMARK VINA RESULT:    -5.172      1.328      2.801
REMARK INTER + INTRA:          -5.172
REMARK INTER:                  -5.172
REMARK INTRA:                   0.000
REMARK UNBOUND:                 0.000
REMARK SMILES CC1(C)O[C@]2(C)CC[C@H]1CC2
REMARK SMILES IDX 1 1 2 2 9 3 10 4 11 5 5 6 4 7 7 8 8 9 6 10 3 11
REMARK H PARENT
REMARK Flexibility Score: inf
ROOT
ATOM      1  C   UNL     1     118.731 121.130 119.780  1.00  0.00     0.042 C 
ATOM      2  C   UNL     1     117.934 119.943 119.196  1.00  0.00     0.066 C 
ATOM      3  C   UNL     1     118.394 118.584 119.855  1.00  0.00     0.021 C 
ATOM      4  C   UNL     1     117.602 117.429 119.198  1.00  0.00     0.009 C 
ATOM      5  C   UNL     1     117.728 117.537 117.659  1.00  0.00     0.035 C 
ATOM      6  C   UNL     1     118.679 118.711 117.289  1.00  0.00     0.066 C 
ATOM      7  O   UNL     1     118.124 119.935 117.774  1.00  0.00    -0.369 OA
ATOM      8  C   UNL     1     120.060 118.474 117.964  1.00  0.00     0.035 C 
ATOM      9  C   UNL     1     119.881 118.344 119.497  1.00  0.00     0.009 C 
ATOM     10  C   UNL     1     118.840 118.809 115.768  1.00  0.00     0.042 C 
ATOM     11  C   UNL     1     116.440 120.208 119.480  1.00  0.00     0.042 C 
ENDROOT
TORSDOF 0
ENDMDL
MODEL 4
REMARK VINA RESULT:    -5.149      1.363      3.463
REMARK INTER + INTRA:          -5.149
REMARK INTER:                  -5.149
REMARK INTRA:                   0.000
REMARK UNBOUND:                 0.000
REMARK SMILES CC1(C)O[C@]2(C)CC[C@H]1CC2
REMARK SMILES IDX 1 1 2 2 9 3 10 4 11 5 5 6 4 7 7 8 8 9 6 10 3 11
REMARK H PARENT
REMARK Flexibility Score: inf
ROOT
ATOM      1  C   UNL     1     117.212 116.345 118.962  1.00  0.00     0.042 C 
ATOM      2  C   UNL     1     117.738 117.734 119.385  1.00  0.00     0.066 C 
ATOM      3  C   UNL     1     117.604 118.767 118.199  1.00  0.00     0.021 C 
ATOM      4  C   UNL     1     118.192 120.122 118.661  1.00  0.00     0.009 C 
ATOM      5  C   UNL     1     119.613 119.892 119.231  1.00  0.00     0.035 C 
ATOM      6  C   UNL     1     120.011 118.397 119.066  1.00  0.00     0.066 C 
ATOM      7  O   UNL     1     119.101 117.584 119.809  1.00  0.00    -0.369 OA
ATOM      8  C   UNL     1     119.926 118.015 117.560  1.00  0.00     0.035 C 
ATOM      9  C   UNL     1     118.497 118.288 117.029  1.00  0.00     0.009 C 
ATOM     10  C   UNL     1     121.430 118.162 119.594  1.00  0.00     0.042 C 
ATOM     11  C   UNL     1     116.905 118.190 120.602  1.00  0.00     0.042 C 
ENDROOT
TORSDOF 0
ENDMDL
MODEL 5
REMARK VINA RESULT:    -5.135      1.424      3.107
REMARK INTER + INTRA:          -5.135
REMARK INTER:                  -5.135
REMARK INTRA:                   0.000
REMARK UNBOUND:                 0.000
REMARK SMILES CC1(C)O[C@]2(C)CC[C@H]1CC2
REMARK SMILES IDX 1 1 2 2 9 3 10 4 11 5 5 6 4 7 7 8 8 9 6 10 3 11
REMARK H PARENT
REMARK Flexibility Score: inf
ROOT
ATOM      1  C   UNL     1     116.483 118.951 119.666  1.00  0.00     0.042 C 
ATOM      2  C   UNL     1     117.650 118.101 119.119  1.00  0.00     0.066 C 
ATOM      3  C   UNL     1     119.014 118.529 119.788  1.00  0.00     0.021 C 
ATOM      4  C   UNL     1     120.151 117.683 119.168  1.00  0.00     0.009 C 
ATOM      5  C   UNL     1     120.070 117.775 117.625  1.00  0.00     0.035 C 
ATOM      6  C   UNL     1     118.935 118.757 117.214  1.00  0.00     0.066 C 
ATOM      7  O   UNL     1     117.685 118.255 117.693  1.00  0.00    -0.369 OA
ATOM      8  C   UNL     1     119.209 120.145 117.861  1.00  0.00     0.035 C 
ATOM      9  C   UNL     1     119.311 119.998 119.399  1.00  0.00     0.009 C 
ATOM     10  C   UNL     1     118.865 118.885 115.689  1.00  0.00     0.042 C 
ATOM     11  C   UNL     1     117.329 116.624 119.434  1.00  0.00     0.042 C 
ENDROOT
TORSDOF 0
ENDMDL
MODEL 6
REMARK VINA RESULT:    -5.089      1.141      2.525
REMARK INTER + INTRA:          -5.089
REMARK INTER:                  -5.089
REMARK INTRA:                   0.000
REMARK UNBOUND:                 0.000
REMARK SMILES CC1(C)O[C@]2(C)CC[C@H]1CC2
REMARK SMILES IDX 1 1 2 2 9 3 10 4 11 5 5 6 4 7 7 8 8 9 6 10 3 11
REMARK H PARENT
REMARK Flexibility Score: inf
ROOT
ATOM      1  C   UNL     1     118.224 120.889 120.437  1.00  0.00     0.042 C 
ATOM      2  C   UNL     1     119.123 120.239 119.363  1.00  0.00     0.066 C 
ATOM      3  C   UNL     1     118.278 119.854 118.087  1.00  0.00     0.021 C 
ATOM      4  C   UNL     1     119.216 119.164 117.068  1.00  0.00     0.009 C 
ATOM      5  C   UNL     1     119.978 118.017 117.775  1.00  0.00     0.035 C 
ATOM      6  C   UNL     1     119.483 117.880 119.243  1.00  0.00     0.066 C 
ATOM      7  O   UNL     1     119.759 119.093 119.946  1.00  0.00    -0.369 OA
ATOM      8  C   UNL     1     117.946 117.633 119.237  1.00  0.00     0.035 C 
ATOM      9  C   UNL     1     117.231 118.789 118.496  1.00  0.00     0.009 C 
ATOM     10  C   UNL     1     120.204 116.725 119.945  1.00  0.00     0.042 C 
ATOM     11  C   UNL     1     120.220 121.264 119.001  1.00  0.00     0.042 C 
ENDROOT
TORSDOF 0
ENDMDL
MODEL 7
REMARK VINA RESULT:    -5.085      1.317      1.806
REMARK INTER + INTRA:          -5.085
REMARK INTER:                  -5.085
REMARK INTRA:                   0.000
REMARK UNBOUND:                 0.000
REMARK SMILES CC1(C)O[C@]2(C)CC[C@H]1CC2
REMARK SMILES IDX 1 1 2 2 9 3 10 4 11 5 5 6 4 7 7 8 8 9 6 10 3 11
REMARK H PARENT
REMARK Flexibility Score: inf
ROOT
ATOM      1  C   UNL     1     120.859 119.392 120.374  1.00  0.00     0.042 C 
ATOM      2  C   UNL     1     120.217 118.489 119.298  1.00  0.00     0.066 C 
ATOM      3  C   UNL     1     119.810 119.335 118.030  1.00  0.00     0.021 C 
ATOM      4  C   UNL     1     119.127 118.393 117.010  1.00  0.00     0.009 C 
ATOM      5  C   UNL     1     117.997 117.609 117.720  1.00  0.00     0.035 C 
ATOM      6  C   UNL     1     117.863 118.094 119.192  1.00  0.00     0.066 C 
ATOM      7  O   UNL     1     119.084 117.832 119.885  1.00  0.00    -0.369 OA
ATOM      8  C   UNL     1     117.592 119.626 119.196  1.00  0.00     0.035 C 
ATOM      9  C   UNL     1     118.732 120.363 118.452  1.00  0.00     0.009 C 
ATOM     10  C   UNL     1     116.724 117.351 119.898  1.00  0.00     0.042 C 
ATOM     11  C   UNL     1     121.256 117.410 118.923  1.00  0.00     0.042 C 
ENDROOT
TORSDOF 0
ENDMDL
MODEL 8
REMARK VINA RESULT:    -5.080      1.192      2.780
REMARK INTER + INTRA:          -5.080
REMARK INTER:                  -5.080
REMARK INTRA:                   0.000
REMARK UNBOUND:                 0.000
REMARK SMILES CC1(C)O[C@]2(C)CC[C@H]1CC2
REMARK SMILES IDX 1 1 2 2 9 3 10 4 11 5 5 6 4 7 7 8 8 9 6 10 3 11
REMARK H PARENT
REMARK Flexibility Score: inf
ROOT
ATOM      1  C   UNL     1     119.444 116.746 120.370  1.00  0.00     0.042 C 
ATOM      2  C   UNL     1     118.531 117.388 119.302  1.00  0.00     0.066 C 
ATOM      3  C   UNL     1     119.371 117.819 118.037  1.00  0.00     0.021 C 
ATOM      4  C   UNL     1     118.418 118.499 117.025  1.00  0.00     0.009 C 
ATOM      5  C   UNL     1     117.621 119.612 117.748  1.00  0.00     0.035 C 
ATOM      6  C   UNL     1     118.106 119.737 119.220  1.00  0.00     0.066 C 
ATOM      7  O   UNL     1     117.860 118.506 119.902  1.00  0.00    -0.369 OA
ATOM      8  C   UNL     1     119.635 120.028 119.226  1.00  0.00     0.035 C 
ATOM      9  C   UNL     1     120.385 118.905 118.469  1.00  0.00     0.009 C 
ATOM     10  C   UNL     1     117.349 120.860 119.938  1.00  0.00     0.042 C 
ATOM     11  C   UNL     1     117.465 116.339 118.918  1.00  0.00     0.042 C 
ENDROOT
TORSDOF 0
ENDMDL
MODEL 9
REMARK VINA RESULT:    -5.072      0.935      3.313
REMARK INTER + INTRA:          -5.072
REMARK INTER:                  -5.072
REMARK INTRA:                   0.000
REMARK UNBOUND:                 0.000
REMARK SMILES CC1(C)O[C@]2(C)CC[C@H]1CC2
REMARK SMILES IDX 1 1 2 2 9 3 10 4 11 5 5 6 4 7 7 8 8 9 6 10 3 11
REMARK H PARENT
REMARK Flexibility Score: inf
ROOT
ATOM      1  C   UNL     1     116.744 118.197 120.385  1.00  0.00     0.042 C 
ATOM      2  C   UNL     1     117.404 119.095 119.316  1.00  0.00     0.066 C 
ATOM      3  C   UNL     1     117.862 118.238 118.073  1.00  0.00     0.021 C 
ATOM      4  C   UNL     1     118.560 119.176 117.060  1.00  0.00     0.009 C 
ATOM      5  C   UNL     1     119.656 119.988 117.791  1.00  0.00     0.035 C 
ATOM      6  C   UNL     1     119.753 119.527 119.274  1.00  0.00     0.066 C 
ATOM      7  O   UNL     1     118.508 119.779 119.926  1.00  0.00    -0.369 OA
ATOM      8  C   UNL     1     120.048 118.000 119.309  1.00  0.00     0.035 C 
ATOM      9  C   UNL     1     118.943 117.233 118.542  1.00  0.00     0.009 C 
ATOM     10  C   UNL     1     120.859 120.299 120.002  1.00  0.00     0.042 C 
ATOM     11  C   UNL     1     116.360 120.151 118.894  1.00  0.00     0.042 C 
ENDROOT
TORSDOF 0
ENDMDL
