MODEL 1
REMARK VINA RESULT:    -3.868      0.000      0.000
REMARK INTER + INTRA:          -7.114
REMARK INTER:                  -6.582
REMARK INTRA:                  -0.532
REMARK UNBOUND:                -0.532
REMARK SMILES CCCCCCCCCCCCCC(=O)[O-]
REMARK SMILES IDX 8 1 9 2 10 3 11 4 12 5 13 6 14 7 15 8 16 9 7 10 6 11 5 12
REMARK SMILES IDX 4 13 3 14 2 15 1 16
REMARK H PARENT
REMARK Flexibility Score: inf
ROOT
ATOM      1  C   UNL     1      16.125  -5.721  11.487  1.00  0.00     0.000 C 
ENDROOT
BRANCH   1   2
ATOM      2  C   UNL     1      15.760  -6.512  12.749  1.00  0.00     0.000 C 
BRANCH   2   3
ATOM      3  C   UNL     1      15.766  -5.607  13.986  1.00  0.00     0.000 C 
BRANCH   3   4
ATOM      4  C   UNL     1      15.900  -4.132  13.589  1.00  0.00     0.000 C 
BRANCH   4   5
ATOM      5  C   UNL     1      15.985  -3.233  14.828  1.00  0.00     0.006 C 
BRANCH   5   6
ATOM      6  C   UNL     1      15.541  -1.804  14.503  1.00  0.00     0.053 C 
BRANCH   6   7
ATOM      7  C   UNL     1      16.572  -0.819  14.953  1.00  0.00     0.041 C 
ATOM      8  O   UNL     1      17.684  -1.220  15.389  1.00  0.00    -0.550 OA
ATOM      9  O   UNL     1      16.325   0.543  14.845  1.00  0.00    -0.550 OA
ENDBRANCH   6   7
ENDBRANCH   5   6
ENDBRANCH   4   5
ENDBRANCH   3   4
ENDBRANCH   2   3
ENDBRANCH   1   2
BRANCH   1  10
ATOM     10  C   UNL     1      15.239  -6.128  10.304  1.00  0.00     0.000 C 
BRANCH  10  11
ATOM     11  C   UNL     1      16.086  -6.465   9.071  1.00  0.00    -0.000 C 
BRANCH  11  12
ATOM     12  C   UNL     1      16.757  -5.205   8.504  1.00  0.00    -0.000 C 
BRANCH  12  13
ATOM     13  C   UNL     1      18.266  -5.388   8.260  1.00  0.00    -0.000 C 
BRANCH  13  14
ATOM     14  C   UNL     1      18.934  -4.264   7.447  1.00  0.00    -0.000 C 
BRANCH  14  15
ATOM     15  C   UNL     1      20.266  -3.799   8.051  1.00  0.00    -0.003 C 
ATOM     16  C   UNL     1      20.434  -2.289   7.915  1.00  0.00     0.004 C 
ENDBRANCH  14  15
ENDBRANCH  13  14
ENDBRANCH  12  13
ENDBRANCH  11  12
ENDBRANCH  10  11
ENDBRANCH   1  10
TORSDOF 12
ENDMDL
MODEL 2
REMARK VINA RESULT:    -3.847      1.820      3.589
REMARK INTER + INTRA:          -7.078
REMARK INTER:                  -6.363
REMARK INTRA:                  -0.714
REMARK UNBOUND:                -0.532
REMARK SMILES CCCCCCCCCCCCCC(=O)[O-]
REMARK SMILES IDX 8 1 9 2 10 3 11 4 12 5 13 6 14 7 15 8 16 9 7 10 6 11 5 12
REMARK SMILES IDX 4 13 3 14 2 15 1 16
REMARK H PARENT
REMARK Flexibility Score: inf
ROOT
ATOM      1  C   UNL     1      16.148  -4.060  14.604  1.00  0.00     0.000 C 
ENDROOT
BRANCH   1   2
ATOM      2  C   UNL     1      15.575  -2.867  13.829  1.00  0.00     0.000 C 
BRANCH   2   3
ATOM      3  C   UNL     1      15.315  -1.679  14.762  1.00  0.00     0.000 C 
BRANCH   3   4
ATOM      4  C   UNL     1      16.348  -0.567  14.538  1.00  0.00     0.000 C 
BRANCH   4   5
ATOM      5  C   UNL     1      16.461   0.337  15.771  1.00  0.00     0.006 C 
BRANCH   5   6
ATOM      6  C   UNL     1      16.521  -0.493  17.057  1.00  0.00     0.053 C 
BRANCH   6   7
ATOM      7  C   UNL     1      17.912  -0.984  17.299  1.00  0.00     0.041 C 
ATOM      8  O   UNL     1      18.227  -2.168  17.006  1.00  0.00    -0.550 OA
ATOM      9  O   UNL     1      18.877  -0.120  17.802  1.00  0.00    -0.550 OA
ENDBRANCH   6   7
ENDBRANCH   5   6
ENDBRANCH   4   5
ENDBRANCH   3   4
ENDBRANCH   2   3
ENDBRANCH   1   2
BRANCH   1  10
ATOM     10  C   UNL     1      15.933  -5.370  13.838  1.00  0.00     0.000 C 
BRANCH  10  11
ATOM     11  C   UNL     1      15.686  -5.103  12.348  1.00  0.00    -0.000 C 
BRANCH  11  12
ATOM     12  C   UNL     1      15.822  -6.395  11.528  1.00  0.00    -0.000 C 
BRANCH  12  13
ATOM     13  C   UNL     1      15.013  -6.361  10.219  1.00  0.00    -0.000 C 
BRANCH  13  14
ATOM     14  C   UNL     1      15.854  -6.451   8.933  1.00  0.00    -0.000 C 
BRANCH  14  15
ATOM     15  C   UNL     1      17.200  -5.721   9.046  1.00  0.00    -0.003 C 
ATOM     16  C   UNL     1      17.510  -4.938   7.773  1.00  0.00     0.004 C 
ENDBRANCH  14  15
ENDBRANCH  13  14
ENDBRANCH  12  13
ENDBRANCH  11  12
ENDBRANCH  10  11
ENDBRANCH   1  10
TORSDOF 12
ENDMDL
MODEL 3
REMARK VINA RESULT:    -3.719     14.391     18.040
REMARK INTER + INTRA:          -6.860
REMARK INTER:                  -6.099
REMARK INTRA:                  -0.761
REMARK UNBOUND:                -0.532
REMARK SMILES CCCCCCCCCCCCCC(=O)[O-]
REMARK SMILES IDX 8 1 9 2 10 3 11 4 12 5 13 6 14 7 15 8 16 9 7 10 6 11 5 12
REMARK SMILES IDX 4 13 3 14 2 15 1 16
REMARK H PARENT
REMARK Flexibility Score: inf
ROOT
ATOM      1  C   UNL     1      23.684  11.884   5.889  1.00  0.00     0.000 C 
ENDROOT
BRANCH   1   2
ATOM      2  C   UNL     1      23.648  10.361   5.714  1.00  0.00     0.000 C 
BRANCH   2   3
ATOM      3  C   UNL     1      25.044   9.810   5.400  1.00  0.00     0.000 C 
BRANCH   3   4
ATOM      4  C   UNL     1      25.753   9.346   6.679  1.00  0.00     0.000 C 
BRANCH   4   5
ATOM      5  C   UNL     1      27.228   9.765   6.672  1.00  0.00     0.006 C 
BRANCH   5   6
ATOM      6  C   UNL     1      27.559  10.596   5.429  1.00  0.00     0.053 C 
BRANCH   6   7
ATOM      7  C   UNL     1      28.023  11.962   5.820  1.00  0.00     0.041 C 
ATOM      8  O   UNL     1      27.815  12.393   6.985  1.00  0.00    -0.550 OA
ATOM      9  O   UNL     1      28.732  12.741   4.914  1.00  0.00    -0.550 OA
ENDBRANCH   6   7
ENDBRANCH   5   6
ENDBRANCH   4   5
ENDBRANCH   3   4
ENDBRANCH   2   3
ENDBRANCH   1   2
BRANCH   1  10
ATOM     10  C   UNL     1      22.282  12.442   6.157  1.00  0.00     0.000 C 
BRANCH  10  11
ATOM     11  C   UNL     1      21.360  11.360   6.735  1.00  0.00    -0.000 C 
BRANCH  11  12
ATOM     12  C   UNL     1      21.506  11.271   8.261  1.00  0.00    -0.000 C 
BRANCH  12  13
ATOM     13  C   UNL     1      20.360  10.491   8.929  1.00  0.00    -0.000 C 
BRANCH  13  14
ATOM     14  C   UNL     1      19.105  10.305   8.057  1.00  0.00    -0.000 C 
BRANCH  14  15
ATOM     15  C   UNL     1      18.558   8.871   8.094  1.00  0.00    -0.003 C 
ATOM     16  C   UNL     1      18.598   8.305   9.510  1.00  0.00     0.004 C 
ENDBRANCH  14  15
ENDBRANCH  13  14
ENDBRANCH  12  13
ENDBRANCH  11  12
ENDBRANCH  10  11
ENDBRANCH   1  10
TORSDOF 12
ENDMDL
MODEL 4
REMARK VINA RESULT:    -3.629      2.098      3.959
REMARK INTER + INTRA:          -6.708
REMARK INTER:                  -6.044
REMARK INTRA:                  -0.663
REMARK UNBOUND:                -0.532
REMARK SMILES CCCCCCCCCCCCCC(=O)[O-]
REMARK SMILES IDX 8 1 9 2 10 3 11 4 12 5 13 6 14 7 15 8 16 9 7 10 6 11 5 12
REMARK SMILES IDX 4 13 3 14 2 15 1 16
REMARK H PARENT
REMARK Flexibility Score: inf
ROOT
ATOM      1  C   UNL     1      15.966  -3.938  14.950  1.00  0.00     0.000 C 
ENDROOT
BRANCH   1   2
ATOM      2  C   UNL     1      15.621  -2.833  13.944  1.00  0.00     0.000 C 
BRANCH   2   3
ATOM      3  C   UNL     1      15.971  -1.450  14.504  1.00  0.00     0.000 C 
BRANCH   3   4
ATOM      4  C   UNL     1      15.281  -1.213  15.853  1.00  0.00     0.000 C 
BRANCH   4   5
ATOM      5  C   UNL     1      15.284   0.277  16.219  1.00  0.00     0.006 C 
BRANCH   5   6
ATOM      6  C   UNL     1      16.033   1.099  15.167  1.00  0.00     0.053 C 
BRANCH   6   7
ATOM      7  C   UNL     1      15.626   2.536  15.238  1.00  0.00     0.041 C 
ATOM      8  O   UNL     1      14.808   2.921  16.116  1.00  0.00    -0.550 OA
ATOM      9  O   UNL     1      16.188   3.462  14.367  1.00  0.00    -0.550 OA
ENDBRANCH   6   7
ENDBRANCH   5   6
ENDBRANCH   4   5
ENDBRANCH   3   4
ENDBRANCH   2   3
ENDBRANCH   1   2
BRANCH   1  10
ATOM     10  C   UNL     1      15.955  -5.317  14.281  1.00  0.00     0.000 C 
BRANCH  10  11
ATOM     11  C   UNL     1      16.180  -5.197  12.768  1.00  0.00    -0.000 C 
BRANCH  11  12
ATOM     12  C   UNL     1      15.940  -6.543  12.068  1.00  0.00    -0.000 C 
BRANCH  12  13
ATOM     13  C   UNL     1      15.020  -6.424  10.840  1.00  0.00    -0.000 C 
BRANCH  13  14
ATOM     14  C   UNL     1      15.693  -5.866   9.574  1.00  0.00    -0.000 C 
BRANCH  14  15
ATOM     15  C   UNL     1      17.098  -6.440   9.340  1.00  0.00    -0.003 C 
ATOM     16  C   UNL     1      18.006  -5.414   8.669  1.00  0.00     0.004 C 
ENDBRANCH  14  15
ENDBRANCH  13  14
ENDBRANCH  12  13
ENDBRANCH  11  12
ENDBRANCH  10  11
ENDBRANCH   1  10
TORSDOF 12
ENDMDL
MODEL 5
REMARK VINA RESULT:    -3.602     10.454     12.611
REMARK INTER + INTRA:          -6.661
REMARK INTER:                  -4.930
REMARK INTRA:                  -1.731
REMARK UNBOUND:                -0.532
REMARK SMILES CCCCCCCCCCCCCC(=O)[O-]
REMARK SMILES IDX 8 1 9 2 10 3 11 4 12 5 13 6 14 7 15 8 16 9 7 10 6 11 5 12
REMARK SMILES IDX 4 13 3 14 2 15 1 16
REMARK H PARENT
REMARK Flexibility Score: inf
ROOT
ATOM      1  C   UNL     1      28.898   2.072   7.118  1.00  0.00     0.000 C 
ENDROOT
BRANCH   1   2
ATOM      2  C   UNL     1      28.213   1.164   6.089  1.00  0.00     0.000 C 
BRANCH   2   3
ATOM      3  C   UNL     1      26.933   1.812   5.549  1.00  0.00     0.000 C 
BRANCH   3   4
ATOM      4  C   UNL     1      25.967   2.158   6.690  1.00  0.00     0.000 C 
BRANCH   4   5
ATOM      5  C   UNL     1      24.518   1.849   6.297  1.00  0.00     0.006 C 
BRANCH   5   6
ATOM      6  C   UNL     1      23.773   3.125   5.896  1.00  0.00     0.053 C 
BRANCH   6   7
ATOM      7  C   UNL     1      22.311   2.851   5.741  1.00  0.00     0.041 C 
ATOM      8  O   UNL     1      21.563   3.699   5.185  1.00  0.00    -0.550 OA
ATOM      9  O   UNL     1      21.782   1.638   6.163  1.00  0.00    -0.550 OA
ENDBRANCH   6   7
ENDBRANCH   5   6
ENDBRANCH   4   5
ENDBRANCH   3   4
ENDBRANCH   2   3
ENDBRANCH   1   2
BRANCH   1  10
ATOM     10  C   UNL     1      29.164   1.320   8.427  1.00  0.00     0.000 C 
BRANCH  10  11
ATOM     11  C   UNL     1      28.259   1.836   9.552  1.00  0.00    -0.000 C 
BRANCH  11  12
ATOM     12  C   UNL     1      27.635   0.671  10.335  1.00  0.00    -0.000 C 
BRANCH  12  13
ATOM     13  C   UNL     1      26.224   0.305   9.842  1.00  0.00    -0.000 C 
BRANCH  13  14
ATOM     14  C   UNL     1      26.049  -1.158   9.396  1.00  0.00    -0.000 C 
BRANCH  14  15
ATOM     15  C   UNL     1      26.403  -1.379   7.918  1.00  0.00    -0.003 C 
ATOM     16  C   UNL     1      27.719  -2.139   7.776  1.00  0.00     0.004 C 
ENDBRANCH  14  15
ENDBRANCH  13  14
ENDBRANCH  12  13
ENDBRANCH  11  12
ENDBRANCH  10  11
ENDBRANCH   1  10
TORSDOF 12
ENDMDL
MODEL 6
REMARK VINA RESULT:    -3.601     13.981     17.750
REMARK INTER + INTRA:          -6.660
REMARK INTER:                  -6.121
REMARK INTRA:                  -0.538
REMARK UNBOUND:                -0.532
REMARK SMILES CCCCCCCCCCCCCC(=O)[O-]
REMARK SMILES IDX 8 1 9 2 10 3 11 4 12 5 13 6 14 7 15 8 16 9 7 10 6 11 5 12
REMARK SMILES IDX 4 13 3 14 2 15 1 16
REMARK H PARENT
REMARK Flexibility Score: inf
ROOT
ATOM      1  C   UNL     1      22.373  10.842   6.192  1.00  0.00     0.000 C 
ENDROOT
BRANCH   1   2
ATOM      2  C   UNL     1      23.780  11.383   5.907  1.00  0.00     0.000 C 
BRANCH   2   3
ATOM      3  C   UNL     1      24.373  10.737   4.650  1.00  0.00     0.000 C 
BRANCH   3   4
ATOM      4  C   UNL     1      25.450   9.708   5.016  1.00  0.00     0.000 C 
BRANCH   4   5
ATOM      5  C   UNL     1      26.261  10.169   6.233  1.00  0.00     0.006 C 
BRANCH   5   6
ATOM      6  C   UNL     1      27.716  10.454   5.849  1.00  0.00     0.053 C 
BRANCH   6   7
ATOM      7  C   UNL     1      27.977  11.926   5.841  1.00  0.00     0.041 C 
ATOM      8  O   UNL     1      27.322  12.690   6.599  1.00  0.00    -0.550 OA
ATOM      9  O   UNL     1      28.980  12.450   5.036  1.00  0.00    -0.550 OA
ENDBRANCH   6   7
ENDBRANCH   5   6
ENDBRANCH   4   5
ENDBRANCH   3   4
ENDBRANCH   2   3
ENDBRANCH   1   2
BRANCH   1  10
ATOM     10  C   UNL     1      21.881  11.287   7.575  1.00  0.00     0.000 C 
BRANCH  10  11
ATOM     11  C   UNL     1      20.386  10.991   7.748  1.00  0.00    -0.000 C 
BRANCH  11  12
ATOM     12  C   UNL     1      20.156   9.959   8.862  1.00  0.00    -0.000 C 
BRANCH  12  13
ATOM     13  C   UNL     1      18.819   9.209   8.718  1.00  0.00    -0.000 C 
BRANCH  13  14
ATOM     14  C   UNL     1      18.444   8.314   9.912  1.00  0.00    -0.000 C 
BRANCH  14  15
ATOM     15  C   UNL     1      17.523   9.016  10.920  1.00  0.00    -0.003 C 
ATOM     16  C   UNL     1      16.826   8.004  11.825  1.00  0.00     0.004 C 
ENDBRANCH  14  15
ENDBRANCH  13  14
ENDBRANCH  12  13
ENDBRANCH  11  12
ENDBRANCH  10  11
ENDBRANCH   1  10
TORSDOF 12
ENDMDL
MODEL 7
REMARK VINA RESULT:    -3.584     13.656     16.931
REMARK INTER + INTRA:          -6.630
REMARK INTER:                  -5.625
REMARK INTRA:                  -1.005
REMARK UNBOUND:                -0.532
REMARK SMILES CCCCCCCCCCCCCC(=O)[O-]
REMARK SMILES IDX 8 1 9 2 10 3 11 4 12 5 13 6 14 7 15 8 16 9 7 10 6 11 5 12
REMARK SMILES IDX 4 13 3 14 2 15 1 16
REMARK H PARENT
REMARK Flexibility Score: inf
ROOT
ATOM      1  C   UNL     1      23.777  10.815   5.353  1.00  0.00     0.000 C 
ENDROOT
BRANCH   1   2
ATOM      2  C   UNL     1      23.005  10.610   6.662  1.00  0.00     0.000 C 
BRANCH   2   3
ATOM      3  C   UNL     1      22.341  11.914   7.120  1.00  0.00     0.000 C 
BRANCH   3   4
ATOM      4  C   UNL     1      20.971  11.641   7.753  1.00  0.00     0.000 C 
BRANCH   4   5
ATOM      5  C   UNL     1      20.966  10.301   8.499  1.00  0.00     0.006 C 
BRANCH   5   6
ATOM      6  C   UNL     1      19.672  10.122   9.298  1.00  0.00     0.053 C 
BRANCH   6   7
ATOM      7  C   UNL     1      18.966   8.872   8.878  1.00  0.00     0.041 C 
ATOM      8  O   UNL     1      18.635   8.012   9.737  1.00  0.00    -0.550 OA
ATOM      9  O   UNL     1      18.627   8.680   7.545  1.00  0.00    -0.550 OA
ENDBRANCH   6   7
ENDBRANCH   5   6
ENDBRANCH   4   5
ENDBRANCH   3   4
ENDBRANCH   2   3
ENDBRANCH   1   2
BRANCH   1  10
ATOM     10  C   UNL     1      24.936   9.819   5.234  1.00  0.00     0.000 C 
BRANCH  10  11
ATOM     11  C   UNL     1      25.559   9.532   6.607  1.00  0.00    -0.000 C 
BRANCH  11  12
ATOM     12  C   UNL     1      27.058   9.867   6.611  1.00  0.00    -0.000 C 
BRANCH  12  13
ATOM     13  C   UNL     1      27.338  11.366   6.403  1.00  0.00    -0.000 C 
BRANCH  13  14
ATOM     14  C   UNL     1      28.347  11.690   5.287  1.00  0.00    -0.000 C 
BRANCH  14  15
ATOM     15  C   UNL     1      28.606  10.501   4.351  1.00  0.00    -0.003 C 
ATOM     16  C   UNL     1      27.942  10.716   2.994  1.00  0.00     0.004 C 
ENDBRANCH  14  15
ENDBRANCH  13  14
ENDBRANCH  12  13
ENDBRANCH  11  12
ENDBRANCH  10  11
ENDBRANCH   1  10
TORSDOF 12
ENDMDL
MODEL 8
REMARK VINA RESULT:    -3.541      2.261      3.742
REMARK INTER + INTRA:          -6.557
REMARK INTER:                  -5.575
REMARK INTRA:                  -0.982
REMARK UNBOUND:                -0.532
REMARK SMILES CCCCCCCCCCCCCC(=O)[O-]
REMARK SMILES IDX 8 1 9 2 10 3 11 4 12 5 13 6 14 7 15 8 16 9 7 10 6 11 5 12
REMARK SMILES IDX 4 13 3 14 2 15 1 16
REMARK H PARENT
REMARK Flexibility Score: inf
ROOT
ATOM      1  C   UNL     1      16.994  -5.472   8.640  1.00  0.00     0.000 C 
ENDROOT
BRANCH   1   2
ATOM      2  C   UNL     1      15.990  -6.625   8.514  1.00  0.00     0.000 C 
BRANCH   2   3
ATOM      3  C   UNL     1      15.130  -6.745   9.777  1.00  0.00     0.000 C 
BRANCH   3   4
ATOM      4  C   UNL     1      15.486  -5.652  10.792  1.00  0.00     0.000 C 
BRANCH   4   5
ATOM      5  C   UNL     1      15.677  -6.242  12.194  1.00  0.00     0.006 C 
BRANCH   5   6
ATOM      6  C   UNL     1      16.704  -5.437  12.994  1.00  0.00     0.053 C 
BRANCH   6   7
ATOM      7  C   UNL     1      16.232  -5.234  14.398  1.00  0.00     0.041 C 
ATOM      8  O   UNL     1      16.753  -4.342  15.120  1.00  0.00    -0.550 OA
ATOM      9  O   UNL     1      15.182  -5.995  14.895  1.00  0.00    -0.550 OA
ENDBRANCH   6   7
ENDBRANCH   5   6
ENDBRANCH   4   5
ENDBRANCH   3   4
ENDBRANCH   2   3
ENDBRANCH   1   2
BRANCH   1  10
ATOM     10  C   UNL     1      17.737  -5.241   7.319  1.00  0.00     0.000 C 
BRANCH  10  11
ATOM     11  C   UNL     1      19.193  -5.714   7.416  1.00  0.00    -0.000 C 
BRANCH  11  12
ATOM     12  C   UNL     1      19.689  -5.671   8.870  1.00  0.00    -0.000 C 
BRANCH  12  13
ATOM     13  C   UNL     1      21.197  -5.385   8.980  1.00  0.00    -0.000 C 
BRANCH  13  14
ATOM     14  C   UNL     1      21.559  -3.926   9.311  1.00  0.00    -0.000 C 
BRANCH  14  15
ATOM     15  C   UNL     1      21.611  -3.025   8.069  1.00  0.00    -0.003 C 
ATOM     16  C   UNL     1      20.360  -2.159   7.965  1.00  0.00     0.004 C 
ENDBRANCH  14  15
ENDBRANCH  13  14
ENDBRANCH  12  13
ENDBRANCH  11  12
ENDBRANCH  10  11
ENDBRANCH   1  10
TORSDOF 12
ENDMDL
MODEL 9
REMARK VINA RESULT:    -3.511     10.378     12.298
REMARK INTER + INTRA:          -6.507
REMARK INTER:                  -5.113
REMARK INTRA:                  -1.393
REMARK UNBOUND:                -0.532
REMARK SMILES CCCCCCCCCCCCCC(=O)[O-]
REMARK SMILES IDX 8 1 9 2 10 3 11 4 12 5 13 6 14 7 15 8 16 9 7 10 6 11 5 12
REMARK SMILES IDX 4 13 3 14 2 15 1 16
REMARK H PARENT
REMARK Flexibility Score: inf
ROOT
ATOM      1  C   UNL     1      25.387  -0.651   7.312  1.00  0.00     0.000 C 
ENDROOT
BRANCH   1   2
ATOM      2  C   UNL     1      26.405  -0.171   6.271  1.00  0.00     0.000 C 
BRANCH   2   3
ATOM      3  C   UNL     1      25.941   1.132   5.608  1.00  0.00     0.000 C 
BRANCH   3   4
ATOM      4  C   UNL     1      25.536   2.171   6.661  1.00  0.00     0.000 C 
BRANCH   4   5
ATOM      5  C   UNL     1      24.353   3.016   6.174  1.00  0.00     0.006 C 
BRANCH   5   6
ATOM      6  C   UNL     1      23.453   2.211   5.233  1.00  0.00     0.053 C 
BRANCH   6   7
ATOM      7  C   UNL     1      22.018   2.361   5.625  1.00  0.00     0.041 C 
ATOM      8  O   UNL     1      21.436   3.470   5.490  1.00  0.00    -0.550 OA
ATOM      9  O   UNL     1      21.306   1.263   6.092  1.00  0.00    -0.550 OA
ENDBRANCH   6   7
ENDBRANCH   5   6
ENDBRANCH   4   5
ENDBRANCH   3   4
ENDBRANCH   2   3
ENDBRANCH   1   2
BRANCH   1  10
ATOM     10  C   UNL     1      26.087  -1.124   8.591  1.00  0.00     0.000 C 
BRANCH  10  11
ATOM     11  C   UNL     1      26.054  -0.036   9.672  1.00  0.00    -0.000 C 
BRANCH  11  12
ATOM     12  C   UNL     1      27.475   0.404  10.053  1.00  0.00    -0.000 C 
BRANCH  12  13
ATOM     13  C   UNL     1      27.800   1.839   9.602  1.00  0.00    -0.000 C 
BRANCH  13  14
ATOM     14  C   UNL     1      28.805   1.945   8.442  1.00  0.00    -0.000 C 
BRANCH  14  15
ATOM     15  C   UNL     1      30.088   2.695   8.828  1.00  0.00    -0.003 C 
ATOM     16  C   UNL     1      30.066   3.101  10.299  1.00  0.00     0.004 C 
ENDBRANCH  14  15
ENDBRANCH  13  14
ENDBRANCH  12  13
ENDBRANCH  11  12
ENDBRANCH  10  11
ENDBRANCH   1  10
TORSDOF 12
ENDMDL
