MODEL 1
REMARK VINA RESULT:    -4.115      0.000      0.000
REMARK INTER + INTRA:         -10.865
REMARK INTER:                  -7.964
REMARK INTRA:                  -2.901
REMARK UNBOUND:                -2.901
REMARK SMILES CCCCCCCCCCCCCCCCCC(=O)[O-]
REMARK SMILES IDX 10 1 11 2 12 3 13 4 14 5 15 6 16 7 17 8 18 9 19 10 20 11
REMARK SMILES IDX 9 12 8 13 7 14 6 15 5 16 4 17 3 18 2 19 1 20
REMARK H PARENT
REMARK Flexibility Score: inf
ROOT
ATOM      1  C   UNL     1     -16.450 -32.566  20.047  1.00  0.00     0.000 C 
ENDROOT
BRANCH   1   2
ATOM      2  C   UNL     1     -17.466 -33.721  20.051  1.00  0.00     0.000 C 
BRANCH   2   3
ATOM      3  C   UNL     1     -18.866 -33.282  20.516  1.00  0.00     0.000 C 
BRANCH   3   4
ATOM      4  C   UNL     1     -19.062 -31.756  20.626  1.00  0.00     0.000 C 
BRANCH   4   5
ATOM      5  C   UNL     1     -20.251 -31.191  19.823  1.00  0.00     0.000 C 
BRANCH   5   6
ATOM      6  C   UNL     1     -19.915 -29.985  18.924  1.00  0.00     0.000 C 
BRANCH   6   7
ATOM      7  C   UNL     1     -18.412 -29.681  18.780  1.00  0.00     0.006 C 
BRANCH   7   8
ATOM      8  C   UNL     1     -18.079 -28.201  19.002  1.00  0.00     0.053 C 
BRANCH   8   9
ATOM      9  C   UNL     1     -17.131 -27.715  17.951  1.00  0.00     0.041 C 
ATOM     10  O   UNL     1     -17.547 -27.473  16.786  1.00  0.00    -0.550 OA
ATOM     11  O   UNL     1     -15.781 -27.575  18.243  1.00  0.00    -0.550 OA
ENDBRANCH   8   9
ENDBRANCH   7   8
ENDBRANCH   6   7
ENDBRANCH   5   6
ENDBRANCH   4   5
ENDBRANCH   3   4
ENDBRANCH   2   3
ENDBRANCH   1   2
BRANCH   1  12
ATOM     12  C   UNL     1     -14.999 -33.059  19.947  1.00  0.00     0.000 C 
BRANCH  12  13
ATOM     13  C   UNL     1     -14.218 -32.365  18.818  1.00  0.00    -0.000 C 
BRANCH  13  14
ATOM     14  C   UNL     1     -14.892 -31.065  18.342  1.00  0.00    -0.000 C 
BRANCH  14  15
ATOM     15  C   UNL     1     -15.344 -31.071  16.868  1.00  0.00    -0.000 C 
BRANCH  15  16
ATOM     16  C   UNL     1     -15.347 -32.455  16.189  1.00  0.00    -0.000 C 
BRANCH  16  17
ATOM     17  C   UNL     1     -16.678 -33.223  16.293  1.00  0.00    -0.000 C 
BRANCH  17  18
ATOM     18  C   UNL     1     -17.893 -32.290  16.435  1.00  0.00    -0.000 C 
BRANCH  18  19
ATOM     19  C   UNL     1     -19.197 -33.060  16.697  1.00  0.00    -0.003 C 
ATOM     20  C   UNL     1     -19.818 -33.622  15.418  1.00  0.00     0.004 C 
ENDBRANCH  18  19
ENDBRANCH  17  18
ENDBRANCH  16  17
ENDBRANCH  15  16
ENDBRANCH  14  15
ENDBRANCH  13  14
ENDBRANCH  12  13
ENDBRANCH   1  12
TORSDOF 16
ENDMDL
MODEL 2
REMARK VINA RESULT:    -3.980      1.355      3.710
REMARK INTER + INTRA:         -10.604
REMARK INTER:                  -8.025
REMARK INTRA:                  -2.578
REMARK UNBOUND:                -2.901
REMARK SMILES CCCCCCCCCCCCCCCCCC(=O)[O-]
REMARK SMILES IDX 10 1 11 2 12 3 13 4 14 5 15 6 16 7 17 8 18 9 19 10 20 11
REMARK SMILES IDX 9 12 8 13 7 14 6 15 5 16 4 17 3 18 2 19 1 20
REMARK H PARENT
REMARK Flexibility Score: inf
ROOT
ATOM      1  C   UNL     1     -19.247 -32.793  15.904  1.00  0.00     0.000 C 
ENDROOT
BRANCH   1   2
ATOM      2  C   UNL     1     -19.280 -33.824  17.047  1.00  0.00     0.000 C 
BRANCH   2   3
ATOM      3  C   UNL     1     -18.081 -33.692  18.003  1.00  0.00     0.000 C 
BRANCH   3   4
ATOM      4  C   UNL     1     -18.454 -33.449  19.480  1.00  0.00     0.000 C 
BRANCH   4   5
ATOM      5  C   UNL     1     -19.573 -32.413  19.708  1.00  0.00     0.000 C 
BRANCH   5   6
ATOM      6  C   UNL     1     -19.092 -31.029  20.188  1.00  0.00     0.000 C 
BRANCH   6   7
ATOM      7  C   UNL     1     -18.555 -30.109  19.077  1.00  0.00     0.006 C 
BRANCH   7   8
ATOM      8  C   UNL     1     -17.467 -29.148  19.573  1.00  0.00     0.053 C 
BRANCH   8   9
ATOM      9  C   UNL     1     -17.605 -27.814  18.908  1.00  0.00     0.041 C 
ATOM     10  O   UNL     1     -18.587 -27.072  19.176  1.00  0.00    -0.550 OA
ATOM     11  O   UNL     1     -16.675 -27.411  17.959  1.00  0.00    -0.550 OA
ENDBRANCH   8   9
ENDBRANCH   7   8
ENDBRANCH   6   7
ENDBRANCH   5   6
ENDBRANCH   4   5
ENDBRANCH   3   4
ENDBRANCH   2   3
ENDBRANCH   1   2
BRANCH   1  12
ATOM     12  C   UNL     1     -18.863 -33.422  14.557  1.00  0.00     0.000 C 
BRANCH  12  13
ATOM     13  C   UNL     1     -17.726 -32.659  13.854  1.00  0.00    -0.000 C 
BRANCH  13  14
ATOM     14  C   UNL     1     -16.431 -32.626  14.685  1.00  0.00    -0.000 C 
BRANCH  14  15
ATOM     15  C   UNL     1     -16.015 -31.227  15.183  1.00  0.00    -0.000 C 
BRANCH  15  16
ATOM     16  C   UNL     1     -15.944 -31.070  16.715  1.00  0.00    -0.000 C 
BRANCH  16  17
ATOM     17  C   UNL     1     -14.810 -31.858  17.395  1.00  0.00    -0.000 C 
BRANCH  17  18
ATOM     18  C   UNL     1     -14.818 -31.710  18.926  1.00  0.00    -0.000 C 
BRANCH  18  19
ATOM     19  C   UNL     1     -14.678 -33.060  19.647  1.00  0.00    -0.003 C 
ATOM     20  C   UNL     1     -15.246 -33.032  21.066  1.00  0.00     0.004 C 
ENDBRANCH  18  19
ENDBRANCH  17  18
ENDBRANCH  16  17
ENDBRANCH  15  16
ENDBRANCH  14  15
ENDBRANCH  13  14
ENDBRANCH  12  13
ENDBRANCH   1  12
TORSDOF 16
ENDMDL
MODEL 3
REMARK VINA RESULT:    -3.976      2.033      5.371
REMARK INTER + INTRA:         -10.595
REMARK INTER:                  -8.218
REMARK INTRA:                  -2.377
REMARK UNBOUND:                -2.901
REMARK SMILES CCCCCCCCCCCCCCCCCC(=O)[O-]
REMARK SMILES IDX 10 1 11 2 12 3 13 4 14 5 15 6 16 7 17 8 18 9 19 10 20 11
REMARK SMILES IDX 9 12 8 13 7 14 6 15 5 16 4 17 3 18 2 19 1 20
REMARK H PARENT
REMARK Flexibility Score: inf
ROOT
ATOM      1  C   UNL     1     -19.228 -32.771  16.146  1.00  0.00     0.000 C 
ENDROOT
BRANCH   1   2
ATOM      2  C   UNL     1     -18.884 -33.369  14.770  1.00  0.00     0.000 C 
BRANCH   2   3
ATOM      3  C   UNL     1     -17.378 -33.317  14.458  1.00  0.00     0.000 C 
BRANCH   3   4
ATOM      4  C   UNL     1     -16.874 -31.961  13.922  1.00  0.00     0.000 C 
BRANCH   4   5
ATOM      5  C   UNL     1     -15.707 -31.339  14.714  1.00  0.00     0.000 C 
BRANCH   5   6
ATOM      6  C   UNL     1     -16.122 -30.504  15.941  1.00  0.00     0.000 C 
BRANCH   6   7
ATOM      7  C   UNL     1     -15.826 -31.160  17.302  1.00  0.00     0.006 C 
BRANCH   7   8
ATOM      8  C   UNL     1     -14.888 -30.319  18.177  1.00  0.00     0.053 C 
BRANCH   8   9
ATOM      9  C   UNL     1     -13.461 -30.564  17.798  1.00  0.00     0.041 C 
ATOM     10  O   UNL     1     -12.831 -29.710  17.119  1.00  0.00    -0.550 OA
ATOM     11  O   UNL     1     -12.842 -31.755  18.153  1.00  0.00    -0.550 OA
ENDBRANCH   8   9
ENDBRANCH   7   8
ENDBRANCH   6   7
ENDBRANCH   5   6
ENDBRANCH   4   5
ENDBRANCH   3   4
ENDBRANCH   2   3
ENDBRANCH   1   2
BRANCH   1  12
ATOM     12  C   UNL     1     -19.273 -33.834  17.254  1.00  0.00     0.000 C 
BRANCH  12  13
ATOM     13  C   UNL     1     -18.464 -33.422  18.497  1.00  0.00    -0.000 C 
BRANCH  13  14
ATOM     14  C   UNL     1     -19.343 -33.261  19.751  1.00  0.00    -0.000 C 
BRANCH  14  15
ATOM     15  C   UNL     1     -19.331 -31.851  20.374  1.00  0.00    -0.000 C 
BRANCH  15  16
ATOM     16  C   UNL     1     -20.158 -30.792  19.618  1.00  0.00    -0.000 C 
BRANCH  16  17
ATOM     17  C   UNL     1     -19.355 -29.934  18.623  1.00  0.00    -0.000 C 
BRANCH  17  18
ATOM     18  C   UNL     1     -18.197 -29.175  19.292  1.00  0.00    -0.000 C 
BRANCH  18  19
ATOM     19  C   UNL     1     -18.174 -27.686  18.913  1.00  0.00    -0.003 C 
ATOM     20  C   UNL     1     -17.454 -27.425  17.590  1.00  0.00     0.004 C 
ENDBRANCH  18  19
ENDBRANCH  17  18
ENDBRANCH  16  17
ENDBRANCH  15  16
ENDBRANCH  14  15
ENDBRANCH  13  14
ENDBRANCH  12  13
ENDBRANCH   1  12
TORSDOF 16
ENDMDL
MODEL 4
REMARK VINA RESULT:    -3.964      1.991      3.933
REMARK INTER + INTRA:         -10.572
REMARK INTER:                  -7.557
REMARK INTRA:                  -3.015
REMARK UNBOUND:                -2.901
REMARK SMILES CCCCCCCCCCCCCCCCCC(=O)[O-]
REMARK SMILES IDX 10 1 11 2 12 3 13 4 14 5 15 6 16 7 17 8 18 9 19 10 20 11
REMARK SMILES IDX 9 12 8 13 7 14 6 15 5 16 4 17 3 18 2 19 1 20
REMARK H PARENT
REMARK Flexibility Score: inf
ROOT
ATOM      1  C   UNL     1     -17.632 -32.627  21.614  1.00  0.00     0.000 C 
ENDROOT
BRANCH   1   2
ATOM      2  C   UNL     1     -18.128 -33.752  20.689  1.00  0.00     0.000 C 
BRANCH   2   3
ATOM      3  C   UNL     1     -19.321 -33.324  19.816  1.00  0.00     0.000 C 
BRANCH   3   4
ATOM      4  C   UNL     1     -19.065 -33.380  18.296  1.00  0.00     0.000 C 
BRANCH   4   5
ATOM      5  C   UNL     1     -17.693 -33.952  17.887  1.00  0.00     0.000 C 
BRANCH   5   6
ATOM      6  C   UNL     1     -16.689 -32.915  17.345  1.00  0.00     0.000 C 
BRANCH   6   7
ATOM      7  C   UNL     1     -17.164 -31.453  17.420  1.00  0.00     0.006 C 
BRANCH   7   8
ATOM      8  C   UNL     1     -16.384 -30.625  18.448  1.00  0.00     0.053 C 
BRANCH   8   9
ATOM      9  C   UNL     1     -17.322 -29.814  19.287  1.00  0.00     0.041 C 
ATOM     10  O   UNL     1     -16.874 -29.074  20.202  1.00  0.00    -0.550 OA
ATOM     11  O   UNL     1     -18.693 -29.914  19.090  1.00  0.00    -0.550 OA
ENDBRANCH   8   9
ENDBRANCH   7   8
ENDBRANCH   6   7
ENDBRANCH   5   6
ENDBRANCH   4   5
ENDBRANCH   3   4
ENDBRANCH   2   3
ENDBRANCH   1   2
BRANCH   1  12
ATOM     12  C   UNL     1     -16.108 -32.645  21.797  1.00  0.00     0.000 C 
BRANCH  12  13
ATOM     13  C   UNL     1     -15.413 -33.635  20.845  1.00  0.00    -0.000 C 
BRANCH  13  14
ATOM     14  C   UNL     1     -14.220 -33.006  20.102  1.00  0.00    -0.000 C 
BRANCH  14  15
ATOM     15  C   UNL     1     -13.547 -33.926  19.063  1.00  0.00    -0.000 C 
BRANCH  15  16
ATOM     16  C   UNL     1     -12.033 -33.703  18.874  1.00  0.00    -0.000 C 
BRANCH  16  17
ATOM     17  C   UNL     1     -11.641 -33.005  17.558  1.00  0.00    -0.000 C 
BRANCH  17  18
ATOM     18  C   UNL     1     -11.940 -31.497  17.575  1.00  0.00    -0.000 C 
BRANCH  18  19
ATOM     19  C   UNL     1     -12.970 -31.090  16.509  1.00  0.00    -0.003 C 
ATOM     20  C   UNL     1     -13.402 -32.264  15.629  1.00  0.00     0.004 C 
ENDBRANCH  18  19
ENDBRANCH  17  18
ENDBRANCH  16  17
ENDBRANCH  15  16
ENDBRANCH  14  15
ENDBRANCH  13  14
ENDBRANCH  12  13
ENDBRANCH   1  12
TORSDOF 16
ENDMDL
MODEL 5
REMARK VINA RESULT:    -3.893      2.031      4.781
REMARK INTER + INTRA:         -10.435
REMARK INTER:                  -7.472
REMARK INTRA:                  -2.963
REMARK UNBOUND:                -2.901
REMARK SMILES CCCCCCCCCCCCCCCCCC(=O)[O-]
REMARK SMILES IDX 10 1 11 2 12 3 13 4 14 5 15 6 16 7 17 8 18 9 19 10 20 11
REMARK SMILES IDX 9 12 8 13 7 14 6 15 5 16 4 17 3 18 2 19 1 20
REMARK H PARENT
REMARK Flexibility Score: inf
ROOT
ATOM      1  C   UNL     1     -17.841 -33.812  20.596  1.00  0.00     0.000 C 
ENDROOT
BRANCH   1   2
ATOM      2  C   UNL     1     -17.056 -32.647  21.226  1.00  0.00     0.000 C 
BRANCH   2   3
ATOM      3  C   UNL     1     -15.565 -32.970  21.422  1.00  0.00     0.000 C 
BRANCH   3   4
ATOM      4  C   UNL     1     -14.869 -33.590  20.193  1.00  0.00     0.000 C 
BRANCH   4   5
ATOM      5  C   UNL     1     -13.589 -32.864  19.733  1.00  0.00     0.000 C 
BRANCH   5   6
ATOM      6  C   UNL     1     -12.912 -33.466  18.485  1.00  0.00     0.000 C 
BRANCH   6   7
ATOM      7  C   UNL     1     -11.903 -32.538  17.785  1.00  0.00     0.006 C 
BRANCH   7   8
ATOM      8  C   UNL     1     -12.577 -31.483  16.899  1.00  0.00     0.053 C 
BRANCH   8   9
ATOM      9  C   UNL     1     -12.322 -30.109  17.435  1.00  0.00     0.041 C 
ATOM     10  O   UNL     1     -13.280 -29.311  17.611  1.00  0.00    -0.550 OA
ATOM     11  O   UNL     1     -11.023 -29.695  17.695  1.00  0.00    -0.550 OA
ENDBRANCH   8   9
ENDBRANCH   7   8
ENDBRANCH   6   7
ENDBRANCH   5   6
ENDBRANCH   4   5
ENDBRANCH   3   4
ENDBRANCH   2   3
ENDBRANCH   1   2
BRANCH   1  12
ATOM     12  C   UNL     1     -19.219 -33.379  20.074  1.00  0.00     0.000 C 
BRANCH  12  13
ATOM     13  C   UNL     1     -19.353 -33.554  18.551  1.00  0.00    -0.000 C 
BRANCH  13  14
ATOM     14  C   UNL     1     -18.000 -33.812  17.863  1.00  0.00    -0.000 C 
BRANCH  14  15
ATOM     15  C   UNL     1     -17.554 -32.713  16.878  1.00  0.00    -0.000 C 
BRANCH  15  16
ATOM     16  C   UNL     1     -16.259 -31.972  17.264  1.00  0.00    -0.000 C 
BRANCH  16  17
ATOM     17  C   UNL     1     -16.467 -30.708  18.119  1.00  0.00    -0.000 C 
BRANCH  17  18
ATOM     18  C   UNL     1     -17.843 -30.059  17.895  1.00  0.00    -0.000 C 
BRANCH  18  19
ATOM     19  C   UNL     1     -18.610 -29.841  19.208  1.00  0.00    -0.003 C 
ATOM     20  C   UNL     1     -20.124 -29.971  19.035  1.00  0.00     0.004 C 
ENDBRANCH  18  19
ENDBRANCH  17  18
ENDBRANCH  16  17
ENDBRANCH  15  16
ENDBRANCH  14  15
ENDBRANCH  13  14
ENDBRANCH  12  13
ENDBRANCH   1  12
TORSDOF 16
ENDMDL
MODEL 6
REMARK VINA RESULT:    -3.868      1.608      4.087
REMARK INTER + INTRA:         -10.386
REMARK INTER:                  -7.652
REMARK INTRA:                  -2.734
REMARK UNBOUND:                -2.901
REMARK SMILES CCCCCCCCCCCCCCCCCC(=O)[O-]
REMARK SMILES IDX 10 1 11 2 12 3 13 4 14 5 15 6 16 7 17 8 18 9 19 10 20 11
REMARK SMILES IDX 9 12 8 13 7 14 6 15 5 16 4 17 3 18 2 19 1 20
REMARK H PARENT
REMARK Flexibility Score: inf
ROOT
ATOM      1  C   UNL     1     -19.640 -32.552  20.068  1.00  0.00     0.000 C 
ENDROOT
BRANCH   1   2
ATOM      2  C   UNL     1     -20.019 -31.110  19.685  1.00  0.00     0.000 C 
BRANCH   2   3
ATOM      3  C   UNL     1     -19.601 -30.745  18.250  1.00  0.00     0.000 C 
BRANCH   3   4
ATOM      4  C   UNL     1     -18.858 -31.861  17.488  1.00  0.00     0.000 C 
BRANCH   4   5
ATOM      5  C   UNL     1     -17.321 -31.735  17.480  1.00  0.00     0.000 C 
BRANCH   5   6
ATOM      6  C   UNL     1     -16.784 -30.308  17.705  1.00  0.00     0.000 C 
BRANCH   6   7
ATOM      7  C   UNL     1     -16.107 -30.077  19.068  1.00  0.00     0.006 C 
BRANCH   7   8
ATOM      8  C   UNL     1     -16.945 -29.204  20.009  1.00  0.00     0.053 C 
BRANCH   8   9
ATOM      9  C   UNL     1     -17.060 -27.813  19.468  1.00  0.00     0.041 C 
ATOM     10  O   UNL     1     -16.024 -27.152  19.195  1.00  0.00    -0.550 OA
ATOM     11  O   UNL     1     -18.311 -27.230  19.310  1.00  0.00    -0.550 OA
ENDBRANCH   8   9
ENDBRANCH   7   8
ENDBRANCH   6   7
ENDBRANCH   5   6
ENDBRANCH   4   5
ENDBRANCH   3   4
ENDBRANCH   2   3
ENDBRANCH   1   2
BRANCH   1  12
ATOM     12  C   UNL     1     -18.519 -32.606  21.117  1.00  0.00     0.000 C 
BRANCH  12  13
ATOM     13  C   UNL     1     -17.535 -33.762  20.867  1.00  0.00    -0.000 C 
BRANCH  13  14
ATOM     14  C   UNL     1     -16.064 -33.311  20.921  1.00  0.00    -0.000 C 
BRANCH  14  15
ATOM     15  C   UNL     1     -15.170 -33.879  19.800  1.00  0.00    -0.000 C 
BRANCH  15  16
ATOM     16  C   UNL     1     -13.896 -33.064  19.500  1.00  0.00    -0.000 C 
BRANCH  16  17
ATOM     17  C   UNL     1     -13.645 -32.784  18.007  1.00  0.00    -0.000 C 
BRANCH  17  18
ATOM     18  C   UNL     1     -12.165 -32.501  17.697  1.00  0.00    -0.000 C 
BRANCH  18  19
ATOM     19  C   UNL     1     -11.912 -31.028  17.339  1.00  0.00    -0.003 C 
ATOM     20  C   UNL     1     -13.160 -30.329  16.800  1.00  0.00     0.004 C 
ENDBRANCH  18  19
ENDBRANCH  17  18
ENDBRANCH  16  17
ENDBRANCH  15  16
ENDBRANCH  14  15
ENDBRANCH  13  14
ENDBRANCH  12  13
ENDBRANCH   1  12
TORSDOF 16
ENDMDL
MODEL 7
REMARK VINA RESULT:    -3.854      1.469      3.312
REMARK INTER + INTRA:         -10.360
REMARK INTER:                  -7.935
REMARK INTRA:                  -2.425
REMARK UNBOUND:                -2.901
REMARK SMILES CCCCCCCCCCCCCCCCCC(=O)[O-]
REMARK SMILES IDX 10 1 11 2 12 3 13 4 14 5 15 6 16 7 17 8 18 9 19 10 20 11
REMARK SMILES IDX 9 12 8 13 7 14 6 15 5 16 4 17 3 18 2 19 1 20
REMARK H PARENT
REMARK Flexibility Score: inf
ROOT
ATOM      1  C   UNL     1     -17.629 -33.740  17.710  1.00  0.00     0.000 C 
ENDROOT
BRANCH   1   2
ATOM      2  C   UNL     1     -17.993 -33.563  19.195  1.00  0.00     0.000 C 
BRANCH   2   3
ATOM      3  C   UNL     1     -19.470 -33.187  19.406  1.00  0.00     0.000 C 
BRANCH   3   4
ATOM      4  C   UNL     1     -19.702 -31.791  20.019  1.00  0.00     0.000 C 
BRANCH   4   5
ATOM      5  C   UNL     1     -18.460 -31.149  20.668  1.00  0.00     0.000 C 
BRANCH   5   6
ATOM      6  C   UNL     1     -17.631 -30.244  19.735  1.00  0.00     0.000 C 
BRANCH   6   7
ATOM      7  C   UNL     1     -18.446 -29.498  18.662  1.00  0.00     0.006 C 
BRANCH   7   8
ATOM      8  C   UNL     1     -18.523 -27.988  18.915  1.00  0.00     0.053 C 
BRANCH   8   9
ATOM      9  C   UNL     1     -17.159 -27.376  18.845  1.00  0.00     0.041 C 
ATOM     10  O   UNL     1     -16.537 -27.338  17.750  1.00  0.00    -0.550 OA
ATOM     11  O   UNL     1     -16.554 -26.890  19.997  1.00  0.00    -0.550 OA
ENDBRANCH   8   9
ENDBRANCH   7   8
ENDBRANCH   6   7
ENDBRANCH   5   6
ENDBRANCH   4   5
ENDBRANCH   3   4
ENDBRANCH   2   3
ENDBRANCH   1   2
BRANCH   1  12
ATOM     12  C   UNL     1     -18.589 -32.988  16.776  1.00  0.00     0.000 C 
BRANCH  12  13
ATOM     13  C   UNL     1     -18.959 -33.809  15.528  1.00  0.00    -0.000 C 
BRANCH  13  14
ATOM     14  C   UNL     1     -18.613 -33.083  14.216  1.00  0.00    -0.000 C 
BRANCH  14  15
ATOM     15  C   UNL     1     -17.130 -33.165  13.801  1.00  0.00    -0.000 C 
BRANCH  15  16
ATOM     16  C   UNL     1     -16.462 -31.813  13.482  1.00  0.00    -0.000 C 
BRANCH  16  17
ATOM     17  C   UNL     1     -15.424 -31.344  14.518  1.00  0.00    -0.000 C 
BRANCH  17  18
ATOM     18  C   UNL     1     -16.053 -30.531  15.662  1.00  0.00    -0.000 C 
BRANCH  18  19
ATOM     19  C   UNL     1     -15.253 -30.640  16.969  1.00  0.00    -0.003 C 
ATOM     20  C   UNL     1     -14.440 -31.932  17.057  1.00  0.00     0.004 C 
ENDBRANCH  18  19
ENDBRANCH  17  18
ENDBRANCH  16  17
ENDBRANCH  15  16
ENDBRANCH  14  15
ENDBRANCH  13  14
ENDBRANCH  12  13
ENDBRANCH   1  12
TORSDOF 16
ENDMDL
MODEL 8
REMARK VINA RESULT:    -3.833      2.244      4.194
REMARK INTER + INTRA:         -10.320
REMARK INTER:                  -7.630
REMARK INTRA:                  -2.689
REMARK UNBOUND:                -2.901
REMARK SMILES CCCCCCCCCCCCCCCCCC(=O)[O-]
REMARK SMILES IDX 10 1 11 2 12 3 13 4 14 5 15 6 16 7 17 8 18 9 19 10 20 11
REMARK SMILES IDX 9 12 8 13 7 14 6 15 5 16 4 17 3 18 2 19 1 20
REMARK H PARENT
REMARK Flexibility Score: inf
ROOT
ATOM      1  C   UNL     1     -17.862 -32.320  21.723  1.00  0.00     0.000 C 
ENDROOT
BRANCH   1   2
ATOM      2  C   UNL     1     -18.446 -31.269  20.762  1.00  0.00     0.000 C 
BRANCH   2   3
ATOM      3  C   UNL     1     -19.674 -31.784  19.990  1.00  0.00     0.000 C 
BRANCH   3   4
ATOM      4  C   UNL     1     -19.641 -33.288  19.651  1.00  0.00     0.000 C 
BRANCH   4   5
ATOM      5  C   UNL     1     -19.231 -33.621  18.203  1.00  0.00     0.000 C 
BRANCH   5   6
ATOM      6  C   UNL     1     -19.274 -32.432  17.223  1.00  0.00     0.000 C 
BRANCH   6   7
ATOM      7  C   UNL     1     -19.174 -32.814  15.735  1.00  0.00     0.006 C 
BRANCH   7   8
ATOM      8  C   UNL     1     -17.770 -33.279  15.332  1.00  0.00     0.053 C 
BRANCH   8   9
ATOM      9  C   UNL     1     -17.313 -32.559  14.102  1.00  0.00     0.041 C 
ATOM     10  O   UNL     1     -17.818 -32.835  12.982  1.00  0.00    -0.550 OA
ATOM     11  O   UNL     1     -16.296 -31.616  14.186  1.00  0.00    -0.550 OA
ENDBRANCH   8   9
ENDBRANCH   7   8
ENDBRANCH   6   7
ENDBRANCH   5   6
ENDBRANCH   4   5
ENDBRANCH   3   4
ENDBRANCH   2   3
ENDBRANCH   1   2
BRANCH   1  12
ATOM     12  C   UNL     1     -16.348 -32.506  21.541  1.00  0.00     0.000 C 
BRANCH  12  13
ATOM     13  C   UNL     1     -16.005 -33.751  20.704  1.00  0.00    -0.000 C 
BRANCH  13  14
ATOM     14  C   UNL     1     -15.869 -33.439  19.203  1.00  0.00    -0.000 C 
BRANCH  14  15
ATOM     15  C   UNL     1     -14.841 -32.342  18.861  1.00  0.00    -0.000 C 
BRANCH  15  16
ATOM     16  C   UNL     1     -15.201 -31.460  17.648  1.00  0.00    -0.000 C 
BRANCH  16  17
ATOM     17  C   UNL     1     -16.366 -30.481  17.883  1.00  0.00    -0.000 C 
BRANCH  17  18
ATOM     18  C   UNL     1     -15.967 -29.282  18.760  1.00  0.00    -0.000 C 
BRANCH  18  19
ATOM     19  C   UNL     1     -16.706 -27.994  18.365  1.00  0.00    -0.003 C 
ATOM     20  C   UNL     1     -18.127 -27.934  18.924  1.00  0.00     0.004 C 
ENDBRANCH  18  19
ENDBRANCH  17  18
ENDBRANCH  16  17
ENDBRANCH  15  16
ENDBRANCH  14  15
ENDBRANCH  13  14
ENDBRANCH  12  13
ENDBRANCH   1  12
TORSDOF 16
ENDMDL
MODEL 9
REMARK VINA RESULT:    -3.831      1.698      3.601
REMARK INTER + INTRA:         -10.315
REMARK INTER:                  -7.559
REMARK INTRA:                  -2.756
REMARK UNBOUND:                -2.901
REMARK SMILES CCCCCCCCCCCCCCCCCC(=O)[O-]
REMARK SMILES IDX 10 1 11 2 12 3 13 4 14 5 15 6 16 7 17 8 18 9 19 10 20 11
REMARK SMILES IDX 9 12 8 13 7 14 6 15 5 16 4 17 3 18 2 19 1 20
REMARK H PARENT
REMARK Flexibility Score: inf
ROOT
ATOM      1  C   UNL     1     -17.839 -32.438  21.496  1.00  0.00     0.000 C 
ENDROOT
BRANCH   1   2
ATOM      2  C   UNL     1     -18.417 -33.658  20.757  1.00  0.00     0.000 C 
BRANCH   2   3
ATOM      3  C   UNL     1     -19.460 -33.271  19.694  1.00  0.00     0.000 C 
BRANCH   3   4
ATOM      4  C   UNL     1     -19.004 -33.475  18.234  1.00  0.00     0.000 C 
BRANCH   4   5
ATOM      5  C   UNL     1     -18.714 -32.177  17.455  1.00  0.00     0.000 C 
BRANCH   5   6
ATOM      6  C   UNL     1     -18.759 -30.886  18.297  1.00  0.00     0.000 C 
BRANCH   6   7
ATOM      7  C   UNL     1     -17.405 -30.176  18.468  1.00  0.00     0.006 C 
BRANCH   7   8
ATOM      8  C   UNL     1     -17.419 -29.126  19.586  1.00  0.00     0.053 C 
BRANCH   8   9
ATOM      9  C   UNL     1     -17.489 -27.747  19.008  1.00  0.00     0.041 C 
ATOM     10  O   UNL     1     -18.470 -27.001  19.265  1.00  0.00    -0.550 OA
ATOM     11  O   UNL     1     -16.494 -27.304  18.146  1.00  0.00    -0.550 OA
ENDBRANCH   8   9
ENDBRANCH   7   8
ENDBRANCH   6   7
ENDBRANCH   5   6
ENDBRANCH   4   5
ENDBRANCH   3   4
ENDBRANCH   2   3
ENDBRANCH   1   2
BRANCH   1  12
ATOM     12  C   UNL     1     -16.351 -32.609  21.839  1.00  0.00     0.000 C 
BRANCH  12  13
ATOM     13  C   UNL     1     -15.612 -33.500  20.825  1.00  0.00    -0.000 C 
BRANCH  13  14
ATOM     14  C   UNL     1     -15.056 -32.704  19.630  1.00  0.00    -0.000 C 
BRANCH  14  15
ATOM     15  C   UNL     1     -15.223 -33.391  18.260  1.00  0.00    -0.000 C 
BRANCH  15  16
ATOM     16  C   UNL     1     -14.907 -32.505  17.039  1.00  0.00    -0.000 C 
BRANCH  16  17
ATOM     17  C   UNL     1     -13.969 -31.317  17.326  1.00  0.00    -0.000 C 
BRANCH  17  18
ATOM     18  C   UNL     1     -12.508 -31.608  16.943  1.00  0.00    -0.000 C 
BRANCH  18  19
ATOM     19  C   UNL     1     -11.508 -30.817  17.801  1.00  0.00    -0.003 C 
ATOM     20  C   UNL     1     -11.654 -31.105  19.295  1.00  0.00     0.004 C 
ENDBRANCH  18  19
ENDBRANCH  17  18
ENDBRANCH  16  17
ENDBRANCH  15  16
ENDBRANCH  14  15
ENDBRANCH  13  14
ENDBRANCH  12  13
ENDBRANCH   1  12
TORSDOF 16
ENDMDL
