MODEL 1
REMARK VINA RESULT:    -5.261      0.000      0.000
REMARK INTER + INTRA:         -11.777
REMARK INTER:                 -10.181
REMARK INTRA:                  -1.596
REMARK UNBOUND:                -1.596
REMARK SMILES CCCCCCCCCCCCCCCCCC(=O)[O-]
REMARK SMILES IDX 10 1 11 2 12 3 13 4 14 5 15 6 16 7 17 8 18 9 19 10 20 11
REMARK SMILES IDX 9 12 8 13 7 14 6 15 5 16 4 17 3 18 2 19 1 20
REMARK H PARENT
REMARK Flexibility Score: inf
ROOT
ATOM      1  C   UNL     1     -23.921 -13.248   3.983  1.00  0.00     0.000 C 
ENDROOT
BRANCH   1   2
ATOM      2  C   UNL     1     -24.074 -11.732   4.201  1.00  0.00     0.000 C 
BRANCH   2   3
ATOM      3  C   UNL     1     -24.213 -11.362   5.688  1.00  0.00     0.000 C 
BRANCH   3   4
ATOM      4  C   UNL     1     -23.986  -9.861   5.941  1.00  0.00     0.000 C 
BRANCH   4   5
ATOM      5  C   UNL     1     -22.559  -9.411   5.593  1.00  0.00     0.000 C 
BRANCH   5   6
ATOM      6  C   UNL     1     -22.006  -8.371   6.583  1.00  0.00     0.000 C 
BRANCH   6   7
ATOM      7  C   UNL     1     -22.654  -8.471   7.972  1.00  0.00     0.006 C 
BRANCH   7   8
ATOM      8  C   UNL     1     -23.349  -7.170   8.396  1.00  0.00     0.053 C 
BRANCH   8   9
ATOM      9  C   UNL     1     -24.795  -7.421   8.691  1.00  0.00     0.041 C 
ATOM     10  O   UNL     1     -25.232  -8.600   8.760  1.00  0.00    -0.550 OA
ATOM     11  O   UNL     1     -25.667  -6.352   8.848  1.00  0.00    -0.550 OA
ENDBRANCH   8   9
ENDBRANCH   7   8
ENDBRANCH   6   7
ENDBRANCH   5   6
ENDBRANCH   4   5
ENDBRANCH   3   4
ENDBRANCH   2   3
ENDBRANCH   1   2
BRANCH   1  12
ATOM     12  C   UNL     1     -25.212 -14.030   4.287  1.00  0.00     0.000 C 
BRANCH  12  13
ATOM     13  C   UNL     1     -25.021 -15.312   5.118  1.00  0.00    -0.000 C 
BRANCH  13  14
ATOM     14  C   UNL     1     -25.570 -15.185   6.550  1.00  0.00    -0.000 C 
BRANCH  14  15
ATOM     15  C   UNL     1     -24.683 -14.317   7.459  1.00  0.00    -0.000 C 
BRANCH  15  16
ATOM     16  C   UNL     1     -24.201 -15.001   8.752  1.00  0.00    -0.000 C 
BRANCH  16  17
ATOM     17  C   UNL     1     -23.787 -13.999   9.844  1.00  0.00    -0.000 C 
BRANCH  17  18
ATOM     18  C   UNL     1     -24.231 -12.559   9.515  1.00  0.00    -0.000 C 
BRANCH  18  19
ATOM     19  C   UNL     1     -23.320 -11.482  10.129  1.00  0.00    -0.003 C 
ATOM     20  C   UNL     1     -21.999 -12.042  10.649  1.00  0.00     0.004 C 
ENDBRANCH  18  19
ENDBRANCH  17  18
ENDBRANCH  16  17
ENDBRANCH  15  16
ENDBRANCH  14  15
ENDBRANCH  13  14
ENDBRANCH  12  13
ENDBRANCH   1  12
TORSDOF 16
ENDMDL
MODEL 2
REMARK VINA RESULT:    -5.223      1.129      4.197
REMARK INTER + INTRA:         -11.704
REMARK INTER:                 -10.464
REMARK INTRA:                  -1.239
REMARK UNBOUND:                -1.596
REMARK SMILES CCCCCCCCCCCCCCCCCC(=O)[O-]
REMARK SMILES IDX 10 1 11 2 12 3 13 4 14 5 15 6 16 7 17 8 18 9 19 10 20 11
REMARK SMILES IDX 9 12 8 13 7 14 6 15 5 16 4 17 3 18 2 19 1 20
REMARK H PARENT
REMARK Flexibility Score: inf
ROOT
ATOM      1  C   UNL     1     -24.346 -14.137   7.984  1.00  0.00     0.000 C 
ENDROOT
BRANCH   1   2
ATOM      2  C   UNL     1     -23.787 -14.886   9.207  1.00  0.00     0.000 C 
BRANCH   2   3
ATOM      3  C   UNL     1     -22.883 -13.997  10.079  1.00  0.00     0.000 C 
BRANCH   3   4
ATOM      4  C   UNL     1     -23.615 -12.745  10.592  1.00  0.00     0.000 C 
BRANCH   4   5
ATOM      5  C   UNL     1     -23.175 -11.463   9.867  1.00  0.00     0.000 C 
BRANCH   5   6
ATOM      6  C   UNL     1     -24.295 -10.853   9.006  1.00  0.00     0.000 C 
BRANCH   6   7
ATOM      7  C   UNL     1     -24.032  -9.382   8.647  1.00  0.00     0.006 C 
BRANCH   7   8
ATOM      8  C   UNL     1     -25.323  -8.559   8.544  1.00  0.00     0.053 C 
BRANCH   8   9
ATOM      9  C   UNL     1     -25.034  -7.105   8.747  1.00  0.00     0.041 C 
ATOM     10  O   UNL     1     -25.976  -6.291   8.937  1.00  0.00    -0.550 OA
ATOM     11  O   UNL     1     -23.725  -6.642   8.685  1.00  0.00    -0.550 OA
ENDBRANCH   8   9
ENDBRANCH   7   8
ENDBRANCH   6   7
ENDBRANCH   5   6
ENDBRANCH   4   5
ENDBRANCH   3   4
ENDBRANCH   2   3
ENDBRANCH   1   2
BRANCH   1  12
ATOM     12  C   UNL     1     -25.465 -14.915   7.266  1.00  0.00     0.000 C 
BRANCH  12  13
ATOM     13  C   UNL     1     -25.066 -15.534   5.914  1.00  0.00    -0.000 C 
BRANCH  13  14
ATOM     14  C   UNL     1     -25.542 -14.703   4.710  1.00  0.00    -0.000 C 
BRANCH  14  15
ATOM     15  C   UNL     1     -24.444 -13.788   4.140  1.00  0.00    -0.000 C 
BRANCH  15  16
ATOM     16  C   UNL     1     -24.694 -12.279   4.309  1.00  0.00    -0.000 C 
BRANCH  16  17
ATOM     17  C   UNL     1     -23.425 -11.431   4.110  1.00  0.00    -0.000 C 
BRANCH  17  18
ATOM     18  C   UNL     1     -23.365 -10.232   5.079  1.00  0.00    -0.000 C 
BRANCH  18  19
ATOM     19  C   UNL     1     -22.015  -9.494   5.058  1.00  0.00    -0.003 C 
ATOM     20  C   UNL     1     -21.904  -8.420   6.137  1.00  0.00     0.004 C 
ENDBRANCH  18  19
ENDBRANCH  17  18
ENDBRANCH  16  17
ENDBRANCH  15  16
ENDBRANCH  14  15
ENDBRANCH  13  14
ENDBRANCH  12  13
ENDBRANCH   1  12
TORSDOF 16
ENDMDL
MODEL 3
REMARK VINA RESULT:    -5.201      2.219      5.327
REMARK INTER + INTRA:         -11.662
REMARK INTER:                  -9.874
REMARK INTRA:                  -1.788
REMARK UNBOUND:                -1.596
REMARK SMILES CCCCCCCCCCCCCCCCCC(=O)[O-]
REMARK SMILES IDX 10 1 11 2 12 3 13 4 14 5 15 6 16 7 17 8 18 9 19 10 20 11
REMARK SMILES IDX 9 12 8 13 7 14 6 15 5 16 4 17 3 18 2 19 1 20
REMARK H PARENT
REMARK Flexibility Score: inf
ROOT
ATOM      1  C   UNL     1     -23.976 -13.200   4.112  1.00  0.00     0.000 C 
ENDROOT
BRANCH   1   2
ATOM      2  C   UNL     1     -25.324 -13.878   4.415  1.00  0.00     0.000 C 
BRANCH   2   3
ATOM      3  C   UNL     1     -25.164 -15.162   5.248  1.00  0.00     0.000 C 
BRANCH   3   4
ATOM      4  C   UNL     1     -25.654 -14.984   6.696  1.00  0.00     0.000 C 
BRANCH   4   5
ATOM      5  C   UNL     1     -24.523 -14.593   7.659  1.00  0.00     0.000 C 
BRANCH   5   6
ATOM      6  C   UNL     1     -24.549 -13.100   8.031  1.00  0.00     0.000 C 
BRANCH   6   7
ATOM      7  C   UNL     1     -24.534 -12.867   9.550  1.00  0.00     0.006 C 
BRANCH   7   8
ATOM      8  C   UNL     1     -23.458 -11.864   9.985  1.00  0.00     0.053 C 
BRANCH   8   9
ATOM      9  C   UNL     1     -22.261 -12.582  10.525  1.00  0.00     0.041 C 
ATOM     10  O   UNL     1     -21.304 -11.934  11.024  1.00  0.00    -0.550 OA
ATOM     11  O   UNL     1     -22.183 -13.967  10.437  1.00  0.00    -0.550 OA
ENDBRANCH   8   9
ENDBRANCH   7   8
ENDBRANCH   6   7
ENDBRANCH   5   6
ENDBRANCH   4   5
ENDBRANCH   3   4
ENDBRANCH   2   3
ENDBRANCH   1   2
BRANCH   1  12
ATOM     12  C   UNL     1     -23.926 -11.732   4.576  1.00  0.00     0.000 C 
BRANCH  12  13
ATOM     13  C   UNL     1     -22.788 -10.892   3.967  1.00  0.00    -0.000 C 
BRANCH  13  14
ATOM     14  C   UNL     1     -22.417  -9.672   4.827  1.00  0.00    -0.000 C 
BRANCH  14  15
ATOM     15  C   UNL     1     -23.225  -9.590   6.135  1.00  0.00    -0.000 C 
BRANCH  15  16
ATOM     16  C   UNL     1     -22.499  -8.914   7.312  1.00  0.00    -0.000 C 
BRANCH  16  17
ATOM     17  C   UNL     1     -23.464  -8.347   8.369  1.00  0.00    -0.000 C 
BRANCH  17  18
ATOM     18  C   UNL     1     -24.859  -9.001   8.295  1.00  0.00    -0.000 C 
BRANCH  18  19
ATOM     19  C   UNL     1     -26.012  -8.015   8.554  1.00  0.00    -0.003 C 
ATOM     20  C   UNL     1     -25.529  -6.623   8.953  1.00  0.00     0.004 C 
ENDBRANCH  18  19
ENDBRANCH  17  18
ENDBRANCH  16  17
ENDBRANCH  15  16
ENDBRANCH  14  15
ENDBRANCH  13  14
ENDBRANCH  12  13
ENDBRANCH   1  12
TORSDOF 16
ENDMDL
MODEL 4
REMARK VINA RESULT:    -4.998      2.980      7.071
REMARK INTER + INTRA:         -11.270
REMARK INTER:                  -9.502
REMARK INTRA:                  -1.768
REMARK UNBOUND:                -1.596
REMARK SMILES CCCCCCCCCCCCCCCCCC(=O)[O-]
REMARK SMILES IDX 10 1 11 2 12 3 13 4 14 5 15 6 16 7 17 8 18 9 19 10 20 11
REMARK SMILES IDX 9 12 8 13 7 14 6 15 5 16 4 17 3 18 2 19 1 20
REMARK H PARENT
REMARK Flexibility Score: inf
ROOT
ATOM      1  C   UNL     1     -24.165 -11.395   9.446  1.00  0.00     0.000 C 
ENDROOT
BRANCH   1   2
ATOM      2  C   UNL     1     -22.759 -11.457  10.071  1.00  0.00     0.000 C 
BRANCH   2   3
ATOM      3  C   UNL     1     -22.464 -12.818  10.724  1.00  0.00     0.000 C 
BRANCH   3   4
ATOM      4  C   UNL     1     -23.612 -13.823  10.525  1.00  0.00     0.000 C 
BRANCH   4   5
ATOM      5  C   UNL     1     -23.390 -14.745   9.317  1.00  0.00     0.000 C 
BRANCH   5   6
ATOM      6  C   UNL     1     -24.677 -14.989   8.510  1.00  0.00     0.000 C 
BRANCH   6   7
ATOM      7  C   UNL     1     -24.613 -14.392   7.096  1.00  0.00     0.006 C 
BRANCH   7   8
ATOM      8  C   UNL     1     -25.672 -14.983   6.156  1.00  0.00     0.053 C 
BRANCH   8   9
ATOM      9  C   UNL     1     -25.025 -15.562   4.937  1.00  0.00     0.041 C 
ATOM     10  O   UNL     1     -24.885 -16.808   4.825  1.00  0.00    -0.550 OA
ATOM     11  O   UNL     1     -24.539 -14.721   3.943  1.00  0.00    -0.550 OA
ENDBRANCH   8   9
ENDBRANCH   7   8
ENDBRANCH   6   7
ENDBRANCH   5   6
ENDBRANCH   4   5
ENDBRANCH   3   4
ENDBRANCH   2   3
ENDBRANCH   1   2
BRANCH   1  12
ATOM     12  C   UNL     1     -24.244 -10.437   8.243  1.00  0.00     0.000 C 
BRANCH  12  13
ATOM     13  C   UNL     1     -24.420  -8.950   8.602  1.00  0.00    -0.000 C 
BRANCH  13  14
ATOM     14  C   UNL     1     -23.235  -8.080   8.150  1.00  0.00    -0.000 C 
BRANCH  14  15
ATOM     15  C   UNL     1     -22.162  -8.875   7.386  1.00  0.00    -0.000 C 
BRANCH  15  16
ATOM     16  C   UNL     1     -22.048  -8.548   5.886  1.00  0.00    -0.000 C 
BRANCH  16  17
ATOM     17  C   UNL     1     -21.539  -9.734   5.048  1.00  0.00    -0.000 C 
BRANCH  17  18
ATOM     18  C   UNL     1     -22.485 -10.069   3.876  1.00  0.00    -0.000 C 
BRANCH  18  19
ATOM     19  C   UNL     1     -23.132 -11.460   3.990  1.00  0.00    -0.003 C 
ATOM     20  C   UNL     1     -24.360 -11.475   4.897  1.00  0.00     0.004 C 
ENDBRANCH  18  19
ENDBRANCH  17  18
ENDBRANCH  16  17
ENDBRANCH  15  16
ENDBRANCH  14  15
ENDBRANCH  13  14
ENDBRANCH  12  13
ENDBRANCH   1  12
TORSDOF 16
ENDMDL
MODEL 5
REMARK VINA RESULT:    -4.796      1.893      4.723
REMARK INTER + INTRA:         -10.878
REMARK INTER:                  -9.586
REMARK INTRA:                  -1.292
REMARK UNBOUND:                -1.596
REMARK SMILES CCCCCCCCCCCCCCCCCC(=O)[O-]
REMARK SMILES IDX 10 1 11 2 12 3 13 4 14 5 15 6 16 7 17 8 18 9 19 10 20 11
REMARK SMILES IDX 9 12 8 13 7 14 6 15 5 16 4 17 3 18 2 19 1 20
REMARK H PARENT
REMARK Flexibility Score: inf
ROOT
ATOM      1  C   UNL     1     -23.274 -12.944  10.926  1.00  0.00     0.000 C 
ENDROOT
BRANCH   1   2
ATOM      2  C   UNL     1     -23.205 -11.566  10.245  1.00  0.00     0.000 C 
BRANCH   2   3
ATOM      3  C   UNL     1     -24.504 -11.211   9.502  1.00  0.00     0.000 C 
BRANCH   3   4
ATOM      4  C   UNL     1     -24.254 -10.293   8.293  1.00  0.00     0.000 C 
BRANCH   4   5
ATOM      5  C   UNL     1     -24.432  -8.805   8.632  1.00  0.00     0.000 C 
BRANCH   5   6
ATOM      6  C   UNL     1     -23.175  -7.971   8.327  1.00  0.00     0.000 C 
BRANCH   6   7
ATOM      7  C   UNL     1     -22.079  -8.787   7.624  1.00  0.00     0.006 C 
BRANCH   7   8
ATOM      8  C   UNL     1     -21.903  -8.395   6.151  1.00  0.00     0.053 C 
BRANCH   8   9
ATOM      9  C   UNL     1     -22.413  -9.480   5.255  1.00  0.00     0.041 C 
ATOM     10  O   UNL     1     -23.616  -9.845   5.325  1.00  0.00    -0.550 OA
ATOM     11  O   UNL     1     -21.549 -10.117   4.374  1.00  0.00    -0.550 OA
ENDBRANCH   8   9
ENDBRANCH   7   8
ENDBRANCH   6   7
ENDBRANCH   5   6
ENDBRANCH   4   5
ENDBRANCH   3   4
ENDBRANCH   2   3
ENDBRANCH   1   2
BRANCH   1  12
ATOM     12  C   UNL     1     -22.254 -13.947  10.353  1.00  0.00     0.000 C 
BRANCH  12  13
ATOM     13  C   UNL     1     -22.834 -14.979   9.370  1.00  0.00    -0.000 C 
BRANCH  13  14
ATOM     14  C   UNL     1     -24.312 -14.720   9.030  1.00  0.00    -0.000 C 
BRANCH  14  15
ATOM     15  C   UNL     1     -24.520 -14.231   7.586  1.00  0.00    -0.000 C 
BRANCH  15  16
ATOM     16  C   UNL     1     -25.542 -15.037   6.763  1.00  0.00    -0.000 C 
BRANCH  16  17
ATOM     17  C   UNL     1     -25.095 -15.268   5.308  1.00  0.00    -0.000 C 
BRANCH  17  18
ATOM     18  C   UNL     1     -25.673 -14.209   4.346  1.00  0.00    -0.000 C 
BRANCH  18  19
ATOM     19  C   UNL     1     -24.935 -12.860   4.405  1.00  0.00    -0.003 C 
ATOM     20  C   UNL     1     -23.505 -12.938   3.876  1.00  0.00     0.004 C 
ENDBRANCH  18  19
ENDBRANCH  17  18
ENDBRANCH  16  17
ENDBRANCH  15  16
ENDBRANCH  14  15
ENDBRANCH  13  14
ENDBRANCH  12  13
ENDBRANCH   1  12
TORSDOF 16
ENDMDL
MODEL 6
REMARK VINA RESULT:    -4.665      1.062      4.079
REMARK INTER + INTRA:         -10.624
REMARK INTER:                  -9.172
REMARK INTRA:                  -1.452
REMARK UNBOUND:                -1.596
REMARK SMILES CCCCCCCCCCCCCCCCCC(=O)[O-]
REMARK SMILES IDX 10 1 11 2 12 3 13 4 14 5 15 6 16 7 17 8 18 9 19 10 20 11
REMARK SMILES IDX 9 12 8 13 7 14 6 15 5 16 4 17 3 18 2 19 1 20
REMARK H PARENT
REMARK Flexibility Score: inf
ROOT
ATOM      1  C   UNL     1     -22.404 -12.794  10.640  1.00  0.00     0.000 C 
ENDROOT
BRANCH   1   2
ATOM      2  C   UNL     1     -22.693 -11.380  10.104  1.00  0.00     0.000 C 
BRANCH   2   3
ATOM      3  C   UNL     1     -24.091 -11.265   9.471  1.00  0.00     0.000 C 
BRANCH   3   4
ATOM      4  C   UNL     1     -24.088 -10.401   8.199  1.00  0.00     0.000 C 
BRANCH   4   5
ATOM      5  C   UNL     1     -22.724  -9.747   7.930  1.00  0.00     0.000 C 
BRANCH   5   6
ATOM      6  C   UNL     1     -22.845  -8.277   7.493  1.00  0.00     0.000 C 
BRANCH   6   7
ATOM      7  C   UNL     1     -23.087  -7.325   8.675  1.00  0.00     0.006 C 
BRANCH   7   8
ATOM      8  C   UNL     1     -24.100  -6.221   8.348  1.00  0.00     0.053 C 
BRANCH   8   9
ATOM      9  C   UNL     1     -25.453  -6.578   8.879  1.00  0.00     0.041 C 
ATOM     10  O   UNL     1     -25.893  -7.751   8.758  1.00  0.00    -0.550 OA
ATOM     11  O   UNL     1     -26.246  -5.603   9.471  1.00  0.00    -0.550 OA
ENDBRANCH   8   9
ENDBRANCH   7   8
ENDBRANCH   6   7
ENDBRANCH   5   6
ENDBRANCH   4   5
ENDBRANCH   3   4
ENDBRANCH   2   3
ENDBRANCH   1   2
BRANCH   1  12
ATOM     12  C   UNL     1     -23.590 -13.759  10.456  1.00  0.00     0.000 C 
BRANCH  12  13
ATOM     13  C   UNL     1     -23.513 -14.660   9.211  1.00  0.00    -0.000 C 
BRANCH  13  14
ATOM     14  C   UNL     1     -24.850 -14.753   8.455  1.00  0.00    -0.000 C 
BRANCH  14  15
ATOM     15  C   UNL     1     -24.746 -14.291   6.991  1.00  0.00    -0.000 C 
BRANCH  15  16
ATOM     16  C   UNL     1     -25.351 -15.256   5.955  1.00  0.00    -0.000 C 
BRANCH  16  17
ATOM     17  C   UNL     1     -24.975 -14.897   4.506  1.00  0.00    -0.000 C 
BRANCH  17  18
ATOM     18  C   UNL     1     -25.122 -13.387   4.223  1.00  0.00    -0.000 C 
BRANCH  18  19
ATOM     19  C   UNL     1     -23.784 -12.686   3.931  1.00  0.00    -0.003 C 
ATOM     20  C   UNL     1     -23.697 -11.288   4.540  1.00  0.00     0.004 C 
ENDBRANCH  18  19
ENDBRANCH  17  18
ENDBRANCH  16  17
ENDBRANCH  15  16
ENDBRANCH  14  15
ENDBRANCH  13  14
ENDBRANCH  12  13
ENDBRANCH   1  12
TORSDOF 16
ENDMDL
MODEL 7
REMARK VINA RESULT:    -4.643      2.735      6.829
REMARK INTER + INTRA:         -10.583
REMARK INTER:                  -8.857
REMARK INTRA:                  -1.725
REMARK UNBOUND:                -1.596
REMARK SMILES CCCCCCCCCCCCCCCCCC(=O)[O-]
REMARK SMILES IDX 10 1 11 2 12 3 13 4 14 5 15 6 16 7 17 8 18 9 19 10 20 11
REMARK SMILES IDX 9 12 8 13 7 14 6 15 5 16 4 17 3 18 2 19 1 20
REMARK H PARENT
REMARK Flexibility Score: inf
ROOT
ATOM      1  C   UNL     1     -22.820 -11.720  10.682  1.00  0.00     0.000 C 
ENDROOT
BRANCH   1   2
ATOM      2  C   UNL     1     -23.458 -13.118  10.779  1.00  0.00     0.000 C 
BRANCH   2   3
ATOM      3  C   UNL     1     -22.578 -14.211  10.149  1.00  0.00     0.000 C 
BRANCH   3   4
ATOM      4  C   UNL     1     -23.342 -15.049   9.109  1.00  0.00     0.000 C 
BRANCH   4   5
ATOM      5  C   UNL     1     -24.659 -14.392   8.670  1.00  0.00     0.000 C 
BRANCH   5   6
ATOM      6  C   UNL     1     -24.745 -14.191   7.146  1.00  0.00     0.000 C 
BRANCH   6   7
ATOM      7  C   UNL     1     -25.484 -15.337   6.438  1.00  0.00     0.006 C 
BRANCH   7   8
ATOM      8  C   UNL     1     -24.973 -15.578   5.012  1.00  0.00     0.053 C 
BRANCH   8   9
ATOM      9  C   UNL     1     -24.926 -14.292   4.248  1.00  0.00     0.041 C 
ATOM     10  O   UNL     1     -23.821 -13.816   3.876  1.00  0.00    -0.550 OA
ATOM     11  O   UNL     1     -26.099 -13.597   3.985  1.00  0.00    -0.550 OA
ENDBRANCH   8   9
ENDBRANCH   7   8
ENDBRANCH   6   7
ENDBRANCH   5   6
ENDBRANCH   4   5
ENDBRANCH   3   4
ENDBRANCH   2   3
ENDBRANCH   1   2
BRANCH   1  12
ATOM     12  C   UNL     1     -22.928 -11.109   9.272  1.00  0.00     0.000 C 
BRANCH  12  13
ATOM     13  C   UNL     1     -24.362 -10.948   8.737  1.00  0.00    -0.000 C 
BRANCH  13  14
ATOM     14  C   UNL     1     -24.701  -9.495   8.360  1.00  0.00    -0.000 C 
BRANCH  14  15
ATOM     15  C   UNL     1     -23.661  -8.483   8.871  1.00  0.00    -0.000 C 
BRANCH  15  16
ATOM     16  C   UNL     1     -22.875  -7.741   7.774  1.00  0.00    -0.000 C 
BRANCH  16  17
ATOM     17  C   UNL     1     -21.834  -8.631   7.072  1.00  0.00    -0.000 C 
BRANCH  17  18
ATOM     18  C   UNL     1     -22.022  -8.652   5.541  1.00  0.00    -0.000 C 
BRANCH  18  19
ATOM     19  C   UNL     1     -22.892  -9.821   5.047  1.00  0.00    -0.003 C 
ATOM     20  C   UNL     1     -22.210 -10.660   3.970  1.00  0.00     0.004 C 
ENDBRANCH  18  19
ENDBRANCH  17  18
ENDBRANCH  16  17
ENDBRANCH  15  16
ENDBRANCH  14  15
ENDBRANCH  13  14
ENDBRANCH  12  13
ENDBRANCH   1  12
TORSDOF 16
ENDMDL
MODEL 8
REMARK VINA RESULT:    -4.616      1.758      4.492
REMARK INTER + INTRA:         -10.529
REMARK INTER:                  -8.906
REMARK INTRA:                  -1.623
REMARK UNBOUND:                -1.596
REMARK SMILES CCCCCCCCCCCCCCCCCC(=O)[O-]
REMARK SMILES IDX 10 1 11 2 12 3 13 4 14 5 15 6 16 7 17 8 18 9 19 10 20 11
REMARK SMILES IDX 9 12 8 13 7 14 6 15 5 16 4 17 3 18 2 19 1 20
REMARK H PARENT
REMARK Flexibility Score: inf
ROOT
ATOM      1  C   UNL     1     -22.459 -14.439   9.891  1.00  0.00     0.000 C 
ENDROOT
BRANCH   1   2
ATOM      2  C   UNL     1     -22.254 -13.003  10.406  1.00  0.00     0.000 C 
BRANCH   2   3
ATOM      3  C   UNL     1     -23.572 -12.215  10.492  1.00  0.00     0.000 C 
BRANCH   3   4
ATOM      4  C   UNL     1     -23.527 -10.908   9.681  1.00  0.00     0.000 C 
BRANCH   4   5
ATOM      5  C   UNL     1     -24.378 -10.975   8.403  1.00  0.00     0.000 C 
BRANCH   5   6
ATOM      6  C   UNL     1     -24.707  -9.583   7.835  1.00  0.00     0.000 C 
BRANCH   6   7
ATOM      7  C   UNL     1     -24.167  -8.442   8.711  1.00  0.00     0.006 C 
BRANCH   7   8
ATOM      8  C   UNL     1     -23.127  -7.579   7.983  1.00  0.00     0.053 C 
BRANCH   8   9
ATOM      9  C   UNL     1     -22.118  -8.444   7.296  1.00  0.00     0.041 C 
ATOM     10  O   UNL     1     -21.304  -9.128   7.970  1.00  0.00    -0.550 OA
ATOM     11  O   UNL     1     -22.049  -8.462   5.908  1.00  0.00    -0.550 OA
ENDBRANCH   8   9
ENDBRANCH   7   8
ENDBRANCH   6   7
ENDBRANCH   5   6
ENDBRANCH   4   5
ENDBRANCH   3   4
ENDBRANCH   2   3
ENDBRANCH   1   2
BRANCH   1  12
ATOM     12  C   UNL     1     -23.919 -14.732   9.497  1.00  0.00     0.000 C 
BRANCH  12  13
ATOM     13  C   UNL     1     -24.250 -14.522   8.009  1.00  0.00    -0.000 C 
BRANCH  13  14
ATOM     14  C   UNL     1     -25.658 -15.015   7.633  1.00  0.00    -0.000 C 
BRANCH  14  15
ATOM     15  C   UNL     1     -25.946 -14.918   6.124  1.00  0.00    -0.000 C 
BRANCH  15  16
ATOM     16  C   UNL     1     -25.026 -15.764   5.225  1.00  0.00    -0.000 C 
BRANCH  16  17
ATOM     17  C   UNL     1     -24.422 -14.963   4.058  1.00  0.00    -0.000 C 
BRANCH  17  18
ATOM     18  C   UNL     1     -24.817 -13.472   4.107  1.00  0.00    -0.000 C 
BRANCH  18  19
ATOM     19  C   UNL     1     -23.633 -12.517   3.878  1.00  0.00    -0.003 C 
ATOM     20  C   UNL     1     -23.745 -11.222   4.680  1.00  0.00     0.004 C 
ENDBRANCH  18  19
ENDBRANCH  17  18
ENDBRANCH  16  17
ENDBRANCH  15  16
ENDBRANCH  14  15
ENDBRANCH  13  14
ENDBRANCH  12  13
ENDBRANCH   1  12
TORSDOF 16
ENDMDL
MODEL 9
REMARK VINA RESULT:    -3.244      1.125      4.328
REMARK INTER + INTRA:          -7.874
REMARK INTER:                  -6.241
REMARK INTRA:                  -1.633
REMARK UNBOUND:                -1.596
REMARK SMILES CCCCCCCCCCCCCCCCCC(=O)[O-]
REMARK SMILES IDX 10 1 11 2 12 3 13 4 14 5 15 6 16 7 17 8 18 9 19 10 20 11
REMARK SMILES IDX 9 12 8 13 7 14 6 15 5 16 4 17 3 18 2 19 1 20
REMARK H PARENT
REMARK Flexibility Score: inf
ROOT
ATOM      1  C   UNL     1     -23.195 -14.688   9.311  1.00  0.00     0.000 C 
ENDROOT
BRANCH   1   2
ATOM      2  C   UNL     1     -23.179 -14.269  10.793  1.00  0.00     0.000 C 
BRANCH   2   3
ATOM      3  C   UNL     1     -23.481 -12.773  10.985  1.00  0.00     0.000 C 
BRANCH   3   4
ATOM      4  C   UNL     1     -22.322 -11.877  10.516  1.00  0.00     0.000 C 
BRANCH   4   5
ATOM      5  C   UNL     1     -22.706 -10.990   9.322  1.00  0.00     0.000 C 
BRANCH   5   6
ATOM      6  C   UNL     1     -24.228 -10.893   9.117  1.00  0.00     0.000 C 
BRANCH   6   7
ATOM      7  C   UNL     1     -24.631  -9.716   8.215  1.00  0.00     0.006 C 
BRANCH   7   8
ATOM      8  C   UNL     1     -23.650  -8.539   8.306  1.00  0.00     0.053 C 
BRANCH   8   9
ATOM      9  C   UNL     1     -24.376  -7.279   8.660  1.00  0.00     0.041 C 
ATOM     10  O   UNL     1     -25.618  -7.299   8.863  1.00  0.00    -0.550 OA
ATOM     11  O   UNL     1     -23.686  -6.075   8.723  1.00  0.00    -0.550 OA
ENDBRANCH   8   9
ENDBRANCH   7   8
ENDBRANCH   6   7
ENDBRANCH   5   6
ENDBRANCH   4   5
ENDBRANCH   3   4
ENDBRANCH   2   3
ENDBRANCH   1   2
BRANCH   1  12
ATOM     12  C   UNL     1     -24.599 -14.609   8.682  1.00  0.00     0.000 C 
BRANCH  12  13
ATOM     13  C   UNL     1     -24.624 -14.285   7.177  1.00  0.00    -0.000 C 
BRANCH  13  14
ATOM     14  C   UNL     1     -25.749 -15.016   6.426  1.00  0.00    -0.000 C 
BRANCH  14  15
ATOM     15  C   UNL     1     -25.347 -15.436   5.001  1.00  0.00    -0.000 C 
BRANCH  15  16
ATOM     16  C   UNL     1     -24.376 -14.479   4.285  1.00  0.00    -0.000 C 
BRANCH  16  17
ATOM     17  C   UNL     1     -24.910 -13.039   4.188  1.00  0.00    -0.000 C 
BRANCH  17  18
ATOM     18  C   UNL     1     -23.793 -12.022   3.875  1.00  0.00    -0.000 C 
BRANCH  18  19
ATOM     19  C   UNL     1     -23.680 -10.898   4.919  1.00  0.00    -0.003 C 
ATOM     20  C   UNL     1     -22.440 -10.027   4.727  1.00  0.00     0.004 C 
ENDBRANCH  18  19
ENDBRANCH  17  18
ENDBRANCH  16  17
ENDBRANCH  15  16
ENDBRANCH  14  15
ENDBRANCH  13  14
ENDBRANCH  12  13
ENDBRANCH   1  12
TORSDOF 16
ENDMDL
