MODEL 1
REMARK VINA RESULT:    -7.154      0.000      0.000
REMARK INTER + INTRA:          -8.729
REMARK INTER:                  -8.617
REMARK INTRA:                  -0.112
REMARK UNBOUND:                -0.112
REMARK SMILES O=c1c(O)c(-c2ccc(O)c(O)c2)oc2cc(O)cc(O)c12
REMARK SMILES IDX 5 1 3 2 2 3 1 4 22 5 20 6 19 7 17 8 16 9 15 10 14 11 6 12
REMARK SMILES IDX 7 13 8 14 9 15 13 16 11 17 10 18 12 20 4 22 21 24 18 26
REMARK H PARENT 10 19 12 21 4 23 21 25 18 27
REMARK Flexibility Score: inf
ROOT
ATOM      1  C   UNL     1      55.069  35.135  77.191  1.00  0.00     0.180 A 
ATOM      2  C   UNL     1      54.914  34.254  78.274  1.00  0.00     0.208 A 
ATOM      3  C   UNL     1      53.655  34.141  78.886  1.00  0.00     0.238 A 
ATOM      4  O   UNL     1      53.536  33.391  79.890  1.00  0.00    -0.285 OA
ATOM      5  C   UNL     1      52.564  34.898  78.397  1.00  0.00     0.111 A 
ATOM      6  C   UNL     1      51.235  34.831  78.914  1.00  0.00     0.134 A 
ATOM      7  C   UNL     1      50.264  35.721  78.438  1.00  0.00     0.093 A 
ATOM      8  C   UNL     1      50.555  36.628  77.421  1.00  0.00     0.123 A 
ATOM      9  C   UNL     1      51.834  36.661  76.866  1.00  0.00     0.094 A 
ATOM     10  C   UNL     1      52.835  35.811  77.344  1.00  0.00     0.146 A 
ATOM     11  O   UNL     1      54.042  35.881  76.797  1.00  0.00    -0.452 OA
ENDROOT
BRANCH   1  12
ATOM     12  C   UNL     1      56.358  35.291  76.478  1.00  0.00     0.025 A 
ATOM     13  C   UNL     1      56.924  36.568  76.346  1.00  0.00     0.016 A 
ATOM     14  C   UNL     1      58.130  36.739  75.660  1.00  0.00     0.051 A 
ATOM     15  C   UNL     1      58.777  35.640  75.083  1.00  0.00     0.157 A 
ATOM     16  C   UNL     1      57.000  34.192  75.880  1.00  0.00     0.062 A 
ATOM     17  C   UNL     1      58.207  34.361  75.191  1.00  0.00     0.158 A 
BRANCH  15  18
ATOM     18  O   UNL     1      59.980  35.814  74.401  1.00  0.00    -0.504 OA
ATOM     19  H   UNL     1      60.872  35.604  74.834  1.00  0.00     0.293 HD
ENDBRANCH  15  18
BRANCH  17  20
ATOM     20  O   UNL     1      58.819  33.248  74.615  1.00  0.00    -0.504 OA
ATOM     21  H   UNL     1      59.580  33.336  73.952  1.00  0.00     0.293 HD
ENDBRANCH  17  20
ENDBRANCH   1  12
BRANCH   2  22
ATOM     22  O   UNL     1      56.010  33.533  78.756  1.00  0.00    -0.502 OA
ATOM     23  H   UNL     1      56.445  32.786  78.227  1.00  0.00     0.293 HD
ENDBRANCH   2  22
BRANCH   6  24
ATOM     24  O   UNL     1      50.815  33.900  79.868  1.00  0.00    -0.507 OA
ATOM     25  H   UNL     1      51.432  33.330  80.426  1.00  0.00     0.293 HD
ENDBRANCH   6  24
BRANCH   8  26
ATOM     26  O   UNL     1      49.559  37.488  76.961  1.00  0.00    -0.508 OA
ATOM     27  H   UNL     1      49.731  38.143  76.206  1.00  0.00     0.293 HD
ENDBRANCH   8  26
TORSDOF 6
ENDMDL
MODEL 2
REMARK VINA RESULT:    -7.134      1.396      2.952
REMARK INTER + INTRA:          -8.705
REMARK INTER:                  -8.394
REMARK INTRA:                  -0.311
REMARK UNBOUND:                -0.112
REMARK SMILES O=c1c(O)c(-c2ccc(O)c(O)c2)oc2cc(O)cc(O)c12
REMARK SMILES IDX 5 1 3 2 2 3 1 4 22 5 20 6 19 7 17 8 16 9 15 10 14 11 6 12
REMARK SMILES IDX 7 13 8 14 9 15 13 16 11 17 10 18 12 20 4 22 21 24 18 26
REMARK H PARENT 10 19 12 21 4 23 21 25 18 27
REMARK Flexibility Score: inf
ROOT
ATOM      1  C   UNL     1      55.073  36.124  76.920  1.00  0.00     0.180 A 
ATOM      2  C   UNL     1      54.207  37.009  76.255  1.00  0.00     0.208 A 
ATOM      3  C   UNL     1      52.828  36.936  76.512  1.00  0.00     0.238 A 
ATOM      4  O   UNL     1      52.053  37.694  75.873  1.00  0.00    -0.285 OA
ATOM      5  C   UNL     1      52.335  35.991  77.443  1.00  0.00     0.111 A 
ATOM      6  C   UNL     1      50.963  35.857  77.811  1.00  0.00     0.134 A 
ATOM      7  C   UNL     1      50.571  34.801  78.644  1.00  0.00     0.093 A 
ATOM      8  C   UNL     1      51.509  33.916  79.173  1.00  0.00     0.123 A 
ATOM      9  C   UNL     1      52.861  34.074  78.869  1.00  0.00     0.094 A 
ATOM     10  C   UNL     1      53.279  35.095  78.011  1.00  0.00     0.146 A 
ATOM     11  O   UNL     1      54.573  35.205  77.738  1.00  0.00    -0.452 OA
ENDROOT
BRANCH   1  12
ATOM     12  C   UNL     1      56.540  36.157  76.720  1.00  0.00     0.025 A 
ATOM     13  C   UNL     1      57.313  37.089  77.428  1.00  0.00     0.016 A 
ATOM     14  C   UNL     1      58.696  37.151  77.239  1.00  0.00     0.051 A 
ATOM     15  C   UNL     1      59.324  36.291  76.330  1.00  0.00     0.157 A 
ATOM     16  C   UNL     1      57.171  35.309  75.792  1.00  0.00     0.062 A 
ATOM     17  C   UNL     1      58.556  35.369  75.599  1.00  0.00     0.158 A 
BRANCH  15  18
ATOM     18  O   UNL     1      60.705  36.353  76.145  1.00  0.00    -0.504 OA
ATOM     19  H   UNL     1      61.126  36.201  75.237  1.00  0.00     0.293 HD
ENDBRANCH  15  18
BRANCH  17  20
ATOM     20  O   UNL     1      59.149  34.510  74.676  1.00  0.00    -0.504 OA
ATOM     21  H   UNL     1      60.154  34.462  74.552  1.00  0.00     0.293 HD
ENDBRANCH  17  20
ENDBRANCH   1  12
BRANCH   2  22
ATOM     22  O   UNL     1      54.713  37.920  75.322  1.00  0.00    -0.502 OA
ATOM     23  H   UNL     1      54.138  38.635  74.894  1.00  0.00     0.293 HD
ENDBRANCH   2  22
BRANCH   6  24
ATOM     24  O   UNL     1      49.957  36.742  77.412  1.00  0.00    -0.507 OA
ATOM     25  H   UNL     1      49.648  37.540  77.946  1.00  0.00     0.293 HD
ENDBRANCH   6  24
BRANCH   8  26
ATOM     26  O   UNL     1      51.086  32.886  80.012  1.00  0.00    -0.508 OA
ATOM     27  H   UNL     1      51.713  32.143  80.298  1.00  0.00     0.293 HD
ENDBRANCH   8  26
TORSDOF 6
ENDMDL
MODEL 3
REMARK VINA RESULT:    -6.802      2.188      7.289
REMARK INTER + INTRA:          -8.305
REMARK INTER:                  -8.146
REMARK INTRA:                  -0.159
REMARK UNBOUND:                -0.112
REMARK SMILES O=c1c(O)c(-c2ccc(O)c(O)c2)oc2cc(O)cc(O)c12
REMARK SMILES IDX 5 1 3 2 2 3 1 4 22 5 20 6 19 7 17 8 16 9 15 10 14 11 6 12
REMARK SMILES IDX 7 13 8 14 9 15 13 16 11 17 10 18 12 20 4 22 21 24 18 26
REMARK H PARENT 10 19 12 21 4 23 21 25 18 27
REMARK Flexibility Score: inf
ROOT
ATOM      1  C   UNL     1      54.549  36.539  77.306  1.00  0.00     0.180 A 
ATOM      2  C   UNL     1      54.495  37.507  76.290  1.00  0.00     0.208 A 
ATOM      3  C   UNL     1      55.685  37.889  75.649  1.00  0.00     0.238 A 
ATOM      4  O   UNL     1      55.637  38.796  74.777  1.00  0.00    -0.285 OA
ATOM      5  C   UNL     1      56.909  37.285  76.020  1.00  0.00     0.111 A 
ATOM      6  C   UNL     1      58.169  37.566  75.409  1.00  0.00     0.134 A 
ATOM      7  C   UNL     1      59.336  37.006  75.944  1.00  0.00     0.093 A 
ATOM      8  C   UNL     1      59.283  36.127  77.024  1.00  0.00     0.123 A 
ATOM      9  C   UNL     1      58.051  35.798  77.591  1.00  0.00     0.094 A 
ATOM     10  C   UNL     1      56.872  36.369  77.103  1.00  0.00     0.146 A 
ATOM     11  O   UNL     1      55.722  36.039  77.678  1.00  0.00    -0.452 OA
ENDROOT
BRANCH   1  12
ATOM     12  C   UNL     1      53.335  36.067  78.012  1.00  0.00     0.025 A 
ATOM     13  C   UNL     1      53.244  36.213  79.404  1.00  0.00     0.016 A 
ATOM     14  C   UNL     1      52.117  35.756  80.092  1.00  0.00     0.051 A 
ATOM     15  C   UNL     1      51.071  35.133  79.400  1.00  0.00     0.157 A 
ATOM     16  C   UNL     1      52.292  35.422  77.322  1.00  0.00     0.062 A 
ATOM     17  C   UNL     1      51.162  34.962  78.008  1.00  0.00     0.158 A 
BRANCH  15  18
ATOM     18  O   UNL     1      49.947  34.680  80.088  1.00  0.00    -0.504 OA
ATOM     19  H   UNL     1      49.483  35.254  80.783  1.00  0.00     0.293 HD
ENDBRANCH  15  18
BRANCH  17  20
ATOM     20  O   UNL     1      50.145  34.333  77.292  1.00  0.00    -0.504 OA
ATOM     21  H   UNL     1      49.472  33.720  77.737  1.00  0.00     0.293 HD
ENDBRANCH  17  20
ENDBRANCH   1  12
BRANCH   2  22
ATOM     22  O   UNL     1      53.278  38.107  75.954  1.00  0.00    -0.502 OA
ATOM     23  H   UNL     1      52.972  38.218  74.995  1.00  0.00     0.293 HD
ENDBRANCH   2  22
BRANCH   6  24
ATOM     24  O   UNL     1      58.323  38.358  74.268  1.00  0.00    -0.507 OA
ATOM     25  H   UNL     1      58.324  39.367  74.264  1.00  0.00     0.293 HD
ENDBRANCH   6  24
BRANCH   8  26
ATOM     26  O   UNL     1      60.463  35.576  77.521  1.00  0.00    -0.508 OA
ATOM     27  H   UNL     1      60.879  34.751  77.105  1.00  0.00     0.293 HD
ENDBRANCH   8  26
TORSDOF 6
ENDMDL
MODEL 4
REMARK VINA RESULT:    -6.744      1.763      2.028
REMARK INTER + INTRA:          -8.236
REMARK INTER:                  -7.945
REMARK INTRA:                  -0.290
REMARK UNBOUND:                -0.112
REMARK SMILES O=c1c(O)c(-c2ccc(O)c(O)c2)oc2cc(O)cc(O)c12
REMARK SMILES IDX 5 1 3 2 2 3 1 4 22 5 20 6 19 7 17 8 16 9 15 10 14 11 6 12
REMARK SMILES IDX 7 13 8 14 9 15 13 16 11 17 10 18 12 20 4 22 21 24 18 26
REMARK H PARENT 10 19 12 21 4 23 21 25 18 27
REMARK Flexibility Score: inf
ROOT
ATOM      1  C   UNL     1      54.923  36.137  76.187  1.00  0.00     0.180 A 
ATOM      2  C   UNL     1      55.175  35.022  77.005  1.00  0.00     0.208 A 
ATOM      3  C   UNL     1      54.135  34.510  77.797  1.00  0.00     0.238 A 
ATOM      4  O   UNL     1      54.381  33.546  78.568  1.00  0.00    -0.285 OA
ATOM      5  C   UNL     1      52.853  35.107  77.748  1.00  0.00     0.111 A 
ATOM      6  C   UNL     1      51.715  34.644  78.477  1.00  0.00     0.134 A 
ATOM      7  C   UNL     1      50.530  35.391  78.453  1.00  0.00     0.093 A 
ATOM      8  C   UNL     1      50.421  36.543  77.678  1.00  0.00     0.123 A 
ATOM      9  C   UNL     1      51.507  36.971  76.914  1.00  0.00     0.094 A 
ATOM     10  C   UNL     1      52.715  36.269  76.945  1.00  0.00     0.146 A 
ATOM     11  O   UNL     1      53.728  36.716  76.213  1.00  0.00    -0.452 OA
ENDROOT
BRANCH   1  12
ATOM     12  C   UNL     1      55.961  36.719  75.305  1.00  0.00     0.025 A 
ATOM     13  C   UNL     1      56.918  37.591  75.847  1.00  0.00     0.016 A 
ATOM     14  C   UNL     1      57.893  38.168  75.030  1.00  0.00     0.051 A 
ATOM     15  C   UNL     1      57.918  37.892  73.657  1.00  0.00     0.157 A 
ATOM     16  C   UNL     1      55.976  36.461  73.923  1.00  0.00     0.062 A 
ATOM     17  C   UNL     1      56.951  37.038  73.101  1.00  0.00     0.158 A 
BRANCH  15  18
ATOM     18  O   UNL     1      58.893  38.467  72.844  1.00  0.00    -0.504 OA
ATOM     19  H   UNL     1      59.683  37.932  72.503  1.00  0.00     0.293 HD
ENDBRANCH  15  18
BRANCH  17  20
ATOM     20  O   UNL     1      56.939  36.755  71.736  1.00  0.00    -0.504 OA
ATOM     21  H   UNL     1      56.219  36.183  71.310  1.00  0.00     0.293 HD
ENDBRANCH  17  20
ENDBRANCH   1  12
BRANCH   2  22
ATOM     22  O   UNL     1      56.455  34.462  77.055  1.00  0.00    -0.502 OA
ATOM     23  H   UNL     1      57.189  34.723  76.408  1.00  0.00     0.293 HD
ENDBRANCH   2  22
BRANCH   6  24
ATOM     24  O   UNL     1      51.689  33.455  79.210  1.00  0.00    -0.507 OA
ATOM     25  H   UNL     1      51.178  33.319  80.069  1.00  0.00     0.293 HD
ENDBRANCH   6  24
BRANCH   8  26
ATOM     26  O   UNL     1      49.221  37.252  77.665  1.00  0.00    -0.508 OA
ATOM     27  H   UNL     1      49.055  38.026  78.299  1.00  0.00     0.293 HD
ENDBRANCH   8  26
TORSDOF 6
ENDMDL
MODEL 5
REMARK VINA RESULT:    -6.614      2.872      3.924
REMARK INTER + INTRA:          -8.079
REMARK INTER:                  -7.795
REMARK INTRA:                  -0.284
REMARK UNBOUND:                -0.112
REMARK SMILES O=c1c(O)c(-c2ccc(O)c(O)c2)oc2cc(O)cc(O)c12
REMARK SMILES IDX 5 1 3 2 2 3 1 4 22 5 20 6 19 7 17 8 16 9 15 10 14 11 6 12
REMARK SMILES IDX 7 13 8 14 9 15 13 16 11 17 10 18 12 20 4 22 21 24 18 26
REMARK H PARENT 10 19 12 21 4 23 21 25 18 27
REMARK Flexibility Score: inf
ROOT
ATOM      1  C   UNL     1      56.319  36.518  74.741  1.00  0.00     0.180 A 
ATOM      2  C   UNL     1      56.866  35.307  75.199  1.00  0.00     0.208 A 
ATOM      3  C   UNL     1      56.214  34.614  76.232  1.00  0.00     0.238 A 
ATOM      4  O   UNL     1      56.738  33.559  76.675  1.00  0.00    -0.285 OA
ATOM      5  C   UNL     1      55.017  35.131  76.781  1.00  0.00     0.111 A 
ATOM      6  C   UNL     1      54.251  34.491  77.803  1.00  0.00     0.134 A 
ATOM      7  C   UNL     1      53.154  35.157  78.362  1.00  0.00     0.093 A 
ATOM      8  C   UNL     1      52.755  36.408  77.895  1.00  0.00     0.123 A 
ATOM      9  C   UNL     1      53.460  37.016  76.855  1.00  0.00     0.094 A 
ATOM     10  C   UNL     1      54.582  36.393  76.301  1.00  0.00     0.146 A 
ATOM     11  O   UNL     1      55.231  37.011  75.321  1.00  0.00    -0.452 OA
ENDROOT
BRANCH   1  12
ATOM     12  C   UNL     1      56.934  37.294  73.639  1.00  0.00     0.025 A 
ATOM     13  C   UNL     1      58.043  38.111  73.905  1.00  0.00     0.016 A 
ATOM     14  C   UNL     1      58.626  38.867  72.885  1.00  0.00     0.051 A 
ATOM     15  C   UNL     1      58.099  38.829  71.588  1.00  0.00     0.157 A 
ATOM     16  C   UNL     1      56.395  37.273  72.340  1.00  0.00     0.062 A 
ATOM     17  C   UNL     1      56.976  38.031  71.316  1.00  0.00     0.158 A 
BRANCH  15  18
ATOM     18  O   UNL     1      58.684  39.583  70.571  1.00  0.00    -0.504 OA
ATOM     19  H   UNL     1      59.598  40.006  70.683  1.00  0.00     0.293 HD
ENDBRANCH  15  18
BRANCH  17  20
ATOM     20  O   UNL     1      56.419  37.982  70.039  1.00  0.00    -0.504 OA
ATOM     21  H   UNL     1      56.866  38.415  69.240  1.00  0.00     0.293 HD
ENDBRANCH  17  20
ENDBRANCH   1  12
BRANCH   2  22
ATOM     22  O   UNL     1      58.061  34.826  74.658  1.00  0.00    -0.502 OA
ATOM     23  H   UNL     1      58.855  35.427  74.472  1.00  0.00     0.293 HD
ENDBRANCH   2  22
BRANCH   6  24
ATOM     24  O   UNL     1      54.509  33.202  78.279  1.00  0.00    -0.507 OA
ATOM     25  H   UNL     1      55.258  32.961  78.909  1.00  0.00     0.293 HD
ENDBRANCH   6  24
BRANCH   8  26
ATOM     26  O   UNL     1      51.648  37.034  78.464  1.00  0.00    -0.508 OA
ATOM     27  H   UNL     1      51.082  37.691  77.939  1.00  0.00     0.293 HD
ENDBRANCH   8  26
TORSDOF 6
ENDMDL
MODEL 6
REMARK VINA RESULT:    -6.553      2.217      2.655
REMARK INTER + INTRA:          -8.006
REMARK INTER:                  -7.701
REMARK INTRA:                  -0.305
REMARK UNBOUND:                -0.112
REMARK SMILES O=c1c(O)c(-c2ccc(O)c(O)c2)oc2cc(O)cc(O)c12
REMARK SMILES IDX 5 1 3 2 2 3 1 4 22 5 20 6 19 7 17 8 16 9 15 10 14 11 6 12
REMARK SMILES IDX 7 13 8 14 9 15 13 16 11 17 10 18 12 20 4 22 21 24 18 26
REMARK H PARENT 10 19 12 21 4 23 21 25 18 27
REMARK Flexibility Score: inf
ROOT
ATOM      1  C   UNL     1      55.271  37.085  76.732  1.00  0.00     0.180 A 
ATOM      2  C   UNL     1      55.503  37.515  78.050  1.00  0.00     0.208 A 
ATOM      3  C   UNL     1      54.542  37.238  79.036  1.00  0.00     0.238 A 
ATOM      4  O   UNL     1      54.729  37.674  80.202  1.00  0.00    -0.285 OA
ATOM      5  C   UNL     1      53.371  36.519  78.695  1.00  0.00     0.111 A 
ATOM      6  C   UNL     1      52.351  36.147  79.623  1.00  0.00     0.134 A 
ATOM      7  C   UNL     1      51.174  35.551  79.151  1.00  0.00     0.093 A 
ATOM      8  C   UNL     1      51.008  35.255  77.800  1.00  0.00     0.123 A 
ATOM      9  C   UNL     1      52.025  35.560  76.893  1.00  0.00     0.094 A 
ATOM     10  C   UNL     1      53.195  36.188  77.327  1.00  0.00     0.146 A 
ATOM     11  O   UNL     1      54.133  36.471  76.431  1.00  0.00    -0.452 OA
ENDROOT
BRANCH   1  12
ATOM     12  C   UNL     1      56.248  37.317  75.643  1.00  0.00     0.025 A 
ATOM     13  C   UNL     1      56.009  38.334  74.707  1.00  0.00     0.016 A 
ATOM     14  C   UNL     1      56.907  38.557  73.660  1.00  0.00     0.051 A 
ATOM     15  C   UNL     1      58.048  37.758  73.525  1.00  0.00     0.157 A 
ATOM     16  C   UNL     1      57.384  36.503  75.493  1.00  0.00     0.062 A 
ATOM     17  C   UNL     1      58.285  36.722  74.445  1.00  0.00     0.158 A 
BRANCH  15  18
ATOM     18  O   UNL     1      58.943  37.984  72.481  1.00  0.00    -0.504 OA
ATOM     19  H   UNL     1      59.942  37.866  72.603  1.00  0.00     0.293 HD
ENDBRANCH  15  18
BRANCH  17  20
ATOM     20  O   UNL     1      59.405  35.899  74.330  1.00  0.00    -0.504 OA
ATOM     21  H   UNL     1      59.409  35.075  73.740  1.00  0.00     0.293 HD
ENDBRANCH  17  20
ENDBRANCH   1  12
BRANCH   2  22
ATOM     22  O   UNL     1      56.655  38.243  78.359  1.00  0.00    -0.502 OA
ATOM     23  H   UNL     1      56.721  39.244  78.217  1.00  0.00     0.293 HD
ENDBRANCH   2  22
BRANCH   6  24
ATOM     24  O   UNL     1      52.455  36.314  81.007  1.00  0.00    -0.507 OA
ATOM     25  H   UNL     1      52.081  35.677  81.693  1.00  0.00     0.293 HD
ENDBRANCH   6  24
BRANCH   8  26
ATOM     26  O   UNL     1      49.831  34.648  77.369  1.00  0.00    -0.508 OA
ATOM     27  H   UNL     1      49.206  35.106  76.714  1.00  0.00     0.293 HD
ENDBRANCH   8  26
TORSDOF 6
ENDMDL
MODEL 7
REMARK VINA RESULT:    -6.547      1.731      6.902
REMARK INTER + INTRA:          -7.998
REMARK INTER:                  -7.895
REMARK INTRA:                  -0.103
REMARK UNBOUND:                -0.112
REMARK SMILES O=c1c(O)c(-c2ccc(O)c(O)c2)oc2cc(O)cc(O)c12
REMARK SMILES IDX 5 1 3 2 2 3 1 4 22 5 20 6 19 7 17 8 16 9 15 10 14 11 6 12
REMARK SMILES IDX 7 13 8 14 9 15 13 16 11 17 10 18 12 20 4 22 21 24 18 26
REMARK H PARENT 10 19 12 21 4 23 21 25 18 27
REMARK Flexibility Score: inf
ROOT
ATOM      1  C   UNL     1      54.611  36.041  76.332  1.00  0.00     0.180 A 
ATOM      2  C   UNL     1      55.331  34.852  76.534  1.00  0.00     0.208 A 
ATOM      3  C   UNL     1      56.614  34.729  75.975  1.00  0.00     0.238 A 
ATOM      4  O   UNL     1      57.232  33.641  76.113  1.00  0.00    -0.285 OA
ATOM      5  C   UNL     1      57.166  35.803  75.237  1.00  0.00     0.111 A 
ATOM      6  C   UNL     1      58.473  35.804  74.662  1.00  0.00     0.134 A 
ATOM      7  C   UNL     1      58.865  36.869  73.841  1.00  0.00     0.093 A 
ATOM      8  C   UNL     1      58.026  37.961  73.629  1.00  0.00     0.123 A 
ATOM      9  C   UNL     1      56.770  37.999  74.235  1.00  0.00     0.094 A 
ATOM     10  C   UNL     1      56.335  36.935  75.030  1.00  0.00     0.146 A 
ATOM     11  O   UNL     1      55.129  37.005  75.579  1.00  0.00    -0.452 OA
ENDROOT
BRANCH   1  12
ATOM     12  C   UNL     1      53.264  36.255  76.910  1.00  0.00     0.025 A 
ATOM     13  C   UNL     1      52.203  36.624  76.070  1.00  0.00     0.016 A 
ATOM     14  C   UNL     1      50.928  36.850  76.597  1.00  0.00     0.051 A 
ATOM     15  C   UNL     1      50.701  36.727  77.973  1.00  0.00     0.157 A 
ATOM     16  C   UNL     1      53.037  36.152  78.294  1.00  0.00     0.062 A 
ATOM     17  C   UNL     1      51.762  36.380  78.826  1.00  0.00     0.158 A 
BRANCH  15  18
ATOM     18  O   UNL     1      49.428  36.952  78.496  1.00  0.00    -0.504 OA
ATOM     19  H   UNL     1      48.969  37.850  78.406  1.00  0.00     0.293 HD
ENDBRANCH  15  18
BRANCH  17  20
ATOM     20  O   UNL     1      51.571  36.263  80.202  1.00  0.00    -0.504 OA
ATOM     21  H   UNL     1      50.959  36.886  80.715  1.00  0.00     0.293 HD
ENDBRANCH  17  20
ENDBRANCH   1  12
BRANCH   2  22
ATOM     22  O   UNL     1      54.758  33.795  77.248  1.00  0.00    -0.502 OA
ATOM     23  H   UNL     1      54.496  32.921  76.808  1.00  0.00     0.293 HD
ENDBRANCH   2  22
BRANCH   6  24
ATOM     24  O   UNL     1      59.424  34.804  74.885  1.00  0.00    -0.507 OA
ATOM     25  H   UNL     1      59.366  34.107  75.611  1.00  0.00     0.293 HD
ENDBRANCH   6  24
BRANCH   8  26
ATOM     26  O   UNL     1      58.456  39.011  72.819  1.00  0.00    -0.508 OA
ATOM     27  H   UNL     1      59.366  39.440  72.945  1.00  0.00     0.293 HD
ENDBRANCH   8  26
TORSDOF 6
ENDMDL
MODEL 8
REMARK VINA RESULT:    -6.540     11.979     13.671
REMARK INTER + INTRA:          -7.990
REMARK INTER:                  -7.666
REMARK INTRA:                  -0.324
REMARK UNBOUND:                -0.112
REMARK SMILES O=c1c(O)c(-c2ccc(O)c(O)c2)oc2cc(O)cc(O)c12
REMARK SMILES IDX 5 1 3 2 2 3 1 4 22 5 20 6 19 7 17 8 16 9 15 10 14 11 6 12
REMARK SMILES IDX 7 13 8 14 9 15 13 16 11 17 10 18 12 20 4 22 21 24 18 26
REMARK H PARENT 10 19 12 21 4 23 21 25 18 27
REMARK Flexibility Score: inf
ROOT
ATOM      1  C   UNL     1      65.561  40.977  74.186  1.00  0.00     0.180 A 
ATOM      2  C   UNL     1      65.168  41.814  73.127  1.00  0.00     0.208 A 
ATOM      3  C   UNL     1      64.661  41.233  71.953  1.00  0.00     0.238 A 
ATOM      4  O   UNL     1      64.363  41.985  70.988  1.00  0.00    -0.285 OA
ATOM      5  C   UNL     1      64.536  39.827  71.860  1.00  0.00     0.111 A 
ATOM      6  C   UNL     1      63.997  39.134  70.734  1.00  0.00     0.134 A 
ATOM      7  C   UNL     1      64.042  37.735  70.697  1.00  0.00     0.093 A 
ATOM      8  C   UNL     1      64.546  37.003  71.770  1.00  0.00     0.123 A 
ATOM      9  C   UNL     1      65.021  37.668  72.902  1.00  0.00     0.094 A 
ATOM     10  C   UNL     1      65.023  39.064  72.953  1.00  0.00     0.146 A 
ATOM     11  O   UNL     1      65.493  39.658  74.043  1.00  0.00    -0.452 OA
ENDROOT
BRANCH   1  12
ATOM     12  C   UNL     1      66.081  41.515  75.464  1.00  0.00     0.025 A 
ATOM     13  C   UNL     1      67.466  41.546  75.687  1.00  0.00     0.016 A 
ATOM     14  C   UNL     1      67.978  42.030  76.894  1.00  0.00     0.051 A 
ATOM     15  C   UNL     1      67.113  42.475  77.900  1.00  0.00     0.157 A 
ATOM     16  C   UNL     1      65.214  41.944  76.485  1.00  0.00     0.062 A 
ATOM     17  C   UNL     1      65.724  42.428  77.695  1.00  0.00     0.158 A 
BRANCH  15  18
ATOM     18  O   UNL     1      67.626  42.959  79.102  1.00  0.00    -0.504 OA
ATOM     19  H   UNL     1      68.542  43.389  79.154  1.00  0.00     0.293 HD
ENDBRANCH  15  18
BRANCH  17  20
ATOM     20  O   UNL     1      64.835  42.850  78.683  1.00  0.00    -0.504 OA
ATOM     21  H   UNL     1      63.953  42.381  78.850  1.00  0.00     0.293 HD
ENDBRANCH  17  20
ENDBRANCH   1  12
BRANCH   2  22
ATOM     22  O   UNL     1      65.321  43.199  73.231  1.00  0.00    -0.502 OA
ATOM     23  H   UNL     1      65.610  43.775  72.450  1.00  0.00     0.293 HD
ENDBRANCH   2  22
BRANCH   6  24
ATOM     24  O   UNL     1      63.385  39.767  69.647  1.00  0.00    -0.507 OA
ATOM     25  H   UNL     1      62.389  39.836  69.508  1.00  0.00     0.293 HD
ENDBRANCH   6  24
BRANCH   8  26
ATOM     26  O   UNL     1      64.561  35.611  71.707  1.00  0.00    -0.508 OA
ATOM     27  H   UNL     1      65.167  35.115  71.061  1.00  0.00     0.293 HD
ENDBRANCH   8  26
TORSDOF 6
ENDMDL
MODEL 9
REMARK VINA RESULT:    -6.387      3.195      4.031
REMARK INTER + INTRA:          -7.806
REMARK INTER:                  -7.962
REMARK INTRA:                   0.157
REMARK UNBOUND:                -0.112
REMARK SMILES O=c1c(O)c(-c2ccc(O)c(O)c2)oc2cc(O)cc(O)c12
REMARK SMILES IDX 5 1 3 2 2 3 1 4 22 5 20 6 19 7 17 8 16 9 15 10 14 11 6 12
REMARK SMILES IDX 7 13 8 14 9 15 13 16 11 17 10 18 12 20 4 22 21 24 18 26
REMARK H PARENT 10 19 12 21 4 23 21 25 18 27
REMARK Flexibility Score: inf
ROOT
ATOM      1  C   UNL     1      55.622  37.928  75.638  1.00  0.00     0.180 A 
ATOM      2  C   UNL     1      56.253  38.016  76.890  1.00  0.00     0.208 A 
ATOM      3  C   UNL     1      55.515  37.723  78.048  1.00  0.00     0.238 A 
ATOM      4  O   UNL     1      56.071  37.858  79.169  1.00  0.00    -0.285 OA
ATOM      5  C   UNL     1      54.160  37.329  77.938  1.00  0.00     0.111 A 
ATOM      6  C   UNL     1      53.329  36.969  79.042  1.00  0.00     0.134 A 
ATOM      7  C   UNL     1      51.967  36.722  78.828  1.00  0.00     0.093 A 
ATOM      8  C   UNL     1      51.421  36.757  77.547  1.00  0.00     0.123 A 
ATOM      9  C   UNL     1      52.237  37.049  76.453  1.00  0.00     0.094 A 
ATOM     10  C   UNL     1      53.592  37.336  76.637  1.00  0.00     0.146 A 
ATOM     11  O   UNL     1      54.331  37.619  75.572  1.00  0.00    -0.452 OA
ENDROOT
BRANCH   1  12
ATOM     12  C   UNL     1      56.340  38.197  74.371  1.00  0.00     0.025 A 
ATOM     13  C   UNL     1      57.656  37.738  74.212  1.00  0.00     0.016 A 
ATOM     14  C   UNL     1      58.360  37.998  73.033  1.00  0.00     0.051 A 
ATOM     15  C   UNL     1      57.762  38.734  72.002  1.00  0.00     0.157 A 
ATOM     16  C   UNL     1      55.750  38.952  73.341  1.00  0.00     0.062 A 
ATOM     17  C   UNL     1      56.452  39.216  72.159  1.00  0.00     0.158 A 
BRANCH  15  18
ATOM     18  O   UNL     1      58.465  38.990  70.826  1.00  0.00    -0.504 OA
ATOM     19  H   UNL     1      58.215  38.546  69.950  1.00  0.00     0.293 HD
ENDBRANCH  15  18
BRANCH  17  20
ATOM     20  O   UNL     1      55.834  39.963  71.157  1.00  0.00    -0.504 OA
ATOM     21  H   UNL     1      55.186  40.713  71.367  1.00  0.00     0.293 HD
ENDBRANCH  17  20
ENDBRANCH   1  12
BRANCH   2  22
ATOM     22  O   UNL     1      57.586  38.429  76.977  1.00  0.00    -0.502 OA
ATOM     23  H   UNL     1      57.852  39.333  77.349  1.00  0.00     0.293 HD
ENDBRANCH   2  22
BRANCH   6  24
ATOM     24  O   UNL     1      53.794  36.816  80.351  1.00  0.00    -0.507 OA
ATOM     25  H   UNL     1      54.015  37.576  80.976  1.00  0.00     0.293 HD
ENDBRANCH   6  24
BRANCH   8  26
ATOM     26  O   UNL     1      50.065  36.490  77.369  1.00  0.00    -0.508 OA
ATOM     27  H   UNL     1      49.456  36.289  78.156  1.00  0.00     0.293 HD
ENDBRANCH   8  26
TORSDOF 6
ENDMDL
