MODEL 1
REMARK VINA RESULT:    -4.692      0.000      0.000
REMARK INTER + INTRA:          -5.581
REMARK INTER:                  -5.515
REMARK INTRA:                  -0.066
REMARK UNBOUND:                -0.066
REMARK SMILES O=c1c(O)c(-c2ccc(O)cc2)oc2cc(O)cc(O)c12
REMARK SMILES IDX 5 1 3 2 2 3 1 4 21 5 19 6 18 7 16 8 15 9 14 10 13 11 6 12
REMARK SMILES IDX 7 13 8 14 9 15 12 16 11 17 10 18 4 20 20 22 17 24
REMARK H PARENT 10 19 4 21 20 23 17 25
REMARK Flexibility Score: inf
ROOT
ATOM      1  C   UNL     1      -3.143   9.122   7.593  1.00  0.00     0.180 A 
ATOM      2  C   UNL     1      -3.170   9.800   6.360  1.00  0.00     0.208 A 
ATOM      3  C   UNL     1      -2.036  10.523   5.957  1.00  0.00     0.238 A 
ATOM      4  O   UNL     1      -2.053  11.143   4.860  1.00  0.00    -0.285 OA
ATOM      5  C   UNL     1      -0.892  10.540   6.782  1.00  0.00     0.111 A 
ATOM      6  C   UNL     1       0.292  11.241   6.448  1.00  0.00     0.134 A 
ATOM      7  C   UNL     1       1.392  11.201   7.317  1.00  0.00     0.093 A 
ATOM      8  C   UNL     1       1.332  10.477   8.510  1.00  0.00     0.123 A 
ATOM      9  C   UNL     1       0.165   9.783   8.845  1.00  0.00     0.094 A 
ATOM     10  C   UNL     1      -0.943   9.812   7.993  1.00  0.00     0.146 A 
ATOM     11  O   UNL     1      -2.041   9.148   8.337  1.00  0.00    -0.452 OA
ENDROOT
BRANCH   1  12
ATOM     12  C   UNL     1      -4.305   8.354   8.096  1.00  0.00     0.021 A 
ATOM     13  C   UNL     1      -4.915   8.734   9.303  1.00  0.00     0.016 A 
ATOM     14  C   UNL     1      -6.027   8.036   9.785  1.00  0.00     0.047 A 
ATOM     15  C   UNL     1      -6.552   6.962   9.060  1.00  0.00     0.115 A 
ATOM     16  C   UNL     1      -4.850   7.285   7.362  1.00  0.00     0.016 A 
ATOM     17  C   UNL     1      -5.962   6.590   7.845  1.00  0.00     0.047 A 
BRANCH  15  18
ATOM     18  O   UNL     1      -7.660   6.276   9.552  1.00  0.00    -0.508 OA
ATOM     19  H   UNL     1      -7.581   5.332   9.912  1.00  0.00     0.293 HD
ENDBRANCH  15  18
ENDBRANCH   1  12
BRANCH   2  20
ATOM     20  O   UNL     1      -4.298   9.726   5.539  1.00  0.00    -0.502 OA
ATOM     21  H   UNL     1      -5.241   9.732   5.908  1.00  0.00     0.293 HD
ENDBRANCH   2  20
BRANCH   6  22
ATOM     22  O   UNL     1       0.384  11.973   5.264  1.00  0.00    -0.507 OA
ATOM     23  H   UNL     1       0.069  12.934   5.206  1.00  0.00     0.293 HD
ENDBRANCH   6  22
BRANCH   8  24
ATOM     24  O   UNL     1       2.439  10.453   9.355  1.00  0.00    -0.508 OA
ATOM     25  H   UNL     1       3.319  10.040   9.065  1.00  0.00     0.293 HD
ENDBRANCH   8  24
TORSDOF 5
ENDMDL
MODEL 2
REMARK VINA RESULT:    -4.595      2.075      6.941
REMARK INTER + INTRA:          -5.467
REMARK INTER:                  -5.241
REMARK INTRA:                  -0.227
REMARK UNBOUND:                -0.066
REMARK SMILES O=c1c(O)c(-c2ccc(O)cc2)oc2cc(O)cc(O)c12
REMARK SMILES IDX 5 1 3 2 2 3 1 4 21 5 19 6 18 7 16 8 15 9 14 10 13 11 6 12
REMARK SMILES IDX 7 13 8 14 9 15 12 16 11 17 10 18 4 20 20 22 17 24
REMARK H PARENT 10 19 4 21 20 23 17 25
REMARK Flexibility Score: inf
ROOT
ATOM      1  C   UNL     1      -2.359  10.325   6.555  1.00  0.00     0.180 A 
ATOM      2  C   UNL     1      -2.868  10.988   7.688  1.00  0.00     0.208 A 
ATOM      3  C   UNL     1      -4.008  10.469   8.323  1.00  0.00     0.238 A 
ATOM      4  O   UNL     1      -4.480  11.060   9.331  1.00  0.00    -0.285 OA
ATOM      5  C   UNL     1      -4.605   9.290   7.829  1.00  0.00     0.111 A 
ATOM      6  C   UNL     1      -5.752   8.700   8.412  1.00  0.00     0.134 A 
ATOM      7  C   UNL     1      -6.281   7.522   7.867  1.00  0.00     0.093 A 
ATOM      8  C   UNL     1      -5.688   6.922   6.754  1.00  0.00     0.123 A 
ATOM      9  C   UNL     1      -4.554   7.500   6.173  1.00  0.00     0.094 A 
ATOM     10  C   UNL     1      -4.013   8.676   6.700  1.00  0.00     0.146 A 
ATOM     11  O   UNL     1      -2.939   9.207   6.127  1.00  0.00    -0.452 OA
ENDROOT
BRANCH   1  12
ATOM     12  C   UNL     1      -1.172  10.820   5.820  1.00  0.00     0.021 A 
ATOM     13  C   UNL     1       0.108  10.624   6.362  1.00  0.00     0.016 A 
ATOM     14  C   UNL     1       1.244  11.064   5.675  1.00  0.00     0.047 A 
ATOM     15  C   UNL     1       1.114  11.691   4.432  1.00  0.00     0.115 A 
ATOM     16  C   UNL     1      -1.294  11.435   4.561  1.00  0.00     0.016 A 
ATOM     17  C   UNL     1      -0.157  11.873   3.875  1.00  0.00     0.047 A 
BRANCH  15  18
ATOM     18  O   UNL     1       2.255  12.125   3.758  1.00  0.00    -0.508 OA
ATOM     19  H   UNL     1       3.007  11.487   3.526  1.00  0.00     0.293 HD
ENDBRANCH  15  18
ENDBRANCH   1  12
BRANCH   2  20
ATOM     20  O   UNL     1      -2.229  12.125   8.187  1.00  0.00    -0.502 OA
ATOM     21  H   UNL     1      -2.071  12.269   9.177  1.00  0.00     0.293 HD
ENDBRANCH   2  20
BRANCH   6  22
ATOM     22  O   UNL     1      -6.368   9.274   9.524  1.00  0.00    -0.507 OA
ATOM     23  H   UNL     1      -5.939  10.035  10.039  1.00  0.00     0.293 HD
ENDBRANCH   6  22
BRANCH   8  24
ATOM     24  O   UNL     1      -6.232   5.750   6.233  1.00  0.00    -0.508 OA
ATOM     25  H   UNL     1      -5.761   5.225   5.505  1.00  0.00     0.293 HD
ENDBRANCH   8  24
TORSDOF 5
ENDMDL
MODEL 3
REMARK VINA RESULT:    -4.490      1.651      6.623
REMARK INTER + INTRA:          -5.343
REMARK INTER:                  -5.256
REMARK INTRA:                  -0.088
REMARK UNBOUND:                -0.066
REMARK SMILES O=c1c(O)c(-c2ccc(O)cc2)oc2cc(O)cc(O)c12
REMARK SMILES IDX 5 1 3 2 2 3 1 4 21 5 19 6 18 7 16 8 15 9 14 10 13 11 6 12
REMARK SMILES IDX 7 13 8 14 9 15 12 16 11 17 10 18 4 20 20 22 17 24
REMARK H PARENT 10 19 4 21 20 23 17 25
REMARK Flexibility Score: inf
ROOT
ATOM      1  C   UNL     1      -2.491  10.258   6.762  1.00  0.00     0.180 A 
ATOM      2  C   UNL     1      -3.528  10.995   6.159  1.00  0.00     0.208 A 
ATOM      3  C   UNL     1      -4.857  10.596   6.371  1.00  0.00     0.238 A 
ATOM      4  O   UNL     1      -5.793  11.242   5.828  1.00  0.00    -0.285 OA
ATOM      5  C   UNL     1      -5.128   9.484   7.195  1.00  0.00     0.111 A 
ATOM      6  C   UNL     1      -6.438   9.019   7.462  1.00  0.00     0.134 A 
ATOM      7  C   UNL     1      -6.625   7.910   8.300  1.00  0.00     0.093 A 
ATOM      8  C   UNL     1      -5.532   7.259   8.875  1.00  0.00     0.123 A 
ATOM      9  C   UNL     1      -4.235   7.713   8.615  1.00  0.00     0.094 A 
ATOM     10  C   UNL     1      -4.027   8.815   7.780  1.00  0.00     0.146 A 
ATOM     11  O   UNL     1      -2.786   9.223   7.545  1.00  0.00    -0.452 OA
ENDROOT
BRANCH   1  12
ATOM     12  C   UNL     1      -1.064  10.604   6.571  1.00  0.00     0.021 A 
ATOM     13  C   UNL     1      -0.519  10.597   5.277  1.00  0.00     0.016 A 
ATOM     14  C   UNL     1       0.821  10.942   5.071  1.00  0.00     0.047 A 
ATOM     15  C   UNL     1       1.626  11.313   6.152  1.00  0.00     0.115 A 
ATOM     16  C   UNL     1      -0.254  10.997   7.652  1.00  0.00     0.016 A 
ATOM     17  C   UNL     1       1.084  11.342   7.443  1.00  0.00     0.047 A 
BRANCH  15  18
ATOM     18  O   UNL     1       2.959  11.654   5.933  1.00  0.00    -0.508 OA
ATOM     19  H   UNL     1       3.397  12.422   6.428  1.00  0.00     0.293 HD
ENDBRANCH  15  18
ENDBRANCH   1  12
BRANCH   2  20
ATOM     20  O   UNL     1      -3.236  12.123   5.389  1.00  0.00    -0.502 OA
ATOM     21  H   UNL     1      -3.702  12.317   4.510  1.00  0.00     0.293 HD
ENDBRANCH   2  20
BRANCH   6  22
ATOM     22  O   UNL     1      -7.551   9.648   6.904  1.00  0.00    -0.507 OA
ATOM     23  H   UNL     1      -7.660  10.655   6.923  1.00  0.00     0.293 HD
ENDBRANCH   6  22
BRANCH   8  24
ATOM     24  O   UNL     1      -5.745   6.161   9.705  1.00  0.00    -0.508 OA
ATOM     25  H   UNL     1      -6.536   6.121  10.339  1.00  0.00     0.293 HD
ENDBRANCH   8  24
TORSDOF 5
ENDMDL
MODEL 4
REMARK VINA RESULT:    -4.394      1.962      6.855
REMARK INTER + INTRA:          -5.230
REMARK INTER:                  -4.941
REMARK INTRA:                  -0.290
REMARK UNBOUND:                -0.066
REMARK SMILES O=c1c(O)c(-c2ccc(O)cc2)oc2cc(O)cc(O)c12
REMARK SMILES IDX 5 1 3 2 2 3 1 4 21 5 19 6 18 7 16 8 15 9 14 10 13 11 6 12
REMARK SMILES IDX 7 13 8 14 9 15 12 16 11 17 10 18 4 20 20 22 17 24
REMARK H PARENT 10 19 4 21 20 23 17 25
REMARK Flexibility Score: inf
ROOT
ATOM      1  C   UNL     1      -1.867   9.716   8.493  1.00  0.00     0.180 A 
ATOM      2  C   UNL     1      -2.704  10.483   9.325  1.00  0.00     0.208 A 
ATOM      3  C   UNL     1      -4.071  10.167   9.390  1.00  0.00     0.238 A 
ATOM      4  O   UNL     1      -4.832  10.853  10.123  1.00  0.00    -0.285 OA
ATOM      5  C   UNL     1      -4.571   9.082   8.640  1.00  0.00     0.111 A 
ATOM      6  C   UNL     1      -5.933   8.696   8.651  1.00  0.00     0.134 A 
ATOM      7  C   UNL     1      -6.351   7.599   7.884  1.00  0.00     0.093 A 
ATOM      8  C   UNL     1      -5.438   6.882   7.108  1.00  0.00     0.123 A 
ATOM      9  C   UNL     1      -4.091   7.259   7.092  1.00  0.00     0.094 A 
ATOM     10  C   UNL     1      -3.655   8.351   7.848  1.00  0.00     0.146 A 
ATOM     11  O   UNL     1      -2.372   8.691   7.812  1.00  0.00    -0.452 OA
ENDROOT
BRANCH   1  12
ATOM     12  C   UNL     1      -0.419   9.999   8.357  1.00  0.00     0.021 A 
ATOM     13  C   UNL     1       0.021  10.885   7.360  1.00  0.00     0.016 A 
ATOM     14  C   UNL     1       1.380  11.183   7.227  1.00  0.00     0.047 A 
ATOM     15  C   UNL     1       2.314  10.613   8.098  1.00  0.00     0.115 A 
ATOM     16  C   UNL     1       0.522   9.443   9.242  1.00  0.00     0.016 A 
ATOM     17  C   UNL     1       1.881   9.744   9.108  1.00  0.00     0.047 A 
BRANCH  15  18
ATOM     18  O   UNL     1       3.666  10.919   7.955  1.00  0.00    -0.508 OA
ATOM     19  H   UNL     1       4.333  10.730   8.694  1.00  0.00     0.293 HD
ENDBRANCH  15  18
ENDBRANCH   1  12
BRANCH   2  20
ATOM     20  O   UNL     1      -2.175  11.520  10.096  1.00  0.00    -0.502 OA
ATOM     21  H   UNL     1      -2.516  11.736  11.025  1.00  0.00     0.293 HD
ENDBRANCH   2  20
BRANCH   6  22
ATOM     22  O   UNL     1      -6.870   9.391   9.416  1.00  0.00    -0.507 OA
ATOM     23  H   UNL     1      -7.442   8.926  10.112  1.00  0.00     0.293 HD
ENDBRANCH   6  22
BRANCH   8  24
ATOM     24  O   UNL     1      -5.879   5.795   6.357  1.00  0.00    -0.508 OA
ATOM     25  H   UNL     1      -5.419   4.893   6.409  1.00  0.00     0.293 HD
ENDBRANCH   8  24
TORSDOF 5
ENDMDL
MODEL 5
REMARK VINA RESULT:    -4.202      1.636      3.248
REMARK INTER + INTRA:          -5.005
REMARK INTER:                  -4.711
REMARK INTRA:                  -0.293
REMARK UNBOUND:                -0.066
REMARK SMILES O=c1c(O)c(-c2ccc(O)cc2)oc2cc(O)cc(O)c12
REMARK SMILES IDX 5 1 3 2 2 3 1 4 21 5 19 6 18 7 16 8 15 9 14 10 13 11 6 12
REMARK SMILES IDX 7 13 8 14 9 15 12 16 11 17 10 18 4 20 20 22 17 24
REMARK H PARENT 10 19 4 21 20 23 17 25
REMARK Flexibility Score: inf
ROOT
ATOM      1  C   UNL     1      -2.035   9.964   7.273  1.00  0.00     0.180 A 
ATOM      2  C   UNL     1      -1.192  10.076   8.395  1.00  0.00     0.208 A 
ATOM      3  C   UNL     1       0.110  10.573   8.220  1.00  0.00     0.238 A 
ATOM      4  O   UNL     1       0.877  10.667   9.215  1.00  0.00    -0.285 OA
ATOM      5  C   UNL     1       0.537  10.968   6.935  1.00  0.00     0.111 A 
ATOM      6  C   UNL     1       1.830  11.483   6.674  1.00  0.00     0.134 A 
ATOM      7  C   UNL     1       2.177  11.862   5.369  1.00  0.00     0.093 A 
ATOM      8  C   UNL     1       1.260  11.739   4.323  1.00  0.00     0.123 A 
ATOM      9  C   UNL     1      -0.019  11.231   4.575  1.00  0.00     0.094 A 
ATOM     10  C   UNL     1      -0.383  10.845   5.868  1.00  0.00     0.146 A 
ATOM     11  O   UNL     1      -1.601  10.360   6.080  1.00  0.00    -0.452 OA
ENDROOT
BRANCH   1  12
ATOM     12  C   UNL     1      -3.413   9.431   7.373  1.00  0.00     0.021 A 
ATOM     13  C   UNL     1      -4.495  10.323   7.450  1.00  0.00     0.016 A 
ATOM     14  C   UNL     1      -5.806   9.842   7.523  1.00  0.00     0.047 A 
ATOM     15  C   UNL     1      -6.052   8.466   7.505  1.00  0.00     0.115 A 
ATOM     16  C   UNL     1      -3.668   8.048   7.337  1.00  0.00     0.016 A 
ATOM     17  C   UNL     1      -4.980   7.570   7.409  1.00  0.00     0.047 A 
BRANCH  15  18
ATOM     18  O   UNL     1      -7.363   8.001   7.579  1.00  0.00    -0.508 OA
ATOM     19  H   UNL     1      -8.146   8.637   7.673  1.00  0.00     0.293 HD
ENDBRANCH  15  18
ENDBRANCH   1  12
BRANCH   2  20
ATOM     20  O   UNL     1      -1.656   9.725   9.665  1.00  0.00    -0.502 OA
ATOM     21  H   UNL     1      -2.176  10.367  10.250  1.00  0.00     0.293 HD
ENDBRANCH   2  20
BRANCH   6  22
ATOM     22  O   UNL     1       2.769  11.620   7.697  1.00  0.00    -0.507 OA
ATOM     23  H   UNL     1       2.559  11.355   8.653  1.00  0.00     0.293 HD
ENDBRANCH   6  22
BRANCH   8  24
ATOM     24  O   UNL     1       1.629  12.124   3.037  1.00  0.00    -0.508 OA
ATOM     25  H   UNL     1       1.199  11.712   2.216  1.00  0.00     0.293 HD
ENDBRANCH   8  24
TORSDOF 5
ENDMDL
MODEL 6
REMARK VINA RESULT:    -4.004      4.923      7.529
REMARK INTER + INTRA:          -4.773
REMARK INTER:                  -4.881
REMARK INTRA:                   0.108
REMARK UNBOUND:                -0.066
REMARK SMILES O=c1c(O)c(-c2ccc(O)cc2)oc2cc(O)cc(O)c12
REMARK SMILES IDX 5 1 3 2 2 3 1 4 21 5 19 6 18 7 16 8 15 9 14 10 13 11 6 12
REMARK SMILES IDX 7 13 8 14 9 15 12 16 11 17 10 18 4 20 20 22 17 24
REMARK H PARENT 10 19 4 21 20 23 17 25
REMARK Flexibility Score: inf
ROOT
ATOM      1  C   UNL     1       3.872   9.827   7.758  1.00  0.00     0.180 A 
ATOM      2  C   UNL     1       4.212  10.213   6.447  1.00  0.00     0.208 A 
ATOM      3  C   UNL     1       5.438   9.790   5.911  1.00  0.00     0.238 A 
ATOM      4  O   UNL     1       5.758  10.138   4.743  1.00  0.00    -0.285 OA
ATOM      5  C   UNL     1       6.293   8.976   6.684  1.00  0.00     0.111 A 
ATOM      6  C   UNL     1       7.543   8.504   6.217  1.00  0.00     0.134 A 
ATOM      7  C   UNL     1       8.332   7.691   7.043  1.00  0.00     0.093 A 
ATOM      8  C   UNL     1       7.897   7.339   8.323  1.00  0.00     0.123 A 
ATOM      9  C   UNL     1       6.662   7.802   8.790  1.00  0.00     0.094 A 
ATOM     10  C   UNL     1       5.862   8.616   7.982  1.00  0.00     0.146 A 
ATOM     11  O   UNL     1       4.697   9.047   8.451  1.00  0.00    -0.452 OA
ENDROOT
BRANCH   1  12
ATOM     12  C   UNL     1       2.606  10.248   8.400  1.00  0.00     0.021 A 
ATOM     13  C   UNL     1       2.196  11.589   8.306  1.00  0.00     0.016 A 
ATOM     14  C   UNL     1       0.993  12.004   8.886  1.00  0.00     0.047 A 
ATOM     15  C   UNL     1       0.179  11.083   9.551  1.00  0.00     0.115 A 
ATOM     16  C   UNL     1       1.773   9.323   9.055  1.00  0.00     0.016 A 
ATOM     17  C   UNL     1       0.570   9.741   9.632  1.00  0.00     0.047 A 
BRANCH  15  18
ATOM     18  O   UNL     1      -1.017  11.511  10.125  1.00  0.00    -0.508 OA
ATOM     19  H   UNL     1      -1.432  12.402   9.881  1.00  0.00     0.293 HD
ENDBRANCH  15  18
ENDBRANCH   1  12
BRANCH   2  20
ATOM     20  O   UNL     1       3.326  10.977   5.685  1.00  0.00    -0.502 OA
ATOM     21  H   UNL     1       3.639  11.710   5.060  1.00  0.00     0.293 HD
ENDBRANCH   2  20
BRANCH   6  22
ATOM     22  O   UNL     1       8.007   8.837   4.944  1.00  0.00    -0.507 OA
ATOM     23  H   UNL     1       8.278   9.784   4.705  1.00  0.00     0.293 HD
ENDBRANCH   6  22
BRANCH   8  24
ATOM     24  O   UNL     1       8.698   6.529   9.123  1.00  0.00    -0.508 OA
ATOM     25  H   UNL     1       9.450   6.915   9.684  1.00  0.00     0.293 HD
ENDBRANCH   8  24
TORSDOF 5
ENDMDL
MODEL 7
REMARK VINA RESULT:    -3.998      1.411      6.590
REMARK INTER + INTRA:          -4.765
REMARK INTER:                  -4.514
REMARK INTRA:                  -0.251
REMARK UNBOUND:                -0.066
REMARK SMILES O=c1c(O)c(-c2ccc(O)cc2)oc2cc(O)cc(O)c12
REMARK SMILES IDX 5 1 3 2 2 3 1 4 21 5 19 6 18 7 16 8 15 9 14 10 13 11 6 12
REMARK SMILES IDX 7 13 8 14 9 15 12 16 11 17 10 18 4 20 20 22 17 24
REMARK H PARENT 10 19 4 21 20 23 17 25
REMARK Flexibility Score: inf
ROOT
ATOM      1  C   UNL     1      -0.369  10.256   7.912  1.00  0.00     0.180 A 
ATOM      2  C   UNL     1      -0.785  10.793   6.679  1.00  0.00     0.208 A 
ATOM      3  C   UNL     1      -2.035  10.417   6.161  1.00  0.00     0.238 A 
ATOM      4  O   UNL     1      -2.413  10.883   5.053  1.00  0.00    -0.285 OA
ATOM      5  C   UNL     1      -2.852   9.529   6.891  1.00  0.00     0.111 A 
ATOM      6  C   UNL     1      -4.126   9.103   6.442  1.00  0.00     0.134 A 
ATOM      7  C   UNL     1      -4.883   8.224   7.231  1.00  0.00     0.093 A 
ATOM      8  C   UNL     1      -4.395   7.765   8.456  1.00  0.00     0.123 A 
ATOM      9  C   UNL     1      -3.137   8.183   8.905  1.00  0.00     0.094 A 
ATOM     10  C   UNL     1      -2.366   9.056   8.132  1.00  0.00     0.146 A 
ATOM     11  O   UNL     1      -1.173   9.433   8.579  1.00  0.00    -0.452 OA
ENDROOT
BRANCH   1  12
ATOM     12  C   UNL     1       0.942  10.589   8.514  1.00  0.00     0.021 A 
ATOM     13  C   UNL     1       2.016   9.695   8.370  1.00  0.00     0.016 A 
ATOM     14  C   UNL     1       3.269  10.000   8.912  1.00  0.00     0.047 A 
ATOM     15  C   UNL     1       3.468  11.207   9.588  1.00  0.00     0.115 A 
ATOM     16  C   UNL     1       1.154  11.810   9.179  1.00  0.00     0.016 A 
ATOM     17  C   UNL     1       2.408  12.113   9.719  1.00  0.00     0.047 A 
BRANCH  15  18
ATOM     18  O   UNL     1       4.721  11.497  10.123  1.00  0.00    -0.508 OA
ATOM     19  H   UNL     1       4.886  11.483  11.123  1.00  0.00     0.293 HD
ENDBRANCH  15  18
ENDBRANCH   1  12
BRANCH   2  20
ATOM     20  O   UNL     1       0.022  11.709   6.000  1.00  0.00    -0.502 OA
ATOM     21  H   UNL     1       0.536  12.439   6.478  1.00  0.00     0.293 HD
ENDBRANCH   2  20
BRANCH   6  22
ATOM     22  O   UNL     1      -4.642   9.543   5.223  1.00  0.00    -0.507 OA
ATOM     23  H   UNL     1      -4.543   8.999   4.374  1.00  0.00     0.293 HD
ENDBRANCH   6  22
BRANCH   8  24
ATOM     24  O   UNL     1      -5.167   6.895   9.221  1.00  0.00    -0.508 OA
ATOM     25  H   UNL     1      -4.875   5.939   9.393  1.00  0.00     0.293 HD
ENDBRANCH   8  24
TORSDOF 5
ENDMDL
MODEL 8
REMARK VINA RESULT:    -3.845      4.498      7.084
REMARK INTER + INTRA:          -4.585
REMARK INTER:                  -4.526
REMARK INTRA:                  -0.059
REMARK UNBOUND:                -0.066
REMARK SMILES O=c1c(O)c(-c2ccc(O)cc2)oc2cc(O)cc(O)c12
REMARK SMILES IDX 5 1 3 2 2 3 1 4 21 5 19 6 18 7 16 8 15 9 14 10 13 11 6 12
REMARK SMILES IDX 7 13 8 14 9 15 12 16 11 17 10 18 4 20 20 22 17 24
REMARK H PARENT 10 19 4 21 20 23 17 25
REMARK Flexibility Score: inf
ROOT
ATOM      1  C   UNL     1       3.009  10.617   5.812  1.00  0.00     0.180 A 
ATOM      2  C   UNL     1       3.837  11.002   4.740  1.00  0.00     0.208 A 
ATOM      3  C   UNL     1       5.176  10.579   4.730  1.00  0.00     0.238 A 
ATOM      4  O   UNL     1       5.929  10.927   3.782  1.00  0.00    -0.285 OA
ATOM      5  C   UNL     1       5.657   9.766   5.777  1.00  0.00     0.111 A 
ATOM      6  C   UNL     1       6.991   9.295   5.841  1.00  0.00     0.134 A 
ATOM      7  C   UNL     1       7.391   8.482   6.911  1.00  0.00     0.093 A 
ATOM      8  C   UNL     1       6.487   8.130   7.916  1.00  0.00     0.123 A 
ATOM      9  C   UNL     1       5.168   8.593   7.859  1.00  0.00     0.094 A 
ATOM     10  C   UNL     1       4.750   9.407   6.802  1.00  0.00     0.146 A 
ATOM     11  O   UNL     1       3.494   9.837   6.774  1.00  0.00    -0.452 OA
ENDROOT
BRANCH   1  12
ATOM     12  C   UNL     1       1.592  11.038   5.903  1.00  0.00     0.021 A 
ATOM     13  C   UNL     1       0.694  10.666   4.889  1.00  0.00     0.016 A 
ATOM     14  C   UNL     1      -0.653  11.034   4.966  1.00  0.00     0.047 A 
ATOM     15  C   UNL     1      -1.121  11.764   6.063  1.00  0.00     0.115 A 
ATOM     16  C   UNL     1       1.111  11.757   7.013  1.00  0.00     0.016 A 
ATOM     17  C   UNL     1      -0.236  12.122   7.087  1.00  0.00     0.047 A 
BRANCH  15  18
ATOM     18  O   UNL     1      -2.466  12.124   6.126  1.00  0.00    -0.508 OA
ATOM     19  H   UNL     1      -3.189  11.541   5.723  1.00  0.00     0.293 HD
ENDBRANCH  15  18
ENDBRANCH   1  12
BRANCH   2  20
ATOM     20  O   UNL     1       3.323  11.766   3.690  1.00  0.00    -0.502 OA
ATOM     21  H   UNL     1       3.769  11.812   2.782  1.00  0.00     0.293 HD
ENDBRANCH   2  20
BRANCH   6  22
ATOM     22  O   UNL     1       7.918   9.627   4.853  1.00  0.00    -0.507 OA
ATOM     23  H   UNL     1       8.693   9.017   4.622  1.00  0.00     0.293 HD
ENDBRANCH   6  22
BRANCH   8  24
ATOM     24  O   UNL     1       6.909   7.321   8.968  1.00  0.00    -0.508 OA
ATOM     25  H   UNL     1       7.888   7.093   9.101  1.00  0.00     0.293 HD
ENDBRANCH   8  24
TORSDOF 5
ENDMDL
MODEL 9
REMARK VINA RESULT:    -3.794      5.409      8.574
REMARK INTER + INTRA:          -4.526
REMARK INTER:                  -4.532
REMARK INTRA:                   0.006
REMARK UNBOUND:                -0.066
REMARK SMILES O=c1c(O)c(-c2ccc(O)cc2)oc2cc(O)cc(O)c12
REMARK SMILES IDX 5 1 3 2 2 3 1 4 21 5 19 6 18 7 16 8 15 9 14 10 13 11 6 12
REMARK SMILES IDX 7 13 8 14 9 15 12 16 11 17 10 18 4 20 20 22 17 24
REMARK H PARENT 10 19 4 21 20 23 17 25
REMARK Flexibility Score: inf
ROOT
ATOM      1  C   UNL     1       4.704   9.474   7.947  1.00  0.00     0.180 A 
ATOM      2  C   UNL     1       5.519   8.519   8.585  1.00  0.00     0.208 A 
ATOM      3  C   UNL     1       6.706   8.109   7.956  1.00  0.00     0.238 A 
ATOM      4  O   UNL     1       7.437   7.247   8.512  1.00  0.00    -0.285 OA
ATOM      5  C   UNL     1       7.066   8.674   6.714  1.00  0.00     0.111 A 
ATOM      6  C   UNL     1       8.246   8.319   6.017  1.00  0.00     0.134 A 
ATOM      7  C   UNL     1       8.539   8.933   4.790  1.00  0.00     0.093 A 
ATOM      8  C   UNL     1       7.680   9.892   4.249  1.00  0.00     0.123 A 
ATOM      9  C   UNL     1       6.513  10.246   4.934  1.00  0.00     0.094 A 
ATOM     10  C   UNL     1       6.202   9.644   6.157  1.00  0.00     0.146 A 
ATOM     11  O   UNL     1       5.085   9.995   6.784  1.00  0.00    -0.452 OA
ENDROOT
BRANCH   1  12
ATOM     12  C   UNL     1       3.430   9.942   8.538  1.00  0.00     0.021 A 
ATOM     13  C   UNL     1       3.155  11.318   8.587  1.00  0.00     0.016 A 
ATOM     14  C   UNL     1       1.949  11.781   9.120  1.00  0.00     0.047 A 
ATOM     15  C   UNL     1       0.996  10.875   9.596  1.00  0.00     0.115 A 
ATOM     16  C   UNL     1       2.459   9.034   9.001  1.00  0.00     0.016 A 
ATOM     17  C   UNL     1       1.253   9.500   9.532  1.00  0.00     0.047 A 
BRANCH  15  18
ATOM     18  O   UNL     1      -0.202  11.351  10.125  1.00  0.00    -0.508 OA
ATOM     19  H   UNL     1      -0.936  11.716   9.529  1.00  0.00     0.293 HD
ENDBRANCH  15  18
ENDBRANCH   1  12
BRANCH   2  20
ATOM     20  O   UNL     1       5.164   8.012   9.837  1.00  0.00    -0.502 OA
ATOM     21  H   UNL     1       5.400   7.071  10.129  1.00  0.00     0.293 HD
ENDBRANCH   2  20
BRANCH   6  22
ATOM     22  O   UNL     1       9.125   7.365   6.530  1.00  0.00    -0.507 OA
ATOM     23  H   UNL     1       9.290   6.483   6.059  1.00  0.00     0.293 HD
ENDBRANCH   6  22
BRANCH   8  24
ATOM     24  O   UNL     1       7.996  10.487   3.031  1.00  0.00    -0.508 OA
ATOM     25  H   UNL     1       7.548  10.198   2.168  1.00  0.00     0.293 HD
ENDBRANCH   8  24
TORSDOF 5
ENDMDL
