MODEL 1
REMARK VINA RESULT:    -7.842      0.000      0.000
REMARK INTER + INTRA:          -9.397
REMARK INTER:                  -9.447
REMARK INTRA:                   0.049
REMARK UNBOUND:                 0.049
REMARK SMILES O=c1c(O)c(-c2ccc(O)c(O)c2)oc2cc(O)cc(O)c12
REMARK SMILES IDX 5 1 3 2 2 3 1 4 22 5 20 6 19 7 17 8 16 9 15 10 14 11 6 12
REMARK SMILES IDX 7 13 8 14 9 15 13 16 11 17 10 18 12 20 4 22 21 24 18 26
REMARK H PARENT 10 19 12 21 4 23 21 25 18 27
REMARK Flexibility Score: inf
ROOT
ATOM      1  C   UNL     1      38.452 -12.656   8.142  1.00  0.00     0.180 A 
ATOM      2  C   UNL     1      38.693 -11.325   8.534  1.00  0.00     0.208 A 
ATOM      3  C   UNL     1      39.810 -11.047   9.338  1.00  0.00     0.238 A 
ATOM      4  O   UNL     1      40.029  -9.860   9.706  1.00  0.00    -0.285 OA
ATOM      5  C   UNL     1      40.673 -12.094   9.719  1.00  0.00     0.111 A 
ATOM      6  C   UNL     1      41.821 -11.897  10.523  1.00  0.00     0.134 A 
ATOM      7  C   UNL     1      42.637 -12.991  10.851  1.00  0.00     0.093 A 
ATOM      8  C   UNL     1      42.329 -14.272  10.390  1.00  0.00     0.123 A 
ATOM      9  C   UNL     1      41.196 -14.473   9.595  1.00  0.00     0.094 A 
ATOM     10  C   UNL     1      40.369 -13.397   9.259  1.00  0.00     0.146 A 
ATOM     11  O   UNL     1      39.298 -13.615   8.507  1.00  0.00    -0.452 OA
ENDROOT
BRANCH   1  12
ATOM     12  C   UNL     1      37.286 -13.032   7.310  1.00  0.00     0.025 A 
ATOM     13  C   UNL     1      36.003 -12.523   7.576  1.00  0.00     0.016 A 
ATOM     14  C   UNL     1      34.913 -12.911   6.792  1.00  0.00     0.051 A 
ATOM     15  C   UNL     1      35.083 -13.821   5.744  1.00  0.00     0.157 A 
ATOM     16  C   UNL     1      37.450 -13.962   6.271  1.00  0.00     0.062 A 
ATOM     17  C   UNL     1      36.357 -14.352   5.483  1.00  0.00     0.158 A 
BRANCH  15  18
ATOM     18  O   UNL     1      33.978 -14.188   4.978  1.00  0.00    -0.504 OA
ATOM     19  H   UNL     1      33.566 -15.111   5.036  1.00  0.00     0.293 HD
ENDBRANCH  15  18
BRANCH  17  20
ATOM     20  O   UNL     1      36.534 -15.265   4.444  1.00  0.00    -0.504 OA
ATOM     21  H   UNL     1      37.455 -15.503   4.096  1.00  0.00     0.293 HD
ENDBRANCH  17  20
ENDBRANCH   1  12
BRANCH   2  22
ATOM     22  O   UNL     1      37.849 -10.298   8.104  1.00  0.00    -0.502 OA
ATOM     23  H   UNL     1      37.567 -10.197   7.137  1.00  0.00     0.293 HD
ENDBRANCH   2  22
BRANCH   6  24
ATOM     24  O   UNL     1      42.157 -10.629  10.999  1.00  0.00    -0.507 OA
ATOM     25  H   UNL     1      42.540  -9.915  10.390  1.00  0.00     0.293 HD
ENDBRANCH   6  24
BRANCH   8  26
ATOM     26  O   UNL     1      43.157 -15.341  10.728  1.00  0.00    -0.508 OA
ATOM     27  H   UNL     1      43.264 -15.646  11.689  1.00  0.00     0.293 HD
ENDBRANCH   8  26
TORSDOF 6
ENDMDL
MODEL 2
REMARK VINA RESULT:    -7.412      2.969      8.463
REMARK INTER + INTRA:          -8.880
REMARK INTER:                  -8.562
REMARK INTRA:                  -0.317
REMARK UNBOUND:                 0.049
REMARK SMILES O=c1c(O)c(-c2ccc(O)c(O)c2)oc2cc(O)cc(O)c12
REMARK SMILES IDX 5 1 3 2 2 3 1 4 22 5 20 6 19 7 17 8 16 9 15 10 14 11 6 12
REMARK SMILES IDX 7 13 8 14 9 15 13 16 11 17 10 18 12 20 4 22 21 24 18 26
REMARK H PARENT 10 19 12 21 4 23 21 25 18 27
REMARK Flexibility Score: inf
ROOT
ATOM      1  C   UNL     1      36.152 -13.461   4.892  1.00  0.00     0.180 A 
ATOM      2  C   UNL     1      36.848 -13.541   3.671  1.00  0.00     0.208 A 
ATOM      3  C   UNL     1      36.188 -14.065   2.548  1.00  0.00     0.238 A 
ATOM      4  O   UNL     1      36.805 -14.153   1.451  1.00  0.00    -0.285 OA
ATOM      5  C   UNL     1      34.845 -14.479   2.659  1.00  0.00     0.111 A 
ATOM      6  C   UNL     1      34.108 -15.013   1.575  1.00  0.00     0.134 A 
ATOM      7  C   UNL     1      32.770 -15.393   1.764  1.00  0.00     0.093 A 
ATOM      8  C   UNL     1      32.158 -15.250   3.011  1.00  0.00     0.123 A 
ATOM      9  C   UNL     1      32.882 -14.722   4.085  1.00  0.00     0.094 A 
ATOM     10  C   UNL     1      34.216 -14.339   3.918  1.00  0.00     0.146 A 
ATOM     11  O   UNL     1      34.881 -13.846   4.955  1.00  0.00    -0.452 OA
ENDROOT
BRANCH   1  12
ATOM     12  C   UNL     1      36.785 -12.937   6.125  1.00  0.00     0.025 A 
ATOM     13  C   UNL     1      37.343 -13.800   7.085  1.00  0.00     0.016 A 
ATOM     14  C   UNL     1      37.913 -13.284   8.251  1.00  0.00     0.051 A 
ATOM     15  C   UNL     1      37.923 -11.905   8.485  1.00  0.00     0.157 A 
ATOM     16  C   UNL     1      36.777 -11.555   6.372  1.00  0.00     0.062 A 
ATOM     17  C   UNL     1      37.350 -11.035   7.542  1.00  0.00     0.158 A 
BRANCH  15  18
ATOM     18  O   UNL     1      38.500 -11.420   9.657  1.00  0.00    -0.504 OA
ATOM     19  H   UNL     1      39.270 -11.894  10.114  1.00  0.00     0.293 HD
ENDBRANCH  15  18
BRANCH  17  20
ATOM     20  O   UNL     1      37.349  -9.660   7.772  1.00  0.00    -0.504 OA
ATOM     21  H   UNL     1      37.215  -9.276   8.700  1.00  0.00     0.293 HD
ENDBRANCH  17  20
ENDBRANCH   1  12
BRANCH   2  22
ATOM     22  O   UNL     1      38.163 -13.079   3.575  1.00  0.00    -0.502 OA
ATOM     23  H   UNL     1      38.949 -13.597   3.950  1.00  0.00     0.293 HD
ENDBRANCH   2  22
BRANCH   6  24
ATOM     24  O   UNL     1      34.690 -15.169   0.317  1.00  0.00    -0.507 OA
ATOM     25  H   UNL     1      35.464 -14.591   0.012  1.00  0.00     0.293 HD
ENDBRANCH   6  24
BRANCH   8  26
ATOM     26  O   UNL     1      30.828 -15.633   3.171  1.00  0.00    -0.508 OA
ATOM     27  H   UNL     1      30.458 -15.896   4.077  1.00  0.00     0.293 HD
ENDBRANCH   8  26
TORSDOF 6
ENDMDL
MODEL 3
REMARK VINA RESULT:    -7.373      2.393      3.797
REMARK INTER + INTRA:          -8.833
REMARK INTER:                  -8.504
REMARK INTRA:                  -0.329
REMARK UNBOUND:                 0.049
REMARK SMILES O=c1c(O)c(-c2ccc(O)c(O)c2)oc2cc(O)cc(O)c12
REMARK SMILES IDX 5 1 3 2 2 3 1 4 22 5 20 6 19 7 17 8 16 9 15 10 14 11 6 12
REMARK SMILES IDX 7 13 8 14 9 15 13 16 11 17 10 18 12 20 4 22 21 24 18 26
REMARK H PARENT 10 19 12 21 4 23 21 25 18 27
REMARK Flexibility Score: inf
ROOT
ATOM      1  C   UNL     1      36.406 -13.252   5.244  1.00  0.00     0.180 A 
ATOM      2  C   UNL     1      36.371 -11.853   5.399  1.00  0.00     0.208 A 
ATOM      3  C   UNL     1      37.100 -11.269   6.448  1.00  0.00     0.238 A 
ATOM      4  O   UNL     1      37.066 -10.018   6.605  1.00  0.00    -0.285 OA
ATOM      5  C   UNL     1      37.863 -12.086   7.306  1.00  0.00     0.111 A 
ATOM      6  C   UNL     1      38.629 -11.576   8.382  1.00  0.00     0.134 A 
ATOM      7  C   UNL     1      39.371 -12.455   9.186  1.00  0.00     0.093 A 
ATOM      8  C   UNL     1      39.363 -13.829   8.934  1.00  0.00     0.123 A 
ATOM      9  C   UNL     1      38.609 -14.338   7.872  1.00  0.00     0.094 A 
ATOM     10  C   UNL     1      37.861 -13.479   7.061  1.00  0.00     0.146 A 
ATOM     11  O   UNL     1      37.150 -13.989   6.063  1.00  0.00    -0.452 OA
ENDROOT
BRANCH   1  12
ATOM     12  C   UNL     1      35.650 -13.943   4.175  1.00  0.00     0.025 A 
ATOM     13  C   UNL     1      34.353 -14.439   4.398  1.00  0.00     0.016 A 
ATOM     14  C   UNL     1      33.668 -15.109   3.381  1.00  0.00     0.051 A 
ATOM     15  C   UNL     1      34.270 -15.308   2.134  1.00  0.00     0.157 A 
ATOM     16  C   UNL     1      36.259 -14.163   2.929  1.00  0.00     0.062 A 
ATOM     17  C   UNL     1      35.573 -14.835   1.907  1.00  0.00     0.158 A 
BRANCH  15  18
ATOM     18  O   UNL     1      33.561 -15.979   1.139  1.00  0.00    -0.504 OA
ATOM     19  H   UNL     1      33.373 -16.972   1.190  1.00  0.00     0.293 HD
ENDBRANCH  15  18
BRANCH  17  20
ATOM     20  O   UNL     1      36.182 -15.035   0.669  1.00  0.00    -0.504 OA
ATOM     21  H   UNL     1      35.674 -15.424  -0.117  1.00  0.00     0.293 HD
ENDBRANCH  17  20
ENDBRANCH   1  12
BRANCH   2  22
ATOM     22  O   UNL     1      35.645 -11.060   4.507  1.00  0.00    -0.502 OA
ATOM     23  H   UNL     1      34.632 -11.034   4.504  1.00  0.00     0.293 HD
ENDBRANCH   2  22
BRANCH   6  24
ATOM     24  O   UNL     1      38.658 -10.209   8.659  1.00  0.00    -0.507 OA
ATOM     25  H   UNL     1      37.868  -9.607   8.461  1.00  0.00     0.293 HD
ENDBRANCH   6  24
BRANCH   8  26
ATOM     26  O   UNL     1      40.110 -14.680   9.746  1.00  0.00    -0.508 OA
ATOM     27  H   UNL     1      41.073 -14.910   9.530  1.00  0.00     0.293 HD
ENDBRANCH   8  26
TORSDOF 6
ENDMDL
MODEL 4
REMARK VINA RESULT:    -7.272      6.557      9.415
REMARK INTER + INTRA:          -8.711
REMARK INTER:                  -8.378
REMARK INTRA:                  -0.332
REMARK UNBOUND:                 0.049
REMARK SMILES O=c1c(O)c(-c2ccc(O)c(O)c2)oc2cc(O)cc(O)c12
REMARK SMILES IDX 5 1 3 2 2 3 1 4 22 5 20 6 19 7 17 8 16 9 15 10 14 11 6 12
REMARK SMILES IDX 7 13 8 14 9 15 13 16 11 17 10 18 12 20 4 22 21 24 18 26
REMARK H PARENT 10 19 12 21 4 23 21 25 18 27
REMARK Flexibility Score: inf
ROOT
ATOM      1  C   UNL     1      33.232 -14.051   1.311  1.00  0.00     0.180 A 
ATOM      2  C   UNL     1      33.984 -14.849   2.195  1.00  0.00     0.208 A 
ATOM      3  C   UNL     1      35.171 -14.329   2.735  1.00  0.00     0.238 A 
ATOM      4  O   UNL     1      35.859 -15.039   3.519  1.00  0.00    -0.285 OA
ATOM      5  C   UNL     1      35.573 -13.020   2.402  1.00  0.00     0.111 A 
ATOM      6  C   UNL     1      36.752 -12.421   2.906  1.00  0.00     0.134 A 
ATOM      7  C   UNL     1      37.080 -11.108   2.534  1.00  0.00     0.093 A 
ATOM      8  C   UNL     1      36.253 -10.386   1.670  1.00  0.00     0.123 A 
ATOM      9  C   UNL     1      35.088 -10.972   1.169  1.00  0.00     0.094 A 
ATOM     10  C   UNL     1      34.745 -12.280   1.526  1.00  0.00     0.146 A 
ATOM     11  O   UNL     1      33.635 -12.815   1.032  1.00  0.00    -0.452 OA
ENDROOT
BRANCH   1  12
ATOM     12  C   UNL     1      31.980 -14.536   0.686  1.00  0.00     0.025 A 
ATOM     13  C   UNL     1      31.992 -15.220  -0.542  1.00  0.00     0.016 A 
ATOM     14  C   UNL     1      30.795 -15.646  -1.125  1.00  0.00     0.051 A 
ATOM     15  C   UNL     1      29.571 -15.385  -0.501  1.00  0.00     0.157 A 
ATOM     16  C   UNL     1      30.748 -14.256   1.300  1.00  0.00     0.062 A 
ATOM     17  C   UNL     1      29.547 -14.684   0.717  1.00  0.00     0.158 A 
BRANCH  15  18
ATOM     18  O   UNL     1      28.395 -15.824  -1.105  1.00  0.00    -0.504 OA
ATOM     19  H   UNL     1      27.907 -16.654  -0.792  1.00  0.00     0.293 HD
ENDBRANCH  15  18
BRANCH  17  20
ATOM     20  O   UNL     1      28.330 -14.414   1.342  1.00  0.00    -0.504 OA
ATOM     21  H   UNL     1      28.264 -13.769   2.120  1.00  0.00     0.293 HD
ENDBRANCH  17  20
ENDBRANCH   1  12
BRANCH   2  22
ATOM     22  O   UNL     1      33.538 -16.125   2.547  1.00  0.00    -0.502 OA
ATOM     23  H   UNL     1      32.556 -16.374   2.559  1.00  0.00     0.293 HD
ENDBRANCH   2  22
BRANCH   6  24
ATOM     24  O   UNL     1      37.598 -13.115   3.771  1.00  0.00    -0.507 OA
ATOM     25  H   UNL     1      37.320 -13.350   4.717  1.00  0.00     0.293 HD
ENDBRANCH   6  24
BRANCH   8  26
ATOM     26  O   UNL     1      36.600  -9.083   1.317  1.00  0.00    -0.508 OA
ATOM     27  H   UNL     1      37.012  -8.869   0.417  1.00  0.00     0.293 HD
ENDBRANCH   8  26
TORSDOF 6
ENDMDL
MODEL 5
REMARK VINA RESULT:    -7.262      4.037      9.990
REMARK INTER + INTRA:          -8.699
REMARK INTER:                  -8.541
REMARK INTRA:                  -0.157
REMARK UNBOUND:                 0.049
REMARK SMILES O=c1c(O)c(-c2ccc(O)c(O)c2)oc2cc(O)cc(O)c12
REMARK SMILES IDX 5 1 3 2 2 3 1 4 22 5 20 6 19 7 17 8 16 9 15 10 14 11 6 12
REMARK SMILES IDX 7 13 8 14 9 15 13 16 11 17 10 18 12 20 4 22 21 24 18 26
REMARK H PARENT 10 19 12 21 4 23 21 25 18 27
REMARK Flexibility Score: inf
ROOT
ATOM      1  C   UNL     1      34.560 -14.435   3.509  1.00  0.00     0.180 A 
ATOM      2  C   UNL     1      35.024 -14.420   2.180  1.00  0.00     0.208 A 
ATOM      3  C   UNL     1      34.098 -14.584   1.137  1.00  0.00     0.238 A 
ATOM      4  O   UNL     1      34.504 -14.585  -0.057  1.00  0.00    -0.285 OA
ATOM      5  C   UNL     1      32.730 -14.738   1.438  1.00  0.00     0.111 A 
ATOM      6  C   UNL     1      31.734 -14.904   0.445  1.00  0.00     0.134 A 
ATOM      7  C   UNL     1      30.390 -15.042   0.825  1.00  0.00     0.093 A 
ATOM      8  C   UNL     1      30.024 -15.017   2.173  1.00  0.00     0.123 A 
ATOM      9  C   UNL     1      31.004 -14.853   3.157  1.00  0.00     0.094 A 
ATOM     10  C   UNL     1      32.349 -14.716   2.800  1.00  0.00     0.146 A 
ATOM     11  O   UNL     1      33.260 -14.567   3.754  1.00  0.00    -0.452 OA
ENDROOT
BRANCH   1  12
ATOM     12  C   UNL     1      35.476 -14.288   4.663  1.00  0.00     0.025 A 
ATOM     13  C   UNL     1      36.501 -15.219   4.909  1.00  0.00     0.016 A 
ATOM     14  C   UNL     1      37.337 -15.072   6.018  1.00  0.00     0.051 A 
ATOM     15  C   UNL     1      37.156 -14.006   6.906  1.00  0.00     0.157 A 
ATOM     16  C   UNL     1      35.283 -13.231   5.568  1.00  0.00     0.062 A 
ATOM     17  C   UNL     1      36.123 -13.082   6.682  1.00  0.00     0.158 A 
BRANCH  15  18
ATOM     18  O   UNL     1      38.008 -13.885   8.002  1.00  0.00    -0.504 OA
ATOM     19  H   UNL     1      38.427 -13.001   8.263  1.00  0.00     0.293 HD
ENDBRANCH  15  18
BRANCH  17  20
ATOM     20  O   UNL     1      35.931 -12.021   7.566  1.00  0.00    -0.504 OA
ATOM     21  H   UNL     1      36.506 -11.187   7.528  1.00  0.00     0.293 HD
ENDBRANCH  17  20
ENDBRANCH   1  12
BRANCH   2  22
ATOM     22  O   UNL     1      36.379 -14.218   1.907  1.00  0.00    -0.502 OA
ATOM     23  H   UNL     1      36.931 -13.519   2.389  1.00  0.00     0.293 HD
ENDBRANCH   2  22
BRANCH   6  24
ATOM     24  O   UNL     1      32.066 -14.933  -0.909  1.00  0.00    -0.507 OA
ATOM     25  H   UNL     1      32.000 -15.783  -1.457  1.00  0.00     0.293 HD
ENDBRANCH   6  24
BRANCH   8  26
ATOM     26  O   UNL     1      28.683 -15.154   2.523  1.00  0.00    -0.508 OA
ATOM     27  H   UNL     1      28.276 -14.623   3.285  1.00  0.00     0.293 HD
ENDBRANCH   8  26
TORSDOF 6
ENDMDL
MODEL 6
REMARK VINA RESULT:    -7.214      5.669      8.923
REMARK INTER + INTRA:          -8.641
REMARK INTER:                  -8.331
REMARK INTRA:                  -0.310
REMARK UNBOUND:                 0.049
REMARK SMILES O=c1c(O)c(-c2ccc(O)c(O)c2)oc2cc(O)cc(O)c12
REMARK SMILES IDX 5 1 3 2 2 3 1 4 22 5 20 6 19 7 17 8 16 9 15 10 14 11 6 12
REMARK SMILES IDX 7 13 8 14 9 15 13 16 11 17 10 18 12 20 4 22 21 24 18 26
REMARK H PARENT 10 19 12 21 4 23 21 25 18 27
REMARK Flexibility Score: inf
ROOT
ATOM      1  C   UNL     1      33.089 -13.736   1.210  1.00  0.00     0.180 A 
ATOM      2  C   UNL     1      33.636 -12.523   0.750  1.00  0.00     0.208 A 
ATOM      3  C   UNL     1      34.783 -12.014   1.381  1.00  0.00     0.238 A 
ATOM      4  O   UNL     1      35.276 -10.922   0.986  1.00  0.00    -0.285 OA
ATOM      5  C   UNL     1      35.372 -12.732   2.441  1.00  0.00     0.111 A 
ATOM      6  C   UNL     1      36.530 -12.291   3.126  1.00  0.00     0.134 A 
ATOM      7  C   UNL     1      37.062 -13.069   4.166  1.00  0.00     0.093 A 
ATOM      8  C   UNL     1      36.461 -14.276   4.532  1.00  0.00     0.123 A 
ATOM      9  C   UNL     1      35.318 -14.716   3.859  1.00  0.00     0.094 A 
ATOM     10  C   UNL     1      34.771 -13.955   2.821  1.00  0.00     0.146 A 
ATOM     11  O   UNL     1      33.682 -14.394   2.202  1.00  0.00    -0.452 OA
ENDROOT
BRANCH   1  12
ATOM     12  C   UNL     1      31.872 -14.326   0.609  1.00  0.00     0.025 A 
ATOM     13  C   UNL     1      31.936 -15.101  -0.562  1.00  0.00     0.016 A 
ATOM     14  C   UNL     1      30.770 -15.628  -1.125  1.00  0.00     0.051 A 
ATOM     15  C   UNL     1      29.525 -15.379  -0.538  1.00  0.00     0.157 A 
ATOM     16  C   UNL     1      30.618 -14.060   1.184  1.00  0.00     0.062 A 
ATOM     17  C   UNL     1      29.448 -14.589   0.621  1.00  0.00     0.158 A 
BRANCH  15  18
ATOM     18  O   UNL     1      28.380 -15.919  -1.122  1.00  0.00    -0.504 OA
ATOM     19  H   UNL     1      27.456 -15.761  -0.739  1.00  0.00     0.293 HD
ENDBRANCH  15  18
BRANCH  17  20
ATOM     20  O   UNL     1      28.210 -14.330   1.207  1.00  0.00    -0.504 OA
ATOM     21  H   UNL     1      27.694 -13.481   1.008  1.00  0.00     0.293 HD
ENDBRANCH  17  20
ENDBRANCH   1  12
BRANCH   2  22
ATOM     22  O   UNL     1      33.062 -11.854  -0.333  1.00  0.00    -0.502 OA
ATOM     23  H   UNL     1      32.700 -12.343  -1.143  1.00  0.00     0.293 HD
ENDBRANCH   2  22
BRANCH   6  24
ATOM     24  O   UNL     1      37.154 -11.091   2.784  1.00  0.00    -0.507 OA
ATOM     25  H   UNL     1      37.384 -10.392   3.480  1.00  0.00     0.293 HD
ENDBRANCH   6  24
BRANCH   8  26
ATOM     26  O   UNL     1      37.010 -15.030   5.567  1.00  0.00    -0.508 OA
ATOM     27  H   UNL     1      36.620 -15.926   5.835  1.00  0.00     0.293 HD
ENDBRANCH   8  26
TORSDOF 6
ENDMDL
MODEL 7
REMARK VINA RESULT:    -7.196      1.885      7.156
REMARK INTER + INTRA:          -8.620
REMARK INTER:                  -8.881
REMARK INTRA:                   0.261
REMARK UNBOUND:                 0.049
REMARK SMILES O=c1c(O)c(-c2ccc(O)c(O)c2)oc2cc(O)cc(O)c12
REMARK SMILES IDX 5 1 3 2 2 3 1 4 22 5 20 6 19 7 17 8 16 9 15 10 14 11 6 12
REMARK SMILES IDX 7 13 8 14 9 15 13 16 11 17 10 18 12 20 4 22 21 24 18 26
REMARK H PARENT 10 19 12 21 4 23 21 25 18 27
REMARK Flexibility Score: inf
ROOT
ATOM      1  C   UNL     1      39.390 -12.691   8.125  1.00  0.00     0.180 A 
ATOM      2  C   UNL     1      38.790 -13.941   7.878  1.00  0.00     0.208 A 
ATOM      3  C   UNL     1      37.738 -14.017   6.952  1.00  0.00     0.238 A 
ATOM      4  O   UNL     1      37.185 -15.129   6.732  1.00  0.00    -0.285 OA
ATOM      5  C   UNL     1      37.319 -12.853   6.276  1.00  0.00     0.111 A 
ATOM      6  C   UNL     1      36.270 -12.846   5.325  1.00  0.00     0.134 A 
ATOM      7  C   UNL     1      35.918 -11.647   4.687  1.00  0.00     0.093 A 
ATOM      8  C   UNL     1      36.593 -10.459   4.980  1.00  0.00     0.123 A 
ATOM      9  C   UNL     1      37.629 -10.461   5.918  1.00  0.00     0.094 A 
ATOM     10  C   UNL     1      37.994 -11.645   6.566  1.00  0.00     0.146 A 
ATOM     11  O   UNL     1      38.979 -11.618   7.456  1.00  0.00    -0.452 OA
ENDROOT
BRANCH   1  12
ATOM     12  C   UNL     1      40.492 -12.526   9.100  1.00  0.00     0.025 A 
ATOM     13  C   UNL     1      40.641 -11.342   9.844  1.00  0.00     0.016 A 
ATOM     14  C   UNL     1      41.703 -11.201  10.741  1.00  0.00     0.051 A 
ATOM     15  C   UNL     1      42.638 -12.228  10.899  1.00  0.00     0.157 A 
ATOM     16  C   UNL     1      41.444 -13.548   9.246  1.00  0.00     0.062 A 
ATOM     17  C   UNL     1      42.510 -13.408  10.147  1.00  0.00     0.158 A 
BRANCH  15  18
ATOM     18  O   UNL     1      43.685 -12.059  11.803  1.00  0.00    -0.504 OA
ATOM     19  H   UNL     1      43.533 -11.719  12.745  1.00  0.00     0.293 HD
ENDBRANCH  15  18
BRANCH  17  20
ATOM     20  O   UNL     1      43.442 -14.434  10.294  1.00  0.00    -0.504 OA
ATOM     21  H   UNL     1      43.583 -14.901  11.182  1.00  0.00     0.293 HD
ENDBRANCH  17  20
ENDBRANCH   1  12
BRANCH   2  22
ATOM     22  O   UNL     1      39.256 -15.088   8.526  1.00  0.00    -0.502 OA
ATOM     23  H   UNL     1      40.170 -15.483   8.340  1.00  0.00     0.293 HD
ENDBRANCH   2  22
BRANCH   6  24
ATOM     24  O   UNL     1      35.577 -14.015   5.010  1.00  0.00    -0.507 OA
ATOM     25  H   UNL     1      35.450 -14.759   5.686  1.00  0.00     0.293 HD
ENDBRANCH   6  24
BRANCH   8  26
ATOM     26  O   UNL     1      36.224  -9.282   4.331  1.00  0.00    -0.508 OA
ATOM     27  H   UNL     1      35.419  -8.744   4.626  1.00  0.00     0.293 HD
ENDBRANCH   8  26
TORSDOF 6
ENDMDL
MODEL 8
REMARK VINA RESULT:    -6.882      2.041      6.869
REMARK INTER + INTRA:          -8.241
REMARK INTER:                  -7.962
REMARK INTRA:                  -0.279
REMARK UNBOUND:                 0.049
REMARK SMILES O=c1c(O)c(-c2ccc(O)c(O)c2)oc2cc(O)cc(O)c12
REMARK SMILES IDX 5 1 3 2 2 3 1 4 22 5 20 6 19 7 17 8 16 9 15 10 14 11 6 12
REMARK SMILES IDX 7 13 8 14 9 15 13 16 11 17 10 18 12 20 4 22 21 24 18 26
REMARK H PARENT 10 19 12 21 4 23 21 25 18 27
REMARK Flexibility Score: inf
ROOT
ATOM      1  C   UNL     1      39.369 -11.695   7.613  1.00  0.00     0.180 A 
ATOM      2  C   UNL     1      39.650 -10.992   6.426  1.00  0.00     0.208 A 
ATOM      3  C   UNL     1      38.773 -11.122   5.337  1.00  0.00     0.238 A 
ATOM      4  O   UNL     1      39.021 -10.506   4.264  1.00  0.00    -0.285 OA
ATOM      5  C   UNL     1      37.625 -11.931   5.459  1.00  0.00     0.111 A 
ATOM      6  C   UNL     1      36.690 -12.111   4.412  1.00  0.00     0.134 A 
ATOM      7  C   UNL     1      35.566 -12.926   4.615  1.00  0.00     0.093 A 
ATOM      8  C   UNL     1      35.360 -13.562   5.841  1.00  0.00     0.123 A 
ATOM      9  C   UNL     1      36.280 -13.388   6.879  1.00  0.00     0.094 A 
ATOM     10  C   UNL     1      37.408 -12.581   6.696  1.00  0.00     0.146 A 
ATOM     11  O   UNL     1      38.268 -12.437   7.697  1.00  0.00    -0.452 OA
ENDROOT
BRANCH   1  12
ATOM     12  C   UNL     1      40.255 -11.624   8.797  1.00  0.00     0.025 A 
ATOM     13  C   UNL     1      40.251 -10.505   9.648  1.00  0.00     0.016 A 
ATOM     14  C   UNL     1      41.114 -10.450  10.746  1.00  0.00     0.051 A 
ATOM     15  C   UNL     1      42.001 -11.500  11.003  1.00  0.00     0.157 A 
ATOM     16  C   UNL     1      41.161 -12.668   9.045  1.00  0.00     0.062 A 
ATOM     17  C   UNL     1      42.027 -12.614  10.148  1.00  0.00     0.158 A 
BRANCH  15  18
ATOM     18  O   UNL     1      42.848 -11.418  12.106  1.00  0.00    -0.504 OA
ATOM     19  H   UNL     1      42.812 -10.641  12.755  1.00  0.00     0.293 HD
ENDBRANCH  15  18
BRANCH  17  20
ATOM     20  O   UNL     1      42.914 -13.662  10.393  1.00  0.00    -0.504 OA
ATOM     21  H   UNL     1      42.879 -14.197  11.253  1.00  0.00     0.293 HD
ENDBRANCH  17  20
ENDBRANCH   1  12
BRANCH   2  22
ATOM     22  O   UNL     1      40.768 -10.158   6.346  1.00  0.00    -0.502 OA
ATOM     23  H   UNL     1      40.691  -9.162   6.182  1.00  0.00     0.293 HD
ENDBRANCH   2  22
BRANCH   6  24
ATOM     24  O   UNL     1      36.867 -11.490   3.175  1.00  0.00    -0.507 OA
ATOM     25  H   UNL     1      36.980 -10.486   3.094  1.00  0.00     0.293 HD
ENDBRANCH   6  24
BRANCH   8  26
ATOM     26  O   UNL     1      34.235 -14.365   6.018  1.00  0.00    -0.508 OA
ATOM     27  H   UNL     1      33.365 -13.988   6.374  1.00  0.00     0.293 HD
ENDBRANCH   8  26
TORSDOF 6
ENDMDL
MODEL 9
REMARK VINA RESULT:    -6.851      3.003      8.558
REMARK INTER + INTRA:          -8.203
REMARK INTER:                  -7.878
REMARK INTRA:                  -0.325
REMARK UNBOUND:                 0.049
REMARK SMILES O=c1c(O)c(-c2ccc(O)c(O)c2)oc2cc(O)cc(O)c12
REMARK SMILES IDX 5 1 3 2 2 3 1 4 22 5 20 6 19 7 17 8 16 9 15 10 14 11 6 12
REMARK SMILES IDX 7 13 8 14 9 15 13 16 11 17 10 18 12 20 4 22 21 24 18 26
REMARK H PARENT 10 19 12 21 4 23 21 25 18 27
REMARK Flexibility Score: inf
ROOT
ATOM      1  C   UNL     1      35.782 -13.723   4.828  1.00  0.00     0.180 A 
ATOM      2  C   UNL     1      34.451 -14.156   4.989  1.00  0.00     0.208 A 
ATOM      3  C   UNL     1      33.715 -14.522   3.850  1.00  0.00     0.238 A 
ATOM      4  O   UNL     1      32.519 -14.900   3.981  1.00  0.00    -0.285 OA
ATOM      5  C   UNL     1      34.324 -14.471   2.580  1.00  0.00     0.111 A 
ATOM      6  C   UNL     1      33.653 -14.828   1.386  1.00  0.00     0.134 A 
ATOM      7  C   UNL     1      34.332 -14.759   0.160  1.00  0.00     0.093 A 
ATOM      8  C   UNL     1      35.664 -14.342   0.106  1.00  0.00     0.123 A 
ATOM      9  C   UNL     1      36.332 -13.988   1.282  1.00  0.00     0.094 A 
ATOM     10  C   UNL     1      35.672 -14.048   2.514  1.00  0.00     0.146 A 
ATOM     11  O   UNL     1      36.327 -13.703   3.615  1.00  0.00    -0.452 OA
ENDROOT
BRANCH   1  12
ATOM     12  C   UNL     1      36.616 -13.302   5.976  1.00  0.00     0.025 A 
ATOM     13  C   UNL     1      37.384 -14.230   6.703  1.00  0.00     0.016 A 
ATOM     14  C   UNL     1      38.144 -13.813   7.798  1.00  0.00     0.051 A 
ATOM     15  C   UNL     1      38.139 -12.472   8.195  1.00  0.00     0.157 A 
ATOM     16  C   UNL     1      36.596 -11.960   6.390  1.00  0.00     0.062 A 
ATOM     17  C   UNL     1      37.359 -11.540   7.489  1.00  0.00     0.158 A 
BRANCH  15  18
ATOM     18  O   UNL     1      38.909 -12.086   9.291  1.00  0.00    -0.504 OA
ATOM     19  H   UNL     1      38.534 -12.068  10.231  1.00  0.00     0.293 HD
ENDBRANCH  15  18
BRANCH  17  20
ATOM     20  O   UNL     1      37.343 -10.203   7.882  1.00  0.00    -0.504 OA
ATOM     21  H   UNL     1      37.004  -9.472   7.268  1.00  0.00     0.293 HD
ENDBRANCH  17  20
ENDBRANCH   1  12
BRANCH   2  22
ATOM     22  O   UNL     1      33.886 -14.244   6.263  1.00  0.00    -0.502 OA
ATOM     23  H   UNL     1      34.273 -13.758   7.063  1.00  0.00     0.293 HD
ENDBRANCH   2  22
BRANCH   6  24
ATOM     24  O   UNL     1      32.324 -15.249   1.406  1.00  0.00    -0.507 OA
ATOM     25  H   UNL     1      31.969 -15.864   2.129  1.00  0.00     0.293 HD
ENDBRANCH   6  24
BRANCH   8  26
ATOM     26  O   UNL     1      36.316 -14.284  -1.125  1.00  0.00    -0.508 OA
ATOM     27  H   UNL     1      36.669 -13.410  -1.497  1.00  0.00     0.293 HD
ENDBRANCH   8  26
TORSDOF 6
ENDMDL
