MODEL 1
REMARK VINA RESULT:    -0.492      0.000      0.000
REMARK INTER + INTRA:          -1.773
REMARK INTER:                  -1.068
REMARK INTRA:                  -0.705
REMARK UNBOUND:                -0.705
REMARK SMILES CCCCCCCCCCCCCCCCCCCCCC(=O)[O-]
REMARK SMILES IDX 12 1 11 2 10 3 9 4 8 5 7 6 6 7 5 8 4 9 3 10 2 11 1 12 13 13
REMARK SMILES IDX 14 14 15 15 16 16 17 17 18 18 19 19 20 20 21 21 22 22 23 23
REMARK SMILES IDX 24 24
REMARK H PARENT
REMARK Flexibility Score: inf
ROOT
ATOM      1  C   UNL     1      44.745  12.444 -32.269  1.00  0.00     0.000 C 
ENDROOT
BRANCH   1   2
ATOM      2  C   UNL     1      46.160  12.946 -31.926  1.00  0.00     0.000 C 
BRANCH   2   3
ATOM      3  C   UNL     1      46.999  11.877 -31.194  1.00  0.00     0.000 C 
BRANCH   3   4
ATOM      4  C   UNL     1      46.167  10.945 -30.290  1.00  0.00    -0.000 C 
BRANCH   4   5
ATOM      5  C   UNL     1      46.507  11.011 -28.791  1.00  0.00    -0.000 C 
BRANCH   5   6
ATOM      6  C   UNL     1      45.258  10.971 -27.894  1.00  0.00    -0.000 C 
BRANCH   6   7
ATOM      7  C   UNL     1      45.545  11.422 -26.450  1.00  0.00    -0.000 C 
BRANCH   7   8
ATOM      8  C   UNL     1      44.305  11.567 -25.549  1.00  0.00    -0.000 C 
BRANCH   8   9
ATOM      9  C   UNL     1      44.337  12.841 -24.688  1.00  0.00    -0.000 C 
BRANCH   9  10
ATOM     10  C   UNL     1      45.542  12.878 -23.734  1.00  0.00    -0.000 C 
BRANCH  10  11
ATOM     11  C   UNL     1      45.884  11.496 -23.160  1.00  0.00    -0.003 C 
ATOM     12  C   UNL     1      47.244  11.511 -22.467  1.00  0.00     0.004 C 
ENDBRANCH  10  11
ENDBRANCH   9  10
ENDBRANCH   8   9
ENDBRANCH   7   8
ENDBRANCH   6   7
ENDBRANCH   5   6
ENDBRANCH   4   5
ENDBRANCH   3   4
ENDBRANCH   2   3
ENDBRANCH   1   2
BRANCH   1  13
ATOM     13  C   UNL     1      44.258  12.946 -33.637  1.00  0.00     0.000 C 
BRANCH  13  14
ATOM     14  C   UNL     1      44.002  11.800 -34.631  1.00  0.00     0.000 C 
BRANCH  14  15
ATOM     15  C   UNL     1      42.537  11.735 -35.091  1.00  0.00     0.000 C 
BRANCH  15  16
ATOM     16  C   UNL     1      42.112  12.983 -35.883  1.00  0.00     0.000 C 
BRANCH  16  17
ATOM     17  C   UNL     1      40.608  12.999 -36.212  1.00  0.00     0.000 C 
BRANCH  17  18
ATOM     18  C   UNL     1      39.851  14.256 -35.745  1.00  0.00     0.000 C 
BRANCH  18  19
ATOM     19  C   UNL     1      38.323  14.098 -35.816  1.00  0.00     0.000 C 
BRANCH  19  20
ATOM     20  C   UNL     1      37.619  14.552 -34.524  1.00  0.00     0.006 C 
BRANCH  20  21
ATOM     21  C   UNL     1      36.876  13.428 -33.785  1.00  0.00     0.053 C 
BRANCH  21  22
ATOM     22  C   UNL     1      37.070  13.510 -32.302  1.00  0.00     0.041 C 
ATOM     23  O   UNL     1      36.875  14.597 -31.697  1.00  0.00    -0.550 OA
ATOM     24  O   UNL     1      37.508  12.397 -31.595  1.00  0.00    -0.550 OA
ENDBRANCH  21  22
ENDBRANCH  20  21
ENDBRANCH  19  20
ENDBRANCH  18  19
ENDBRANCH  17  18
ENDBRANCH  16  17
ENDBRANCH  15  16
ENDBRANCH  14  15
ENDBRANCH  13  14
ENDBRANCH   1  13
TORSDOF 20
ENDMDL
MODEL 2
REMARK VINA RESULT:    -0.251      4.055      8.248
REMARK INTER + INTRA:          -1.250
REMARK INTER:                  -0.105
REMARK INTRA:                  -1.145
REMARK UNBOUND:                -0.705
REMARK SMILES CCCCCCCCCCCCCCCCCCCCCC(=O)[O-]
REMARK SMILES IDX 12 1 11 2 10 3 9 4 8 5 7 6 6 7 5 8 4 9 3 10 2 11 1 12 13 13
REMARK SMILES IDX 14 14 15 15 16 16 17 17 18 18 19 19 20 20 21 21 22 22 23 23
REMARK SMILES IDX 24 24
REMARK H PARENT
REMARK Flexibility Score: inf
ROOT
ATOM      1  C   UNL     1      40.042  13.678 -35.647  1.00  0.00     0.000 C 
ENDROOT
BRANCH   1   2
ATOM      2  C   UNL     1      38.755  14.516 -35.544  1.00  0.00     0.000 C 
BRANCH   2   3
ATOM      3  C   UNL     1      37.600  13.736 -34.880  1.00  0.00     0.000 C 
BRANCH   3   4
ATOM      4  C   UNL     1      36.910  14.500 -33.733  1.00  0.00    -0.000 C 
BRANCH   4   5
ATOM      5  C   UNL     1      37.077  13.876 -32.336  1.00  0.00    -0.000 C 
BRANCH   5   6
ATOM      6  C   UNL     1      38.229  12.858 -32.272  1.00  0.00    -0.000 C 
BRANCH   6   7
ATOM      7  C   UNL     1      38.332  12.158 -30.905  1.00  0.00    -0.000 C 
BRANCH   7   8
ATOM      8  C   UNL     1      37.087  12.280 -30.008  1.00  0.00    -0.000 C 
BRANCH   8   9
ATOM      9  C   UNL     1      37.432  12.622 -28.549  1.00  0.00    -0.000 C 
BRANCH   9  10
ATOM     10  C   UNL     1      36.875  11.591 -27.554  1.00  0.00    -0.000 C 
BRANCH  10  11
ATOM     11  C   UNL     1      36.977  12.061 -26.096  1.00  0.00    -0.003 C 
ATOM     12  C   UNL     1      37.130  10.876 -25.146  1.00  0.00     0.004 C 
ENDBRANCH  10  11
ENDBRANCH   9  10
ENDBRANCH   8   9
ENDBRANCH   7   8
ENDBRANCH   6   7
ENDBRANCH   5   6
ENDBRANCH   4   5
ENDBRANCH   3   4
ENDBRANCH   2   3
ENDBRANCH   1   2
BRANCH   1  13
ATOM     13  C   UNL     1      41.313  14.530 -35.502  1.00  0.00     0.000 C 
BRANCH  13  14
ATOM     14  C   UNL     1      42.524  13.915 -36.224  1.00  0.00     0.000 C 
BRANCH  14  15
ATOM     15  C   UNL     1      42.452  12.382 -36.293  1.00  0.00     0.000 C 
BRANCH  15  16
ATOM     16  C   UNL     1      43.289  11.702 -35.196  1.00  0.00     0.000 C 
BRANCH  16  17
ATOM     17  C   UNL     1      44.254  12.674 -34.492  1.00  0.00     0.000 C 
BRANCH  17  18
ATOM     18  C   UNL     1      45.201  12.024 -33.466  1.00  0.00     0.000 C 
BRANCH  18  19
ATOM     19  C   UNL     1      45.911  13.052 -32.569  1.00  0.00     0.000 C 
BRANCH  19  20
ATOM     20  C   UNL     1      45.518  12.919 -31.087  1.00  0.00     0.006 C 
BRANCH  20  21
ATOM     21  C   UNL     1      45.405  11.467 -30.595  1.00  0.00     0.053 C 
BRANCH  21  22
ATOM     22  C   UNL     1      46.369  11.175 -29.486  1.00  0.00     0.041 C 
ATOM     23  O   UNL     1      45.980  11.186 -28.289  1.00  0.00    -0.550 OA
ATOM     24  O   UNL     1      47.708  10.935 -29.774  1.00  0.00    -0.550 OA
ENDBRANCH  21  22
ENDBRANCH  20  21
ENDBRANCH  19  20
ENDBRANCH  18  19
ENDBRANCH  17  18
ENDBRANCH  16  17
ENDBRANCH  15  16
ENDBRANCH  14  15
ENDBRANCH  13  14
ENDBRANCH   1  13
TORSDOF 20
ENDMDL
MODEL 3
REMARK VINA RESULT:    -0.105      3.096      9.484
REMARK INTER + INTRA:          -0.934
REMARK INTER:                   0.172
REMARK INTRA:                  -1.106
REMARK UNBOUND:                -0.705
REMARK SMILES CCCCCCCCCCCCCCCCCCCCCC(=O)[O-]
REMARK SMILES IDX 12 1 11 2 10 3 9 4 8 5 7 6 6 7 5 8 4 9 3 10 2 11 1 12 13 13
REMARK SMILES IDX 14 14 15 15 16 16 17 17 18 18 19 19 20 20 21 21 22 22 23 23
REMARK SMILES IDX 24 24
REMARK H PARENT
REMARK Flexibility Score: inf
ROOT
ATOM      1  C   UNL     1      43.417  11.596 -34.849  1.00  0.00     0.000 C 
ENDROOT
BRANCH   1   2
ATOM      2  C   UNL     1      43.707  12.457 -36.092  1.00  0.00     0.000 C 
BRANCH   2   3
ATOM      3  C   UNL     1      42.420  12.844 -36.850  1.00  0.00     0.000 C 
BRANCH   3   4
ATOM      4  C   UNL     1      41.134  12.692 -36.013  1.00  0.00    -0.000 C 
BRANCH   4   5
ATOM      5  C   UNL     1      40.321  13.984 -35.821  1.00  0.00    -0.000 C 
BRANCH   5   6
ATOM      6  C   UNL     1      38.806  13.762 -35.971  1.00  0.00    -0.000 C 
BRANCH   6   7
ATOM      7  C   UNL     1      37.972  14.911 -35.373  1.00  0.00    -0.000 C 
BRANCH   7   8
ATOM      8  C   UNL     1      37.153  14.546 -34.122  1.00  0.00    -0.000 C 
BRANCH   8   9
ATOM      9  C   UNL     1      37.547  13.186 -33.524  1.00  0.00    -0.000 C 
BRANCH   9  10
ATOM     10  C   UNL     1      36.877  12.922 -32.166  1.00  0.00    -0.000 C 
BRANCH  10  11
ATOM     11  C   UNL     1      37.841  13.105 -30.985  1.00  0.00    -0.003 C 
ATOM     12  C   UNL     1      37.384  14.243 -30.075  1.00  0.00     0.004 C 
ENDBRANCH  10  11
ENDBRANCH   9  10
ENDBRANCH   8   9
ENDBRANCH   7   8
ENDBRANCH   6   7
ENDBRANCH   5   6
ENDBRANCH   4   5
ENDBRANCH   3   4
ENDBRANCH   2   3
ENDBRANCH   1   2
BRANCH   1  13
ATOM     13  C   UNL     1      43.845  12.284 -33.543  1.00  0.00     0.000 C 
BRANCH  13  14
ATOM     14  C   UNL     1      45.329  12.691 -33.548  1.00  0.00     0.000 C 
BRANCH  14  15
ATOM     15  C   UNL     1      46.092  12.149 -32.330  1.00  0.00     0.000 C 
BRANCH  15  16
ATOM     16  C   UNL     1      45.157  11.781 -31.164  1.00  0.00     0.000 C 
BRANCH  16  17
ATOM     17  C   UNL     1      45.773  12.083 -29.786  1.00  0.00     0.000 C 
BRANCH  17  18
ATOM     18  C   UNL     1      46.417  10.875 -29.081  1.00  0.00     0.000 C 
BRANCH  18  19
ATOM     19  C   UNL     1      46.331  10.959 -27.547  1.00  0.00     0.000 C 
BRANCH  19  20
ATOM     20  C   UNL     1      45.027  11.621 -27.062  1.00  0.00     0.006 C 
BRANCH  20  21
ATOM     21  C   UNL     1      44.617  11.228 -25.634  1.00  0.00     0.053 C 
BRANCH  21  22
ATOM     22  C   UNL     1      44.561  12.415 -24.722  1.00  0.00     0.041 C 
ATOM     23  O   UNL     1      45.104  12.367 -23.586  1.00  0.00    -0.550 OA
ATOM     24  O   UNL     1      43.873  13.558 -25.109  1.00  0.00    -0.550 OA
ENDBRANCH  21  22
ENDBRANCH  20  21
ENDBRANCH  19  20
ENDBRANCH  18  19
ENDBRANCH  17  18
ENDBRANCH  16  17
ENDBRANCH  15  16
ENDBRANCH  14  15
ENDBRANCH  13  14
ENDBRANCH   1  13
TORSDOF 20
ENDMDL
MODEL 4
REMARK VINA RESULT:     0.565      4.773     11.712
REMARK INTER + INTRA:           0.520
REMARK INTER:                   1.477
REMARK INTRA:                  -0.957
REMARK UNBOUND:                -0.705
REMARK SMILES CCCCCCCCCCCCCCCCCCCCCC(=O)[O-]
REMARK SMILES IDX 12 1 11 2 10 3 9 4 8 5 7 6 6 7 5 8 4 9 3 10 2 11 1 12 13 13
REMARK SMILES IDX 14 14 15 15 16 16 17 17 18 18 19 19 20 20 21 21 22 22 23 23
REMARK SMILES IDX 24 24
REMARK H PARENT
REMARK Flexibility Score: inf
ROOT
ATOM      1  C   UNL     1      45.178  12.498 -30.540  1.00  0.00     0.000 C 
ENDROOT
BRANCH   1   2
ATOM      2  C   UNL     1      44.447  12.385 -31.891  1.00  0.00     0.000 C 
BRANCH   2   3
ATOM      3  C   UNL     1      45.202  13.107 -33.027  1.00  0.00     0.000 C 
BRANCH   3   4
ATOM      4  C   UNL     1      44.812  12.624 -34.439  1.00  0.00    -0.000 C 
BRANCH   4   5
ATOM      5  C   UNL     1      43.616  11.658 -34.493  1.00  0.00    -0.000 C 
BRANCH   5   6
ATOM      6  C   UNL     1      42.760  11.840 -35.758  1.00  0.00    -0.000 C 
BRANCH   6   7
ATOM      7  C   UNL     1      41.371  12.434 -35.459  1.00  0.00    -0.000 C 
BRANCH   7   8
ATOM      8  C   UNL     1      40.963  13.627 -36.342  1.00  0.00    -0.000 C 
BRANCH   8   9
ATOM      9  C   UNL     1      39.698  14.341 -35.836  1.00  0.00    -0.000 C 
BRANCH   9  10
ATOM     10  C   UNL     1      38.449  13.977 -36.655  1.00  0.00    -0.000 C 
BRANCH  10  11
ATOM     11  C   UNL     1      37.235  13.657 -35.770  1.00  0.00    -0.003 C 
ATOM     12  C   UNL     1      37.647  13.502 -34.308  1.00  0.00     0.004 C 
ENDBRANCH  10  11
ENDBRANCH   9  10
ENDBRANCH   8   9
ENDBRANCH   7   8
ENDBRANCH   6   7
ENDBRANCH   5   6
ENDBRANCH   4   5
ENDBRANCH   3   4
ENDBRANCH   2   3
ENDBRANCH   1   2
BRANCH   1  13
ATOM     13  C   UNL     1      46.238  11.402 -30.351  1.00  0.00     0.000 C 
BRANCH  13  14
ATOM     14  C   UNL     1      46.378  10.961 -28.883  1.00  0.00     0.000 C 
BRANCH  14  15
ATOM     15  C   UNL     1      45.470  11.763 -27.938  1.00  0.00     0.000 C 
BRANCH  15  16
ATOM     16  C   UNL     1      45.509  11.235 -26.494  1.00  0.00     0.000 C 
BRANCH  16  17
ATOM     17  C   UNL     1      44.594  12.029 -25.542  1.00  0.00     0.000 C 
BRANCH  17  18
ATOM     18  C   UNL     1      45.232  12.416 -24.196  1.00  0.00     0.000 C 
BRANCH  18  19
ATOM     19  C   UNL     1      45.917  11.231 -23.494  1.00  0.00     0.000 C 
BRANCH  19  20
ATOM     20  C   UNL     1      46.718  11.660 -22.251  1.00  0.00     0.006 C 
BRANCH  20  21
ATOM     21  C   UNL     1      48.024  10.876 -22.042  1.00  0.00     0.053 C 
BRANCH  21  22
ATOM     22  C   UNL     1      48.572  11.060 -20.661  1.00  0.00     0.041 C 
ATOM     23  O   UNL     1      49.809  11.219 -20.486  1.00  0.00    -0.550 OA
ATOM     24  O   UNL     1      47.721  11.012 -19.563  1.00  0.00    -0.550 OA
ENDBRANCH  21  22
ENDBRANCH  20  21
ENDBRANCH  19  20
ENDBRANCH  18  19
ENDBRANCH  17  18
ENDBRANCH  16  17
ENDBRANCH  15  16
ENDBRANCH  14  15
ENDBRANCH  13  14
ENDBRANCH   1  13
TORSDOF 20
ENDMDL
MODEL 5
REMARK VINA RESULT:     0.962      3.333      9.740
REMARK INTER + INTRA:           1.381
REMARK INTER:                   2.354
REMARK INTRA:                  -0.973
REMARK UNBOUND:                -0.705
REMARK SMILES CCCCCCCCCCCCCCCCCCCCCC(=O)[O-]
REMARK SMILES IDX 12 1 11 2 10 3 9 4 8 5 7 6 6 7 5 8 4 9 3 10 2 11 1 12 13 13
REMARK SMILES IDX 14 14 15 15 16 16 17 17 18 18 19 19 20 20 21 21 22 22 23 23
REMARK SMILES IDX 24 24
REMARK H PARENT
REMARK Flexibility Score: inf
ROOT
ATOM      1  C   UNL     1      44.333  12.268 -32.863  1.00  0.00     0.000 C 
ENDROOT
BRANCH   1   2
ATOM      2  C   UNL     1      43.940  12.047 -34.336  1.00  0.00     0.000 C 
BRANCH   2   3
ATOM      3  C   UNL     1      42.415  12.139 -34.556  1.00  0.00     0.000 C 
BRANCH   3   4
ATOM      4  C   UNL     1      42.017  12.645 -35.957  1.00  0.00    -0.000 C 
BRANCH   4   5
ATOM      5  C   UNL     1      40.504  12.688 -36.232  1.00  0.00    -0.000 C 
BRANCH   5   6
ATOM      6  C   UNL     1      39.820  13.917 -35.610  1.00  0.00    -0.000 C 
BRANCH   6   7
ATOM      7  C   UNL     1      38.311  13.710 -35.383  1.00  0.00    -0.000 C 
BRANCH   7   8
ATOM      8  C   UNL     1      37.532  14.968 -34.959  1.00  0.00    -0.000 C 
BRANCH   8   9
ATOM      9  C   UNL     1      37.027  14.899 -33.508  1.00  0.00    -0.000 C 
BRANCH   9  10
ATOM     10  C   UNL     1      36.904  13.455 -32.994  1.00  0.00    -0.000 C 
BRANCH  10  11
ATOM     11  C   UNL     1      37.038  13.357 -31.468  1.00  0.00    -0.003 C 
ATOM     12  C   UNL     1      37.998  12.238 -31.072  1.00  0.00     0.004 C 
ENDBRANCH  10  11
ENDBRANCH   9  10
ENDBRANCH   8   9
ENDBRANCH   7   8
ENDBRANCH   6   7
ENDBRANCH   5   6
ENDBRANCH   4   5
ENDBRANCH   3   4
ENDBRANCH   2   3
ENDBRANCH   1   2
BRANCH   1  13
ATOM     13  C   UNL     1      45.609  13.110 -32.714  1.00  0.00     0.000 C 
BRANCH  13  14
ATOM     14  C   UNL     1      46.798  12.293 -32.177  1.00  0.00     0.000 C 
BRANCH  14  15
ATOM     15  C   UNL     1      46.365  11.215 -31.172  1.00  0.00     0.000 C 
BRANCH  15  16
ATOM     16  C   UNL     1      47.470  10.877 -30.157  1.00  0.00     0.000 C 
BRANCH  16  17
ATOM     17  C   UNL     1      47.087  11.242 -28.711  1.00  0.00     0.000 C 
BRANCH  17  18
ATOM     18  C   UNL     1      45.647  10.877 -28.306  1.00  0.00     0.000 C 
BRANCH  18  19
ATOM     19  C   UNL     1      45.033  11.874 -27.309  1.00  0.00     0.000 C 
BRANCH  19  20
ATOM     20  C   UNL     1      44.737  11.235 -25.939  1.00  0.00     0.006 C 
BRANCH  20  21
ATOM     21  C   UNL     1      43.969  12.151 -24.972  1.00  0.00     0.053 C 
BRANCH  21  22
ATOM     22  C   UNL     1      44.893  12.920 -24.077  1.00  0.00     0.041 C 
ATOM     23  O   UNL     1      45.366  12.382 -23.042  1.00  0.00    -0.550 OA
ATOM     24  O   UNL     1      45.197  14.245 -24.366  1.00  0.00    -0.550 OA
ENDBRANCH  21  22
ENDBRANCH  20  21
ENDBRANCH  19  20
ENDBRANCH  18  19
ENDBRANCH  17  18
ENDBRANCH  16  17
ENDBRANCH  15  16
ENDBRANCH  14  15
ENDBRANCH  13  14
ENDBRANCH   1  13
TORSDOF 20
ENDMDL
