MODEL 1
REMARK VINA RESULT:    -5.176      0.000      0.000
REMARK INTER + INTRA:         -15.134
REMARK INTER:                 -11.228
REMARK INTRA:                  -3.906
REMARK UNBOUND:                -3.906
REMARK SMILES CCCCCCCCCCCCCCCCCCCCCC(=O)[O-]
REMARK SMILES IDX 12 1 11 2 10 3 9 4 8 5 7 6 6 7 5 8 4 9 3 10 2 11 1 12 13 13
REMARK SMILES IDX 14 14 15 15 16 16 17 17 18 18 19 19 20 20 21 21 22 22 23 23
REMARK SMILES IDX 24 24
REMARK H PARENT
REMARK Flexibility Score: inf
ROOT
ATOM      1  C   UNL     1      19.775  -3.809  17.695  1.00  0.00     0.000 C 
ENDROOT
BRANCH   1   2
ATOM      2  C   UNL     1      20.130  -3.560  19.172  1.00  0.00     0.000 C 
BRANCH   2   3
ATOM      3  C   UNL     1      21.633  -3.715  19.448  1.00  0.00     0.000 C 
BRANCH   3   4
ATOM      4  C   UNL     1      22.003  -3.372  20.903  1.00  0.00    -0.000 C 
BRANCH   4   5
ATOM      5  C   UNL     1      20.763  -3.066  21.768  1.00  0.00    -0.000 C 
BRANCH   5   6
ATOM      6  C   UNL     1      21.046  -3.040  23.282  1.00  0.00    -0.000 C 
BRANCH   6   7
ATOM      7  C   UNL     1      21.037  -1.643  23.926  1.00  0.00    -0.000 C 
BRANCH   7   8
ATOM      8  C   UNL     1      19.994  -0.703  23.297  1.00  0.00    -0.000 C 
BRANCH   8   9
ATOM      9  C   UNL     1      20.623   0.578  22.725  1.00  0.00    -0.000 C 
BRANCH   9  10
ATOM     10  C   UNL     1      22.163   0.606  22.747  1.00  0.00    -0.000 C 
BRANCH  10  11
ATOM     11  C   UNL     1      22.806   0.292  21.380  1.00  0.00    -0.003 C 
ATOM     12  C   UNL     1      21.769   0.164  20.263  1.00  0.00     0.004 C 
ENDBRANCH  10  11
ENDBRANCH   9  10
ENDBRANCH   8   9
ENDBRANCH   7   8
ENDBRANCH   6   7
ENDBRANCH   5   6
ENDBRANCH   4   5
ENDBRANCH   3   4
ENDBRANCH   2   3
ENDBRANCH   1   2
BRANCH   1  13
ATOM     13  C   UNL     1      18.972  -2.653  17.066  1.00  0.00     0.000 C 
BRANCH  13  14
ATOM     14  C   UNL     1      19.101  -1.300  17.790  1.00  0.00     0.000 C 
BRANCH  14  15
ATOM     15  C   UNL     1      17.846  -0.421  17.646  1.00  0.00     0.000 C 
BRANCH  15  16
ATOM     16  C   UNL     1      17.203  -0.080  18.998  1.00  0.00     0.000 C 
BRANCH  16  17
ATOM     17  C   UNL     1      18.041  -0.548  20.202  1.00  0.00     0.000 C 
BRANCH  17  18
ATOM     18  C   UNL     1      17.484  -1.840  20.836  1.00  0.00     0.000 C 
BRANCH  18  19
ATOM     19  C   UNL     1      16.158  -2.327  20.214  1.00  0.00     0.000 C 
BRANCH  19  20
ATOM     20  C   UNL     1      16.267  -3.597  19.352  1.00  0.00     0.006 C 
BRANCH  20  21
ATOM     21  C   UNL     1      15.488  -3.494  18.033  1.00  0.00     0.053 C 
BRANCH  21  22
ATOM     22  C   UNL     1      15.410  -4.830  17.365  1.00  0.00     0.041 C 
ATOM     23  O   UNL     1      14.424  -5.583  17.575  1.00  0.00    -0.550 OA
ATOM     24  O   UNL     1      16.418  -5.239  16.500  1.00  0.00    -0.550 OA
ENDBRANCH  21  22
ENDBRANCH  20  21
ENDBRANCH  19  20
ENDBRANCH  18  19
ENDBRANCH  17  18
ENDBRANCH  16  17
ENDBRANCH  15  16
ENDBRANCH  14  15
ENDBRANCH  13  14
ENDBRANCH   1  13
TORSDOF 20
ENDMDL
MODEL 2
REMARK VINA RESULT:    -5.121      1.313      5.211
REMARK INTER + INTRA:         -15.015
REMARK INTER:                 -11.599
REMARK INTRA:                  -3.415
REMARK UNBOUND:                -3.906
REMARK SMILES CCCCCCCCCCCCCCCCCCCCCC(=O)[O-]
REMARK SMILES IDX 12 1 11 2 10 3 9 4 8 5 7 6 6 7 5 8 4 9 3 10 2 11 1 12 13 13
REMARK SMILES IDX 14 14 15 15 16 16 17 17 18 18 19 19 20 20 21 21 22 22 23 23
REMARK SMILES IDX 24 24
REMARK H PARENT
REMARK Flexibility Score: inf
ROOT
ATOM      1  C   UNL     1      20.730   0.226  21.993  1.00  0.00     0.000 C 
ENDROOT
BRANCH   1   2
ATOM      2  C   UNL     1      19.353   0.401  22.658  1.00  0.00     0.000 C 
BRANCH   2   3
ATOM      3  C   UNL     1      18.196   0.045  21.711  1.00  0.00     0.000 C 
BRANCH   3   4
ATOM      4  C   UNL     1      18.584   0.190  20.228  1.00  0.00    -0.000 C 
BRANCH   4   5
ATOM      5  C   UNL     1      17.408  -0.119  19.279  1.00  0.00    -0.000 C 
BRANCH   5   6
ATOM      6  C   UNL     1      17.840  -0.541  17.862  1.00  0.00    -0.000 C 
BRANCH   6   7
ATOM      7  C   UNL     1      19.234  -1.184  17.767  1.00  0.00    -0.000 C 
BRANCH   7   8
ATOM      8  C   UNL     1      19.179  -2.675  17.389  1.00  0.00    -0.000 C 
BRANCH   8   9
ATOM      9  C   UNL     1      20.567  -3.336  17.398  1.00  0.00    -0.000 C 
BRANCH   9  10
ATOM     10  C   UNL     1      20.589  -4.783  17.927  1.00  0.00    -0.000 C 
BRANCH  10  11
ATOM     11  C   UNL     1      21.350  -5.765  17.012  1.00  0.00    -0.003 C 
ATOM     12  C   UNL     1      22.736  -5.246  16.625  1.00  0.00     0.004 C 
ENDBRANCH  10  11
ENDBRANCH   9  10
ENDBRANCH   8   9
ENDBRANCH   7   8
ENDBRANCH   6   7
ENDBRANCH   5   6
ENDBRANCH   4   5
ENDBRANCH   3   4
ENDBRANCH   2   3
ENDBRANCH   1   2
BRANCH   1  13
ATOM     13  C   UNL     1      21.619  -0.808  22.712  1.00  0.00     0.000 C 
BRANCH  13  14
ATOM     14  C   UNL     1      20.856  -1.945  23.417  1.00  0.00     0.000 C 
BRANCH  14  15
ATOM     15  C   UNL     1      20.946  -3.284  22.663  1.00  0.00     0.000 C 
BRANCH  15  16
ATOM     16  C   UNL     1      20.186  -3.264  21.328  1.00  0.00     0.000 C 
BRANCH  16  17
ATOM     17  C   UNL     1      18.899  -4.108  21.353  1.00  0.00     0.000 C 
BRANCH  17  18
ATOM     18  C   UNL     1      17.716  -3.393  20.666  1.00  0.00     0.000 C 
BRANCH  18  19
ATOM     19  C   UNL     1      17.005  -4.240  19.590  1.00  0.00     0.000 C 
BRANCH  19  20
ATOM     20  C   UNL     1      15.817  -3.552  18.896  1.00  0.00     0.006 C 
BRANCH  20  21
ATOM     21  C   UNL     1      15.774  -3.813  17.383  1.00  0.00     0.053 C 
BRANCH  21  22
ATOM     22  C   UNL     1      15.237  -5.181  17.102  1.00  0.00     0.041 C 
ATOM     23  O   UNL     1      15.757  -5.888  16.200  1.00  0.00    -0.550 OA
ATOM     24  O   UNL     1      14.174  -5.681  17.844  1.00  0.00    -0.550 OA
ENDBRANCH  21  22
ENDBRANCH  20  21
ENDBRANCH  19  20
ENDBRANCH  18  19
ENDBRANCH  17  18
ENDBRANCH  16  17
ENDBRANCH  15  16
ENDBRANCH  14  15
ENDBRANCH  13  14
ENDBRANCH   1  13
TORSDOF 20
ENDMDL
MODEL 3
REMARK VINA RESULT:    -5.096      2.197      5.324
REMARK INTER + INTRA:         -14.961
REMARK INTER:                 -11.073
REMARK INTRA:                  -3.888
REMARK UNBOUND:                -3.906
REMARK SMILES CCCCCCCCCCCCCCCCCCCCCC(=O)[O-]
REMARK SMILES IDX 12 1 11 2 10 3 9 4 8 5 7 6 6 7 5 8 4 9 3 10 2 11 1 12 13 13
REMARK SMILES IDX 14 14 15 15 16 16 17 17 18 18 19 19 20 20 21 21 22 22 23 23
REMARK SMILES IDX 24 24
REMARK H PARENT
REMARK Flexibility Score: inf
ROOT
ATOM      1  C   UNL     1      22.032  -3.380  21.942  1.00  0.00     0.000 C 
ENDROOT
BRANCH   1   2
ATOM      2  C   UNL     1      20.637  -3.199  22.566  1.00  0.00     0.000 C 
BRANCH   2   3
ATOM      3  C   UNL     1      19.558  -2.898  21.514  1.00  0.00     0.000 C 
BRANCH   3   4
ATOM      4  C   UNL     1      18.699  -4.133  21.183  1.00  0.00    -0.000 C 
BRANCH   4   5
ATOM      5  C   UNL     1      17.414  -3.766  20.412  1.00  0.00    -0.000 C 
BRANCH   5   6
ATOM      6  C   UNL     1      17.267  -4.491  19.061  1.00  0.00    -0.000 C 
BRANCH   6   7
ATOM      7  C   UNL     1      16.769  -3.615  17.899  1.00  0.00    -0.000 C 
BRANCH   7   8
ATOM      8  C   UNL     1      17.521  -2.276  17.797  1.00  0.00    -0.000 C 
BRANCH   8   9
ATOM      9  C   UNL     1      18.860  -2.406  17.054  1.00  0.00    -0.000 C 
BRANCH   9  10
ATOM     10  C   UNL     1      20.083  -2.638  17.963  1.00  0.00    -0.000 C 
BRANCH  10  11
ATOM     11  C   UNL     1      20.943  -3.848  17.544  1.00  0.00    -0.003 C 
ATOM     12  C   UNL     1      21.244  -4.784  18.715  1.00  0.00     0.004 C 
ENDBRANCH  10  11
ENDBRANCH   9  10
ENDBRANCH   8   9
ENDBRANCH   7   8
ENDBRANCH   6   7
ENDBRANCH   5   6
ENDBRANCH   4   5
ENDBRANCH   3   4
ENDBRANCH   2   3
ENDBRANCH   1   2
BRANCH   1  13
ATOM     13  C   UNL     1      22.501  -2.143  21.151  1.00  0.00     0.000 C 
BRANCH  13  14
ATOM     14  C   UNL     1      23.482  -1.222  21.902  1.00  0.00     0.000 C 
BRANCH  14  15
ATOM     15  C   UNL     1      23.201   0.273  21.665  1.00  0.00     0.000 C 
BRANCH  15  16
ATOM     16  C   UNL     1      21.730   0.552  21.322  1.00  0.00     0.000 C 
BRANCH  16  17
ATOM     17  C   UNL     1      20.857   0.805  22.565  1.00  0.00     0.000 C 
BRANCH  17  18
ATOM     18  C   UNL     1      19.349   0.750  22.242  1.00  0.00     0.000 C 
BRANCH  18  19
ATOM     19  C   UNL     1      19.030   0.596  20.740  1.00  0.00     0.000 C 
BRANCH  19  20
ATOM     20  C   UNL     1      17.578   0.208  20.415  1.00  0.00     0.006 C 
BRANCH  20  21
ATOM     21  C   UNL     1      16.817  -0.334  21.633  1.00  0.00     0.053 C 
BRANCH  21  22
ATOM     22  C   UNL     1      15.395  -0.632  21.273  1.00  0.00     0.041 C 
ATOM     23  O   UNL     1      14.487  -0.506  22.136  1.00  0.00    -0.550 OA
ATOM     24  O   UNL     1      15.070  -1.036  19.984  1.00  0.00    -0.550 OA
ENDBRANCH  21  22
ENDBRANCH  20  21
ENDBRANCH  19  20
ENDBRANCH  18  19
ENDBRANCH  17  18
ENDBRANCH  16  17
ENDBRANCH  15  16
ENDBRANCH  14  15
ENDBRANCH  13  14
ENDBRANCH   1  13
TORSDOF 20
ENDMDL
MODEL 4
REMARK VINA RESULT:    -5.094      2.105      6.051
REMARK INTER + INTRA:         -14.956
REMARK INTER:                 -11.106
REMARK INTRA:                  -3.849
REMARK UNBOUND:                -3.906
REMARK SMILES CCCCCCCCCCCCCCCCCCCCCC(=O)[O-]
REMARK SMILES IDX 12 1 11 2 10 3 9 4 8 5 7 6 6 7 5 8 4 9 3 10 2 11 1 12 13 13
REMARK SMILES IDX 14 14 15 15 16 16 17 17 18 18 19 19 20 20 21 21 22 22 23 23
REMARK SMILES IDX 24 24
REMARK H PARENT
REMARK Flexibility Score: inf
ROOT
ATOM      1  C   UNL     1      19.922   0.008  20.354  1.00  0.00     0.000 C 
ENDROOT
BRANCH   1   2
ATOM      2  C   UNL     1      19.031   0.690  21.408  1.00  0.00     0.000 C 
BRANCH   2   3
ATOM      3  C   UNL     1      18.013  -0.277  22.031  1.00  0.00     0.000 C 
BRANCH   3   4
ATOM      4  C   UNL     1      16.573   0.001  21.559  1.00  0.00    -0.000 C 
BRANCH   4   5
ATOM      5  C   UNL     1      15.973  -1.182  20.771  1.00  0.00    -0.000 C 
BRANCH   5   6
ATOM      6  C   UNL     1      15.607  -0.842  19.314  1.00  0.00    -0.000 C 
BRANCH   6   7
ATOM      7  C   UNL     1      16.559   0.141  18.612  1.00  0.00    -0.000 C 
BRANCH   7   8
ATOM      8  C   UNL     1      17.525  -0.556  17.637  1.00  0.00    -0.000 C 
BRANCH   8   9
ATOM      9  C   UNL     1      17.963  -1.944  18.132  1.00  0.00    -0.000 C 
BRANCH   9  10
ATOM     10  C   UNL     1      18.027  -3.029  17.039  1.00  0.00    -0.000 C 
BRANCH  10  11
ATOM     11  C   UNL     1      17.578  -4.422  17.524  1.00  0.00    -0.003 C 
ATOM     12  C   UNL     1      16.605  -4.346  18.701  1.00  0.00     0.004 C 
ENDBRANCH  10  11
ENDBRANCH   9  10
ENDBRANCH   8   9
ENDBRANCH   7   8
ENDBRANCH   6   7
ENDBRANCH   5   6
ENDBRANCH   4   5
ENDBRANCH   3   4
ENDBRANCH   2   3
ENDBRANCH   1   2
BRANCH   1  13
ATOM     13  C   UNL     1      21.403  -0.060  20.772  1.00  0.00     0.000 C 
BRANCH  13  14
ATOM     14  C   UNL     1      21.664   0.109  22.281  1.00  0.00     0.000 C 
BRANCH  14  15
ATOM     15  C   UNL     1      22.149  -1.188  22.954  1.00  0.00     0.000 C 
BRANCH  15  16
ATOM     16  C   UNL     1      20.990  -2.086  23.412  1.00  0.00     0.000 C 
BRANCH  16  17
ATOM     17  C   UNL     1      20.864  -3.379  22.587  1.00  0.00     0.000 C 
BRANCH  17  18
ATOM     18  C   UNL     1      19.742  -3.293  21.531  1.00  0.00     0.000 C 
BRANCH  18  19
ATOM     19  C   UNL     1      19.999  -4.139  20.266  1.00  0.00     0.000 C 
BRANCH  19  20
ATOM     20  C   UNL     1      21.394  -3.972  19.640  1.00  0.00     0.006 C 
BRANCH  20  21
ATOM     21  C   UNL     1      21.343  -3.649  18.140  1.00  0.00     0.053 C 
BRANCH  21  22
ATOM     22  C   UNL     1      21.731  -4.847  17.332  1.00  0.00     0.041 C 
ATOM     23  O   UNL     1      22.794  -4.834  16.658  1.00  0.00    -0.550 OA
ATOM     24  O   UNL     1      20.929  -5.981  17.333  1.00  0.00    -0.550 OA
ENDBRANCH  21  22
ENDBRANCH  20  21
ENDBRANCH  19  20
ENDBRANCH  18  19
ENDBRANCH  17  18
ENDBRANCH  16  17
ENDBRANCH  15  16
ENDBRANCH  14  15
ENDBRANCH  13  14
ENDBRANCH   1  13
TORSDOF 20
ENDMDL
MODEL 5
REMARK VINA RESULT:    -5.071      1.137      3.576
REMARK INTER + INTRA:         -14.906
REMARK INTER:                 -11.001
REMARK INTRA:                  -3.905
REMARK UNBOUND:                -3.906
REMARK SMILES CCCCCCCCCCCCCCCCCCCCCC(=O)[O-]
REMARK SMILES IDX 12 1 11 2 10 3 9 4 8 5 7 6 6 7 5 8 4 9 3 10 2 11 1 12 13 13
REMARK SMILES IDX 14 14 15 15 16 16 17 17 18 18 19 19 20 20 21 21 22 22 23 23
REMARK SMILES IDX 24 24
REMARK H PARENT
REMARK Flexibility Score: inf
ROOT
ATOM      1  C   UNL     1      20.951   0.955  21.455  1.00  0.00     0.000 C 
ENDROOT
BRANCH   1   2
ATOM      2  C   UNL     1      21.990   0.068  20.747  1.00  0.00     0.000 C 
BRANCH   2   3
ATOM      3  C   UNL     1      22.597  -0.987  21.685  1.00  0.00     0.000 C 
BRANCH   3   4
ATOM      4  C   UNL     1      22.148  -0.803  23.147  1.00  0.00    -0.000 C 
BRANCH   4   5
ATOM      5  C   UNL     1      21.153  -1.892  23.599  1.00  0.00    -0.000 C 
BRANCH   5   6
ATOM      6  C   UNL     1      21.377  -3.260  22.928  1.00  0.00    -0.000 C 
BRANCH   6   7
ATOM      7  C   UNL     1      20.170  -3.813  22.150  1.00  0.00    -0.000 C 
BRANCH   7   8
ATOM      8  C   UNL     1      19.917  -3.064  20.830  1.00  0.00    -0.000 C 
BRANCH   8   9
ATOM      9  C   UNL     1      20.179  -3.941  19.595  1.00  0.00    -0.000 C 
BRANCH   9  10
ATOM     10  C   UNL     1      19.841  -3.275  18.247  1.00  0.00    -0.000 C 
BRANCH  10  11
ATOM     11  C   UNL     1      19.727  -1.739  18.328  1.00  0.00    -0.003 C 
ATOM     12  C   UNL     1      18.686  -1.178  17.358  1.00  0.00     0.004 C 
ENDBRANCH  10  11
ENDBRANCH   9  10
ENDBRANCH   8   9
ENDBRANCH   7   8
ENDBRANCH   6   7
ENDBRANCH   5   6
ENDBRANCH   4   5
ENDBRANCH   3   4
ENDBRANCH   2   3
ENDBRANCH   1   2
BRANCH   1  13
ATOM     13  C   UNL     1      19.501   0.616  21.060  1.00  0.00     0.000 C 
BRANCH  13  14
ATOM     14  C   UNL     1      18.582   0.216  22.230  1.00  0.00     0.000 C 
BRANCH  14  15
ATOM     15  C   UNL     1      17.092   0.202  21.844  1.00  0.00     0.000 C 
BRANCH  15  16
ATOM     16  C   UNL     1      16.868  -0.121  20.359  1.00  0.00     0.000 C 
BRANCH  16  17
ATOM     17  C   UNL     1      15.914  -1.308  20.135  1.00  0.00     0.000 C 
BRANCH  17  18
ATOM     18  C   UNL     1      16.522  -2.645  20.609  1.00  0.00     0.000 C 
BRANCH  18  19
ATOM     19  C   UNL     1      16.397  -3.793  19.587  1.00  0.00     0.000 C 
BRANCH  19  20
ATOM     20  C   UNL     1      15.756  -3.406  18.243  1.00  0.00     0.006 C 
BRANCH  20  21
ATOM     21  C   UNL     1      16.407  -4.110  17.044  1.00  0.00     0.053 C 
BRANCH  21  22
ATOM     22  C   UNL     1      15.641  -5.343  16.681  1.00  0.00     0.041 C 
ATOM     23  O   UNL     1      14.559  -5.608  17.268  1.00  0.00    -0.550 OA
ATOM     24  O   UNL     1      16.112  -6.192  15.687  1.00  0.00    -0.550 OA
ENDBRANCH  21  22
ENDBRANCH  20  21
ENDBRANCH  19  20
ENDBRANCH  18  19
ENDBRANCH  17  18
ENDBRANCH  16  17
ENDBRANCH  15  16
ENDBRANCH  14  15
ENDBRANCH  13  14
ENDBRANCH   1  13
TORSDOF 20
ENDMDL
MODEL 6
REMARK VINA RESULT:    -5.029      2.195      5.481
REMARK INTER + INTRA:         -14.814
REMARK INTER:                 -10.662
REMARK INTRA:                  -4.152
REMARK UNBOUND:                -3.906
REMARK SMILES CCCCCCCCCCCCCCCCCCCCCC(=O)[O-]
REMARK SMILES IDX 12 1 11 2 10 3 9 4 8 5 7 6 6 7 5 8 4 9 3 10 2 11 1 12 13 13
REMARK SMILES IDX 14 14 15 15 16 16 17 17 18 18 19 19 20 20 21 21 22 22 23 23
REMARK SMILES IDX 24 24
REMARK H PARENT
REMARK Flexibility Score: inf
ROOT
ATOM      1  C   UNL     1      22.630  -2.630  21.656  1.00  0.00     0.000 C 
ENDROOT
BRANCH   1   2
ATOM      2  C   UNL     1      21.715  -3.540  22.496  1.00  0.00     0.000 C 
BRANCH   2   3
ATOM      3  C   UNL     1      20.231  -3.165  22.359  1.00  0.00     0.000 C 
BRANCH   3   4
ATOM      4  C   UNL     1      19.437  -4.198  21.537  1.00  0.00    -0.000 C 
BRANCH   4   5
ATOM      5  C   UNL     1      18.153  -3.602  20.926  1.00  0.00    -0.000 C 
BRANCH   5   6
ATOM      6  C   UNL     1      17.634  -4.365  19.692  1.00  0.00    -0.000 C 
BRANCH   6   7
ATOM      7  C   UNL     1      16.219  -3.977  19.230  1.00  0.00    -0.000 C 
BRANCH   7   8
ATOM      8  C   UNL     1      16.196  -3.382  17.812  1.00  0.00    -0.000 C 
BRANCH   8   9
ATOM      9  C   UNL     1      15.667  -1.939  17.785  1.00  0.00    -0.000 C 
BRANCH   9  10
ATOM     10  C   UNL     1      15.178  -1.405  19.146  1.00  0.00    -0.000 C 
BRANCH  10  11
ATOM     11  C   UNL     1      16.183  -0.461  19.836  1.00  0.00    -0.003 C 
ATOM     12  C   UNL     1      16.187  -0.623  21.357  1.00  0.00     0.004 C 
ENDBRANCH  10  11
ENDBRANCH   9  10
ENDBRANCH   8   9
ENDBRANCH   7   8
ENDBRANCH   6   7
ENDBRANCH   5   6
ENDBRANCH   4   5
ENDBRANCH   3   4
ENDBRANCH   2   3
ENDBRANCH   1   2
BRANCH   1  13
ATOM     13  C   UNL     1      22.683  -1.182  22.180  1.00  0.00     0.000 C 
BRANCH  13  14
ATOM     14  C   UNL     1      22.153  -0.115  21.203  1.00  0.00     0.000 C 
BRANCH  14  15
ATOM     15  C   UNL     1      20.689   0.274  21.475  1.00  0.00     0.000 C 
BRANCH  15  16
ATOM     16  C   UNL     1      19.741  -0.160  20.347  1.00  0.00     0.000 C 
BRANCH  16  17
ATOM     17  C   UNL     1      20.466  -0.859  19.183  1.00  0.00     0.000 C 
BRANCH  17  18
ATOM     18  C   UNL     1      19.482  -1.469  18.162  1.00  0.00     0.000 C 
BRANCH  18  19
ATOM     19  C   UNL     1      19.926  -2.834  17.596  1.00  0.00     0.000 C 
BRANCH  19  20
ATOM     20  C   UNL     1      21.125  -3.480  18.311  1.00  0.00     0.006 C 
BRANCH  20  21
ATOM     21  C   UNL     1      21.040  -5.013  18.355  1.00  0.00     0.053 C 
BRANCH  21  22
ATOM     22  C   UNL     1      21.649  -5.607  17.125  1.00  0.00     0.041 C 
ATOM     23  O   UNL     1      22.685  -5.095  16.624  1.00  0.00    -0.550 OA
ATOM     24  O   UNL     1      21.085  -6.733  16.539  1.00  0.00    -0.550 OA
ENDBRANCH  21  22
ENDBRANCH  20  21
ENDBRANCH  19  20
ENDBRANCH  18  19
ENDBRANCH  17  18
ENDBRANCH  16  17
ENDBRANCH  15  16
ENDBRANCH  14  15
ENDBRANCH  13  14
ENDBRANCH   1  13
TORSDOF 20
ENDMDL
MODEL 7
REMARK VINA RESULT:    -4.996      2.172      4.375
REMARK INTER + INTRA:         -14.743
REMARK INTER:                 -11.352
REMARK INTRA:                  -3.391
REMARK UNBOUND:                -3.906
REMARK SMILES CCCCCCCCCCCCCCCCCCCCCC(=O)[O-]
REMARK SMILES IDX 12 1 11 2 10 3 9 4 8 5 7 6 6 7 5 8 4 9 3 10 2 11 1 12 13 13
REMARK SMILES IDX 14 14 15 15 16 16 17 17 18 18 19 19 20 20 21 21 22 22 23 23
REMARK SMILES IDX 24 24
REMARK H PARENT
REMARK Flexibility Score: inf
ROOT
ATOM      1  C   UNL     1      18.681  -2.578  16.972  1.00  0.00     0.000 C 
ENDROOT
BRANCH   1   2
ATOM      2  C   UNL     1      18.476  -1.107  17.377  1.00  0.00     0.000 C 
BRANCH   2   3
ATOM      3  C   UNL     1      17.050  -0.831  17.881  1.00  0.00     0.000 C 
BRANCH   3   4
ATOM      4  C   UNL     1      16.975   0.420  18.776  1.00  0.00    -0.000 C 
BRANCH   4   5
ATOM      5  C   UNL     1      17.186   0.090  20.268  1.00  0.00    -0.000 C 
BRANCH   5   6
ATOM      6  C   UNL     1      18.617   0.357  20.772  1.00  0.00    -0.000 C 
BRANCH   6   7
ATOM      7  C   UNL     1      18.894  -0.083  22.219  1.00  0.00    -0.000 C 
BRANCH   7   8
ATOM      8  C   UNL     1      20.088   0.655  22.849  1.00  0.00    -0.000 C 
BRANCH   8   9
ATOM      9  C   UNL     1      21.322  -0.248  23.008  1.00  0.00    -0.000 C 
BRANCH   9  10
ATOM     10  C   UNL     1      22.544   0.175  22.170  1.00  0.00    -0.000 C 
BRANCH  10  11
ATOM     11  C   UNL     1      23.802  -0.675  22.438  1.00  0.00    -0.003 C 
ATOM     12  C   UNL     1      23.674  -2.097  21.891  1.00  0.00     0.004 C 
ENDBRANCH  10  11
ENDBRANCH   9  10
ENDBRANCH   8   9
ENDBRANCH   7   8
ENDBRANCH   6   7
ENDBRANCH   5   6
ENDBRANCH   4   5
ENDBRANCH   3   4
ENDBRANCH   2   3
ENDBRANCH   1   2
BRANCH   1  13
ATOM     13  C   UNL     1      17.455  -3.462  17.274  1.00  0.00     0.000 C 
BRANCH  13  14
ATOM     14  C   UNL     1      17.647  -4.475  18.418  1.00  0.00     0.000 C 
BRANCH  14  15
ATOM     15  C   UNL     1      16.826  -4.126  19.673  1.00  0.00     0.000 C 
BRANCH  15  16
ATOM     16  C   UNL     1      17.650  -3.375  20.730  1.00  0.00     0.000 C 
BRANCH  16  17
ATOM     17  C   UNL     1      18.805  -4.214  21.304  1.00  0.00     0.000 C 
BRANCH  17  18
ATOM     18  C   UNL     1      20.116  -3.408  21.415  1.00  0.00     0.000 C 
BRANCH  18  19
ATOM     19  C   UNL     1      20.748  -3.041  20.056  1.00  0.00     0.000 C 
BRANCH  19  20
ATOM     20  C   UNL     1      21.363  -4.220  19.282  1.00  0.00     0.006 C 
BRANCH  20  21
ATOM     21  C   UNL     1      21.541  -3.925  17.785  1.00  0.00     0.053 C 
BRANCH  21  22
ATOM     22  C   UNL     1      21.909  -5.172  17.046  1.00  0.00     0.041 C 
ATOM     23  O   UNL     1      21.096  -6.131  16.984  1.00  0.00    -0.550 OA
ATOM     24  O   UNL     1      23.142  -5.273  16.414  1.00  0.00    -0.550 OA
ENDBRANCH  21  22
ENDBRANCH  20  21
ENDBRANCH  19  20
ENDBRANCH  18  19
ENDBRANCH  17  18
ENDBRANCH  16  17
ENDBRANCH  15  16
ENDBRANCH  14  15
ENDBRANCH  13  14
ENDBRANCH   1  13
TORSDOF 20
ENDMDL
MODEL 8
REMARK VINA RESULT:    -4.983      2.229      6.650
REMARK INTER + INTRA:         -14.716
REMARK INTER:                 -11.242
REMARK INTRA:                  -3.474
REMARK UNBOUND:                -3.906
REMARK SMILES CCCCCCCCCCCCCCCCCCCCCC(=O)[O-]
REMARK SMILES IDX 12 1 11 2 10 3 9 4 8 5 7 6 6 7 5 8 4 9 3 10 2 11 1 12 13 13
REMARK SMILES IDX 14 14 15 15 16 16 17 17 18 18 19 19 20 20 21 21 22 22 23 23
REMARK SMILES IDX 24 24
REMARK H PARENT
REMARK Flexibility Score: inf
ROOT
ATOM      1  C   UNL     1      16.135  -2.077  20.567  1.00  0.00     0.000 C 
ENDROOT
BRANCH   1   2
ATOM      2  C   UNL     1      15.390  -0.860  19.990  1.00  0.00     0.000 C 
BRANCH   2   3
ATOM      3  C   UNL     1      15.566  -0.732  18.469  1.00  0.00     0.000 C 
BRANCH   3   4
ATOM      4  C   UNL     1      16.599   0.345  18.085  1.00  0.00    -0.000 C 
BRANCH   4   5
ATOM      5  C   UNL     1      17.728  -0.214  17.195  1.00  0.00    -0.000 C 
BRANCH   5   6
ATOM      6  C   UNL     1      18.686  -1.172  17.928  1.00  0.00    -0.000 C 
BRANCH   6   7
ATOM      7  C   UNL     1      18.928  -2.519  17.227  1.00  0.00    -0.000 C 
BRANCH   7   8
ATOM      8  C   UNL     1      18.121  -3.671  17.852  1.00  0.00    -0.000 C 
BRANCH   8   9
ATOM      9  C   UNL     1      16.724  -3.819  17.228  1.00  0.00    -0.000 C 
BRANCH   9  10
ATOM     10  C   UNL     1      15.785  -4.789  17.970  1.00  0.00    -0.000 C 
BRANCH  10  11
ATOM     11  C   UNL     1      14.933  -5.666  17.030  1.00  0.00    -0.003 C 
ATOM     12  C   UNL     1      15.745  -6.232  15.864  1.00  0.00     0.004 C 
ENDBRANCH  10  11
ENDBRANCH   9  10
ENDBRANCH   8   9
ENDBRANCH   7   8
ENDBRANCH   6   7
ENDBRANCH   5   6
ENDBRANCH   4   5
ENDBRANCH   3   4
ENDBRANCH   2   3
ENDBRANCH   1   2
BRANCH   1  13
ATOM     13  C   UNL     1      17.526  -1.720  21.127  1.00  0.00     0.000 C 
BRANCH  13  14
ATOM     14  C   UNL     1      17.653  -0.297  21.702  1.00  0.00     0.000 C 
BRANCH  14  15
ATOM     15  C   UNL     1      19.013   0.355  21.395  1.00  0.00     0.000 C 
BRANCH  15  16
ATOM     16  C   UNL     1      19.856   0.590  22.657  1.00  0.00     0.000 C 
BRANCH  16  17
ATOM     17  C   UNL     1      21.368   0.440  22.410  1.00  0.00     0.000 C 
BRANCH  17  18
ATOM     18  C   UNL     1      21.971  -0.753  23.182  1.00  0.00     0.000 C 
BRANCH  18  19
ATOM     19  C   UNL     1      20.955  -1.862  23.525  1.00  0.00     0.000 C 
BRANCH  19  20
ATOM     20  C   UNL     1      21.239  -3.231  22.884  1.00  0.00     0.006 C 
BRANCH  20  21
ATOM     21  C   UNL     1      20.314  -3.541  21.699  1.00  0.00     0.053 C 
BRANCH  21  22
ATOM     22  C   UNL     1      21.026  -3.310  20.404  1.00  0.00     0.041 C 
ATOM     23  O   UNL     1      21.329  -4.287  19.668  1.00  0.00    -0.550 OA
ATOM     24  O   UNL     1      21.343  -2.019  20.001  1.00  0.00    -0.550 OA
ENDBRANCH  21  22
ENDBRANCH  20  21
ENDBRANCH  19  20
ENDBRANCH  18  19
ENDBRANCH  17  18
ENDBRANCH  16  17
ENDBRANCH  15  16
ENDBRANCH  14  15
ENDBRANCH  13  14
ENDBRANCH   1  13
TORSDOF 20
ENDMDL
MODEL 9
REMARK VINA RESULT:    -4.925      3.595      7.002
REMARK INTER + INTRA:         -14.589
REMARK INTER:                 -11.107
REMARK INTRA:                  -3.482
REMARK UNBOUND:                -3.906
REMARK SMILES CCCCCCCCCCCCCCCCCCCCCC(=O)[O-]
REMARK SMILES IDX 12 1 11 2 10 3 9 4 8 5 7 6 6 7 5 8 4 9 3 10 2 11 1 12 13 13
REMARK SMILES IDX 14 14 15 15 16 16 17 17 18 18 19 19 20 20 21 21 22 22 23 23
REMARK SMILES IDX 24 24
REMARK H PARENT
REMARK Flexibility Score: inf
ROOT
ATOM      1  C   UNL     1      19.859  -4.704  18.281  1.00  0.00     0.000 C 
ENDROOT
BRANCH   1   2
ATOM      2  C   UNL     1      20.294  -3.440  17.517  1.00  0.00     0.000 C 
BRANCH   2   3
ATOM      3  C   UNL     1      19.099  -2.571  17.093  1.00  0.00     0.000 C 
BRANCH   3   4
ATOM      4  C   UNL     1      19.103  -1.192  17.780  1.00  0.00    -0.000 C 
BRANCH   4   5
ATOM      5  C   UNL     1      17.738  -0.480  17.675  1.00  0.00    -0.000 C 
BRANCH   5   6
ATOM      6  C   UNL     1      17.183   0.012  19.025  1.00  0.00    -0.000 C 
BRANCH   6   7
ATOM      7  C   UNL     1      17.823  -0.628  20.268  1.00  0.00    -0.000 C 
BRANCH   7   8
ATOM      8  C   UNL     1      17.022  -1.829  20.801  1.00  0.00    -0.000 C 
BRANCH   8   9
ATOM      9  C   UNL     1      15.893  -2.255  19.848  1.00  0.00    -0.000 C 
BRANCH   9  10
ATOM     10  C   UNL     1      16.123  -3.603  19.137  1.00  0.00    -0.000 C 
BRANCH  10  11
ATOM     11  C   UNL     1      15.576  -3.643  17.696  1.00  0.00    -0.003 C 
ATOM     12  C   UNL     1      16.110  -4.835  16.901  1.00  0.00     0.004 C 
ENDBRANCH  10  11
ENDBRANCH   9  10
ENDBRANCH   8   9
ENDBRANCH   7   8
ENDBRANCH   6   7
ENDBRANCH   5   6
ENDBRANCH   4   5
ENDBRANCH   3   4
ENDBRANCH   2   3
ENDBRANCH   1   2
BRANCH   1  13
ATOM     13  C   UNL     1      19.532  -4.428  19.762  1.00  0.00     0.000 C 
BRANCH  13  14
ATOM     14  C   UNL     1      20.500  -3.465  20.475  1.00  0.00     0.000 C 
BRANCH  14  15
ATOM     15  C   UNL     1      20.207  -3.327  21.980  1.00  0.00     0.000 C 
BRANCH  15  16
ATOM     16  C   UNL     1      21.430  -2.858  22.781  1.00  0.00     0.000 C 
BRANCH  16  17
ATOM     17  C   UNL     1      21.114  -1.702  23.747  1.00  0.00     0.000 C 
BRANCH  17  18
ATOM     18  C   UNL     1      20.093  -0.707  23.154  1.00  0.00     0.000 C 
BRANCH  18  19
ATOM     19  C   UNL     1      20.717   0.373  22.247  1.00  0.00     0.000 C 
BRANCH  19  20
ATOM     20  C   UNL     1      22.089   0.899  22.705  1.00  0.00     0.006 C 
BRANCH  20  21
ATOM     21  C   UNL     1      23.155   0.827  21.603  1.00  0.00     0.053 C 
BRANCH  21  22
ATOM     22  C   UNL     1      24.449   0.319  22.157  1.00  0.00     0.041 C 
ATOM     23  O   UNL     1      25.528   0.551  21.552  1.00  0.00    -0.550 OA
ATOM     24  O   UNL     1      24.466  -0.399  23.347  1.00  0.00    -0.550 OA
ENDBRANCH  21  22
ENDBRANCH  20  21
ENDBRANCH  19  20
ENDBRANCH  18  19
ENDBRANCH  17  18
ENDBRANCH  16  17
ENDBRANCH  15  16
ENDBRANCH  14  15
ENDBRANCH  13  14
ENDBRANCH   1  13
TORSDOF 20
ENDMDL
