MODEL 1
REMARK VINA RESULT:    -5.123      0.000      0.000
REMARK INTER + INTRA:         -18.015
REMARK INTER:                 -12.910
REMARK INTRA:                  -5.106
REMARK UNBOUND:                -5.106
REMARK SMILES CCCCCCCCCCCCCCCCCCCCCCCCCCCC(=O)[O-]
REMARK SMILES IDX 15 1 16 2 17 3 18 4 19 5 20 6 21 7 22 8 23 9 24 10 25 11
REMARK SMILES IDX 26 12 27 13 28 14 29 15 30 16 14 17 13 18 12 19 11 20 10 21
REMARK SMILES IDX 9 22 8 23 7 24 6 25 5 26 4 27 3 28 2 29 1 30
REMARK H PARENT
REMARK Flexibility Score: inf
ROOT
ATOM      1  C   UNL     1      45.687  50.225  11.189  1.00  0.00     0.000 C 
ENDROOT
BRANCH   1   2
ATOM      2  C   UNL     1      47.184  49.939  10.993  1.00  0.00     0.000 C 
BRANCH   2   3
ATOM      3  C   UNL     1      47.473  48.468  10.658  1.00  0.00     0.000 C 
BRANCH   3   4
ATOM      4  C   UNL     1      46.886  48.046   9.300  1.00  0.00     0.000 C 
BRANCH   4   5
ATOM      5  C   UNL     1      46.639  46.531   9.214  1.00  0.00     0.000 C 
BRANCH   5   6
ATOM      6  C   UNL     1      46.413  45.892  10.595  1.00  0.00     0.000 C 
BRANCH   6   7
ATOM      7  C   UNL     1      44.933  45.567  10.865  1.00  0.00     0.000 C 
BRANCH   7   8
ATOM      8  C   UNL     1      44.073  46.770  11.296  1.00  0.00     0.000 C 
BRANCH   8   9
ATOM      9  C   UNL     1      42.614  46.434  11.664  1.00  0.00     0.000 C 
BRANCH   9  10
ATOM     10  C   UNL     1      41.886  47.513  12.491  1.00  0.00     0.000 C 
BRANCH  10  11
ATOM     11  C   UNL     1      42.784  48.661  12.996  1.00  0.00     0.000 C 
BRANCH  11  12
ATOM     12  C   UNL     1      42.031  49.939  13.417  1.00  0.00     0.006 C 
BRANCH  12  13
ATOM     13  C   UNL     1      40.606  50.051  12.852  1.00  0.00     0.053 C 
BRANCH  13  14
ATOM     14  C   UNL     1      39.754  50.989  13.651  1.00  0.00     0.041 C 
ATOM     15  O   UNL     1      40.049  51.250  14.847  1.00  0.00    -0.550 OA
ATOM     16  O   UNL     1      38.637  51.579  13.072  1.00  0.00    -0.550 OA
ENDBRANCH  13  14
ENDBRANCH  12  13
ENDBRANCH  11  12
ENDBRANCH  10  11
ENDBRANCH   9  10
ENDBRANCH   8   9
ENDBRANCH   7   8
ENDBRANCH   6   7
ENDBRANCH   5   6
ENDBRANCH   4   5
ENDBRANCH   3   4
ENDBRANCH   2   3
ENDBRANCH   1   2
BRANCH   1  17
ATOM     17  C   UNL     1      45.271  51.487  10.426  1.00  0.00     0.000 C 
BRANCH  17  18
ATOM     18  C   UNL     1      44.188  51.176   9.381  1.00  0.00     0.000 C 
BRANCH  18  19
ATOM     19  C   UNL     1      43.655  49.739   9.502  1.00  0.00     0.000 C 
BRANCH  19  20
ATOM     20  C   UNL     1      42.119  49.673   9.415  1.00  0.00     0.000 C 
BRANCH  20  21
ATOM     21  C   UNL     1      41.624  48.702   8.332  1.00  0.00     0.000 C 
BRANCH  21  22
ATOM     22  C   UNL     1      42.428  48.822   7.026  1.00  0.00    -0.000 C 
BRANCH  22  23
ATOM     23  C   UNL     1      42.946  47.466   6.519  1.00  0.00    -0.000 C 
BRANCH  23  24
ATOM     24  C   UNL     1      43.433  46.555   7.661  1.00  0.00    -0.000 C 
BRANCH  24  25
ATOM     25  C   UNL     1      42.722  45.189   7.689  1.00  0.00    -0.000 C 
BRANCH  25  26
ATOM     26  C   UNL     1      41.408  45.145   8.493  1.00  0.00    -0.000 C 
BRANCH  26  27
ATOM     27  C   UNL     1      40.325  44.277   7.831  1.00  0.00    -0.000 C 
BRANCH  27  28
ATOM     28  C   UNL     1      38.964  44.989   7.745  1.00  0.00    -0.000 C 
BRANCH  28  29
ATOM     29  C   UNL     1      38.627  45.512   6.333  1.00  0.00    -0.003 C 
ATOM     30  C   UNL     1      39.297  46.856   6.041  1.00  0.00     0.004 C 
ENDBRANCH  28  29
ENDBRANCH  27  28
ENDBRANCH  26  27
ENDBRANCH  25  26
ENDBRANCH  24  25
ENDBRANCH  23  24
ENDBRANCH  22  23
ENDBRANCH  21  22
ENDBRANCH  20  21
ENDBRANCH  19  20
ENDBRANCH  18  19
ENDBRANCH  17  18
ENDBRANCH   1  17
TORSDOF 26
ENDMDL
MODEL 2
REMARK VINA RESULT:    -5.105      1.224      5.995
REMARK INTER + INTRA:         -17.970
REMARK INTER:                 -13.847
REMARK INTRA:                  -4.123
REMARK UNBOUND:                -5.106
REMARK SMILES CCCCCCCCCCCCCCCCCCCCCCCCCCCC(=O)[O-]
REMARK SMILES IDX 15 1 16 2 17 3 18 4 19 5 20 6 21 7 22 8 23 9 24 10 25 11
REMARK SMILES IDX 26 12 27 13 28 14 29 15 30 16 14 17 13 18 12 19 11 20 10 21
REMARK SMILES IDX 9 22 8 23 7 24 6 25 5 26 4 27 3 28 2 29 1 30
REMARK H PARENT
REMARK Flexibility Score: inf
ROOT
ATOM      1  C   UNL     1      38.791  46.503   5.820  1.00  0.00     0.000 C 
ENDROOT
BRANCH   1   2
ATOM      2  C   UNL     1      38.610  44.999   6.078  1.00  0.00     0.000 C 
BRANCH   2   3
ATOM      3  C   UNL     1      39.358  44.513   7.327  1.00  0.00     0.000 C 
BRANCH   3   4
ATOM      4  C   UNL     1      38.854  45.186   8.616  1.00  0.00     0.000 C 
BRANCH   4   5
ATOM      5  C   UNL     1      39.992  45.483   9.606  1.00  0.00     0.000 C 
BRANCH   5   6
ATOM      6  C   UNL     1      39.474  46.012  10.955  1.00  0.00     0.000 C 
BRANCH   6   7
ATOM      7  C   UNL     1      40.584  46.653  11.808  1.00  0.00     0.000 C 
BRANCH   7   8
ATOM      8  C   UNL     1      41.980  46.661  11.156  1.00  0.00     0.000 C 
BRANCH   8   9
ATOM      9  C   UNL     1      43.079  47.374  11.971  1.00  0.00     0.000 C 
BRANCH   9  10
ATOM     10  C   UNL     1      42.562  48.270  13.114  1.00  0.00     0.000 C 
BRANCH  10  11
ATOM     11  C   UNL     1      42.491  49.774  12.781  1.00  0.00     0.000 C 
BRANCH  11  12
ATOM     12  C   UNL     1      41.175  50.234  12.123  1.00  0.00     0.006 C 
BRANCH  12  13
ATOM     13  C   UNL     1      39.920  49.998  12.980  1.00  0.00     0.053 C 
BRANCH  13  14
ATOM     14  C   UNL     1      39.654  51.138  13.915  1.00  0.00     0.041 C 
ATOM     15  O   UNL     1      38.727  51.955  13.670  1.00  0.00    -0.550 OA
ATOM     16  O   UNL     1      40.425  51.294  15.060  1.00  0.00    -0.550 OA
ENDBRANCH  13  14
ENDBRANCH  12  13
ENDBRANCH  11  12
ENDBRANCH  10  11
ENDBRANCH   9  10
ENDBRANCH   8   9
ENDBRANCH   7   8
ENDBRANCH   6   7
ENDBRANCH   5   6
ENDBRANCH   4   5
ENDBRANCH   3   4
ENDBRANCH   2   3
ENDBRANCH   1   2
BRANCH   1  17
ATOM     17  C   UNL     1      40.272  46.893   5.900  1.00  0.00     0.000 C 
BRANCH  17  18
ATOM     18  C   UNL     1      40.486  48.075   6.858  1.00  0.00     0.000 C 
BRANCH  18  19
ATOM     19  C   UNL     1      41.832  47.992   7.597  1.00  0.00     0.000 C 
BRANCH  19  20
ATOM     20  C   UNL     1      42.065  49.195   8.530  1.00  0.00     0.000 C 
BRANCH  20  21
ATOM     21  C   UNL     1      43.542  49.375   8.912  1.00  0.00     0.000 C 
BRANCH  21  22
ATOM     22  C   UNL     1      43.843  50.787   9.441  1.00  0.00    -0.000 C 
BRANCH  22  23
ATOM     23  C   UNL     1      45.348  51.099   9.483  1.00  0.00    -0.000 C 
BRANCH  23  24
ATOM     24  C   UNL     1      45.883  51.235  10.920  1.00  0.00    -0.000 C 
BRANCH  24  25
ATOM     25  C   UNL     1      46.903  50.141  11.290  1.00  0.00    -0.000 C 
BRANCH  25  26
ATOM     26  C   UNL     1      47.125  49.056  10.219  1.00  0.00    -0.000 C 
BRANCH  26  27
ATOM     27  C   UNL     1      46.381  47.745  10.523  1.00  0.00    -0.000 C 
BRANCH  27  28
ATOM     28  C   UNL     1      46.205  46.859   9.279  1.00  0.00    -0.000 C 
BRANCH  28  29
ATOM     29  C   UNL     1      47.421  45.954   8.987  1.00  0.00    -0.003 C 
ATOM     30  C   UNL     1      47.218  45.101   7.734  1.00  0.00     0.004 C 
ENDBRANCH  28  29
ENDBRANCH  27  28
ENDBRANCH  26  27
ENDBRANCH  25  26
ENDBRANCH  24  25
ENDBRANCH  23  24
ENDBRANCH  22  23
ENDBRANCH  21  22
ENDBRANCH  20  21
ENDBRANCH  19  20
ENDBRANCH  18  19
ENDBRANCH  17  18
ENDBRANCH   1  17
TORSDOF 26
ENDMDL
MODEL 3
REMARK VINA RESULT:    -4.838      1.535      5.413
REMARK INTER + INTRA:         -17.297
REMARK INTER:                 -12.657
REMARK INTRA:                  -4.640
REMARK UNBOUND:                -5.106
REMARK SMILES CCCCCCCCCCCCCCCCCCCCCCCCCCCC(=O)[O-]
REMARK SMILES IDX 15 1 16 2 17 3 18 4 19 5 20 6 21 7 22 8 23 9 24 10 25 11
REMARK SMILES IDX 26 12 27 13 28 14 29 15 30 16 14 17 13 18 12 19 11 20 10 21
REMARK SMILES IDX 9 22 8 23 7 24 6 25 5 26 4 27 3 28 2 29 1 30
REMARK H PARENT
REMARK Flexibility Score: inf
ROOT
ATOM      1  C   UNL     1      42.537  46.542   7.954  1.00  0.00     0.000 C 
ENDROOT
BRANCH   1   2
ATOM      2  C   UNL     1      41.742  47.026   6.732  1.00  0.00     0.000 C 
BRANCH   2   3
ATOM      3  C   UNL     1      40.323  47.492   7.088  1.00  0.00     0.000 C 
BRANCH   3   4
ATOM      4  C   UNL     1      39.238  46.534   6.566  1.00  0.00     0.000 C 
BRANCH   4   5
ATOM      5  C   UNL     1      39.031  45.323   7.490  1.00  0.00     0.000 C 
BRANCH   5   6
ATOM      6  C   UNL     1      38.645  45.734   8.922  1.00  0.00     0.000 C 
BRANCH   6   7
ATOM      7  C   UNL     1      39.772  45.480   9.938  1.00  0.00     0.000 C 
BRANCH   7   8
ATOM      8  C   UNL     1      39.409  45.798  11.402  1.00  0.00     0.000 C 
BRANCH   8   9
ATOM      9  C   UNL     1      40.310  46.845  12.087  1.00  0.00     0.000 C 
BRANCH   9  10
ATOM     10  C   UNL     1      41.260  47.605  11.140  1.00  0.00     0.000 C 
BRANCH  10  11
ATOM     11  C   UNL     1      42.644  47.937  11.734  1.00  0.00     0.000 C 
BRANCH  11  12
ATOM     12  C   UNL     1      42.636  48.324  13.226  1.00  0.00     0.006 C 
BRANCH  12  13
ATOM     13  C   UNL     1      42.707  49.837  13.489  1.00  0.00     0.053 C 
BRANCH  13  14
ATOM     14  C   UNL     1      41.398  50.389  13.965  1.00  0.00     0.041 C 
ATOM     15  O   UNL     1      41.328  50.994  15.067  1.00  0.00    -0.550 OA
ATOM     16  O   UNL     1      40.256  50.238  13.188  1.00  0.00    -0.550 OA
ENDBRANCH  13  14
ENDBRANCH  12  13
ENDBRANCH  11  12
ENDBRANCH  10  11
ENDBRANCH   9  10
ENDBRANCH   8   9
ENDBRANCH   7   8
ENDBRANCH   6   7
ENDBRANCH   5   6
ENDBRANCH   4   5
ENDBRANCH   3   4
ENDBRANCH   2   3
ENDBRANCH   1   2
BRANCH   1  17
ATOM     17  C   UNL     1      43.871  47.291   8.065  1.00  0.00     0.000 C 
BRANCH  17  18
ATOM     18  C   UNL     1      44.976  46.383   8.627  1.00  0.00     0.000 C 
BRANCH  18  19
ATOM     19  C   UNL     1      45.465  46.845  10.009  1.00  0.00     0.000 C 
BRANCH  19  20
ATOM     20  C   UNL     1      46.929  47.323   9.985  1.00  0.00     0.000 C 
BRANCH  20  21
ATOM     21  C   UNL     1      47.115  48.704  10.632  1.00  0.00     0.000 C 
BRANCH  21  22
ATOM     22  C   UNL     1      47.367  49.809   9.592  1.00  0.00    -0.000 C 
BRANCH  22  23
ATOM     23  C   UNL     1      46.207  50.814   9.499  1.00  0.00    -0.000 C 
BRANCH  23  24
ATOM     24  C   UNL     1      45.296  50.782  10.740  1.00  0.00    -0.000 C 
BRANCH  24  25
ATOM     25  C   UNL     1      43.810  51.008  10.404  1.00  0.00    -0.000 C 
BRANCH  25  26
ATOM     26  C   UNL     1      43.444  50.887   8.912  1.00  0.00    -0.000 C 
BRANCH  26  27
ATOM     27  C   UNL     1      42.020  50.354   8.682  1.00  0.00    -0.000 C 
BRANCH  27  28
ATOM     28  C   UNL     1      41.281  51.101   7.559  1.00  0.00    -0.000 C 
BRANCH  28  29
ATOM     29  C   UNL     1      42.191  51.499   6.377  1.00  0.00    -0.003 C 
ATOM     30  C   UNL     1      42.387  50.351   5.387  1.00  0.00     0.004 C 
ENDBRANCH  28  29
ENDBRANCH  27  28
ENDBRANCH  26  27
ENDBRANCH  25  26
ENDBRANCH  24  25
ENDBRANCH  23  24
ENDBRANCH  22  23
ENDBRANCH  21  22
ENDBRANCH  20  21
ENDBRANCH  19  20
ENDBRANCH  18  19
ENDBRANCH  17  18
ENDBRANCH   1  17
TORSDOF 26
ENDMDL
MODEL 4
REMARK VINA RESULT:    -4.830      2.525      6.206
REMARK INTER + INTRA:         -17.277
REMARK INTER:                 -12.874
REMARK INTRA:                  -4.404
REMARK UNBOUND:                -5.106
REMARK SMILES CCCCCCCCCCCCCCCCCCCCCCCCCCCC(=O)[O-]
REMARK SMILES IDX 15 1 16 2 17 3 18 4 19 5 20 6 21 7 22 8 23 9 24 10 25 11
REMARK SMILES IDX 26 12 27 13 28 14 29 15 30 16 14 17 13 18 12 19 11 20 10 21
REMARK SMILES IDX 9 22 8 23 7 24 6 25 5 26 4 27 3 28 2 29 1 30
REMARK H PARENT
REMARK Flexibility Score: inf
ROOT
ATOM      1  C   UNL     1      46.731  50.600  11.337  1.00  0.00     0.000 C 
ENDROOT
BRANCH   1   2
ATOM      2  C   UNL     1      45.618  51.230  10.485  1.00  0.00     0.000 C 
BRANCH   2   3
ATOM      3  C   UNL     1      44.224  50.681  10.822  1.00  0.00     0.000 C 
BRANCH   3   4
ATOM      4  C   UNL     1      43.195  50.964   9.712  1.00  0.00     0.000 C 
BRANCH   4   5
ATOM      5  C   UNL     1      42.374  49.718   9.343  1.00  0.00     0.000 C 
BRANCH   5   6
ATOM      6  C   UNL     1      43.136  48.770   8.400  1.00  0.00     0.000 C 
BRANCH   6   7
ATOM      7  C   UNL     1      42.417  48.564   7.055  1.00  0.00     0.000 C 
BRANCH   7   8
ATOM      8  C   UNL     1      42.979  47.420   6.188  1.00  0.00     0.000 C 
BRANCH   8   9
ATOM      9  C   UNL     1      43.136  46.067   6.909  1.00  0.00     0.000 C 
BRANCH   9  10
ATOM     10  C   UNL     1      41.846  45.229   7.009  1.00  0.00     0.000 C 
BRANCH  10  11
ATOM     11  C   UNL     1      41.163  45.246   8.392  1.00  0.00     0.000 C 
BRANCH  11  12
ATOM     12  C   UNL     1      39.968  46.211   8.517  1.00  0.00     0.006 C 
BRANCH  12  13
ATOM     13  C   UNL     1      38.671  45.701   7.866  1.00  0.00     0.053 C 
BRANCH  13  14
ATOM     14  C   UNL     1      38.695  45.841   6.375  1.00  0.00     0.041 C 
ATOM     15  O   UNL     1      38.410  44.858   5.641  1.00  0.00    -0.550 OA
ATOM     16  O   UNL     1      39.029  47.059   5.796  1.00  0.00    -0.550 OA
ENDBRANCH  13  14
ENDBRANCH  12  13
ENDBRANCH  11  12
ENDBRANCH  10  11
ENDBRANCH   9  10
ENDBRANCH   8   9
ENDBRANCH   7   8
ENDBRANCH   6   7
ENDBRANCH   5   6
ENDBRANCH   4   5
ENDBRANCH   3   4
ENDBRANCH   2   3
ENDBRANCH   1   2
BRANCH   1  17
ATOM     17  C   UNL     1      47.633  49.707  10.477  1.00  0.00     0.000 C 
BRANCH  17  18
ATOM     18  C   UNL     1      47.164  48.244  10.508  1.00  0.00     0.000 C 
BRANCH  18  19
ATOM     19  C   UNL     1      46.518  47.809   9.182  1.00  0.00     0.000 C 
BRANCH  19  20
ATOM     20  C   UNL     1      46.204  46.302   9.147  1.00  0.00     0.000 C 
BRANCH  20  21
ATOM     21  C   UNL     1      45.935  45.718  10.543  1.00  0.00     0.000 C 
BRANCH  21  22
ATOM     22  C   UNL     1      44.432  45.581  10.840  1.00  0.00    -0.000 C 
BRANCH  22  23
ATOM     23  C   UNL     1      43.816  46.870  11.407  1.00  0.00    -0.000 C 
BRANCH  23  24
ATOM     24  C   UNL     1      42.278  46.826  11.440  1.00  0.00    -0.000 C 
BRANCH  24  25
ATOM     25  C   UNL     1      41.670  47.750  12.512  1.00  0.00    -0.000 C 
BRANCH  25  26
ATOM     26  C   UNL     1      42.682  48.613  13.292  1.00  0.00    -0.000 C 
BRANCH  26  27
ATOM     27  C   UNL     1      42.089  49.943  13.783  1.00  0.00    -0.000 C 
BRANCH  27  28
ATOM     28  C   UNL     1      40.743  50.275  13.118  1.00  0.00    -0.000 C 
BRANCH  28  29
ATOM     29  C   UNL     1      39.791  51.091  14.019  1.00  0.00    -0.003 C 
ATOM     30  C   UNL     1      38.759  51.876  13.209  1.00  0.00     0.004 C 
ENDBRANCH  28  29
ENDBRANCH  27  28
ENDBRANCH  26  27
ENDBRANCH  25  26
ENDBRANCH  24  25
ENDBRANCH  23  24
ENDBRANCH  22  23
ENDBRANCH  21  22
ENDBRANCH  20  21
ENDBRANCH  19  20
ENDBRANCH  18  19
ENDBRANCH  17  18
ENDBRANCH   1  17
TORSDOF 26
ENDMDL
MODEL 5
REMARK VINA RESULT:    -4.816      1.343      4.211
REMARK INTER + INTRA:         -17.242
REMARK INTER:                 -13.193
REMARK INTRA:                  -4.048
REMARK UNBOUND:                -5.106
REMARK SMILES CCCCCCCCCCCCCCCCCCCCCCCCCCCC(=O)[O-]
REMARK SMILES IDX 15 1 16 2 17 3 18 4 19 5 20 6 21 7 22 8 23 9 24 10 25 11
REMARK SMILES IDX 26 12 27 13 28 14 29 15 30 16 14 17 13 18 12 19 11 20 10 21
REMARK SMILES IDX 9 22 8 23 7 24 6 25 5 26 4 27 3 28 2 29 1 30
REMARK H PARENT
REMARK Flexibility Score: inf
ROOT
ATOM      1  C   UNL     1      42.262  46.781  11.172  1.00  0.00     0.000 C 
ENDROOT
BRANCH   1   2
ATOM      2  C   UNL     1      43.689  46.253  11.382  1.00  0.00     0.000 C 
BRANCH   2   3
ATOM      3  C   UNL     1      44.678  46.767  10.326  1.00  0.00     0.000 C 
BRANCH   3   4
ATOM      4  C   UNL     1      46.113  46.264  10.566  1.00  0.00     0.000 C 
BRANCH   4   5
ATOM      5  C   UNL     1      47.173  47.218   9.993  1.00  0.00     0.000 C 
BRANCH   5   6
ATOM      6  C   UNL     1      46.651  48.658   9.848  1.00  0.00     0.000 C 
BRANCH   6   7
ATOM      7  C   UNL     1      47.201  49.602  10.933  1.00  0.00     0.000 C 
BRANCH   7   8
ATOM      8  C   UNL     1      46.460  50.948  11.058  1.00  0.00     0.000 C 
BRANCH   8   9
ATOM      9  C   UNL     1      44.927  50.868  10.912  1.00  0.00     0.000 C 
BRANCH   9  10
ATOM     10  C   UNL     1      44.203  50.131  12.057  1.00  0.00     0.000 C 
BRANCH  10  11
ATOM     11  C   UNL     1      42.680  49.973  11.868  1.00  0.00     0.000 C 
BRANCH  11  12
ATOM     12  C   UNL     1      41.871  49.858  13.175  1.00  0.00     0.006 C 
BRANCH  12  13
ATOM     13  C   UNL     1      40.367  50.137  13.016  1.00  0.00     0.053 C 
BRANCH  13  14
ATOM     14  C   UNL     1      39.869  51.131  14.020  1.00  0.00     0.041 C 
ATOM     15  O   UNL     1      40.521  51.347  15.076  1.00  0.00    -0.550 OA
ATOM     16  O   UNL     1      38.687  51.823  13.786  1.00  0.00    -0.550 OA
ENDBRANCH  13  14
ENDBRANCH  12  13
ENDBRANCH  11  12
ENDBRANCH  10  11
ENDBRANCH   9  10
ENDBRANCH   8   9
ENDBRANCH   7   8
ENDBRANCH   6   7
ENDBRANCH   5   6
ENDBRANCH   4   5
ENDBRANCH   3   4
ENDBRANCH   2   3
ENDBRANCH   1   2
BRANCH   1  17
ATOM     17  C   UNL     1      41.314  46.221  12.240  1.00  0.00     0.000 C 
BRANCH  17  18
ATOM     18  C   UNL     1      39.922  45.934  11.655  1.00  0.00     0.000 C 
BRANCH  18  19
ATOM     19  C   UNL     1      39.775  46.453  10.215  1.00  0.00     0.000 C 
BRANCH  19  20
ATOM     20  C   UNL     1      39.404  45.336   9.222  1.00  0.00     0.000 C 
BRANCH  20  21
ATOM     21  C   UNL     1      38.379  45.789   8.171  1.00  0.00     0.000 C 
BRANCH  21  22
ATOM     22  C   UNL     1      38.669  45.201   6.779  1.00  0.00    -0.000 C 
BRANCH  22  23
ATOM     23  C   UNL     1      38.887  46.284   5.709  1.00  0.00    -0.000 C 
BRANCH  23  24
ATOM     24  C   UNL     1      40.132  46.017   4.845  1.00  0.00    -0.000 C 
BRANCH  24  25
ATOM     25  C   UNL     1      41.278  47.011   5.115  1.00  0.00    -0.000 C 
BRANCH  25  26
ATOM     26  C   UNL     1      41.050  47.978   6.292  1.00  0.00    -0.000 C 
BRANCH  26  27
ATOM     27  C   UNL     1      41.925  47.657   7.515  1.00  0.00    -0.000 C 
BRANCH  27  28
ATOM     28  C   UNL     1      42.397  48.919   8.256  1.00  0.00    -0.000 C 
BRANCH  28  29
ATOM     29  C   UNL     1      41.806  50.227   7.690  1.00  0.00    -0.003 C 
ATOM     30  C   UNL     1      42.014  51.412   8.634  1.00  0.00     0.004 C 
ENDBRANCH  28  29
ENDBRANCH  27  28
ENDBRANCH  26  27
ENDBRANCH  25  26
ENDBRANCH  24  25
ENDBRANCH  23  24
ENDBRANCH  22  23
ENDBRANCH  21  22
ENDBRANCH  20  21
ENDBRANCH  19  20
ENDBRANCH  18  19
ENDBRANCH  17  18
ENDBRANCH   1  17
TORSDOF 26
ENDMDL
MODEL 6
REMARK VINA RESULT:    -4.804      2.375      6.806
REMARK INTER + INTRA:         -17.212
REMARK INTER:                 -12.189
REMARK INTRA:                  -5.023
REMARK UNBOUND:                -5.106
REMARK SMILES CCCCCCCCCCCCCCCCCCCCCCCCCCCC(=O)[O-]
REMARK SMILES IDX 15 1 16 2 17 3 18 4 19 5 20 6 21 7 22 8 23 9 24 10 25 11
REMARK SMILES IDX 26 12 27 13 28 14 29 15 30 16 14 17 13 18 12 19 11 20 10 21
REMARK SMILES IDX 9 22 8 23 7 24 6 25 5 26 4 27 3 28 2 29 1 30
REMARK H PARENT
REMARK Flexibility Score: inf
ROOT
ATOM      1  C   UNL     1      40.051  45.724  10.078  1.00  0.00     0.000 C 
ENDROOT
BRANCH   1   2
ATOM      2  C   UNL     1      38.777  45.753   9.220  1.00  0.00     0.000 C 
BRANCH   2   3
ATOM      3  C   UNL     1      39.057  45.528   7.727  1.00  0.00     0.000 C 
BRANCH   3   4
ATOM      4  C   UNL     1      39.346  46.839   6.976  1.00  0.00     0.000 C 
BRANCH   4   5
ATOM      5  C   UNL     1      39.341  46.656   5.450  1.00  0.00     0.000 C 
BRANCH   5   6
ATOM      6  C   UNL     1      40.305  45.550   4.987  1.00  0.00     0.000 C 
BRANCH   6   7
ATOM      7  C   UNL     1      41.781  45.898   5.252  1.00  0.00     0.000 C 
BRANCH   7   8
ATOM      8  C   UNL     1      42.488  44.988   6.275  1.00  0.00     0.000 C 
BRANCH   8   9
ATOM      9  C   UNL     1      43.560  45.684   7.139  1.00  0.00     0.000 C 
BRANCH   9  10
ATOM     10  C   UNL     1      43.006  46.555   8.284  1.00  0.00     0.000 C 
BRANCH  10  11
ATOM     11  C   UNL     1      43.116  48.077   8.056  1.00  0.00     0.000 C 
BRANCH  11  12
ATOM     12  C   UNL     1      41.993  48.915   8.698  1.00  0.00     0.006 C 
BRANCH  12  13
ATOM     13  C   UNL     1      41.323  49.916   7.742  1.00  0.00     0.053 C 
BRANCH  13  14
ATOM     14  C   UNL     1      42.317  50.834   7.100  1.00  0.00     0.041 C 
ATOM     15  O   UNL     1      43.019  51.604   7.807  1.00  0.00    -0.550 OA
ATOM     16  O   UNL     1      42.471  50.835   5.719  1.00  0.00    -0.550 OA
ENDBRANCH  13  14
ENDBRANCH  12  13
ENDBRANCH  11  12
ENDBRANCH  10  11
ENDBRANCH   9  10
ENDBRANCH   8   9
ENDBRANCH   7   8
ENDBRANCH   6   7
ENDBRANCH   5   6
ENDBRANCH   4   5
ENDBRANCH   3   4
ENDBRANCH   2   3
ENDBRANCH   1   2
BRANCH   1  17
ATOM     17  C   UNL     1      39.732  46.077  11.536  1.00  0.00     0.000 C 
BRANCH  17  18
ATOM     18  C   UNL     1      40.736  47.095  12.097  1.00  0.00     0.000 C 
BRANCH  18  19
ATOM     19  C   UNL     1      42.187  46.593  12.012  1.00  0.00     0.000 C 
BRANCH  19  20
ATOM     20  C   UNL     1      43.202  47.746  11.897  1.00  0.00     0.000 C 
BRANCH  20  21
ATOM     21  C   UNL     1      42.792  48.983  12.710  1.00  0.00     0.000 C 
BRANCH  21  22
ATOM     22  C   UNL     1      43.704  50.192  12.438  1.00  0.00    -0.000 C 
BRANCH  22  23
ATOM     23  C   UNL     1      44.591  50.001  11.197  1.00  0.00    -0.000 C 
BRANCH  23  24
ATOM     24  C   UNL     1      46.068  50.343  11.469  1.00  0.00    -0.000 C 
BRANCH  24  25
ATOM     25  C   UNL     1      47.023  49.787  10.396  1.00  0.00    -0.000 C 
BRANCH  25  26
ATOM     26  C   UNL     1      46.486  48.588   9.590  1.00  0.00    -0.000 C 
BRANCH  26  27
ATOM     27  C   UNL     1      46.966  47.232  10.133  1.00  0.00    -0.000 C 
BRANCH  27  28
ATOM     28  C   UNL     1      47.055  46.153   9.041  1.00  0.00    -0.000 C 
BRANCH  28  29
ATOM     29  C   UNL     1      46.382  44.820   9.432  1.00  0.00    -0.003 C 
ATOM     30  C   UNL     1      45.392  44.989  10.586  1.00  0.00     0.004 C 
ENDBRANCH  28  29
ENDBRANCH  27  28
ENDBRANCH  26  27
ENDBRANCH  25  26
ENDBRANCH  24  25
ENDBRANCH  23  24
ENDBRANCH  22  23
ENDBRANCH  21  22
ENDBRANCH  20  21
ENDBRANCH  19  20
ENDBRANCH  18  19
ENDBRANCH  17  18
ENDBRANCH   1  17
TORSDOF 26
ENDMDL
MODEL 7
REMARK VINA RESULT:    -4.742      1.496      3.655
REMARK INTER + INTRA:         -17.055
REMARK INTER:                 -11.757
REMARK INTRA:                  -5.298
REMARK UNBOUND:                -5.106
REMARK SMILES CCCCCCCCCCCCCCCCCCCCCCCCCCCC(=O)[O-]
REMARK SMILES IDX 15 1 16 2 17 3 18 4 19 5 20 6 21 7 22 8 23 9 24 10 25 11
REMARK SMILES IDX 26 12 27 13 28 14 29 15 30 16 14 17 13 18 12 19 11 20 10 21
REMARK SMILES IDX 9 22 8 23 7 24 6 25 5 26 4 27 3 28 2 29 1 30
REMARK H PARENT
REMARK Flexibility Score: inf
ROOT
ATOM      1  C   UNL     1      42.507  49.310   8.575  1.00  0.00     0.000 C 
ENDROOT
BRANCH   1   2
ATOM      2  C   UNL     1      42.792  50.332   9.686  1.00  0.00     0.000 C 
BRANCH   2   3
ATOM      3  C   UNL     1      44.289  50.631   9.854  1.00  0.00     0.000 C 
BRANCH   3   4
ATOM      4  C   UNL     1      44.737  50.590  11.326  1.00  0.00     0.000 C 
BRANCH   4   5
ATOM      5  C   UNL     1      46.243  50.322  11.474  1.00  0.00     0.000 C 
BRANCH   5   6
ATOM      6  C   UNL     1      46.813  49.506  10.301  1.00  0.00     0.000 C 
BRANCH   6   7
ATOM      7  C   UNL     1      47.242  48.087  10.716  1.00  0.00     0.000 C 
BRANCH   7   8
ATOM      8  C   UNL     1      47.106  47.019   9.613  1.00  0.00     0.000 C 
BRANCH   8   9
ATOM      9  C   UNL     1      45.695  46.418   9.455  1.00  0.00     0.000 C 
BRANCH   9  10
ATOM     10  C   UNL     1      44.959  46.130  10.779  1.00  0.00     0.000 C 
BRANCH  10  11
ATOM     11  C   UNL     1      43.665  46.940  10.994  1.00  0.00     0.000 C 
BRANCH  11  12
ATOM     12  C   UNL     1      43.054  46.831  12.405  1.00  0.00     0.006 C 
BRANCH  12  13
ATOM     13  C   UNL     1      42.533  48.161  12.975  1.00  0.00     0.053 C 
BRANCH  13  14
ATOM     14  C   UNL     1      41.139  48.463  12.516  1.00  0.00     0.041 C 
ATOM     15  O   UNL     1      40.711  49.647  12.525  1.00  0.00    -0.550 OA
ATOM     16  O   UNL     1      40.315  47.435  12.074  1.00  0.00    -0.550 OA
ENDBRANCH  13  14
ENDBRANCH  12  13
ENDBRANCH  11  12
ENDBRANCH  10  11
ENDBRANCH   9  10
ENDBRANCH   8   9
ENDBRANCH   7   8
ENDBRANCH   6   7
ENDBRANCH   5   6
ENDBRANCH   4   5
ENDBRANCH   3   4
ENDBRANCH   2   3
ENDBRANCH   1   2
BRANCH   1  17
ATOM     17  C   UNL     1      41.443  49.842   7.608  1.00  0.00     0.000 C 
BRANCH  17  18
ATOM     18  C   UNL     1      41.413  49.026   6.307  1.00  0.00     0.000 C 
BRANCH  18  19
ATOM     19  C   UNL     1      42.691  48.195   6.108  1.00  0.00     0.000 C 
BRANCH  19  20
ATOM     20  C   UNL     1      42.530  47.120   5.018  1.00  0.00     0.000 C 
BRANCH  20  21
ATOM     21  C   UNL     1      42.494  45.694   5.588  1.00  0.00     0.000 C 
BRANCH  21  22
ATOM     22  C   UNL     1      43.161  45.599   6.971  1.00  0.00    -0.000 C 
BRANCH  22  23
ATOM     23  C   UNL     1      42.235  44.994   8.039  1.00  0.00    -0.000 C 
BRANCH  23  24
ATOM     24  C   UNL     1      41.173  45.992   8.535  1.00  0.00    -0.000 C 
BRANCH  24  25
ATOM     25  C   UNL     1      39.841  45.317   8.913  1.00  0.00    -0.000 C 
BRANCH  25  26
ATOM     26  C   UNL     1      38.609  45.796   8.122  1.00  0.00    -0.000 C 
BRANCH  26  27
ATOM     27  C   UNL     1      38.946  46.236   6.687  1.00  0.00    -0.000 C 
BRANCH  27  28
ATOM     28  C   UNL     1      38.306  45.330   5.622  1.00  0.00    -0.000 C 
BRANCH  28  29
ATOM     29  C   UNL     1      39.295  44.333   4.982  1.00  0.00    -0.003 C 
ATOM     30  C   UNL     1      39.382  43.022   5.764  1.00  0.00     0.004 C 
ENDBRANCH  28  29
ENDBRANCH  27  28
ENDBRANCH  26  27
ENDBRANCH  25  26
ENDBRANCH  24  25
ENDBRANCH  23  24
ENDBRANCH  22  23
ENDBRANCH  21  22
ENDBRANCH  20  21
ENDBRANCH  19  20
ENDBRANCH  18  19
ENDBRANCH  17  18
ENDBRANCH   1  17
TORSDOF 26
ENDMDL
MODEL 8
REMARK VINA RESULT:    -4.727      3.101      6.061
REMARK INTER + INTRA:         -17.018
REMARK INTER:                 -12.098
REMARK INTRA:                  -4.920
REMARK UNBOUND:                -5.106
REMARK SMILES CCCCCCCCCCCCCCCCCCCCCCCCCCCC(=O)[O-]
REMARK SMILES IDX 15 1 16 2 17 3 18 4 19 5 20 6 21 7 22 8 23 9 24 10 25 11
REMARK SMILES IDX 26 12 27 13 28 14 29 15 30 16 14 17 13 18 12 19 11 20 10 21
REMARK SMILES IDX 9 22 8 23 7 24 6 25 5 26 4 27 3 28 2 29 1 30
REMARK H PARENT
REMARK Flexibility Score: inf
ROOT
ATOM      1  C   UNL     1      40.776  47.316  12.153  1.00  0.00     0.000 C 
ENDROOT
BRANCH   1   2
ATOM      2  C   UNL     1      42.234  46.986  12.508  1.00  0.00     0.000 C 
BRANCH   2   3
ATOM      3  C   UNL     1      43.242  47.591  11.520  1.00  0.00     0.000 C 
BRANCH   3   4
ATOM      4  C   UNL     1      42.615  48.674  10.626  1.00  0.00     0.000 C 
BRANCH   4   5
ATOM      5  C   UNL     1      43.463  49.955  10.571  1.00  0.00     0.000 C 
BRANCH   5   6
ATOM      6  C   UNL     1      44.264  50.185  11.865  1.00  0.00     0.000 C 
BRANCH   6   7
ATOM      7  C   UNL     1      45.549  51.000  11.632  1.00  0.00     0.000 C 
BRANCH   7   8
ATOM      8  C   UNL     1      45.907  51.239  10.152  1.00  0.00     0.000 C 
BRANCH   8   9
ATOM      9  C   UNL     1      46.951  50.268   9.566  1.00  0.00     0.000 C 
BRANCH   9  10
ATOM     10  C   UNL     1      47.695  49.408  10.606  1.00  0.00     0.000 C 
BRANCH  10  11
ATOM     11  C   UNL     1      47.243  47.935  10.676  1.00  0.00     0.000 C 
BRANCH  11  12
ATOM     12  C   UNL     1      46.452  47.437   9.450  1.00  0.00     0.006 C 
BRANCH  12  13
ATOM     13  C   UNL     1      47.023  46.165   8.801  1.00  0.00     0.053 C 
BRANCH  13  14
ATOM     14  C   UNL     1      46.291  44.933   9.236  1.00  0.00     0.041 C 
ATOM     15  O   UNL     1      45.624  44.936  10.305  1.00  0.00    -0.550 OA
ATOM     16  O   UNL     1      46.342  43.782   8.459  1.00  0.00    -0.550 OA
ENDBRANCH  13  14
ENDBRANCH  12  13
ENDBRANCH  11  12
ENDBRANCH  10  11
ENDBRANCH   9  10
ENDBRANCH   8   9
ENDBRANCH   7   8
ENDBRANCH   6   7
ENDBRANCH   5   6
ENDBRANCH   4   5
ENDBRANCH   3   4
ENDBRANCH   2   3
ENDBRANCH   1   2
BRANCH   1  17
ATOM     17  C   UNL     1      40.024  46.053  11.718  1.00  0.00     0.000 C 
BRANCH  17  18
ATOM     18  C   UNL     1      40.157  45.818  10.205  1.00  0.00     0.000 C 
BRANCH  18  19
ATOM     19  C   UNL     1      38.791  45.740   9.503  1.00  0.00     0.000 C 
BRANCH  19  20
ATOM     20  C   UNL     1      38.835  44.881   8.226  1.00  0.00     0.000 C 
BRANCH  20  21
ATOM     21  C   UNL     1      38.737  45.719   6.942  1.00  0.00     0.000 C 
BRANCH  21  22
ATOM     22  C   UNL     1      39.725  45.250   5.860  1.00  0.00    -0.000 C 
BRANCH  22  23
ATOM     23  C   UNL     1      39.785  43.719   5.731  1.00  0.00    -0.000 C 
BRANCH  23  24
ATOM     24  C   UNL     1      41.226  43.194   5.601  1.00  0.00    -0.000 C 
BRANCH  24  25
ATOM     25  C   UNL     1      42.217  44.265   5.107  1.00  0.00    -0.000 C 
BRANCH  25  26
ATOM     26  C   UNL     1      43.385  44.576   6.063  1.00  0.00    -0.000 C 
BRANCH  26  27
ATOM     27  C   UNL     1      43.000  44.453   7.546  1.00  0.00    -0.000 C 
BRANCH  27  28
ATOM     28  C   UNL     1      42.807  45.819   8.226  1.00  0.00    -0.000 C 
BRANCH  28  29
ATOM     29  C   UNL     1      43.166  47.017   7.320  1.00  0.00    -0.003 C 
ATOM     30  C   UNL     1      41.980  47.960   7.114  1.00  0.00     0.004 C 
ENDBRANCH  28  29
ENDBRANCH  27  28
ENDBRANCH  26  27
ENDBRANCH  25  26
ENDBRANCH  24  25
ENDBRANCH  23  24
ENDBRANCH  22  23
ENDBRANCH  21  22
ENDBRANCH  20  21
ENDBRANCH  19  20
ENDBRANCH  18  19
ENDBRANCH  17  18
ENDBRANCH   1  17
TORSDOF 26
ENDMDL
MODEL 9
REMARK VINA RESULT:    -4.668      1.297      2.303
REMARK INTER + INTRA:         -16.868
REMARK INTER:                 -12.311
REMARK INTRA:                  -4.557
REMARK UNBOUND:                -5.106
REMARK SMILES CCCCCCCCCCCCCCCCCCCCCCCCCCCC(=O)[O-]
REMARK SMILES IDX 15 1 16 2 17 3 18 4 19 5 20 6 21 7 22 8 23 9 24 10 25 11
REMARK SMILES IDX 26 12 27 13 28 14 29 15 30 16 14 17 13 18 12 19 11 20 10 21
REMARK SMILES IDX 9 22 8 23 7 24 6 25 5 26 4 27 3 28 2 29 1 30
REMARK H PARENT
REMARK Flexibility Score: inf
ROOT
ATOM      1  C   UNL     1      43.616  51.000  10.310  1.00  0.00     0.000 C 
ENDROOT
BRANCH   1   2
ATOM      2  C   UNL     1      44.866  50.830  11.187  1.00  0.00     0.000 C 
BRANCH   2   3
ATOM      3  C   UNL     1      46.171  50.831  10.376  1.00  0.00     0.000 C 
BRANCH   3   4
ATOM      4  C   UNL     1      47.252  49.929  10.996  1.00  0.00     0.000 C 
BRANCH   4   5
ATOM      5  C   UNL     1      47.073  48.451  10.613  1.00  0.00     0.000 C 
BRANCH   5   6
ATOM      6  C   UNL     1      46.449  48.277   9.217  1.00  0.00     0.000 C 
BRANCH   6   7
ATOM      7  C   UNL     1      45.063  47.609   9.264  1.00  0.00     0.000 C 
BRANCH   7   8
ATOM      8  C   UNL     1      44.611  47.150  10.665  1.00  0.00     0.000 C 
BRANCH   8   9
ATOM      9  C   UNL     1      43.112  46.811  10.791  1.00  0.00     0.000 C 
BRANCH   9  10
ATOM     10  C   UNL     1      42.240  47.933  11.391  1.00  0.00     0.000 C 
BRANCH  10  11
ATOM     11  C   UNL     1      42.615  48.351  12.827  1.00  0.00     0.000 C 
BRANCH  11  12
ATOM     12  C   UNL     1      41.982  49.672  13.307  1.00  0.00     0.006 C 
BRANCH  12  13
ATOM     13  C   UNL     1      40.519  49.868  12.875  1.00  0.00     0.053 C 
BRANCH  13  14
ATOM     14  C   UNL     1      39.861  50.996  13.608  1.00  0.00     0.041 C 
ATOM     15  O   UNL     1      38.892  51.610  13.088  1.00  0.00    -0.550 OA
ATOM     16  O   UNL     1      40.314  51.365  14.869  1.00  0.00    -0.550 OA
ENDBRANCH  13  14
ENDBRANCH  12  13
ENDBRANCH  11  12
ENDBRANCH  10  11
ENDBRANCH   9  10
ENDBRANCH   8   9
ENDBRANCH   7   8
ENDBRANCH   6   7
ENDBRANCH   5   6
ENDBRANCH   4   5
ENDBRANCH   3   4
ENDBRANCH   2   3
ENDBRANCH   1   2
BRANCH   1  17
ATOM     17  C   UNL     1      44.007  51.376   8.875  1.00  0.00     0.000 C 
BRANCH  17  18
ATOM     18  C   UNL     1      43.056  50.736   7.852  1.00  0.00     0.000 C 
BRANCH  18  19
ATOM     19  C   UNL     1      42.001  49.836   8.517  1.00  0.00     0.000 C 
BRANCH  19  20
ATOM     20  C   UNL     1      41.272  48.937   7.502  1.00  0.00     0.000 C 
BRANCH  20  21
ATOM     21  C   UNL     1      42.207  47.924   6.824  1.00  0.00     0.000 C 
BRANCH  21  22
ATOM     22  C   UNL     1      42.443  48.245   5.339  1.00  0.00    -0.000 C 
BRANCH  22  23
ATOM     23  C   UNL     1      41.857  47.179   4.399  1.00  0.00    -0.000 C 
BRANCH  23  24
ATOM     24  C   UNL     1      41.994  45.754   4.964  1.00  0.00    -0.000 C 
BRANCH  24  25
ATOM     25  C   UNL     1      40.666  44.972   4.956  1.00  0.00    -0.000 C 
BRANCH  25  26
ATOM     26  C   UNL     1      39.399  45.819   5.184  1.00  0.00    -0.000 C 
BRANCH  26  27
ATOM     27  C   UNL     1      38.593  45.377   6.416  1.00  0.00    -0.000 C 
BRANCH  27  28
ATOM     28  C   UNL     1      38.997  46.131   7.693  1.00  0.00    -0.000 C 
BRANCH  28  29
ATOM     29  C   UNL     1      38.593  45.407   8.995  1.00  0.00    -0.003 C 
ATOM     30  C   UNL     1      39.523  45.749  10.160  1.00  0.00     0.004 C 
ENDBRANCH  28  29
ENDBRANCH  27  28
ENDBRANCH  26  27
ENDBRANCH  25  26
ENDBRANCH  24  25
ENDBRANCH  23  24
ENDBRANCH  22  23
ENDBRANCH  21  22
ENDBRANCH  20  21
ENDBRANCH  19  20
ENDBRANCH  18  19
ENDBRANCH  17  18
ENDBRANCH   1  17
TORSDOF 26
ENDMDL
