MODEL 1
REMARK VINA RESULT:    -4.955      0.000      0.000
REMARK INTER + INTRA:          -6.483
REMARK INTER:                  -6.114
REMARK INTRA:                  -0.369
REMARK UNBOUND:                -0.369
REMARK SMILES Oc1cc(O)c2cc(O)c(-c3cc(O)c(O)c(O)c3)[o+]c2c1.[Cl-]
REMARK SMILES IDX 10 1 20 2 21 3 22 4 2 5 3 6 4 7 6 8 7 9 8 10 11 11 12 12
REMARK SMILES IDX 13 13 19 14 15 15 17 16 14 17 16 19 18 21 9 23 1 25 5 27
REMARK H PARENT 14 18 16 20 18 22 9 24 1 26 5 28
REMARK Flexibility Score: inf
ROOT
ATOM      1  C   UNL     1      23.922  72.178  13.118  1.00  0.00     0.402 A 
ATOM      2  O   UNL     1      23.345  71.321  13.956  1.00  0.00    -0.202 OA
ATOM      3  C   UNL     1      22.252  71.609  14.656  1.00  0.00     0.368 A 
ATOM      4  C   UNL     1      21.722  70.641  15.513  1.00  0.00     0.162 A 
ATOM      5  C   UNL     1      20.577  70.916  16.263  1.00  0.00     0.128 A 
ATOM      6  C   UNL     1      19.958  72.167  16.157  1.00  0.00     0.093 A 
ATOM      7  C   UNL     1      20.472  73.153  15.306  1.00  0.00     0.136 A 
ATOM      8  C   UNL     1      21.634  72.876  14.539  1.00  0.00     0.125 A 
ATOM      9  C   UNL     1      22.211  73.798  13.651  1.00  0.00     0.078 A 
ATOM     10  C   UNL     1      23.355  73.451  12.926  1.00  0.00     0.223 A 
ENDROOT
BRANCH   1  11
ATOM     11  C   UNL     1      25.144  71.744  12.401  1.00  0.00     0.091 A 
ATOM     12  C   UNL     1      25.029  71.181  11.123  1.00  0.00     0.068 A 
ATOM     13  C   UNL     1      26.166  70.746  10.432  1.00  0.00     0.162 A 
ATOM     14  C   UNL     1      26.411  71.829  12.998  1.00  0.00     0.068 A 
ATOM     15  C   UNL     1      27.435  70.852  11.019  1.00  0.00     0.200 A 
ATOM     16  C   UNL     1      27.557  71.394  12.320  1.00  0.00     0.162 A 
BRANCH  13  17
ATOM     17  O   UNL     1      26.044  70.203   9.154  1.00  0.00    -0.504 OA
ATOM     18  H   UNL     1      25.280  69.581   8.912  1.00  0.00     0.293 HD
ENDBRANCH  13  17
BRANCH  15  19
ATOM     19  O   UNL     1      28.537  70.410  10.283  1.00  0.00    -0.502 OA
ATOM     20  H   UNL     1      29.492  70.463  10.607  1.00  0.00     0.293 HD
ENDBRANCH  15  19
BRANCH  16  21
ATOM     21  O   UNL     1      28.784  71.511  12.976  1.00  0.00    -0.504 OA
ATOM     22  H   UNL     1      29.270  70.739  13.410  1.00  0.00     0.293 HD
ENDBRANCH  16  21
ENDBRANCH   1  11
BRANCH  10  23
ATOM     23  O   UNL     1      23.899  74.348  12.005  1.00  0.00    -0.500 OA
ATOM     24  H   UNL     1      23.424  75.208  11.757  1.00  0.00     0.294 HD
ENDBRANCH  10  23
BRANCH   5  25
ATOM     25  O   UNL     1      20.062  69.939  17.112  1.00  0.00    -0.507 OA
ATOM     26  H   UNL     1      19.311  70.144  17.761  1.00  0.00     0.293 HD
ENDBRANCH   5  25
BRANCH   7  27
ATOM     27  O   UNL     1      19.799  74.377  15.259  1.00  0.00    -0.507 OA
ATOM     28  H   UNL     1      20.202  75.238  14.919  1.00  0.00     0.293 HD
ENDBRANCH   7  27
TORSDOF 7
ENDMDL
MODEL 2
REMARK VINA RESULT:    -4.888      1.368      7.069
REMARK INTER + INTRA:          -6.399
REMARK INTER:                  -6.032
REMARK INTRA:                  -0.368
REMARK UNBOUND:                -0.369
REMARK SMILES Oc1cc(O)c2cc(O)c(-c3cc(O)c(O)c(O)c3)[o+]c2c1.[Cl-]
REMARK SMILES IDX 10 1 20 2 21 3 22 4 2 5 3 6 4 7 6 8 7 9 8 10 11 11 12 12
REMARK SMILES IDX 13 13 19 14 15 15 17 16 14 17 16 19 18 21 9 23 1 25 5 27
REMARK H PARENT 14 18 16 20 18 22 9 24 1 26 5 28
REMARK Flexibility Score: inf
ROOT
ATOM      1  C   UNL     1      23.928  71.994  13.112  1.00  0.00     0.402 A 
ATOM      2  O   UNL     1      25.106  71.987  13.730  1.00  0.00    -0.202 OA
ATOM      3  C   UNL     1      26.268  71.976  13.085  1.00  0.00     0.368 A 
ATOM      4  C   UNL     1      27.454  71.967  13.823  1.00  0.00     0.162 A 
ATOM      5  C   UNL     1      28.689  71.953  13.173  1.00  0.00     0.128 A 
ATOM      6  C   UNL     1      28.740  71.945  11.774  1.00  0.00     0.093 A 
ATOM      7  C   UNL     1      27.566  71.953  11.012  1.00  0.00     0.136 A 
ATOM      8  C   UNL     1      26.308  71.971  11.669  1.00  0.00     0.125 A 
ATOM      9  C   UNL     1      25.080  71.994  10.989  1.00  0.00     0.078 A 
ATOM     10  C   UNL     1      23.881  72.015  11.706  1.00  0.00     0.223 A 
ENDROOT
BRANCH   1  11
ATOM     11  C   UNL     1      22.701  71.996  13.941  1.00  0.00     0.091 A 
ATOM     12  C   UNL     1      22.089  73.215  14.263  1.00  0.00     0.068 A 
ATOM     13  C   UNL     1      20.939  73.245  15.061  1.00  0.00     0.162 A 
ATOM     14  C   UNL     1      22.168  70.807  14.462  1.00  0.00     0.068 A 
ATOM     15  C   UNL     1      20.393  72.055  15.563  1.00  0.00     0.200 A 
ATOM     16  C   UNL     1      21.021  70.822  15.265  1.00  0.00     0.162 A 
BRANCH  13  17
ATOM     17  O   UNL     1      20.327  74.461  15.361  1.00  0.00    -0.504 OA
ATOM     18  H   UNL     1      20.196  74.768  16.319  1.00  0.00     0.293 HD
ENDBRANCH  13  17
BRANCH  15  19
ATOM     19  O   UNL     1      19.241  72.141  16.347  1.00  0.00    -0.502 OA
ATOM     20  H   UNL     1      19.037  72.908  16.972  1.00  0.00     0.293 HD
ENDBRANCH  15  19
BRANCH  16  21
ATOM     21  O   UNL     1      20.548  69.600  15.747  1.00  0.00    -0.504 OA
ATOM     22  H   UNL     1      19.580  69.413  15.966  1.00  0.00     0.293 HD
ENDBRANCH  16  21
ENDBRANCH   1  11
BRANCH  10  23
ATOM     23  O   UNL     1      22.662  72.089  11.029  1.00  0.00    -0.500 OA
ATOM     24  H   UNL     1      21.826  71.644  11.390  1.00  0.00     0.294 HD
ENDBRANCH  10  23
BRANCH   5  25
ATOM     25  O   UNL     1      29.861  71.945  13.927  1.00  0.00    -0.507 OA
ATOM     26  H   UNL     1      29.847  71.770  14.925  1.00  0.00     0.293 HD
ENDBRANCH   5  25
BRANCH   7  27
ATOM     27  O   UNL     1      27.701  71.942   9.621  1.00  0.00    -0.507 OA
ATOM     28  H   UNL     1      27.478  72.722   9.020  1.00  0.00     0.293 HD
ENDBRANCH   7  27
TORSDOF 7
ENDMDL
MODEL 3
REMARK VINA RESULT:    -4.783      0.203      1.807
REMARK INTER + INTRA:          -6.270
REMARK INTER:                  -5.891
REMARK INTRA:                  -0.379
REMARK UNBOUND:                -0.369
REMARK SMILES Oc1cc(O)c2cc(O)c(-c3cc(O)c(O)c(O)c3)[o+]c2c1.[Cl-]
REMARK SMILES IDX 10 1 20 2 21 3 22 4 2 5 3 6 4 7 6 8 7 9 8 10 11 11 12 12
REMARK SMILES IDX 13 13 19 14 15 15 17 16 14 17 16 19 18 21 9 23 1 25 5 27
REMARK H PARENT 14 18 16 20 18 22 9 24 1 26 5 28
REMARK Flexibility Score: inf
ROOT
ATOM      1  C   UNL     1      24.001  72.137  12.959  1.00  0.00     0.402 A 
ATOM      2  O   UNL     1      23.420  71.298  13.813  1.00  0.00    -0.202 OA
ATOM      3  C   UNL     1      22.344  71.614  14.527  1.00  0.00     0.368 A 
ATOM      4  C   UNL     1      21.808  70.665  15.401  1.00  0.00     0.162 A 
ATOM      5  C   UNL     1      20.681  70.969  16.166  1.00  0.00     0.128 A 
ATOM      6  C   UNL     1      20.086  72.232  16.059  1.00  0.00     0.093 A 
ATOM      7  C   UNL     1      20.605  73.200  15.191  1.00  0.00     0.136 A 
ATOM      8  C   UNL     1      21.749  72.893  14.409  1.00  0.00     0.125 A 
ATOM      9  C   UNL     1      22.331  73.795  13.504  1.00  0.00     0.078 A 
ATOM     10  C   UNL     1      23.456  73.419  12.764  1.00  0.00     0.223 A 
ENDROOT
BRANCH   1  11
ATOM     11  C   UNL     1      25.202  71.672  12.227  1.00  0.00     0.091 A 
ATOM     12  C   UNL     1      26.473  71.895  12.775  1.00  0.00     0.068 A 
ATOM     13  C   UNL     1      27.624  71.481  12.095  1.00  0.00     0.162 A 
ATOM     14  C   UNL     1      25.101  71.063  10.967  1.00  0.00     0.068 A 
ATOM     15  C   UNL     1      27.522  70.853  10.846  1.00  0.00     0.200 A 
ATOM     16  C   UNL     1      26.244  70.648  10.273  1.00  0.00     0.162 A 
BRANCH  13  17
ATOM     17  O   UNL     1      28.883  71.693  12.656  1.00  0.00    -0.504 OA
ATOM     18  H   UNL     1      29.706  71.210  12.312  1.00  0.00     0.293 HD
ENDBRANCH  13  17
BRANCH  15  19
ATOM     19  O   UNL     1      28.701  70.453  10.214  1.00  0.00    -0.502 OA
ATOM     20  H   UNL     1      29.311  69.726  10.559  1.00  0.00     0.293 HD
ENDBRANCH  15  19
BRANCH  16  21
ATOM     21  O   UNL     1      26.065  70.049   9.024  1.00  0.00    -0.504 OA
ATOM     22  H   UNL     1      26.484  70.385   8.169  1.00  0.00     0.293 HD
ENDBRANCH  16  21
ENDBRANCH   1  11
BRANCH  10  23
ATOM     23  O   UNL     1      24.003  74.297  11.827  1.00  0.00    -0.500 OA
ATOM     24  H   UNL     1      23.419  74.872  11.231  1.00  0.00     0.294 HD
ENDBRANCH  10  23
BRANCH   5  25
ATOM     25  O   UNL     1      20.160  70.009  17.031  1.00  0.00    -0.507 OA
ATOM     26  H   UNL     1      19.168  69.800  17.054  1.00  0.00     0.293 HD
ENDBRANCH   5  25
BRANCH   7  27
ATOM     27  O   UNL     1      19.956  74.436  15.144  1.00  0.00    -0.507 OA
ATOM     28  H   UNL     1      20.425  75.329  15.196  1.00  0.00     0.293 HD
ENDBRANCH   7  27
TORSDOF 7
ENDMDL
MODEL 4
REMARK VINA RESULT:    -4.393      3.819      7.222
REMARK INTER + INTRA:          -5.790
REMARK INTER:                  -5.426
REMARK INTRA:                  -0.364
REMARK UNBOUND:                -0.369
REMARK SMILES Oc1cc(O)c2cc(O)c(-c3cc(O)c(O)c(O)c3)[o+]c2c1.[Cl-]
REMARK SMILES IDX 10 1 20 2 21 3 22 4 2 5 3 6 4 7 6 8 7 9 8 10 11 11 12 12
REMARK SMILES IDX 13 13 19 14 15 15 17 16 14 17 16 19 18 21 9 23 1 25 5 27
REMARK H PARENT 14 18 16 20 18 22 9 24 1 26 5 28
REMARK Flexibility Score: inf
ROOT
ATOM      1  C   UNL     1      22.163  69.753  16.619  1.00  0.00     0.402 A 
ATOM      2  O   UNL     1      21.757  69.823  15.354  1.00  0.00    -0.202 OA
ATOM      3  C   UNL     1      21.935  70.896  14.590  1.00  0.00     0.368 A 
ATOM      4  C   UNL     1      21.469  70.875  13.272  1.00  0.00     0.162 A 
ATOM      5  C   UNL     1      21.639  71.988  12.447  1.00  0.00     0.128 A 
ATOM      6  C   UNL     1      22.277  73.131  12.942  1.00  0.00     0.093 A 
ATOM      7  C   UNL     1      22.751  73.177  14.259  1.00  0.00     0.136 A 
ATOM      8  C   UNL     1      22.583  72.046  15.100  1.00  0.00     0.125 A 
ATOM      9  C   UNL     1      23.037  71.996  16.428  1.00  0.00     0.078 A 
ATOM     10  C   UNL     1      22.839  70.844  17.194  1.00  0.00     0.223 A 
ENDROOT
BRANCH   1  11
ATOM     11  C   UNL     1      21.898  68.505  17.372  1.00  0.00     0.091 A 
ATOM     12  C   UNL     1      22.888  67.515  17.435  1.00  0.00     0.068 A 
ATOM     13  C   UNL     1      22.655  66.319  18.125  1.00  0.00     0.162 A 
ATOM     14  C   UNL     1      20.654  68.266  17.977  1.00  0.00     0.068 A 
ATOM     15  C   UNL     1      21.421  66.089  18.748  1.00  0.00     0.200 A 
ATOM     16  C   UNL     1      20.406  67.073  18.667  1.00  0.00     0.162 A 
BRANCH  13  17
ATOM     17  O   UNL     1      23.652  65.347  18.197  1.00  0.00    -0.504 OA
ATOM     18  H   UNL     1      24.208  65.217  19.035  1.00  0.00     0.293 HD
ENDBRANCH  13  17
BRANCH  15  19
ATOM     19  O   UNL     1      21.244  64.883  19.430  1.00  0.00    -0.502 OA
ATOM     20  H   UNL     1      20.348  64.530  19.734  1.00  0.00     0.293 HD
ENDBRANCH  15  19
BRANCH  16  21
ATOM     21  O   UNL     1      19.146  66.905  19.243  1.00  0.00    -0.504 OA
ATOM     22  H   UNL     1      18.284  67.228  18.827  1.00  0.00     0.293 HD
ENDBRANCH  16  21
ENDBRANCH   1  11
BRANCH  10  23
ATOM     23  O   UNL     1      23.335  70.777  18.497  1.00  0.00    -0.500 OA
ATOM     24  H   UNL     1      23.868  69.979  18.823  1.00  0.00     0.294 HD
ENDBRANCH  10  23
BRANCH   5  25
ATOM     25  O   UNL     1      21.169  71.948  11.136  1.00  0.00    -0.507 OA
ATOM     26  H   UNL     1      21.077  72.791  10.581  1.00  0.00     0.293 HD
ENDBRANCH   5  25
BRANCH   7  27
ATOM     27  O   UNL     1      23.374  74.356  14.678  1.00  0.00    -0.507 OA
ATOM     28  H   UNL     1      24.028  74.414  15.444  1.00  0.00     0.293 HD
ENDBRANCH   7  27
TORSDOF 7
ENDMDL
MODEL 5
REMARK VINA RESULT:    -4.380      2.806      3.378
REMARK INTER + INTRA:          -5.773
REMARK INTER:                  -5.458
REMARK INTRA:                  -0.315
REMARK UNBOUND:                -0.369
REMARK SMILES Oc1cc(O)c2cc(O)c(-c3cc(O)c(O)c(O)c3)[o+]c2c1.[Cl-]
REMARK SMILES IDX 10 1 20 2 21 3 22 4 2 5 3 6 4 7 6 8 7 9 8 10 11 11 12 12
REMARK SMILES IDX 13 13 19 14 15 15 17 16 14 17 16 19 18 21 9 23 1 25 5 27
REMARK H PARENT 14 18 16 20 18 22 9 24 1 26 5 28
REMARK Flexibility Score: inf
ROOT
ATOM      1  C   UNL     1      24.034  71.975  11.832  1.00  0.00     0.402 A 
ATOM      2  O   UNL     1      23.233  70.914  11.806  1.00  0.00    -0.202 OA
ATOM      3  C   UNL     1      21.916  70.998  11.645  1.00  0.00     0.368 A 
ATOM      4  C   UNL     1      21.158  69.824  11.636  1.00  0.00     0.162 A 
ATOM      5  C   UNL     1      19.773  69.881  11.471  1.00  0.00     0.128 A 
ATOM      6  C   UNL     1      19.140  71.121  11.317  1.00  0.00     0.093 A 
ATOM      7  C   UNL     1      19.878  72.310  11.325  1.00  0.00     0.136 A 
ATOM      8  C   UNL     1      21.287  72.256  11.488  1.00  0.00     0.125 A 
ATOM      9  C   UNL     1      22.109  73.395  11.496  1.00  0.00     0.078 A 
ATOM     10  C   UNL     1      23.491  73.261  11.657  1.00  0.00     0.223 A 
ENDROOT
BRANCH   1  11
ATOM     11  C   UNL     1      25.486  71.754  12.028  1.00  0.00     0.091 A 
ATOM     12  C   UNL     1      26.075  72.092  13.254  1.00  0.00     0.068 A 
ATOM     13  C   UNL     1      27.448  71.909  13.458  1.00  0.00     0.162 A 
ATOM     14  C   UNL     1      26.297  71.265  10.993  1.00  0.00     0.068 A 
ATOM     15  C   UNL     1      28.255  71.400  12.431  1.00  0.00     0.200 A 
ATOM     16  C   UNL     1      27.673  71.081  11.182  1.00  0.00     0.162 A 
BRANCH  13  17
ATOM     17  O   UNL     1      28.022  72.233  14.687  1.00  0.00    -0.504 OA
ATOM     18  H   UNL     1      29.015  72.115  14.857  1.00  0.00     0.293 HD
ENDBRANCH  13  17
BRANCH  15  19
ATOM     19  O   UNL     1      29.617  71.230  12.691  1.00  0.00    -0.502 OA
ATOM     20  H   UNL     1      30.355  71.634  12.131  1.00  0.00     0.293 HD
ENDBRANCH  15  19
BRANCH  16  21
ATOM     21  O   UNL     1      28.416  70.591  10.106  1.00  0.00    -0.504 OA
ATOM     22  H   UNL     1      28.549  69.609   9.910  1.00  0.00     0.293 HD
ENDBRANCH  16  21
ENDBRANCH   1  11
BRANCH  10  23
ATOM     23  O   UNL     1      24.312  74.388  11.614  1.00  0.00    -0.500 OA
ATOM     24  H   UNL     1      25.105  74.494  12.237  1.00  0.00     0.294 HD
ENDBRANCH  10  23
BRANCH   5  25
ATOM     25  O   UNL     1      19.033  68.701  11.463  1.00  0.00    -0.507 OA
ATOM     26  H   UNL     1      18.562  68.366  12.295  1.00  0.00     0.293 HD
ENDBRANCH   5  25
BRANCH   7  27
ATOM     27  O   UNL     1      19.172  73.506  11.168  1.00  0.00    -0.507 OA
ATOM     28  H   UNL     1      18.500  73.681  10.436  1.00  0.00     0.293 HD
ENDBRANCH   7  27
TORSDOF 7
ENDMDL
MODEL 6
REMARK VINA RESULT:    -4.253      8.645     10.010
REMARK INTER + INTRA:          -5.617
REMARK INTER:                  -5.232
REMARK INTRA:                  -0.385
REMARK UNBOUND:                -0.369
REMARK SMILES Oc1cc(O)c2cc(O)c(-c3cc(O)c(O)c(O)c3)[o+]c2c1.[Cl-]
REMARK SMILES IDX 10 1 20 2 21 3 22 4 2 5 3 6 4 7 6 8 7 9 8 10 11 11 12 12
REMARK SMILES IDX 13 13 19 14 15 15 17 16 14 17 16 19 18 21 9 23 1 25 5 27
REMARK H PARENT 14 18 16 20 18 22 9 24 1 26 5 28
REMARK Flexibility Score: inf
ROOT
ATOM      1  C   UNL     1      23.892  81.025  12.595  1.00  0.00     0.402 A 
ATOM      2  O   UNL     1      23.202  81.916  13.301  1.00  0.00    -0.202 OA
ATOM      3  C   UNL     1      21.878  81.887  13.417  1.00  0.00     0.368 A 
ATOM      4  C   UNL     1      21.242  82.871  14.179  1.00  0.00     0.162 A 
ATOM      5  C   UNL     1      19.853  82.868  14.317  1.00  0.00     0.128 A 
ATOM      6  C   UNL     1      19.093  81.876  13.685  1.00  0.00     0.093 A 
ATOM      7  C   UNL     1      19.706  80.881  12.915  1.00  0.00     0.136 A 
ATOM      8  C   UNL     1      21.119  80.879  12.776  1.00  0.00     0.125 A 
ATOM      9  C   UNL     1      21.821  79.914  12.035  1.00  0.00     0.078 A 
ATOM     10  C   UNL     1      23.215  79.975  11.948  1.00  0.00     0.223 A 
ENDROOT
BRANCH   1  11
ATOM     11  C   UNL     1      25.365  81.168  12.533  1.00  0.00     0.091 A 
ATOM     12  C   UNL     1      26.155  80.601  13.543  1.00  0.00     0.068 A 
ATOM     13  C   UNL     1      27.548  80.738  13.518  1.00  0.00     0.162 A 
ATOM     14  C   UNL     1      25.987  81.908  11.516  1.00  0.00     0.068 A 
ATOM     15  C   UNL     1      28.171  81.459  12.489  1.00  0.00     0.200 A 
ATOM     16  C   UNL     1      27.378  82.057  11.480  1.00  0.00     0.162 A 
BRANCH  13  17
ATOM     17  O   UNL     1      28.327  80.157  14.518  1.00  0.00    -0.504 OA
ATOM     18  H   UNL     1      28.140  80.323  15.501  1.00  0.00     0.293 HD
ENDBRANCH  13  17
BRANCH  15  19
ATOM     19  O   UNL     1      29.564  81.558  12.507  1.00  0.00    -0.502 OA
ATOM     20  H   UNL     1      30.142  81.568  11.679  1.00  0.00     0.293 HD
ENDBRANCH  15  19
BRANCH  16  21
ATOM     21  O   UNL     1      27.926  82.807  10.438  1.00  0.00    -0.504 OA
ATOM     22  H   UNL     1      28.509  82.422   9.708  1.00  0.00     0.293 HD
ENDBRANCH  16  21
ENDBRANCH   1  11
BRANCH  10  23
ATOM     23  O   UNL     1      23.916  78.987  11.254  1.00  0.00    -0.500 OA
ATOM     24  H   UNL     1      24.170  79.100  10.280  1.00  0.00     0.294 HD
ENDBRANCH  10  23
BRANCH   5  25
ATOM     25  O   UNL     1      19.237  83.856  15.082  1.00  0.00    -0.507 OA
ATOM     26  H   UNL     1      19.327  83.877  16.091  1.00  0.00     0.293 HD
ENDBRANCH   5  25
BRANCH   7  27
ATOM     27  O   UNL     1      18.878  79.930  12.315  1.00  0.00    -0.507 OA
ATOM     28  H   UNL     1      18.082  79.501  12.764  1.00  0.00     0.293 HD
ENDBRANCH   7  27
TORSDOF 7
ENDMDL
MODEL 7
REMARK VINA RESULT:    -4.250      2.535      7.005
REMARK INTER + INTRA:          -5.613
REMARK INTER:                  -5.247
REMARK INTRA:                  -0.366
REMARK UNBOUND:                -0.369
REMARK SMILES Oc1cc(O)c2cc(O)c(-c3cc(O)c(O)c(O)c3)[o+]c2c1.[Cl-]
REMARK SMILES IDX 10 1 20 2 21 3 22 4 2 5 3 6 4 7 6 8 7 9 8 10 11 11 12 12
REMARK SMILES IDX 13 13 19 14 15 15 17 16 14 17 16 19 18 21 9 23 1 25 5 27
REMARK H PARENT 14 18 16 20 18 22 9 24 1 26 5 28
REMARK Flexibility Score: inf
ROOT
ATOM      1  C   UNL     1      21.091  70.810  15.878  1.00  0.00     0.402 A 
ATOM      2  O   UNL     1      22.156  70.858  15.081  1.00  0.00    -0.202 OA
ATOM      3  C   UNL     1      22.423  71.886  14.282  1.00  0.00     0.368 A 
ATOM      4  C   UNL     1      23.566  71.842  13.479  1.00  0.00     0.162 A 
ATOM      5  C   UNL     1      23.871  72.906  12.628  1.00  0.00     0.128 A 
ATOM      6  C   UNL     1      23.026  74.021  12.577  1.00  0.00     0.093 A 
ATOM      7  C   UNL     1      21.875  74.088  13.371  1.00  0.00     0.136 A 
ATOM      8  C   UNL     1      21.564  73.010  14.240  1.00  0.00     0.125 A 
ATOM      9  C   UNL     1      20.439  72.995  15.081  1.00  0.00     0.078 A 
ATOM     10  C   UNL     1      20.201  71.898  15.914  1.00  0.00     0.223 A 
ENDROOT
BRANCH   1  11
ATOM     11  C   UNL     1      20.897  69.604  16.716  1.00  0.00     0.091 A 
ATOM     12  C   UNL     1      20.010  68.605  16.290  1.00  0.00     0.068 A 
ATOM     13  C   UNL     1      19.795  67.465  17.074  1.00  0.00     0.162 A 
ATOM     14  C   UNL     1      21.537  69.465  17.957  1.00  0.00     0.068 A 
ATOM     15  C   UNL     1      20.452  67.315  18.303  1.00  0.00     0.200 A 
ATOM     16  C   UNL     1      21.328  68.331  18.752  1.00  0.00     0.162 A 
BRANCH  13  17
ATOM     17  O   UNL     1      18.924  66.468  16.634  1.00  0.00    -0.504 OA
ATOM     18  H   UNL     1      17.956  66.670  16.408  1.00  0.00     0.293 HD
ENDBRANCH  13  17
BRANCH  15  19
ATOM     19  O   UNL     1      20.207  66.154  19.040  1.00  0.00    -0.502 OA
ATOM     20  H   UNL     1      19.795  65.316  18.657  1.00  0.00     0.293 HD
ENDBRANCH  15  19
BRANCH  16  21
ATOM     21  O   UNL     1      22.000  68.262  19.974  1.00  0.00    -0.504 OA
ATOM     22  H   UNL     1      21.958  67.469  20.599  1.00  0.00     0.293 HD
ENDBRANCH  16  21
ENDBRANCH   1  11
BRANCH  10  23
ATOM     23  O   UNL     1      19.112  71.906  16.787  1.00  0.00    -0.500 OA
ATOM     24  H   UNL     1      18.299  71.322  16.629  1.00  0.00     0.294 HD
ENDBRANCH  10  23
BRANCH   5  25
ATOM     25  O   UNL     1      25.015  72.844  11.836  1.00  0.00    -0.507 OA
ATOM     26  H   UNL     1      24.990  73.082  10.851  1.00  0.00     0.293 HD
ENDBRANCH   5  25
BRANCH   7  27
ATOM     27  O   UNL     1      21.082  75.233  13.260  1.00  0.00    -0.507 OA
ATOM     28  H   UNL     1      21.383  76.163  13.516  1.00  0.00     0.293 HD
ENDBRANCH   7  27
TORSDOF 7
ENDMDL
MODEL 8
REMARK VINA RESULT:    -4.230      2.529      7.221
REMARK INTER + INTRA:          -5.588
REMARK INTER:                  -5.207
REMARK INTRA:                  -0.381
REMARK UNBOUND:                -0.369
REMARK SMILES Oc1cc(O)c2cc(O)c(-c3cc(O)c(O)c(O)c3)[o+]c2c1.[Cl-]
REMARK SMILES IDX 10 1 20 2 21 3 22 4 2 5 3 6 4 7 6 8 7 9 8 10 11 11 12 12
REMARK SMILES IDX 13 13 19 14 15 15 17 16 14 17 16 19 18 21 9 23 1 25 5 27
REMARK H PARENT 14 18 16 20 18 22 9 24 1 26 5 28
REMARK Flexibility Score: inf
ROOT
ATOM      1  C   UNL     1      21.035  70.860  15.855  1.00  0.00     0.402 A 
ATOM      2  O   UNL     1      22.113  70.887  15.076  1.00  0.00    -0.202 OA
ATOM      3  C   UNL     1      22.411  71.909  14.279  1.00  0.00     0.368 A 
ATOM      4  C   UNL     1      23.566  71.843  13.495  1.00  0.00     0.162 A 
ATOM      5  C   UNL     1      23.903  72.899  12.647  1.00  0.00     0.128 A 
ATOM      6  C   UNL     1      23.080  74.029  12.580  1.00  0.00     0.093 A 
ATOM      7  C   UNL     1      21.917  74.118  13.355  1.00  0.00     0.136 A 
ATOM      8  C   UNL     1      21.572  73.047  14.221  1.00  0.00     0.125 A 
ATOM      9  C   UNL     1      20.434  73.054  15.043  1.00  0.00     0.078 A 
ATOM     10  C   UNL     1      20.163  71.964  15.875  1.00  0.00     0.223 A 
ENDROOT
BRANCH   1  11
ATOM     11  C   UNL     1      20.805  69.660  16.692  1.00  0.00     0.091 A 
ATOM     12  C   UNL     1      21.495  69.523  17.905  1.00  0.00     0.068 A 
ATOM     13  C   UNL     1      21.310  68.389  18.705  1.00  0.00     0.162 A 
ATOM     14  C   UNL     1      19.954  68.626  16.272  1.00  0.00     0.068 A 
ATOM     15  C   UNL     1      20.442  67.367  18.296  1.00  0.00     0.200 A 
ATOM     16  C   UNL     1      19.762  67.485  17.060  1.00  0.00     0.162 A 
BRANCH  13  17
ATOM     17  O   UNL     1      21.988  68.270  19.917  1.00  0.00    -0.504 OA
ATOM     18  H   UNL     1      21.819  67.493  20.547  1.00  0.00     0.293 HD
ENDBRANCH  13  17
BRANCH  15  19
ATOM     19  O   UNL     1      20.288  66.262  19.136  1.00  0.00    -0.502 OA
ATOM     20  H   UNL     1      20.846  65.423  19.076  1.00  0.00     0.293 HD
ENDBRANCH  15  19
BRANCH  16  21
ATOM     21  O   UNL     1      18.900  66.499  16.577  1.00  0.00    -0.504 OA
ATOM     22  H   UNL     1      18.465  65.793  17.155  1.00  0.00     0.293 HD
ENDBRANCH  16  21
ENDBRANCH   1  11
BRANCH  10  23
ATOM     23  O   UNL     1      19.060  71.993  16.729  1.00  0.00    -0.500 OA
ATOM     24  H   UNL     1      18.111  71.965  16.375  1.00  0.00     0.294 HD
ENDBRANCH  10  23
BRANCH   5  25
ATOM     25  O   UNL     1      25.059  72.815  11.874  1.00  0.00    -0.507 OA
ATOM     26  H   UNL     1      25.875  72.305  12.194  1.00  0.00     0.293 HD
ENDBRANCH   5  25
BRANCH   7  27
ATOM     27  O   UNL     1      21.146  75.277  13.228  1.00  0.00    -0.507 OA
ATOM     28  H   UNL     1      20.907  75.889  13.994  1.00  0.00     0.293 HD
ENDBRANCH   7  27
TORSDOF 7
ENDMDL
