MODEL 1
REMARK VINA RESULT:    -3.638      0.000      0.000
REMARK INTER + INTRA:          -7.695
REMARK INTER:                  -6.190
REMARK INTRA:                  -1.505
REMARK UNBOUND:                -1.505
REMARK SMILES CCCCCCCCCCCCCC(=O)[O-]
REMARK SMILES IDX 8 1 9 2 10 3 11 4 12 5 13 6 14 7 15 8 16 9 7 10 6 11 5 12
REMARK SMILES IDX 4 13 3 14 2 15 1 16
REMARK H PARENT
REMARK Flexibility Score: inf
ROOT
ATOM      1  C   UNL     1       2.221  24.053  14.966  1.00  0.00     0.000 C 
ENDROOT
BRANCH   1   2
ATOM      2  C   UNL     1       1.875  25.043  16.094  1.00  0.00     0.000 C 
BRANCH   2   3
ATOM      3  C   UNL     1       3.081  25.775  16.711  1.00  0.00     0.000 C 
BRANCH   3   4
ATOM      4  C   UNL     1       3.320  27.163  16.092  1.00  0.00     0.000 C 
BRANCH   4   5
ATOM      5  C   UNL     1       4.792  27.606  16.173  1.00  0.00     0.006 C 
BRANCH   5   6
ATOM      6  C   UNL     1       5.779  26.473  16.501  1.00  0.00     0.053 C 
BRANCH   6   7
ATOM      7  C   UNL     1       6.811  26.300  15.429  1.00  0.00     0.041 C 
ATOM      8  O   UNL     1       6.459  26.105  14.236  1.00  0.00    -0.550 OA
ATOM      9  O   UNL     1       8.161  26.386  15.744  1.00  0.00    -0.550 OA
ENDBRANCH   6   7
ENDBRANCH   5   6
ENDBRANCH   4   5
ENDBRANCH   3   4
ENDBRANCH   2   3
ENDBRANCH   1   2
BRANCH   1  10
ATOM     10  C   UNL     1       3.644  24.247  14.415  1.00  0.00     0.000 C 
BRANCH  10  11
ATOM     11  C   UNL     1       3.666  25.024  13.089  1.00  0.00    -0.000 C 
BRANCH  11  12
ATOM     12  C   UNL     1       2.256  25.406  12.607  1.00  0.00    -0.000 C 
BRANCH  12  13
ATOM     13  C   UNL     1       2.221  26.780  11.917  1.00  0.00    -0.000 C 
BRANCH  13  14
ATOM     14  C   UNL     1       3.618  27.409  11.779  1.00  0.00    -0.000 C 
BRANCH  14  15
ATOM     15  C   UNL     1       3.802  28.637  12.684  1.00  0.00    -0.003 C 
ATOM     16  C   UNL     1       5.268  29.033  12.852  1.00  0.00     0.004 C 
ENDBRANCH  14  15
ENDBRANCH  13  14
ENDBRANCH  12  13
ENDBRANCH  11  12
ENDBRANCH  10  11
ENDBRANCH   1  10
TORSDOF 12
ENDMDL
MODEL 2
REMARK VINA RESULT:    -3.632      1.360      4.169
REMARK INTER + INTRA:          -7.686
REMARK INTER:                  -6.137
REMARK INTRA:                  -1.549
REMARK UNBOUND:                -1.505
REMARK SMILES CCCCCCCCCCCCCC(=O)[O-]
REMARK SMILES IDX 8 1 9 2 10 3 11 4 12 5 13 6 14 7 15 8 16 9 7 10 6 11 5 12
REMARK SMILES IDX 4 13 3 14 2 15 1 16
REMARK H PARENT
REMARK Flexibility Score: inf
ROOT
ATOM      1  C   UNL     1       3.688  24.968  13.101  1.00  0.00     0.000 C 
ENDROOT
BRANCH   1   2
ATOM      2  C   UNL     1       2.195  25.240  12.845  1.00  0.00     0.000 C 
BRANCH   2   3
ATOM      3  C   UNL     1       1.893  26.113  11.612  1.00  0.00     0.000 C 
BRANCH   3   4
ATOM      4  C   UNL     1       2.886  27.275  11.444  1.00  0.00     0.000 C 
BRANCH   4   5
ATOM      5  C   UNL     1       2.607  28.441  12.410  1.00  0.00     0.006 C 
BRANCH   5   6
ATOM      6  C   UNL     1       3.551  28.500  13.623  1.00  0.00     0.053 C 
BRANCH   6   7
ATOM      7  C   UNL     1       4.992  28.503  13.212  1.00  0.00     0.041 C 
ATOM      8  O   UNL     1       5.702  27.477  13.382  1.00  0.00    -0.550 OA
ATOM      9  O   UNL     1       5.541  29.629  12.613  1.00  0.00    -0.550 OA
ENDBRANCH   6   7
ENDBRANCH   5   6
ENDBRANCH   4   5
ENDBRANCH   3   4
ENDBRANCH   2   3
ENDBRANCH   1   2
BRANCH   1  10
ATOM     10  C   UNL     1       3.988  24.607  14.565  1.00  0.00     0.000 C 
BRANCH  10  11
ATOM     11  C   UNL     1       2.764  24.773  15.480  1.00  0.00    -0.000 C 
BRANCH  11  12
ATOM     12  C   UNL     1       2.824  26.064  16.315  1.00  0.00    -0.000 C 
BRANCH  12  13
ATOM     13  C   UNL     1       4.126  26.181  17.125  1.00  0.00    -0.000 C 
BRANCH  13  14
ATOM     14  C   UNL     1       4.866  27.505  16.869  1.00  0.00    -0.000 C 
BRANCH  14  15
ATOM     15  C   UNL     1       6.389  27.317  16.771  1.00  0.00    -0.003 C 
ATOM     16  C   UNL     1       6.791  25.860  16.545  1.00  0.00     0.004 C 
ENDBRANCH  14  15
ENDBRANCH  13  14
ENDBRANCH  12  13
ENDBRANCH  11  12
ENDBRANCH  10  11
ENDBRANCH   1  10
TORSDOF 12
ENDMDL
MODEL 3
REMARK VINA RESULT:    -3.554     10.092     11.786
REMARK INTER + INTRA:          -7.552
REMARK INTER:                  -6.158
REMARK INTRA:                  -1.394
REMARK UNBOUND:                -1.505
REMARK SMILES CCCCCCCCCCCCCC(=O)[O-]
REMARK SMILES IDX 8 1 9 2 10 3 11 4 12 5 13 6 14 7 15 8 16 9 7 10 6 11 5 12
REMARK SMILES IDX 4 13 3 14 2 15 1 16
REMARK H PARENT
REMARK Flexibility Score: inf
ROOT
ATOM      1  C   UNL     1       3.751  18.366   8.068  1.00  0.00     0.000 C 
ENDROOT
BRANCH   1   2
ATOM      2  C   UNL     1       2.663  18.348   9.157  1.00  0.00     0.000 C 
BRANCH   2   3
ATOM      3  C   UNL     1       2.639  17.083  10.035  1.00  0.00     0.000 C 
BRANCH   3   4
ATOM      4  C   UNL     1       3.961  16.297   9.989  1.00  0.00     0.000 C 
BRANCH   4   5
ATOM      5  C   UNL     1       4.219  15.490  11.275  1.00  0.00     0.006 C 
BRANCH   5   6
ATOM      6  C   UNL     1       4.976  16.262  12.367  1.00  0.00     0.053 C 
BRANCH   6   7
ATOM      7  C   UNL     1       5.387  15.372  13.501  1.00  0.00     0.041 C 
ATOM      8  O   UNL     1       6.440  15.614  14.146  1.00  0.00    -0.550 OA
ATOM      9  O   UNL     1       4.589  14.295  13.863  1.00  0.00    -0.550 OA
ENDBRANCH   6   7
ENDBRANCH   5   6
ENDBRANCH   4   5
ENDBRANCH   3   4
ENDBRANCH   2   3
ENDBRANCH   1   2
BRANCH   1  10
ATOM     10  C   UNL     1       3.336  19.163   6.820  1.00  0.00     0.000 C 
BRANCH  10  11
ATOM     11  C   UNL     1       2.613  18.296   5.776  1.00  0.00    -0.000 C 
BRANCH  11  12
ATOM     12  C   UNL     1       3.508  17.175   5.220  1.00  0.00    -0.000 C 
BRANCH  12  13
ATOM     13  C   UNL     1       3.038  15.777   5.655  1.00  0.00    -0.000 C 
BRANCH  13  14
ATOM     14  C   UNL     1       4.110  15.012   6.450  1.00  0.00    -0.000 C 
BRANCH  14  15
ATOM     15  C   UNL     1       5.538  15.390   6.026  1.00  0.00    -0.003 C 
ATOM     16  C   UNL     1       6.391  15.879   7.196  1.00  0.00     0.004 C 
ENDBRANCH  14  15
ENDBRANCH  13  14
ENDBRANCH  12  13
ENDBRANCH  11  12
ENDBRANCH  10  11
ENDBRANCH   1  10
TORSDOF 12
ENDMDL
MODEL 4
REMARK VINA RESULT:    -3.407      9.721     11.344
REMARK INTER + INTRA:          -7.302
REMARK INTER:                  -5.856
REMARK INTRA:                  -1.446
REMARK UNBOUND:                -1.505
REMARK SMILES CCCCCCCCCCCCCC(=O)[O-]
REMARK SMILES IDX 8 1 9 2 10 3 11 4 12 5 13 6 14 7 15 8 16 9 7 10 6 11 5 12
REMARK SMILES IDX 4 13 3 14 2 15 1 16
REMARK H PARENT
REMARK Flexibility Score: inf
ROOT
ATOM      1  C   UNL     1       4.319  16.033   8.474  1.00  0.00     0.000 C 
ENDROOT
BRANCH   1   2
ATOM      2  C   UNL     1       2.920  15.622   8.969  1.00  0.00     0.000 C 
BRANCH   2   3
ATOM      3  C   UNL     1       2.820  15.337  10.479  1.00  0.00     0.000 C 
BRANCH   3   4
ATOM      4  C   UNL     1       3.914  14.378  10.981  1.00  0.00     0.000 C 
BRANCH   4   5
ATOM      5  C   UNL     1       4.501  14.803  12.340  1.00  0.00     0.006 C 
BRANCH   5   6
ATOM      6  C   UNL     1       4.940  16.275  12.409  1.00  0.00     0.053 C 
BRANCH   6   7
ATOM      7  C   UNL     1       5.608  16.600  13.710  1.00  0.00     0.041 C 
ATOM      8  O   UNL     1       5.288  17.639  14.345  1.00  0.00    -0.550 OA
ATOM      9  O   UNL     1       6.562  15.739  14.236  1.00  0.00    -0.550 OA
ENDBRANCH   6   7
ENDBRANCH   5   6
ENDBRANCH   4   5
ENDBRANCH   3   4
ENDBRANCH   2   3
ENDBRANCH   1   2
BRANCH   1  10
ATOM     10  C   UNL     1       4.588  17.540   8.624  1.00  0.00     0.000 C 
BRANCH  10  11
ATOM     11  C   UNL     1       3.327  18.392   8.404  1.00  0.00    -0.000 C 
BRANCH  11  12
ATOM     12  C   UNL     1       3.344  19.130   7.054  1.00  0.00    -0.000 C 
BRANCH  12  13
ATOM     13  C   UNL     1       2.142  18.765   6.168  1.00  0.00    -0.000 C 
BRANCH  13  14
ATOM     14  C   UNL     1       2.559  18.098   4.847  1.00  0.00    -0.000 C 
BRANCH  14  15
ATOM     15  C   UNL     1       2.968  16.628   5.035  1.00  0.00    -0.003 C 
ATOM     16  C   UNL     1       4.451  16.388   4.753  1.00  0.00     0.004 C 
ENDBRANCH  14  15
ENDBRANCH  13  14
ENDBRANCH  12  13
ENDBRANCH  11  12
ENDBRANCH  10  11
ENDBRANCH   1  10
TORSDOF 12
ENDMDL
MODEL 5
REMARK VINA RESULT:    -3.399      8.550     10.851
REMARK INTER + INTRA:          -7.289
REMARK INTER:                  -6.023
REMARK INTRA:                  -1.266
REMARK UNBOUND:                -1.505
REMARK SMILES CCCCCCCCCCCCCC(=O)[O-]
REMARK SMILES IDX 8 1 9 2 10 3 11 4 12 5 13 6 14 7 15 8 16 9 7 10 6 11 5 12
REMARK SMILES IDX 4 13 3 14 2 15 1 16
REMARK H PARENT
REMARK Flexibility Score: inf
ROOT
ATOM      1  C   UNL     1       3.132  15.762  12.392  1.00  0.00     0.000 C 
ENDROOT
BRANCH   1   2
ATOM      2  C   UNL     1       2.301  16.985  11.964  1.00  0.00     0.000 C 
BRANCH   2   3
ATOM      3  C   UNL     1       2.039  17.098  10.450  1.00  0.00     0.000 C 
BRANCH   3   4
ATOM      4  C   UNL     1       2.273  18.518   9.907  1.00  0.00     0.000 C 
BRANCH   4   5
ATOM      5  C   UNL     1       3.166  18.535   8.651  1.00  0.00     0.006 C 
BRANCH   5   6
ATOM      6  C   UNL     1       3.507  17.143   8.097  1.00  0.00     0.053 C 
BRANCH   6   7
ATOM      7  C   UNL     1       4.962  16.818   8.253  1.00  0.00     0.041 C 
ATOM      8  O   UNL     1       5.662  17.435   9.098  1.00  0.00    -0.550 OA
ATOM      9  O   UNL     1       5.535  15.812   7.486  1.00  0.00    -0.550 OA
ENDBRANCH   6   7
ENDBRANCH   5   6
ENDBRANCH   4   5
ENDBRANCH   3   4
ENDBRANCH   2   3
ENDBRANCH   1   2
BRANCH   1  10
ATOM     10  C   UNL     1       4.645  16.041  12.404  1.00  0.00     0.000 C 
BRANCH  10  11
ATOM     11  C   UNL     1       5.394  15.206  13.455  1.00  0.00    -0.000 C 
BRANCH  11  12
ATOM     12  C   UNL     1       6.106  16.079  14.503  1.00  0.00    -0.000 C 
BRANCH  12  13
ATOM     13  C   UNL     1       5.337  16.148  15.832  1.00  0.00    -0.000 C 
BRANCH  13  14
ATOM     14  C   UNL     1       5.095  17.593  16.303  1.00  0.00    -0.000 C 
BRANCH  14  15
ATOM     15  C   UNL     1       4.775  18.545  15.140  1.00  0.00    -0.003 C 
ATOM     16  C   UNL     1       3.273  18.723  14.920  1.00  0.00     0.004 C 
ENDBRANCH  14  15
ENDBRANCH  13  14
ENDBRANCH  12  13
ENDBRANCH  11  12
ENDBRANCH  10  11
ENDBRANCH   1  10
TORSDOF 12
ENDMDL
MODEL 6
REMARK VINA RESULT:    -3.374     10.475     12.776
REMARK INTER + INTRA:          -7.246
REMARK INTER:                  -6.255
REMARK INTRA:                  -0.991
REMARK UNBOUND:                -1.505
REMARK SMILES CCCCCCCCCCCCCC(=O)[O-]
REMARK SMILES IDX 8 1 9 2 10 3 11 4 12 5 13 6 14 7 15 8 16 9 7 10 6 11 5 12
REMARK SMILES IDX 4 13 3 14 2 15 1 16
REMARK H PARENT
REMARK Flexibility Score: inf
ROOT
ATOM      1  C   UNL     1       3.358  18.742   8.466  1.00  0.00     0.000 C 
ENDROOT
BRANCH   1   2
ATOM      2  C   UNL     1       3.381  19.136   6.978  1.00  0.00     0.000 C 
BRANCH   2   3
ATOM      3  C   UNL     1       2.212  18.586   6.139  1.00  0.00     0.000 C 
BRANCH   3   4
ATOM      4  C   UNL     1       2.679  17.727   4.952  1.00  0.00     0.000 C 
BRANCH   4   5
ATOM      5  C   UNL     1       4.097  17.159   5.149  1.00  0.00     0.006 C 
BRANCH   5   6
ATOM      6  C   UNL     1       4.135  15.678   5.559  1.00  0.00     0.053 C 
BRANCH   6   7
ATOM      7  C   UNL     1       5.527  15.123   5.527  1.00  0.00     0.041 C 
ATOM      8  O   UNL     1       6.321  15.350   6.477  1.00  0.00    -0.550 OA
ATOM      9  O   UNL     1       5.935  14.329   4.463  1.00  0.00    -0.550 OA
ENDBRANCH   6   7
ENDBRANCH   5   6
ENDBRANCH   4   5
ENDBRANCH   3   4
ENDBRANCH   2   3
ENDBRANCH   1   2
BRANCH   1  10
ATOM     10  C   UNL     1       3.028  17.257   8.686  1.00  0.00     0.000 C 
BRANCH  10  11
ATOM     11  C   UNL     1       4.233  16.451   9.200  1.00  0.00    -0.000 C 
BRANCH  11  12
ATOM     12  C   UNL     1       3.848  15.466  10.317  1.00  0.00    -0.000 C 
BRANCH  12  13
ATOM     13  C   UNL     1       4.302  15.945  11.706  1.00  0.00    -0.000 C 
BRANCH  13  14
ATOM     14  C   UNL     1       4.819  14.798  12.590  1.00  0.00    -0.000 C 
BRANCH  14  15
ATOM     15  C   UNL     1       5.545  15.304  13.847  1.00  0.00    -0.003 C 
ATOM     16  C   UNL     1       5.905  16.787  13.762  1.00  0.00     0.004 C 
ENDBRANCH  14  15
ENDBRANCH  13  14
ENDBRANCH  12  13
ENDBRANCH  11  12
ENDBRANCH  10  11
ENDBRANCH   1  10
TORSDOF 12
ENDMDL
MODEL 7
REMARK VINA RESULT:    -3.299      2.373      4.178
REMARK INTER + INTRA:          -7.119
REMARK INTER:                  -5.576
REMARK INTRA:                  -1.543
REMARK UNBOUND:                -1.505
REMARK SMILES CCCCCCCCCCCCCC(=O)[O-]
REMARK SMILES IDX 8 1 9 2 10 3 11 4 12 5 13 6 14 7 15 8 16 9 7 10 6 11 5 12
REMARK SMILES IDX 4 13 3 14 2 15 1 16
REMARK H PARENT
REMARK Flexibility Score: inf
ROOT
ATOM      1  C   UNL     1       3.542  26.800  17.125  1.00  0.00     0.000 C 
ENDROOT
BRANCH   1   2
ATOM      2  C   UNL     1       3.706  28.225  16.565  1.00  0.00     0.000 C 
BRANCH   2   3
ATOM      3  C   UNL     1       2.534  28.725  15.700  1.00  0.00     0.000 C 
BRANCH   3   4
ATOM      4  C   UNL     1       2.666  28.318  14.222  1.00  0.00     0.000 C 
BRANCH   4   5
ATOM      5  C   UNL     1       4.078  28.566  13.660  1.00  0.00     0.006 C 
BRANCH   5   6
ATOM      6  C   UNL     1       4.334  27.929  12.284  1.00  0.00     0.053 C 
BRANCH   6   7
ATOM      7  C   UNL     1       3.058  27.566  11.588  1.00  0.00     0.041 C 
ATOM      8  O   UNL     1       2.745  26.357  11.428  1.00  0.00    -0.550 OA
ATOM      9  O   UNL     1       2.199  28.563  11.145  1.00  0.00    -0.550 OA
ENDBRANCH   6   7
ENDBRANCH   5   6
ENDBRANCH   4   5
ENDBRANCH   3   4
ENDBRANCH   2   3
ENDBRANCH   1   2
BRANCH   1  10
ATOM     10  C   UNL     1       2.135  26.225  16.893  1.00  0.00     0.000 C 
BRANCH  10  11
ATOM     11  C   UNL     1       2.159  24.885  16.138  1.00  0.00    -0.000 C 
BRANCH  11  12
ATOM     12  C   UNL     1       2.681  25.030  14.698  1.00  0.00    -0.000 C 
BRANCH  12  13
ATOM     13  C   UNL     1       3.975  24.236  14.459  1.00  0.00    -0.000 C 
BRANCH  13  14
ATOM     14  C   UNL     1       5.175  25.141  14.130  1.00  0.00    -0.000 C 
BRANCH  14  15
ATOM     15  C   UNL     1       6.007  25.489  15.375  1.00  0.00    -0.003 C 
ATOM     16  C   UNL     1       6.870  26.734  15.178  1.00  0.00     0.004 C 
ENDBRANCH  14  15
ENDBRANCH  13  14
ENDBRANCH  12  13
ENDBRANCH  11  12
ENDBRANCH  10  11
ENDBRANCH   1  10
TORSDOF 12
ENDMDL
MODEL 8
REMARK VINA RESULT:    -3.235     10.457     12.689
REMARK INTER + INTRA:          -7.010
REMARK INTER:                  -6.120
REMARK INTRA:                  -0.890
REMARK UNBOUND:                -1.505
REMARK SMILES CCCCCCCCCCCCCC(=O)[O-]
REMARK SMILES IDX 8 1 9 2 10 3 11 4 12 5 13 6 14 7 15 8 16 9 7 10 6 11 5 12
REMARK SMILES IDX 4 13 3 14 2 15 1 16
REMARK H PARENT
REMARK Flexibility Score: inf
ROOT
ATOM      1  C   UNL     1       4.609  17.393   8.699  1.00  0.00     0.000 C 
ENDROOT
BRANCH   1   2
ATOM      2  C   UNL     1       3.350  18.215   9.032  1.00  0.00     0.000 C 
BRANCH   2   3
ATOM      3  C   UNL     1       2.419  18.493   7.837  1.00  0.00     0.000 C 
BRANCH   3   4
ATOM      4  C   UNL     1       3.158  19.091   6.628  1.00  0.00     0.000 C 
BRANCH   4   5
ATOM      5  C   UNL     1       2.966  18.263   5.344  1.00  0.00     0.006 C 
BRANCH   5   6
ATOM      6  C   UNL     1       4.088  17.248   5.070  1.00  0.00     0.053 C 
BRANCH   6   7
ATOM      7  C   UNL     1       4.171  16.881   3.619  1.00  0.00     0.041 C 
ATOM      8  O   UNL     1       3.270  17.248   2.820  1.00  0.00    -0.550 OA
ATOM      9  O   UNL     1       5.259  16.161   3.146  1.00  0.00    -0.550 OA
ENDBRANCH   6   7
ENDBRANCH   5   6
ENDBRANCH   4   5
ENDBRANCH   3   4
ENDBRANCH   2   3
ENDBRANCH   1   2
BRANCH   1  10
ATOM     10  C   UNL     1       4.339  15.880   8.650  1.00  0.00     0.000 C 
BRANCH  10  11
ATOM     11  C   UNL     1       3.401  15.407   9.772  1.00  0.00    -0.000 C 
BRANCH  11  12
ATOM     12  C   UNL     1       4.149  14.660  10.889  1.00  0.00    -0.000 C 
BRANCH  12  13
ATOM     13  C   UNL     1       4.334  15.520  12.151  1.00  0.00    -0.000 C 
BRANCH  13  14
ATOM     14  C   UNL     1       5.060  14.768  13.280  1.00  0.00    -0.000 C 
BRANCH  14  15
ATOM     15  C   UNL     1       6.024  15.673  14.064  1.00  0.00    -0.003 C 
ATOM     16  C   UNL     1       5.346  16.934  14.598  1.00  0.00     0.004 C 
ENDBRANCH  14  15
ENDBRANCH  13  14
ENDBRANCH  12  13
ENDBRANCH  11  12
ENDBRANCH  10  11
ENDBRANCH   1  10
TORSDOF 12
ENDMDL
