MODEL 1
REMARK VINA RESULT:    -4.761      0.000      0.000
REMARK INTER + INTRA:         -13.331
REMARK INTER:                 -10.884
REMARK INTRA:                  -2.447
REMARK UNBOUND:                -2.447
REMARK SMILES CCCCCCCCCCCCCCCCCCCCCCCC(=O)[O-]
REMARK SMILES IDX 13 1 14 2 15 3 16 4 17 5 18 6 19 7 20 8 21 9 22 10 23 11
REMARK SMILES IDX 24 12 25 13 26 14 12 15 11 16 10 17 9 18 8 19 7 20 6 21 5 22
REMARK SMILES IDX 4 23 3 24 2 25 1 26
REMARK H PARENT
REMARK Flexibility Score: inf
ROOT
ATOM      1  C   UNL     1      -5.023   1.552  -6.300  1.00  0.00     0.000 C 
ENDROOT
BRANCH   1   2
ATOM      2  C   UNL     1      -4.211   1.048  -5.094  1.00  0.00     0.000 C 
BRANCH   2   3
ATOM      3  C   UNL     1      -3.700  -0.401  -5.216  1.00  0.00     0.000 C 
BRANCH   3   4
ATOM      4  C   UNL     1      -4.188  -1.112  -6.483  1.00  0.00     0.000 C 
BRANCH   4   5
ATOM      5  C   UNL     1      -4.101  -2.650  -6.393  1.00  0.00     0.000 C 
BRANCH   5   6
ATOM      6  C   UNL     1      -5.055  -3.248  -5.344  1.00  0.00     0.000 C 
BRANCH   6   7
ATOM      7  C   UNL     1      -4.324  -4.057  -4.248  1.00  0.00     0.000 C 
BRANCH   7   8
ATOM      8  C   UNL     1      -4.576  -3.495  -2.835  1.00  0.00     0.000 C 
BRANCH   8   9
ATOM      9  C   UNL     1      -5.669  -4.236  -2.055  1.00  0.00     0.000 C 
BRANCH   9  10
ATOM     10  C   UNL     1      -6.070  -3.599  -0.716  1.00  0.00     0.006 C 
BRANCH  10  11
ATOM     11  C   UNL     1      -7.574  -3.556  -0.398  1.00  0.00     0.053 C 
BRANCH  11  12
ATOM     12  C   UNL     1      -8.084  -4.769   0.325  1.00  0.00     0.041 C 
ATOM     13  O   UNL     1      -8.828  -4.623   1.332  1.00  0.00    -0.550 OA
ATOM     14  O   UNL     1      -7.709  -6.045  -0.075  1.00  0.00    -0.550 OA
ENDBRANCH  11  12
ENDBRANCH  10  11
ENDBRANCH   9  10
ENDBRANCH   8   9
ENDBRANCH   7   8
ENDBRANCH   6   7
ENDBRANCH   5   6
ENDBRANCH   4   5
ENDBRANCH   3   4
ENDBRANCH   2   3
ENDBRANCH   1   2
BRANCH   1  15
ATOM     15  C   UNL     1      -4.475   2.802  -7.010  1.00  0.00     0.000 C 
BRANCH  15  16
ATOM     16  C   UNL     1      -3.459   3.638  -6.205  1.00  0.00     0.000 C 
BRANCH  16  17
ATOM     17  C   UNL     1      -2.040   3.629  -6.816  1.00  0.00     0.000 C 
BRANCH  17  18
ATOM     18  C   UNL     1      -1.063   2.704  -6.064  1.00  0.00    -0.000 C 
BRANCH  18  19
ATOM     19  C   UNL     1      -0.753   1.356  -6.753  1.00  0.00    -0.000 C 
BRANCH  19  20
ATOM     20  C   UNL     1      -1.316   1.200  -8.180  1.00  0.00    -0.000 C 
BRANCH  20  21
ATOM     21  C   UNL     1      -0.403   1.726  -9.305  1.00  0.00    -0.000 C 
BRANCH  21  22
ATOM     22  C   UNL     1      -1.140   2.316 -10.522  1.00  0.00    -0.000 C 
BRANCH  22  23
ATOM     23  C   UNL     1      -1.437   3.816 -10.375  1.00  0.00    -0.000 C 
BRANCH  23  24
ATOM     24  C   UNL     1      -2.893   4.140 -10.765  1.00  0.00    -0.000 C 
BRANCH  24  25
ATOM     25  C   UNL     1      -3.018   4.660 -12.208  1.00  0.00    -0.003 C 
ATOM     26  C   UNL     1      -3.953   3.810 -13.073  1.00  0.00     0.004 C 
ENDBRANCH  24  25
ENDBRANCH  23  24
ENDBRANCH  22  23
ENDBRANCH  21  22
ENDBRANCH  20  21
ENDBRANCH  19  20
ENDBRANCH  18  19
ENDBRANCH  17  18
ENDBRANCH  16  17
ENDBRANCH  15  16
ENDBRANCH   1  15
TORSDOF 22
ENDMDL
MODEL 2
REMARK VINA RESULT:    -4.752      4.451      9.857
REMARK INTER + INTRA:         -13.312
REMARK INTER:                  -9.771
REMARK INTRA:                  -3.541
REMARK UNBOUND:                -2.447
REMARK SMILES CCCCCCCCCCCCCCCCCCCCCCCC(=O)[O-]
REMARK SMILES IDX 13 1 14 2 15 3 16 4 17 5 18 6 19 7 20 8 21 9 22 10 23 11
REMARK SMILES IDX 24 12 25 13 26 14 12 15 11 16 10 17 9 18 8 19 7 20 6 21 5 22
REMARK SMILES IDX 4 23 3 24 2 25 1 26
REMARK H PARENT
REMARK Flexibility Score: inf
ROOT
ATOM      1  C   UNL     1      -2.283  -0.062  -1.123  1.00  0.00     0.000 C 
ENDROOT
BRANCH   1   2
ATOM      2  C   UNL     1      -2.046  -0.884  -2.402  1.00  0.00     0.000 C 
BRANCH   2   3
ATOM      3  C   UNL     1      -3.154  -1.901  -2.733  1.00  0.00     0.000 C 
BRANCH   3   4
ATOM      4  C   UNL     1      -2.614  -3.257  -3.203  1.00  0.00     0.000 C 
BRANCH   4   5
ATOM      5  C   UNL     1      -3.525  -3.955  -4.233  1.00  0.00     0.000 C 
BRANCH   5   6
ATOM      6  C   UNL     1      -4.971  -3.430  -4.214  1.00  0.00     0.000 C 
BRANCH   6   7
ATOM      7  C   UNL     1      -5.339  -2.617  -5.476  1.00  0.00     0.000 C 
BRANCH   7   8
ATOM      8  C   UNL     1      -4.129  -2.389  -6.403  1.00  0.00     0.000 C 
BRANCH   8   9
ATOM      9  C   UNL     1      -3.557  -0.967  -6.344  1.00  0.00     0.000 C 
BRANCH   9  10
ATOM     10  C   UNL     1      -4.410   0.055  -5.578  1.00  0.00     0.006 C 
BRANCH  10  11
ATOM     11  C   UNL     1      -3.679   1.296  -5.039  1.00  0.00     0.053 C 
BRANCH  11  12
ATOM     12  C   UNL     1      -3.547   2.411  -6.036  1.00  0.00     0.041 C 
ATOM     13  O   UNL     1      -2.524   3.149  -6.009  1.00  0.00    -0.550 OA
ATOM     14  O   UNL     1      -4.556   2.667  -6.955  1.00  0.00    -0.550 OA
ENDBRANCH  11  12
ENDBRANCH  10  11
ENDBRANCH   9  10
ENDBRANCH   8   9
ENDBRANCH   7   8
ENDBRANCH   6   7
ENDBRANCH   5   6
ENDBRANCH   4   5
ENDBRANCH   3   4
ENDBRANCH   2   3
ENDBRANCH   1   2
BRANCH   1  15
ATOM     15  C   UNL     1      -1.259  -0.259   0.008  1.00  0.00     0.000 C 
BRANCH  15  16
ATOM     16  C   UNL     1      -1.515  -1.461   0.941  1.00  0.00     0.000 C 
BRANCH  16  17
ATOM     17  C   UNL     1      -1.006  -2.801   0.367  1.00  0.00     0.000 C 
BRANCH  17  18
ATOM     18  C   UNL     1      -2.049  -3.932   0.452  1.00  0.00    -0.000 C 
BRANCH  18  19
ATOM     19  C   UNL     1      -3.478  -3.497   0.850  1.00  0.00    -0.000 C 
BRANCH  19  20
ATOM     20  C   UNL     1      -4.601  -3.983  -0.088  1.00  0.00    -0.000 C 
BRANCH  20  21
ATOM     21  C   UNL     1      -5.685  -2.937  -0.410  1.00  0.00    -0.000 C 
BRANCH  21  22
ATOM     22  C   UNL     1      -6.934  -2.993   0.489  1.00  0.00    -0.000 C 
BRANCH  22  23
ATOM     23  C   UNL     1      -8.125  -3.696  -0.181  1.00  0.00    -0.000 C 
BRANCH  23  24
ATOM     24  C   UNL     1      -8.829  -4.658   0.795  1.00  0.00    -0.000 C 
BRANCH  24  25
ATOM     25  C   UNL     1      -7.990  -5.913   1.101  1.00  0.00    -0.003 C 
ATOM     26  C   UNL     1      -7.430  -6.581  -0.157  1.00  0.00     0.004 C 
ENDBRANCH  24  25
ENDBRANCH  23  24
ENDBRANCH  22  23
ENDBRANCH  21  22
ENDBRANCH  20  21
ENDBRANCH  19  20
ENDBRANCH  18  19
ENDBRANCH  17  18
ENDBRANCH  16  17
ENDBRANCH  15  16
ENDBRANCH   1  15
TORSDOF 22
ENDMDL
MODEL 3
REMARK VINA RESULT:    -4.746      5.755     10.337
REMARK INTER + INTRA:         -13.296
REMARK INTER:                  -9.820
REMARK INTRA:                  -3.476
REMARK UNBOUND:                -2.447
REMARK SMILES CCCCCCCCCCCCCCCCCCCCCCCC(=O)[O-]
REMARK SMILES IDX 13 1 14 2 15 3 16 4 17 5 18 6 19 7 20 8 21 9 22 10 23 11
REMARK SMILES IDX 24 12 25 13 26 14 12 15 11 16 10 17 9 18 8 19 7 20 6 21 5 22
REMARK SMILES IDX 4 23 3 24 2 25 1 26
REMARK H PARENT
REMARK Flexibility Score: inf
ROOT
ATOM      1  C   UNL     1      -4.570   2.350  -6.632  1.00  0.00     0.000 C 
ENDROOT
BRANCH   1   2
ATOM      2  C   UNL     1      -3.412   3.196  -7.190  1.00  0.00     0.000 C 
BRANCH   2   3
ATOM      3  C   UNL     1      -2.139   3.207  -6.322  1.00  0.00     0.000 C 
BRANCH   3   4
ATOM      4  C   UNL     1      -0.958   2.474  -6.968  1.00  0.00     0.000 C 
BRANCH   4   5
ATOM      5  C   UNL     1      -1.388   1.353  -7.935  1.00  0.00     0.000 C 
BRANCH   5   6
ATOM      6  C   UNL     1      -0.664   1.415  -9.292  1.00  0.00     0.000 C 
BRANCH   6   7
ATOM      7  C   UNL     1      -0.599   2.843  -9.881  1.00  0.00     0.000 C 
BRANCH   7   8
ATOM      8  C   UNL     1      -1.950   3.300 -10.468  1.00  0.00     0.000 C 
BRANCH   8   9
ATOM      9  C   UNL     1      -2.189   2.842 -11.912  1.00  0.00     0.000 C 
BRANCH   9  10
ATOM     10  C   UNL     1      -2.355   3.969 -12.942  1.00  0.00     0.006 C 
BRANCH  10  11
ATOM     11  C   UNL     1      -3.766   4.169 -13.521  1.00  0.00     0.053 C 
BRANCH  11  12
ATOM     12  C   UNL     1      -3.815   5.078 -14.715  1.00  0.00     0.041 C 
ATOM     13  O   UNL     1      -2.953   5.991 -14.834  1.00  0.00    -0.550 OA
ATOM     14  O   UNL     1      -4.822   4.955 -15.662  1.00  0.00    -0.550 OA
ENDBRANCH  11  12
ENDBRANCH  10  11
ENDBRANCH   9  10
ENDBRANCH   8   9
ENDBRANCH   7   8
ENDBRANCH   6   7
ENDBRANCH   5   6
ENDBRANCH   4   5
ENDBRANCH   3   4
ENDBRANCH   2   3
ENDBRANCH   1   2
BRANCH   1  15
ATOM     15  C   UNL     1      -4.376   1.791  -5.212  1.00  0.00     0.000 C 
BRANCH  15  16
ATOM     16  C   UNL     1      -4.369   0.253  -5.092  1.00  0.00     0.000 C 
BRANCH  16  17
ATOM     17  C   UNL     1      -4.223  -0.466  -6.451  1.00  0.00     0.000 C 
BRANCH  17  18
ATOM     18  C   UNL     1      -4.274  -2.002  -6.332  1.00  0.00    -0.000 C 
BRANCH  18  19
ATOM     19  C   UNL     1      -5.383  -2.566  -5.416  1.00  0.00    -0.000 C 
BRANCH  19  20
ATOM     20  C   UNL     1      -4.955  -3.734  -4.505  1.00  0.00    -0.000 C 
BRANCH  20  21
ATOM     21  C   UNL     1      -3.580  -3.568  -3.830  1.00  0.00    -0.000 C 
BRANCH  21  22
ATOM     22  C   UNL     1      -3.508  -2.466  -2.756  1.00  0.00    -0.000 C 
BRANCH  22  23
ATOM     23  C   UNL     1      -2.141  -1.767  -2.704  1.00  0.00    -0.000 C 
BRANCH  23  24
ATOM     24  C   UNL     1      -1.339  -2.007  -3.998  1.00  0.00    -0.000 C 
BRANCH  24  25
ATOM     25  C   UNL     1      -0.868  -0.696  -4.655  1.00  0.00    -0.003 C 
ATOM     26  C   UNL     1      -1.028   0.523  -3.744  1.00  0.00     0.004 C 
ENDBRANCH  24  25
ENDBRANCH  23  24
ENDBRANCH  22  23
ENDBRANCH  21  22
ENDBRANCH  20  21
ENDBRANCH  19  20
ENDBRANCH  18  19
ENDBRANCH  17  18
ENDBRANCH  16  17
ENDBRANCH  15  16
ENDBRANCH   1  15
TORSDOF 22
ENDMDL
MODEL 4
REMARK VINA RESULT:    -4.742      3.182      7.963
REMARK INTER + INTRA:         -13.288
REMARK INTER:                  -9.688
REMARK INTRA:                  -3.600
REMARK UNBOUND:                -2.447
REMARK SMILES CCCCCCCCCCCCCCCCCCCCCCCC(=O)[O-]
REMARK SMILES IDX 13 1 14 2 15 3 16 4 17 5 18 6 19 7 20 8 21 9 22 10 23 11
REMARK SMILES IDX 24 12 25 13 26 14 12 15 11 16 10 17 9 18 8 19 7 20 6 21 5 22
REMARK SMILES IDX 4 23 3 24 2 25 1 26
REMARK H PARENT
REMARK Flexibility Score: inf
ROOT
ATOM      1  C   UNL     1      -3.999   2.972  -6.098  1.00  0.00     0.000 C 
ENDROOT
BRANCH   1   2
ATOM      2  C   UNL     1      -3.046   2.963  -7.306  1.00  0.00     0.000 C 
BRANCH   2   3
ATOM      3  C   UNL     1      -2.040   1.796  -7.330  1.00  0.00     0.000 C 
BRANCH   3   4
ATOM      4  C   UNL     1      -0.730   2.109  -6.598  1.00  0.00     0.000 C 
BRANCH   4   5
ATOM      5  C   UNL     1      -0.369   1.068  -5.519  1.00  0.00     0.000 C 
BRANCH   5   6
ATOM      6  C   UNL     1      -1.031  -0.301  -5.755  1.00  0.00     0.000 C 
BRANCH   6   7
ATOM      7  C   UNL     1      -1.215  -1.119  -4.456  1.00  0.00     0.000 C 
BRANCH   7   8
ATOM      8  C   UNL     1      -1.836  -0.286  -3.318  1.00  0.00     0.000 C 
BRANCH   8   9
ATOM      9  C   UNL     1      -3.142  -0.867  -2.761  1.00  0.00     0.000 C 
BRANCH   9  10
ATOM     10  C   UNL     1      -3.290  -0.809  -1.234  1.00  0.00     0.006 C 
BRANCH  10  11
ATOM     11  C   UNL     1      -2.197  -1.511  -0.409  1.00  0.00     0.053 C 
BRANCH  11  12
ATOM     12  C   UNL     1      -1.418  -0.591   0.486  1.00  0.00     0.041 C 
ATOM     13  O   UNL     1      -1.292  -0.876   1.708  1.00  0.00    -0.550 OA
ATOM     14  O   UNL     1      -0.875   0.588  -0.005  1.00  0.00    -0.550 OA
ENDBRANCH  11  12
ENDBRANCH  10  11
ENDBRANCH   9  10
ENDBRANCH   8   9
ENDBRANCH   7   8
ENDBRANCH   6   7
ENDBRANCH   5   6
ENDBRANCH   4   5
ENDBRANCH   3   4
ENDBRANCH   2   3
ENDBRANCH   1   2
BRANCH   1  15
ATOM     15  C   UNL     1      -4.175   1.631  -5.365  1.00  0.00     0.000 C 
BRANCH  15  16
ATOM     16  C   UNL     1      -5.212   0.665  -5.974  1.00  0.00     0.000 C 
BRANCH  16  17
ATOM     17  C   UNL     1      -4.593  -0.655  -6.484  1.00  0.00     0.000 C 
BRANCH  17  18
ATOM     18  C   UNL     1      -5.024  -1.883  -5.660  1.00  0.00    -0.000 C 
BRANCH  18  19
ATOM     19  C   UNL     1      -4.111  -3.125  -5.781  1.00  0.00    -0.000 C 
BRANCH  19  20
ATOM     20  C   UNL     1      -4.195  -4.121  -4.607  1.00  0.00    -0.000 C 
BRANCH  20  21
ATOM     21  C   UNL     1      -5.192  -3.742  -3.495  1.00  0.00    -0.000 C 
BRANCH  21  22
ATOM     22  C   UNL     1      -4.772  -4.154  -2.072  1.00  0.00    -0.000 C 
BRANCH  22  23
ATOM     23  C   UNL     1      -5.967  -4.394  -1.138  1.00  0.00    -0.000 C 
BRANCH  23  24
ATOM     24  C   UNL     1      -6.609  -3.064  -0.696  1.00  0.00    -0.000 C 
BRANCH  24  25
ATOM     25  C   UNL     1      -7.810  -3.268   0.245  1.00  0.00    -0.003 C 
ATOM     26  C   UNL     1      -8.421  -4.668   0.142  1.00  0.00     0.004 C 
ENDBRANCH  24  25
ENDBRANCH  23  24
ENDBRANCH  22  23
ENDBRANCH  21  22
ENDBRANCH  20  21
ENDBRANCH  19  20
ENDBRANCH  18  19
ENDBRANCH  17  18
ENDBRANCH  16  17
ENDBRANCH  15  16
ENDBRANCH   1  15
TORSDOF 22
ENDMDL
MODEL 5
REMARK VINA RESULT:    -4.725      5.140     10.921
REMARK INTER + INTRA:         -13.248
REMARK INTER:                 -11.132
REMARK INTRA:                  -2.117
REMARK UNBOUND:                -2.447
REMARK SMILES CCCCCCCCCCCCCCCCCCCCCCCC(=O)[O-]
REMARK SMILES IDX 13 1 14 2 15 3 16 4 17 5 18 6 19 7 20 8 21 9 22 10 23 11
REMARK SMILES IDX 24 12 25 13 26 14 12 15 11 16 10 17 9 18 8 19 7 20 6 21 5 22
REMARK SMILES IDX 4 23 3 24 2 25 1 26
REMARK H PARENT
REMARK Flexibility Score: inf
ROOT
ATOM      1  C   UNL     1      -4.745  -1.448  -6.507  1.00  0.00     0.000 C 
ENDROOT
BRANCH   1   2
ATOM      2  C   UNL     1      -3.920  -0.305  -5.891  1.00  0.00     0.000 C 
BRANCH   2   3
ATOM      3  C   UNL     1      -4.493   1.106  -6.122  1.00  0.00     0.000 C 
BRANCH   3   4
ATOM      4  C   UNL     1      -3.441   2.215  -6.008  1.00  0.00     0.000 C 
BRANCH   4   5
ATOM      5  C   UNL     1      -3.287   3.047  -7.298  1.00  0.00     0.000 C 
BRANCH   5   6
ATOM      6  C   UNL     1      -1.844   3.073  -7.831  1.00  0.00     0.000 C 
BRANCH   6   7
ATOM      7  C   UNL     1      -1.431   1.759  -8.533  1.00  0.00     0.000 C 
BRANCH   7   8
ATOM      8  C   UNL     1      -0.682   2.008  -9.857  1.00  0.00     0.000 C 
BRANCH   8   9
ATOM      9  C   UNL     1      -1.256   3.162 -10.690  1.00  0.00     0.000 C 
BRANCH   9  10
ATOM     10  C   UNL     1      -2.116   2.743 -11.890  1.00  0.00     0.006 C 
BRANCH  10  11
ATOM     11  C   UNL     1      -3.504   3.398 -12.005  1.00  0.00     0.053 C 
BRANCH  11  12
ATOM     12  C   UNL     1      -3.565   4.538 -12.980  1.00  0.00     0.041 C 
ATOM     13  O   UNL     1      -4.287   4.434 -14.009  1.00  0.00    -0.550 OA
ATOM     14  O   UNL     1      -2.803   5.682 -12.786  1.00  0.00    -0.550 OA
ENDBRANCH  11  12
ENDBRANCH  10  11
ENDBRANCH   9  10
ENDBRANCH   8   9
ENDBRANCH   7   8
ENDBRANCH   6   7
ENDBRANCH   5   6
ENDBRANCH   4   5
ENDBRANCH   3   4
ENDBRANCH   2   3
ENDBRANCH   1   2
BRANCH   1  15
ATOM     15  C   UNL     1      -4.337  -2.873  -6.098  1.00  0.00     0.000 C 
BRANCH  15  16
ATOM     16  C   UNL     1      -5.090  -3.465  -4.889  1.00  0.00     0.000 C 
BRANCH  16  17
ATOM     17  C   UNL     1      -4.154  -4.087  -3.830  1.00  0.00     0.000 C 
BRANCH  17  18
ATOM     18  C   UNL     1      -2.714  -3.540  -3.898  1.00  0.00    -0.000 C 
BRANCH  18  19
ATOM     19  C   UNL     1      -2.279  -2.651  -2.712  1.00  0.00    -0.000 C 
BRANCH  19  20
ATOM     20  C   UNL     1      -3.213  -1.464  -2.399  1.00  0.00    -0.000 C 
BRANCH  20  21
ATOM     21  C   UNL     1      -3.702  -1.382  -0.941  1.00  0.00    -0.000 C 
BRANCH  21  22
ATOM     22  C   UNL     1      -3.758  -2.728  -0.194  1.00  0.00    -0.000 C 
BRANCH  22  23
ATOM     23  C   UNL     1      -5.069  -3.493  -0.433  1.00  0.00    -0.000 C 
BRANCH  23  24
ATOM     24  C   UNL     1      -6.212  -2.932   0.436  1.00  0.00    -0.000 C 
BRANCH  24  25
ATOM     25  C   UNL     1      -7.583  -3.018  -0.260  1.00  0.00    -0.003 C 
ATOM     26  C   UNL     1      -8.516  -4.047   0.382  1.00  0.00     0.004 C 
ENDBRANCH  24  25
ENDBRANCH  23  24
ENDBRANCH  22  23
ENDBRANCH  21  22
ENDBRANCH  20  21
ENDBRANCH  19  20
ENDBRANCH  18  19
ENDBRANCH  17  18
ENDBRANCH  16  17
ENDBRANCH  15  16
ENDBRANCH   1  15
TORSDOF 22
ENDMDL
MODEL 6
REMARK VINA RESULT:    -4.716      5.041     10.594
REMARK INTER + INTRA:         -13.229
REMARK INTER:                 -10.769
REMARK INTRA:                  -2.460
REMARK UNBOUND:                -2.447
REMARK SMILES CCCCCCCCCCCCCCCCCCCCCCCC(=O)[O-]
REMARK SMILES IDX 13 1 14 2 15 3 16 4 17 5 18 6 19 7 20 8 21 9 22 10 23 11
REMARK SMILES IDX 24 12 25 13 26 14 12 15 11 16 10 17 9 18 8 19 7 20 6 21 5 22
REMARK SMILES IDX 4 23 3 24 2 25 1 26
REMARK H PARENT
REMARK Flexibility Score: inf
ROOT
ATOM      1  C   UNL     1      -4.016   3.395  -7.002  1.00  0.00     0.000 C 
ENDROOT
BRANCH   1   2
ATOM      2  C   UNL     1      -2.830   3.921  -6.174  1.00  0.00     0.000 C 
BRANCH   2   3
ATOM      3  C   UNL     1      -1.446   3.710  -6.817  1.00  0.00     0.000 C 
BRANCH   3   4
ATOM      4  C   UNL     1      -0.663   2.543  -6.205  1.00  0.00     0.000 C 
BRANCH   4   5
ATOM      5  C   UNL     1      -0.805   1.228  -7.000  1.00  0.00     0.000 C 
BRANCH   5   6
ATOM      6  C   UNL     1      -1.354   1.439  -8.422  1.00  0.00     0.000 C 
BRANCH   6   7
ATOM      7  C   UNL     1      -0.246   1.512  -9.497  1.00  0.00     0.000 C 
BRANCH   7   8
ATOM      8  C   UNL     1      -0.256   2.850 -10.263  1.00  0.00     0.000 C 
BRANCH   8   9
ATOM      9  C   UNL     1      -1.662   3.365 -10.599  1.00  0.00     0.000 C 
BRANCH   9  10
ATOM     10  C   UNL     1      -2.185   2.991 -11.993  1.00  0.00     0.006 C 
BRANCH  10  11
ATOM     11  C   UNL     1      -3.646   3.360 -12.301  1.00  0.00     0.053 C 
BRANCH  11  12
ATOM     12  C   UNL     1      -3.802   4.582 -13.158  1.00  0.00     0.041 C 
ATOM     13  O   UNL     1      -3.537   5.716 -12.674  1.00  0.00    -0.550 OA
ATOM     14  O   UNL     1      -4.277   4.484 -14.459  1.00  0.00    -0.550 OA
ENDBRANCH  11  12
ENDBRANCH  10  11
ENDBRANCH   9  10
ENDBRANCH   8   9
ENDBRANCH   7   8
ENDBRANCH   6   7
ENDBRANCH   5   6
ENDBRANCH   4   5
ENDBRANCH   3   4
ENDBRANCH   2   3
ENDBRANCH   1   2
BRANCH   1  15
ATOM     15  C   UNL     1      -4.657   2.087  -6.511  1.00  0.00     0.000 C 
BRANCH  15  16
ATOM     16  C   UNL     1      -4.254   1.634  -5.092  1.00  0.00     0.000 C 
BRANCH  16  17
ATOM     17  C   UNL     1      -3.684   0.200  -5.047  1.00  0.00     0.000 C 
BRANCH  17  18
ATOM     18  C   UNL     1      -4.181  -0.686  -6.206  1.00  0.00    -0.000 C 
BRANCH  18  19
ATOM     19  C   UNL     1      -4.670  -2.097  -5.809  1.00  0.00    -0.000 C 
BRANCH  19  20
ATOM     20  C   UNL     1      -4.350  -2.522  -4.362  1.00  0.00    -0.000 C 
BRANCH  20  21
ATOM     21  C   UNL     1      -4.605  -4.009  -4.044  1.00  0.00    -0.000 C 
BRANCH  21  22
ATOM     22  C   UNL     1      -5.438  -4.272  -2.776  1.00  0.00    -0.000 C 
BRANCH  22  23
ATOM     23  C   UNL     1      -4.957  -3.463  -1.562  1.00  0.00    -0.000 C 
BRANCH  23  24
ATOM     24  C   UNL     1      -5.824  -3.746  -0.320  1.00  0.00    -0.000 C 
BRANCH  24  25
ATOM     25  C   UNL     1      -7.203  -3.065  -0.391  1.00  0.00    -0.003 C 
ATOM     26  C   UNL     1      -8.338  -3.954   0.123  1.00  0.00     0.004 C 
ENDBRANCH  24  25
ENDBRANCH  23  24
ENDBRANCH  22  23
ENDBRANCH  21  22
ENDBRANCH  20  21
ENDBRANCH  19  20
ENDBRANCH  18  19
ENDBRANCH  17  18
ENDBRANCH  16  17
ENDBRANCH  15  16
ENDBRANCH   1  15
TORSDOF 22
ENDMDL
MODEL 7
REMARK VINA RESULT:    -4.692      4.243      9.923
REMARK INTER + INTRA:         -13.173
REMARK INTER:                  -9.503
REMARK INTRA:                  -3.670
REMARK UNBOUND:                -2.447
REMARK SMILES CCCCCCCCCCCCCCCCCCCCCCCC(=O)[O-]
REMARK SMILES IDX 13 1 14 2 15 3 16 4 17 5 18 6 19 7 20 8 21 9 22 10 23 11
REMARK SMILES IDX 24 12 25 13 26 14 12 15 11 16 10 17 9 18 8 19 7 20 6 21 5 22
REMARK SMILES IDX 4 23 3 24 2 25 1 26
REMARK H PARENT
REMARK Flexibility Score: inf
ROOT
ATOM      1  C   UNL     1      -5.101  -3.375  -4.655  1.00  0.00     0.000 C 
ENDROOT
BRANCH   1   2
ATOM      2  C   UNL     1      -4.375  -3.354  -6.011  1.00  0.00     0.000 C 
BRANCH   2   3
ATOM      3  C   UNL     1      -4.166  -1.951  -6.613  1.00  0.00     0.000 C 
BRANCH   3   4
ATOM      4  C   UNL     1      -5.207  -0.928  -6.144  1.00  0.00     0.000 C 
BRANCH   4   5
ATOM      5  C   UNL     1      -4.637   0.497  -5.990  1.00  0.00     0.000 C 
BRANCH   5   6
ATOM      6  C   UNL     1      -3.771   0.668  -4.729  1.00  0.00     0.000 C 
BRANCH   6   7
ATOM      7  C   UNL     1      -2.336   1.153  -5.039  1.00  0.00     0.000 C 
BRANCH   7   8
ATOM      8  C   UNL     1      -1.387  -0.007  -5.396  1.00  0.00     0.000 C 
BRANCH   8   9
ATOM      9  C   UNL     1      -0.624   0.194  -6.712  1.00  0.00     0.000 C 
BRANCH   9  10
ATOM     10  C   UNL     1      -1.433   0.831  -7.851  1.00  0.00     0.006 C 
BRANCH  10  11
ATOM     11  C   UNL     1      -1.011   2.245  -8.287  1.00  0.00     0.053 C 
BRANCH  11  12
ATOM     12  C   UNL     1      -2.161   3.160  -8.595  1.00  0.00     0.041 C 
ATOM     13  O   UNL     1      -2.222   3.719  -9.724  1.00  0.00    -0.550 OA
ATOM     14  O   UNL     1      -3.130   3.433  -7.639  1.00  0.00    -0.550 OA
ENDBRANCH  11  12
ENDBRANCH  10  11
ENDBRANCH   9  10
ENDBRANCH   8   9
ENDBRANCH   7   8
ENDBRANCH   6   7
ENDBRANCH   5   6
ENDBRANCH   4   5
ENDBRANCH   3   4
ENDBRANCH   2   3
ENDBRANCH   1   2
BRANCH   1  15
ATOM     15  C   UNL     1      -4.249  -3.775  -3.438  1.00  0.00     0.000 C 
BRANCH  15  16
ATOM     16  C   UNL     1      -2.758  -3.387  -3.507  1.00  0.00     0.000 C 
BRANCH  16  17
ATOM     17  C   UNL     1      -2.407  -2.152  -2.649  1.00  0.00     0.000 C 
BRANCH  17  18
ATOM     18  C   UNL     1      -3.601  -1.625  -1.830  1.00  0.00    -0.000 C 
BRANCH  18  19
ATOM     19  C   UNL     1      -3.407  -1.608  -0.298  1.00  0.00    -0.000 C 
BRANCH  19  20
ATOM     20  C   UNL     1      -2.594  -2.786   0.277  1.00  0.00    -0.000 C 
BRANCH  20  21
ATOM     21  C   UNL     1      -3.270  -4.166   0.163  1.00  0.00    -0.000 C 
BRANCH  21  22
ATOM     22  C   UNL     1      -4.581  -4.318   0.955  1.00  0.00    -0.000 C 
BRANCH  22  23
ATOM     23  C   UNL     1      -5.517  -5.385   0.368  1.00  0.00    -0.000 C 
BRANCH  23  24
ATOM     24  C   UNL     1      -6.250  -4.861  -0.883  1.00  0.00    -0.000 C 
BRANCH  24  25
ATOM     25  C   UNL     1      -6.859  -3.463  -0.671  1.00  0.00    -0.003 C 
ATOM     26  C   UNL     1      -8.156  -3.491   0.141  1.00  0.00     0.004 C 
ENDBRANCH  24  25
ENDBRANCH  23  24
ENDBRANCH  22  23
ENDBRANCH  21  22
ENDBRANCH  20  21
ENDBRANCH  19  20
ENDBRANCH  18  19
ENDBRANCH  17  18
ENDBRANCH  16  17
ENDBRANCH  15  16
ENDBRANCH   1  15
TORSDOF 22
ENDMDL
MODEL 8
REMARK VINA RESULT:    -4.684      4.535     10.574
REMARK INTER + INTRA:         -13.155
REMARK INTER:                 -10.551
REMARK INTRA:                  -2.604
REMARK UNBOUND:                -2.447
REMARK SMILES CCCCCCCCCCCCCCCCCCCCCCCC(=O)[O-]
REMARK SMILES IDX 13 1 14 2 15 3 16 4 17 5 18 6 19 7 20 8 21 9 22 10 23 11
REMARK SMILES IDX 24 12 25 13 26 14 12 15 11 16 10 17 9 18 8 19 7 20 6 21 5 22
REMARK SMILES IDX 4 23 3 24 2 25 1 26
REMARK H PARENT
REMARK Flexibility Score: inf
ROOT
ATOM      1  C   UNL     1      -4.387  -2.691  -6.159  1.00  0.00     0.000 C 
ENDROOT
BRANCH   1   2
ATOM      2  C   UNL     1      -4.301  -1.186  -6.470  1.00  0.00     0.000 C 
BRANCH   2   3
ATOM      3  C   UNL     1      -3.125  -0.451  -5.799  1.00  0.00     0.000 C 
BRANCH   3   4
ATOM      4  C   UNL     1      -3.566   0.727  -4.923  1.00  0.00     0.000 C 
BRANCH   4   5
ATOM      5  C   UNL     1      -4.652   1.604  -5.579  1.00  0.00     0.000 C 
BRANCH   5   6
ATOM      6  C   UNL     1      -4.105   2.504  -6.701  1.00  0.00     0.000 C 
BRANCH   6   7
ATOM      7  C   UNL     1      -2.845   3.297  -6.285  1.00  0.00     0.000 C 
BRANCH   7   8
ATOM      8  C   UNL     1      -1.780   3.336  -7.398  1.00  0.00     0.000 C 
BRANCH   8   9
ATOM      9  C   UNL     1      -1.276   1.952  -7.829  1.00  0.00     0.000 C 
BRANCH   9  10
ATOM     10  C   UNL     1      -1.058   1.770  -9.337  1.00  0.00     0.006 C 
BRANCH  10  11
ATOM     11  C   UNL     1      -1.022   3.053 -10.187  1.00  0.00     0.053 C 
BRANCH  11  12
ATOM     12  C   UNL     1      -2.147   3.165 -11.175  1.00  0.00     0.041 C 
ATOM     13  O   UNL     1      -2.126   2.458 -12.220  1.00  0.00    -0.550 OA
ATOM     14  O   UNL     1      -3.182   4.068 -10.975  1.00  0.00    -0.550 OA
ENDBRANCH  11  12
ENDBRANCH  10  11
ENDBRANCH   9  10
ENDBRANCH   8   9
ENDBRANCH   7   8
ENDBRANCH   6   7
ENDBRANCH   5   6
ENDBRANCH   4   5
ENDBRANCH   3   4
ENDBRANCH   2   3
ENDBRANCH   1   2
BRANCH   1  15
ATOM     15  C   UNL     1      -5.293  -3.088  -4.982  1.00  0.00     0.000 C 
BRANCH  15  16
ATOM     16  C   UNL     1      -4.660  -4.029  -3.936  1.00  0.00     0.000 C 
BRANCH  16  17
ATOM     17  C   UNL     1      -3.116  -4.048  -3.985  1.00  0.00     0.000 C 
BRANCH  17  18
ATOM     18  C   UNL     1      -2.463  -3.527  -2.690  1.00  0.00    -0.000 C 
BRANCH  18  19
ATOM     19  C   UNL     1      -2.736  -2.045  -2.351  1.00  0.00    -0.000 C 
BRANCH  19  20
ATOM     20  C   UNL     1      -3.271  -1.781  -0.929  1.00  0.00    -0.000 C 
BRANCH  20  21
ATOM     21  C   UNL     1      -4.677  -2.344  -0.643  1.00  0.00    -0.000 C 
BRANCH  21  22
ATOM     22  C   UNL     1      -4.709  -3.602   0.245  1.00  0.00    -0.000 C 
BRANCH  22  23
ATOM     23  C   UNL     1      -6.012  -3.739   1.046  1.00  0.00    -0.000 C 
BRANCH  23  24
ATOM     24  C   UNL     1      -7.160  -2.949   0.388  1.00  0.00    -0.000 C 
BRANCH  24  25
ATOM     25  C   UNL     1      -8.432  -3.796   0.201  1.00  0.00    -0.003 C 
ATOM     26  C   UNL     1      -8.157  -5.301   0.212  1.00  0.00     0.004 C 
ENDBRANCH  24  25
ENDBRANCH  23  24
ENDBRANCH  22  23
ENDBRANCH  21  22
ENDBRANCH  20  21
ENDBRANCH  19  20
ENDBRANCH  18  19
ENDBRANCH  17  18
ENDBRANCH  16  17
ENDBRANCH  15  16
ENDBRANCH   1  15
TORSDOF 22
ENDMDL
MODEL 9
REMARK VINA RESULT:    -4.628      1.309      2.360
REMARK INTER + INTRA:         -13.027
REMARK INTER:                 -10.667
REMARK INTRA:                  -2.360
REMARK UNBOUND:                -2.447
REMARK SMILES CCCCCCCCCCCCCCCCCCCCCCCC(=O)[O-]
REMARK SMILES IDX 13 1 14 2 15 3 16 4 17 5 18 6 19 7 20 8 21 9 22 10 23 11
REMARK SMILES IDX 24 12 25 13 26 14 12 15 11 16 10 17 9 18 8 19 7 20 6 21 5 22
REMARK SMILES IDX 4 23 3 24 2 25 1 26
REMARK H PARENT
REMARK Flexibility Score: inf
ROOT
ATOM      1  C   UNL     1      -3.980  -1.156  -6.498  1.00  0.00     0.000 C 
ENDROOT
BRANCH   1   2
ATOM      2  C   UNL     1      -4.272  -2.658  -6.332  1.00  0.00     0.000 C 
BRANCH   2   3
ATOM      3  C   UNL     1      -5.333  -2.999  -5.269  1.00  0.00     0.000 C 
BRANCH   3   4
ATOM      4  C   UNL     1      -4.757  -3.721  -4.046  1.00  0.00     0.000 C 
BRANCH   4   5
ATOM      5  C   UNL     1      -3.219  -3.827  -4.066  1.00  0.00     0.000 C 
BRANCH   5   6
ATOM      6  C   UNL     1      -2.545  -3.052  -2.920  1.00  0.00     0.000 C 
BRANCH   6   7
ATOM      7  C   UNL     1      -3.222  -1.694  -2.624  1.00  0.00     0.000 C 
BRANCH   7   8
ATOM      8  C   UNL     1      -3.600  -1.536  -1.138  1.00  0.00     0.000 C 
BRANCH   8   9
ATOM      9  C   UNL     1      -3.657  -2.860  -0.365  1.00  0.00     0.000 C 
BRANCH   9  10
ATOM     10  C   UNL     1      -5.017  -3.198   0.263  1.00  0.00     0.006 C 
BRANCH  10  11
ATOM     11  C   UNL     1      -6.183  -3.440  -0.711  1.00  0.00     0.053 C 
BRANCH  11  12
ATOM     12  C   UNL     1      -7.288  -4.285  -0.146  1.00  0.00     0.041 C 
ATOM     13  O   UNL     1      -8.466  -3.835  -0.130  1.00  0.00    -0.550 OA
ATOM     14  O   UNL     1      -7.021  -5.535   0.397  1.00  0.00    -0.550 OA
ENDBRANCH  11  12
ENDBRANCH  10  11
ENDBRANCH   9  10
ENDBRANCH   8   9
ENDBRANCH   7   8
ENDBRANCH   6   7
ENDBRANCH   5   6
ENDBRANCH   4   5
ENDBRANCH   3   4
ENDBRANCH   2   3
ENDBRANCH   1   2
BRANCH   1  15
ATOM     15  C   UNL     1      -5.122  -0.199  -6.117  1.00  0.00     0.000 C 
BRANCH  15  16
ATOM     16  C   UNL     1      -4.690   1.206  -5.647  1.00  0.00     0.000 C 
BRANCH  16  17
ATOM     17  C   UNL     1      -4.692   2.257  -6.779  1.00  0.00     0.000 C 
BRANCH  17  18
ATOM     18  C   UNL     1      -3.345   2.990  -6.927  1.00  0.00    -0.000 C 
BRANCH  18  19
ATOM     19  C   UNL     1      -2.105   2.221  -6.418  1.00  0.00    -0.000 C 
BRANCH  19  20
ATOM     20  C   UNL     1      -1.357   1.396  -7.485  1.00  0.00    -0.000 C 
BRANCH  20  21
ATOM     21  C   UNL     1      -0.625   2.223  -8.559  1.00  0.00    -0.000 C 
BRANCH  21  22
ATOM     22  C   UNL     1      -1.098   1.983 -10.004  1.00  0.00    -0.000 C 
BRANCH  22  23
ATOM     23  C   UNL     1      -1.551   3.270 -10.710  1.00  0.00    -0.000 C 
BRANCH  23  24
ATOM     24  C   UNL     1      -2.201   2.962 -12.073  1.00  0.00    -0.000 C 
BRANCH  24  25
ATOM     25  C   UNL     1      -3.683   3.377 -12.131  1.00  0.00    -0.003 C 
ATOM     26  C   UNL     1      -4.054   4.093 -13.433  1.00  0.00     0.004 C 
ENDBRANCH  24  25
ENDBRANCH  23  24
ENDBRANCH  22  23
ENDBRANCH  21  22
ENDBRANCH  20  21
ENDBRANCH  19  20
ENDBRANCH  18  19
ENDBRANCH  17  18
ENDBRANCH  16  17
ENDBRANCH  15  16
ENDBRANCH   1  15
TORSDOF 22
ENDMDL
