MODEL 1
REMARK VINA RESULT:    -5.211      0.000      0.000
REMARK INTER + INTRA:         -14.704
REMARK INTER:                 -11.303
REMARK INTRA:                  -3.401
REMARK UNBOUND:                -3.401
REMARK SMILES CCCCCCCCCCCCCCCCCCCCCC(=O)[O-]
REMARK SMILES IDX 12 1 11 2 10 3 9 4 8 5 7 6 6 7 5 8 4 9 3 10 2 11 1 12 13 13
REMARK SMILES IDX 14 14 15 15 16 16 17 17 18 18 19 19 20 20 21 21 22 22 23 23
REMARK SMILES IDX 24 24
REMARK H PARENT
REMARK Flexibility Score: inf
ROOT
ATOM      1  C   UNL     1      22.424  -4.799  34.151  1.00  0.00     0.000 C 
ENDROOT
BRANCH   1   2
ATOM      2  C   UNL     1      21.502  -6.028  34.249  1.00  0.00     0.000 C 
BRANCH   2   3
ATOM      3  C   UNL     1      20.075  -5.735  34.752  1.00  0.00     0.000 C 
BRANCH   3   4
ATOM      4  C   UNL     1      18.977  -6.539  34.022  1.00  0.00    -0.000 C 
BRANCH   4   5
ATOM      5  C   UNL     1      19.510  -7.287  32.787  1.00  0.00    -0.000 C 
BRANCH   5   6
ATOM      6  C   UNL     1      18.852  -6.820  31.480  1.00  0.00    -0.000 C 
BRANCH   6   7
ATOM      7  C   UNL     1      19.881  -6.357  30.436  1.00  0.00    -0.000 C 
BRANCH   7   8
ATOM      8  C   UNL     1      20.513  -5.021  30.843  1.00  0.00    -0.000 C 
BRANCH   8   9
ATOM      9  C   UNL     1      19.449  -3.925  30.975  1.00  0.00    -0.000 C 
BRANCH   9  10
ATOM     10  C   UNL     1      19.654  -3.113  32.262  1.00  0.00    -0.000 C 
BRANCH  10  11
ATOM     11  C   UNL     1      18.331  -2.611  32.861  1.00  0.00    -0.003 C 
ATOM     12  C   UNL     1      17.227  -3.668  32.827  1.00  0.00     0.004 C 
ENDBRANCH  10  11
ENDBRANCH   9  10
ENDBRANCH   8   9
ENDBRANCH   7   8
ENDBRANCH   6   7
ENDBRANCH   5   6
ENDBRANCH   4   5
ENDBRANCH   3   4
ENDBRANCH   2   3
ENDBRANCH   1   2
BRANCH   1  13
ATOM     13  C   UNL     1      21.988  -3.582  34.993  1.00  0.00     0.000 C 
BRANCH  13  14
ATOM     14  C   UNL     1      23.069  -3.007  35.925  1.00  0.00     0.000 C 
BRANCH  14  15
ATOM     15  C   UNL     1      23.143  -3.739  37.276  1.00  0.00     0.000 C 
BRANCH  15  16
ATOM     16  C   UNL     1      21.763  -4.196  37.779  1.00  0.00     0.000 C 
BRANCH  16  17
ATOM     17  C   UNL     1      21.693  -5.657  38.262  1.00  0.00     0.000 C 
BRANCH  17  18
ATOM     18  C   UNL     1      22.924  -6.505  37.870  1.00  0.00     0.000 C 
BRANCH  18  19
ATOM     19  C   UNL     1      23.320  -7.505  38.972  1.00  0.00     0.000 C 
BRANCH  19  20
ATOM     20  C   UNL     1      24.446  -6.973  39.881  1.00  0.00     0.006 C 
BRANCH  20  21
ATOM     21  C   UNL     1      25.661  -7.910  39.972  1.00  0.00     0.053 C 
BRANCH  21  22
ATOM     22  C   UNL     1      26.956  -7.195  39.739  1.00  0.00     0.041 C 
ATOM     23  O   UNL     1      27.197  -6.112  40.334  1.00  0.00    -0.550 OA
ATOM     24  O   UNL     1      27.889  -7.715  38.850  1.00  0.00    -0.550 OA
ENDBRANCH  21  22
ENDBRANCH  20  21
ENDBRANCH  19  20
ENDBRANCH  18  19
ENDBRANCH  17  18
ENDBRANCH  16  17
ENDBRANCH  15  16
ENDBRANCH  14  15
ENDBRANCH  13  14
ENDBRANCH   1  13
TORSDOF 20
ENDMDL
MODEL 2
REMARK VINA RESULT:    -5.015      2.697      4.598
REMARK INTER + INTRA:         -14.281
REMARK INTER:                 -11.662
REMARK INTRA:                  -2.619
REMARK UNBOUND:                -3.401
REMARK SMILES CCCCCCCCCCCCCCCCCCCCCC(=O)[O-]
REMARK SMILES IDX 12 1 11 2 10 3 9 4 8 5 7 6 6 7 5 8 4 9 3 10 2 11 1 12 13 13
REMARK SMILES IDX 14 14 15 15 16 16 17 17 18 18 19 19 20 20 21 21 22 22 23 23
REMARK SMILES IDX 24 24
REMARK H PARENT
REMARK Flexibility Score: inf
ROOT
ATOM      1  C   UNL     1      22.205  -6.150  30.693  1.00  0.00     0.000 C 
ENDROOT
BRANCH   1   2
ATOM      2  C   UNL     1      21.197  -5.247  29.957  1.00  0.00     0.000 C 
BRANCH   2   3
ATOM      3  C   UNL     1      19.720  -5.663  30.104  1.00  0.00     0.000 C 
BRANCH   3   4
ATOM      4  C   UNL     1      18.990  -4.972  31.276  1.00  0.00    -0.000 C 
BRANCH   4   5
ATOM      5  C   UNL     1      19.323  -3.473  31.384  1.00  0.00    -0.000 C 
BRANCH   5   6
ATOM      6  C   UNL     1      19.993  -3.107  32.717  1.00  0.00    -0.000 C 
BRANCH   6   7
ATOM      7  C   UNL     1      18.975  -2.713  33.799  1.00  0.00    -0.000 C 
BRANCH   7   8
ATOM      8  C   UNL     1      19.559  -1.654  34.742  1.00  0.00    -0.000 C 
BRANCH   8   9
ATOM      9  C   UNL     1      21.085  -1.585  34.614  1.00  0.00    -0.000 C 
BRANCH   9  10
ATOM     10  C   UNL     1      21.692  -0.735  35.740  1.00  0.00    -0.000 C 
BRANCH  10  11
ATOM     11  C   UNL     1      22.640   0.354  35.213  1.00  0.00    -0.003 C 
ATOM     12  C   UNL     1      21.900   1.608  34.746  1.00  0.00     0.004 C 
ENDBRANCH  10  11
ENDBRANCH   9  10
ENDBRANCH   8   9
ENDBRANCH   7   8
ENDBRANCH   6   7
ENDBRANCH   5   6
ENDBRANCH   4   5
ENDBRANCH   3   4
ENDBRANCH   2   3
ENDBRANCH   1   2
BRANCH   1  13
ATOM     13  C   UNL     1      22.383  -5.848  32.195  1.00  0.00     0.000 C 
BRANCH  13  14
ATOM     14  C   UNL     1      21.646  -6.804  33.149  1.00  0.00     0.000 C 
BRANCH  14  15
ATOM     15  C   UNL     1      21.305  -6.154  34.501  1.00  0.00     0.000 C 
BRANCH  15  16
ATOM     16  C   UNL     1      22.276  -5.020  34.875  1.00  0.00     0.000 C 
BRANCH  16  17
ATOM     17  C   UNL     1      22.253  -4.602  36.357  1.00  0.00     0.000 C 
BRANCH  17  18
ATOM     18  C   UNL     1      23.655  -4.486  36.997  1.00  0.00     0.000 C 
BRANCH  18  19
ATOM     19  C   UNL     1      24.076  -5.780  37.717  1.00  0.00     0.000 C 
BRANCH  19  20
ATOM     20  C   UNL     1      22.887  -6.723  37.991  1.00  0.00     0.006 C 
BRANCH  20  21
ATOM     21  C   UNL     1      22.693  -7.057  39.479  1.00  0.00     0.053 C 
BRANCH  21  22
ATOM     22  C   UNL     1      21.288  -7.463  39.797  1.00  0.00     0.041 C 
ATOM     23  O   UNL     1      20.319  -6.874  39.250  1.00  0.00    -0.550 OA
ATOM     24  O   UNL     1      21.048  -8.481  40.712  1.00  0.00    -0.550 OA
ENDBRANCH  21  22
ENDBRANCH  20  21
ENDBRANCH  19  20
ENDBRANCH  18  19
ENDBRANCH  17  18
ENDBRANCH  16  17
ENDBRANCH  15  16
ENDBRANCH  14  15
ENDBRANCH  13  14
ENDBRANCH   1  13
TORSDOF 20
ENDMDL
MODEL 3
REMARK VINA RESULT:    -4.961      1.717      3.235
REMARK INTER + INTRA:         -14.163
REMARK INTER:                 -11.047
REMARK INTRA:                  -3.116
REMARK UNBOUND:                -3.401
REMARK SMILES CCCCCCCCCCCCCCCCCCCCCC(=O)[O-]
REMARK SMILES IDX 12 1 11 2 10 3 9 4 8 5 7 6 6 7 5 8 4 9 3 10 2 11 1 12 13 13
REMARK SMILES IDX 14 14 15 15 16 16 17 17 18 18 19 19 20 20 21 21 22 22 23 23
REMARK SMILES IDX 24 24
REMARK H PARENT
REMARK Flexibility Score: inf
ROOT
ATOM      1  C   UNL     1      22.149  -6.258  31.080  1.00  0.00     0.000 C 
ENDROOT
BRANCH   1   2
ATOM      2  C   UNL     1      20.824  -5.556  30.731  1.00  0.00     0.000 C 
BRANCH   2   3
ATOM      3  C   UNL     1      19.603  -6.488  30.614  1.00  0.00     0.000 C 
BRANCH   3   4
ATOM      4  C   UNL     1      19.206  -7.169  31.941  1.00  0.00    -0.000 C 
BRANCH   4   5
ATOM      5  C   UNL     1      17.888  -6.624  32.519  1.00  0.00    -0.000 C 
BRANCH   5   6
ATOM      6  C   UNL     1      18.073  -5.300  33.277  1.00  0.00    -0.000 C 
BRANCH   6   7
ATOM      7  C   UNL     1      17.703  -4.076  32.424  1.00  0.00    -0.000 C 
BRANCH   7   8
ATOM      8  C   UNL     1      18.799  -3.006  32.496  1.00  0.00    -0.000 C 
BRANCH   8   9
ATOM      9  C   UNL     1      19.187  -2.711  33.949  1.00  0.00    -0.000 C 
BRANCH   9  10
ATOM     10  C   UNL     1      20.531  -1.973  34.019  1.00  0.00    -0.000 C 
BRANCH  10  11
ATOM     11  C   UNL     1      20.978  -1.694  35.463  1.00  0.00    -0.003 C 
ATOM     12  C   UNL     1      22.376  -1.078  35.542  1.00  0.00     0.004 C 
ENDBRANCH  10  11
ENDBRANCH   9  10
ENDBRANCH   8   9
ENDBRANCH   7   8
ENDBRANCH   6   7
ENDBRANCH   5   6
ENDBRANCH   4   5
ENDBRANCH   3   4
ENDBRANCH   2   3
ENDBRANCH   1   2
BRANCH   1  13
ATOM     13  C   UNL     1      22.787  -5.832  32.418  1.00  0.00     0.000 C 
BRANCH  13  14
ATOM     14  C   UNL     1      21.819  -5.209  33.438  1.00  0.00     0.000 C 
BRANCH  14  15
ATOM     15  C   UNL     1      21.539  -6.132  34.636  1.00  0.00     0.000 C 
BRANCH  15  16
ATOM     16  C   UNL     1      20.787  -5.417  35.773  1.00  0.00     0.000 C 
BRANCH  16  17
ATOM     17  C   UNL     1      21.601  -5.205  37.064  1.00  0.00     0.000 C 
BRANCH  17  18
ATOM     18  C   UNL     1      23.003  -4.603  36.828  1.00  0.00     0.000 C 
BRANCH  18  19
ATOM     19  C   UNL     1      24.090  -5.308  37.659  1.00  0.00     0.000 C 
BRANCH  19  20
ATOM     20  C   UNL     1      23.929  -5.067  39.175  1.00  0.00     0.006 C 
BRANCH  20  21
ATOM     21  C   UNL     1      24.890  -5.900  40.038  1.00  0.00     0.053 C 
BRANCH  21  22
ATOM     22  C   UNL     1      24.531  -7.353  40.057  1.00  0.00     0.041 C 
ATOM     23  O   UNL     1      23.324  -7.706  40.127  1.00  0.00    -0.550 OA
ATOM     24  O   UNL     1      25.530  -8.318  40.016  1.00  0.00    -0.550 OA
ENDBRANCH  21  22
ENDBRANCH  20  21
ENDBRANCH  19  20
ENDBRANCH  18  19
ENDBRANCH  17  18
ENDBRANCH  16  17
ENDBRANCH  15  16
ENDBRANCH  14  15
ENDBRANCH  13  14
ENDBRANCH   1  13
TORSDOF 20
ENDMDL
MODEL 4
REMARK VINA RESULT:    -4.957      1.343      3.429
REMARK INTER + INTRA:         -14.154
REMARK INTER:                 -11.358
REMARK INTRA:                  -2.796
REMARK UNBOUND:                -3.401
REMARK SMILES CCCCCCCCCCCCCCCCCCCCCC(=O)[O-]
REMARK SMILES IDX 12 1 11 2 10 3 9 4 8 5 7 6 6 7 5 8 4 9 3 10 2 11 1 12 13 13
REMARK SMILES IDX 14 14 15 15 16 16 17 17 18 18 19 19 20 20 21 21 22 22 23 23
REMARK SMILES IDX 24 24
REMARK H PARENT
REMARK Flexibility Score: inf
ROOT
ATOM      1  C   UNL     1      22.384  -5.933  32.368  1.00  0.00     0.000 C 
ENDROOT
BRANCH   1   2
ATOM      2  C   UNL     1      21.780  -6.367  31.019  1.00  0.00     0.000 C 
BRANCH   2   3
ATOM      3  C   UNL     1      21.108  -5.239  30.213  1.00  0.00     0.000 C 
BRANCH   3   4
ATOM      4  C   UNL     1      19.693  -4.871  30.711  1.00  0.00    -0.000 C 
BRANCH   4   5
ATOM      5  C   UNL     1      19.640  -3.488  31.384  1.00  0.00    -0.000 C 
BRANCH   5   6
ATOM      6  C   UNL     1      19.077  -3.543  32.812  1.00  0.00    -0.000 C 
BRANCH   6   7
ATOM      7  C   UNL     1      17.543  -3.632  32.838  1.00  0.00    -0.000 C 
BRANCH   7   8
ATOM      8  C   UNL     1      17.063  -4.509  34.001  1.00  0.00    -0.000 C 
BRANCH   8   9
ATOM      9  C   UNL     1      17.972  -5.731  34.181  1.00  0.00    -0.000 C 
BRANCH   9  10
ATOM     10  C   UNL     1      17.207  -7.030  33.891  1.00  0.00    -0.000 C 
BRANCH  10  11
ATOM     11  C   UNL     1      18.115  -8.138  33.332  1.00  0.00    -0.003 C 
ATOM     12  C   UNL     1      18.421  -7.958  31.844  1.00  0.00     0.004 C 
ENDBRANCH  10  11
ENDBRANCH   9  10
ENDBRANCH   8   9
ENDBRANCH   7   8
ENDBRANCH   6   7
ENDBRANCH   5   6
ENDBRANCH   4   5
ENDBRANCH   3   4
ENDBRANCH   2   3
ENDBRANCH   1   2
BRANCH   1  13
ATOM     13  C   UNL     1      21.602  -6.392  33.616  1.00  0.00     0.000 C 
BRANCH  13  14
ATOM     14  C   UNL     1      21.668  -5.437  34.820  1.00  0.00     0.000 C 
BRANCH  14  15
ATOM     15  C   UNL     1      22.337  -4.094  34.481  1.00  0.00     0.000 C 
BRANCH  15  16
ATOM     16  C   UNL     1      22.635  -3.248  35.732  1.00  0.00     0.000 C 
BRANCH  16  17
ATOM     17  C   UNL     1      23.512  -3.938  36.795  1.00  0.00     0.000 C 
BRANCH  17  18
ATOM     18  C   UNL     1      22.811  -4.125  38.159  1.00  0.00     0.000 C 
BRANCH  18  19
ATOM     19  C   UNL     1      23.432  -5.268  38.983  1.00  0.00     0.000 C 
BRANCH  19  20
ATOM     20  C   UNL     1      24.754  -5.786  38.380  1.00  0.00     0.006 C 
BRANCH  20  21
ATOM     21  C   UNL     1      25.981  -5.528  39.268  1.00  0.00     0.053 C 
BRANCH  21  22
ATOM     22  C   UNL     1      26.670  -6.793  39.676  1.00  0.00     0.041 C 
ATOM     23  O   UNL     1      27.928  -6.859  39.671  1.00  0.00    -0.550 OA
ATOM     24  O   UNL     1      25.922  -7.905  40.044  1.00  0.00    -0.550 OA
ENDBRANCH  21  22
ENDBRANCH  20  21
ENDBRANCH  19  20
ENDBRANCH  18  19
ENDBRANCH  17  18
ENDBRANCH  16  17
ENDBRANCH  15  16
ENDBRANCH  14  15
ENDBRANCH  13  14
ENDBRANCH   1  13
TORSDOF 20
ENDMDL
MODEL 5
REMARK VINA RESULT:    -4.938      3.447      5.652
REMARK INTER + INTRA:         -14.112
REMARK INTER:                 -10.618
REMARK INTRA:                  -3.494
REMARK UNBOUND:                -3.401
REMARK SMILES CCCCCCCCCCCCCCCCCCCCCC(=O)[O-]
REMARK SMILES IDX 12 1 11 2 10 3 9 4 8 5 7 6 6 7 5 8 4 9 3 10 2 11 1 12 13 13
REMARK SMILES IDX 14 14 15 15 16 16 17 17 18 18 19 19 20 20 21 21 22 22 23 23
REMARK SMILES IDX 24 24
REMARK H PARENT
REMARK Flexibility Score: inf
ROOT
ATOM      1  C   UNL     1      22.310  -5.896  32.273  1.00  0.00     0.000 C 
ENDROOT
BRANCH   1   2
ATOM      2  C   UNL     1      22.146  -6.190  30.771  1.00  0.00     0.000 C 
BRANCH   2   3
ATOM      3  C   UNL     1      21.174  -5.255  30.025  1.00  0.00     0.000 C 
BRANCH   3   4
ATOM      4  C   UNL     1      19.694  -5.680  30.128  1.00  0.00    -0.000 C 
BRANCH   4   5
ATOM      5  C   UNL     1      18.841  -4.676  30.923  1.00  0.00    -0.000 C 
BRANCH   5   6
ATOM      6  C   UNL     1      19.582  -3.361  31.208  1.00  0.00    -0.000 C 
BRANCH   6   7
ATOM      7  C   UNL     1      19.254  -2.789  32.597  1.00  0.00    -0.000 C 
BRANCH   7   8
ATOM      8  C   UNL     1      20.426  -2.993  33.564  1.00  0.00    -0.000 C 
BRANCH   8   9
ATOM      9  C   UNL     1      20.717  -1.712  34.355  1.00  0.00    -0.000 C 
BRANCH   9  10
ATOM     10  C   UNL     1      21.700  -1.987  35.503  1.00  0.00    -0.000 C 
BRANCH  10  11
ATOM     11  C   UNL     1      22.709  -0.846  35.702  1.00  0.00    -0.003 C 
ATOM     12  C   UNL     1      22.205   0.492  35.159  1.00  0.00     0.004 C 
ENDBRANCH  10  11
ENDBRANCH   9  10
ENDBRANCH   8   9
ENDBRANCH   7   8
ENDBRANCH   6   7
ENDBRANCH   5   6
ENDBRANCH   4   5
ENDBRANCH   3   4
ENDBRANCH   2   3
ENDBRANCH   1   2
BRANCH   1  13
ATOM     13  C   UNL     1      21.699  -6.951  33.219  1.00  0.00     0.000 C 
BRANCH  13  14
ATOM     14  C   UNL     1      20.259  -6.663  33.681  1.00  0.00     0.000 C 
BRANCH  14  15
ATOM     15  C   UNL     1      19.246  -7.693  33.153  1.00  0.00     0.000 C 
BRANCH  15  16
ATOM     16  C   UNL     1      17.792  -7.198  33.250  1.00  0.00     0.000 C 
BRANCH  16  17
ATOM     17  C   UNL     1      17.414  -6.538  34.590  1.00  0.00     0.000 C 
BRANCH  17  18
ATOM     18  C   UNL     1      17.041  -5.044  34.468  1.00  0.00     0.000 C 
BRANCH  18  19
ATOM     19  C   UNL     1      17.335  -4.262  35.761  1.00  0.00     0.000 C 
BRANCH  19  20
ATOM     20  C   UNL     1      18.738  -4.559  36.330  1.00  0.00     0.006 C 
BRANCH  20  21
ATOM     21  C   UNL     1      18.727  -4.992  37.805  1.00  0.00     0.053 C 
BRANCH  21  22
ATOM     22  C   UNL     1      20.037  -5.574  38.241  1.00  0.00     0.041 C 
ATOM     23  O   UNL     1      21.086  -5.331  37.587  1.00  0.00    -0.550 OA
ATOM     24  O   UNL     1      20.095  -6.398  39.358  1.00  0.00    -0.550 OA
ENDBRANCH  21  22
ENDBRANCH  20  21
ENDBRANCH  19  20
ENDBRANCH  18  19
ENDBRANCH  17  18
ENDBRANCH  16  17
ENDBRANCH  15  16
ENDBRANCH  14  15
ENDBRANCH  13  14
ENDBRANCH   1  13
TORSDOF 20
ENDMDL
MODEL 6
REMARK VINA RESULT:    -4.936      3.581      5.713
REMARK INTER + INTRA:         -14.109
REMARK INTER:                 -10.323
REMARK INTRA:                  -3.785
REMARK UNBOUND:                -3.401
REMARK SMILES CCCCCCCCCCCCCCCCCCCCCC(=O)[O-]
REMARK SMILES IDX 12 1 11 2 10 3 9 4 8 5 7 6 6 7 5 8 4 9 3 10 2 11 1 12 13 13
REMARK SMILES IDX 14 14 15 15 16 16 17 17 18 18 19 19 20 20 21 21 22 22 23 23
REMARK SMILES IDX 24 24
REMARK H PARENT
REMARK Flexibility Score: inf
ROOT
ATOM      1  C   UNL     1      19.652  -5.298  30.272  1.00  0.00     0.000 C 
ENDROOT
BRANCH   1   2
ATOM      2  C   UNL     1      19.938  -3.905  30.863  1.00  0.00     0.000 C 
BRANCH   2   3
ATOM      3  C   UNL     1      19.224  -3.602  32.195  1.00  0.00     0.000 C 
BRANCH   3   4
ATOM      4  C   UNL     1      20.084  -2.803  33.198  1.00  0.00    -0.000 C 
BRANCH   4   5
ATOM      5  C   UNL     1      19.390  -2.616  34.559  1.00  0.00    -0.000 C 
BRANCH   5   6
ATOM      6  C   UNL     1      18.176  -3.540  34.739  1.00  0.00    -0.000 C 
BRANCH   6   7
ATOM      7  C   UNL     1      18.400  -4.602  35.827  1.00  0.00    -0.000 C 
BRANCH   7   8
ATOM      8  C   UNL     1      17.210  -5.567  35.906  1.00  0.00    -0.000 C 
BRANCH   8   9
ATOM      9  C   UNL     1      16.889  -6.158  34.528  1.00  0.00    -0.000 C 
BRANCH   9  10
ATOM     10  C   UNL     1      18.101  -6.908  33.957  1.00  0.00    -0.000 C 
BRANCH  10  11
ATOM     11  C   UNL     1      17.812  -7.541  32.586  1.00  0.00    -0.003 C 
ATOM     12  C   UNL     1      17.840  -9.070  32.623  1.00  0.00     0.004 C 
ENDBRANCH  10  11
ENDBRANCH   9  10
ENDBRANCH   8   9
ENDBRANCH   7   8
ENDBRANCH   6   7
ENDBRANCH   5   6
ENDBRANCH   4   5
ENDBRANCH   3   4
ENDBRANCH   2   3
ENDBRANCH   1   2
BRANCH   1  13
ATOM     13  C   UNL     1      20.730  -6.365  30.555  1.00  0.00     0.000 C 
BRANCH  13  14
ATOM     14  C   UNL     1      22.153  -5.820  30.768  1.00  0.00     0.000 C 
BRANCH  14  15
ATOM     15  C   UNL     1      22.628  -5.944  32.226  1.00  0.00     0.000 C 
BRANCH  15  16
ATOM     16  C   UNL     1      21.634  -6.718  33.110  1.00  0.00     0.000 C 
BRANCH  16  17
ATOM     17  C   UNL     1      21.488  -6.189  34.549  1.00  0.00     0.000 C 
BRANCH  17  18
ATOM     18  C   UNL     1      22.369  -4.958  34.856  1.00  0.00     0.000 C 
BRANCH  18  19
ATOM     19  C   UNL     1      22.131  -4.407  36.273  1.00  0.00     0.000 C 
BRANCH  19  20
ATOM     20  C   UNL     1      23.118  -3.281  36.647  1.00  0.00     0.006 C 
BRANCH  20  21
ATOM     21  C   UNL     1      23.194  -2.155  35.604  1.00  0.00     0.053 C 
BRANCH  21  22
ATOM     22  C   UNL     1      22.393  -0.953  35.999  1.00  0.00     0.041 C 
ATOM     23  O   UNL     1      22.141  -0.731  37.212  1.00  0.00    -0.550 OA
ATOM     24  O   UNL     1      21.909  -0.089  35.024  1.00  0.00    -0.550 OA
ENDBRANCH  21  22
ENDBRANCH  20  21
ENDBRANCH  19  20
ENDBRANCH  18  19
ENDBRANCH  17  18
ENDBRANCH  16  17
ENDBRANCH  15  16
ENDBRANCH  14  15
ENDBRANCH  13  14
ENDBRANCH   1  13
TORSDOF 20
ENDMDL
MODEL 7
REMARK VINA RESULT:    -4.897     13.941     16.880
REMARK INTER + INTRA:         -14.025
REMARK INTER:                 -10.306
REMARK INTRA:                  -3.719
REMARK UNBOUND:                -3.401
REMARK SMILES CCCCCCCCCCCCCCCCCCCCCC(=O)[O-]
REMARK SMILES IDX 12 1 11 2 10 3 9 4 8 5 7 6 6 7 5 8 4 9 3 10 2 11 1 12 13 13
REMARK SMILES IDX 14 14 15 15 16 16 17 17 18 18 19 19 20 20 21 21 22 22 23 23
REMARK SMILES IDX 24 24
REMARK H PARENT
REMARK Flexibility Score: inf
ROOT
ATOM      1  C   UNL     1      26.058   7.938  43.520  1.00  0.00     0.000 C 
ENDROOT
BRANCH   1   2
ATOM      2  C   UNL     1      27.506   8.150  43.039  1.00  0.00     0.000 C 
BRANCH   2   3
ATOM      3  C   UNL     1      28.595   7.642  44.004  1.00  0.00     0.000 C 
BRANCH   3   4
ATOM      4  C   UNL     1      29.743   6.882  43.306  1.00  0.00    -0.000 C 
BRANCH   4   5
ATOM      5  C   UNL     1      29.313   6.247  41.972  1.00  0.00    -0.000 C 
BRANCH   5   6
ATOM      6  C   UNL     1      28.861   4.787  42.126  1.00  0.00    -0.000 C 
BRANCH   6   7
ATOM      7  C   UNL     1      27.333   4.633  42.064  1.00  0.00    -0.000 C 
BRANCH   7   8
ATOM      8  C   UNL     1      26.792   4.004  43.353  1.00  0.00    -0.000 C 
BRANCH   8   9
ATOM      9  C   UNL     1      27.920   3.763  44.364  1.00  0.00    -0.000 C 
BRANCH   9  10
ATOM     10  C   UNL     1      27.648   4.512  45.677  1.00  0.00    -0.000 C 
BRANCH  10  11
ATOM     11  C   UNL     1      26.215   5.061  45.758  1.00  0.00    -0.003 C 
ATOM     12  C   UNL     1      26.098   6.277  46.679  1.00  0.00     0.004 C 
ENDBRANCH  10  11
ENDBRANCH   9  10
ENDBRANCH   8   9
ENDBRANCH   7   8
ENDBRANCH   6   7
ENDBRANCH   5   6
ENDBRANCH   4   5
ENDBRANCH   3   4
ENDBRANCH   2   3
ENDBRANCH   1   2
BRANCH   1  13
ATOM     13  C   UNL     1      25.020   8.912  42.927  1.00  0.00     0.000 C 
BRANCH  13  14
ATOM     14  C   UNL     1      24.717  10.152  43.785  1.00  0.00     0.000 C 
BRANCH  14  15
ATOM     15  C   UNL     1      24.566   9.822  45.280  1.00  0.00     0.000 C 
BRANCH  15  16
ATOM     16  C   UNL     1      23.381  10.555  45.933  1.00  0.00     0.000 C 
BRANCH  16  17
ATOM     17  C   UNL     1      22.442   9.666  46.771  1.00  0.00     0.000 C 
BRANCH  17  18
ATOM     18  C   UNL     1      21.078   9.391  46.102  1.00  0.00     0.000 C 
BRANCH  18  19
ATOM     19  C   UNL     1      21.209   8.503  44.851  1.00  0.00     0.000 C 
BRANCH  19  20
ATOM     20  C   UNL     1      21.450   7.019  45.198  1.00  0.00     0.006 C 
BRANCH  20  21
ATOM     21  C   UNL     1      22.847   6.512  44.804  1.00  0.00     0.053 C 
BRANCH  21  22
ATOM     22  C   UNL     1      22.837   5.745  43.518  1.00  0.00     0.041 C 
ATOM     23  O   UNL     1      22.563   6.328  42.436  1.00  0.00    -0.550 OA
ATOM     24  O   UNL     1      23.112   4.383  43.518  1.00  0.00    -0.550 OA
ENDBRANCH  21  22
ENDBRANCH  20  21
ENDBRANCH  19  20
ENDBRANCH  18  19
ENDBRANCH  17  18
ENDBRANCH  16  17
ENDBRANCH  15  16
ENDBRANCH  14  15
ENDBRANCH  13  14
ENDBRANCH   1  13
TORSDOF 20
ENDMDL
MODEL 8
REMARK VINA RESULT:    -4.870      1.566      3.433
REMARK INTER + INTRA:         -13.965
REMARK INTER:                 -10.729
REMARK INTRA:                  -3.236
REMARK UNBOUND:                -3.401
REMARK SMILES CCCCCCCCCCCCCCCCCCCCCC(=O)[O-]
REMARK SMILES IDX 12 1 11 2 10 3 9 4 8 5 7 6 6 7 5 8 4 9 3 10 2 11 1 12 13 13
REMARK SMILES IDX 14 14 15 15 16 16 17 17 18 18 19 19 20 20 21 21 22 22 23 23
REMARK SMILES IDX 24 24
REMARK H PARENT
REMARK Flexibility Score: inf
ROOT
ATOM      1  C   UNL     1      20.850  -5.018  31.096  1.00  0.00     0.000 C 
ENDROOT
BRANCH   1   2
ATOM      2  C   UNL     1      19.437  -5.571  30.829  1.00  0.00     0.000 C 
BRANCH   2   3
ATOM      3  C   UNL     1      19.232  -7.049  31.212  1.00  0.00     0.000 C 
BRANCH   3   4
ATOM      4  C   UNL     1      18.023  -7.293  32.140  1.00  0.00    -0.000 C 
BRANCH   4   5
ATOM      5  C   UNL     1      18.361  -7.080  33.627  1.00  0.00    -0.000 C 
BRANCH   5   6
ATOM      6  C   UNL     1      17.283  -6.278  34.373  1.00  0.00    -0.000 C 
BRANCH   6   7
ATOM      7  C   UNL     1      17.282  -4.791  33.987  1.00  0.00    -0.000 C 
BRANCH   7   8
ATOM      8  C   UNL     1      18.658  -4.160  34.230  1.00  0.00    -0.000 C 
BRANCH   8   9
ATOM      9  C   UNL     1      18.819  -2.862  33.429  1.00  0.00    -0.000 C 
BRANCH   9  10
ATOM     10  C   UNL     1      20.256  -2.331  33.528  1.00  0.00    -0.000 C 
BRANCH  10  11
ATOM     11  C   UNL     1      20.626  -1.889  34.953  1.00  0.00    -0.003 C 
ATOM     12  C   UNL     1      21.327  -0.531  34.988  1.00  0.00     0.004 C 
ENDBRANCH  10  11
ENDBRANCH   9  10
ENDBRANCH   8   9
ENDBRANCH   7   8
ENDBRANCH   6   7
ENDBRANCH   5   6
ENDBRANCH   4   5
ENDBRANCH   3   4
ENDBRANCH   2   3
ENDBRANCH   1   2
BRANCH   1  13
ATOM     13  C   UNL     1      21.979  -6.069  31.085  1.00  0.00     0.000 C 
BRANCH  13  14
ATOM     14  C   UNL     1      22.589  -6.391  32.461  1.00  0.00     0.000 C 
BRANCH  14  15
ATOM     15  C   UNL     1      22.266  -5.325  33.522  1.00  0.00     0.000 C 
BRANCH  15  16
ATOM     16  C   UNL     1      21.741  -5.935  34.834  1.00  0.00     0.000 C 
BRANCH  16  17
ATOM     17  C   UNL     1      22.098  -5.147  36.109  1.00  0.00     0.000 C 
BRANCH  17  18
ATOM     18  C   UNL     1      20.939  -5.043  37.125  1.00  0.00     0.000 C 
BRANCH  18  19
ATOM     19  C   UNL     1      21.245  -5.784  38.439  1.00  0.00     0.000 C 
BRANCH  19  20
ATOM     20  C   UNL     1      22.724  -5.659  38.862  1.00  0.00     0.006 C 
BRANCH  20  21
ATOM     21  C   UNL     1      23.400  -7.008  39.153  1.00  0.00     0.053 C 
BRANCH  21  22
ATOM     22  C   UNL     1      24.673  -6.856  39.926  1.00  0.00     0.041 C 
ATOM     23  O   UNL     1      25.439  -7.843  40.086  1.00  0.00    -0.550 OA
ATOM     24  O   UNL     1      25.005  -5.628  40.486  1.00  0.00    -0.550 OA
ENDBRANCH  21  22
ENDBRANCH  20  21
ENDBRANCH  19  20
ENDBRANCH  18  19
ENDBRANCH  17  18
ENDBRANCH  16  17
ENDBRANCH  15  16
ENDBRANCH  14  15
ENDBRANCH  13  14
ENDBRANCH   1  13
TORSDOF 20
ENDMDL
MODEL 9
REMARK VINA RESULT:    -4.869      4.382      7.317
REMARK INTER + INTRA:         -13.962
REMARK INTER:                 -10.492
REMARK INTRA:                  -3.470
REMARK UNBOUND:                -3.401
REMARK SMILES CCCCCCCCCCCCCCCCCCCCCC(=O)[O-]
REMARK SMILES IDX 12 1 11 2 10 3 9 4 8 5 7 6 6 7 5 8 4 9 3 10 2 11 1 12 13 13
REMARK SMILES IDX 14 14 15 15 16 16 17 17 18 18 19 19 20 20 21 21 22 22 23 23
REMARK SMILES IDX 24 24
REMARK H PARENT
REMARK Flexibility Score: inf
ROOT
ATOM      1  C   UNL     1      21.206  -6.253  34.559  1.00  0.00     0.000 C 
ENDROOT
BRANCH   1   2
ATOM      2  C   UNL     1      21.938  -4.911  34.745  1.00  0.00     0.000 C 
BRANCH   2   3
ATOM      3  C   UNL     1      22.059  -4.431  36.204  1.00  0.00     0.000 C 
BRANCH   3   4
ATOM      4  C   UNL     1      23.280  -3.522  36.464  1.00  0.00    -0.000 C 
BRANCH   4   5
ATOM      5  C   UNL     1      23.265  -2.245  35.605  1.00  0.00    -0.000 C 
BRANCH   5   6
ATOM      6  C   UNL     1      22.652  -1.043  36.339  1.00  0.00    -0.000 C 
BRANCH   6   7
ATOM      7  C   UNL     1      21.497  -0.401  35.554  1.00  0.00    -0.000 C 
BRANCH   7   8
ATOM      8  C   UNL     1      20.986  -1.345  34.459  1.00  0.00    -0.000 C 
BRANCH   8   9
ATOM      9  C   UNL     1      19.600  -1.897  34.810  1.00  0.00    -0.000 C 
BRANCH   9  10
ATOM     10  C   UNL     1      18.772  -0.855  35.576  1.00  0.00    -0.000 C 
BRANCH  10  11
ATOM     11  C   UNL     1      17.260  -1.030  35.365  1.00  0.00    -0.003 C 
ATOM     12  C   UNL     1      16.894  -1.305  33.905  1.00  0.00     0.004 C 
ENDBRANCH  10  11
ENDBRANCH   9  10
ENDBRANCH   8   9
ENDBRANCH   7   8
ENDBRANCH   6   7
ENDBRANCH   5   6
ENDBRANCH   4   5
ENDBRANCH   3   4
ENDBRANCH   2   3
ENDBRANCH   1   2
BRANCH   1  13
ATOM     13  C   UNL     1      21.489  -6.977  33.227  1.00  0.00     0.000 C 
BRANCH  13  14
ATOM     14  C   UNL     1      22.674  -6.423  32.417  1.00  0.00     0.000 C 
BRANCH  14  15
ATOM     15  C   UNL     1      22.274  -5.981  30.999  1.00  0.00     0.000 C 
BRANCH  15  16
ATOM     16  C   UNL     1      20.756  -6.057  30.760  1.00  0.00     0.000 C 
BRANCH  16  17
ATOM     17  C   UNL     1      20.063  -4.702  30.517  1.00  0.00     0.000 C 
BRANCH  17  18
ATOM     18  C   UNL     1      19.602  -3.994  31.811  1.00  0.00     0.000 C 
BRANCH  18  19
ATOM     19  C   UNL     1      18.122  -4.273  32.133  1.00  0.00     0.000 C 
BRANCH  19  20
ATOM     20  C   UNL     1      17.934  -4.997  33.482  1.00  0.00     0.006 C 
BRANCH  20  21
ATOM     21  C   UNL     1      17.695  -6.509  33.345  1.00  0.00     0.053 C 
BRANCH  21  22
ATOM     22  C   UNL     1      16.669  -7.017  34.309  1.00  0.00     0.041 C 
ATOM     23  O   UNL     1      15.943  -6.209  34.946  1.00  0.00    -0.550 OA
ATOM     24  O   UNL     1      16.526  -8.384  34.518  1.00  0.00    -0.550 OA
ENDBRANCH  21  22
ENDBRANCH  20  21
ENDBRANCH  19  20
ENDBRANCH  18  19
ENDBRANCH  17  18
ENDBRANCH  16  17
ENDBRANCH  15  16
ENDBRANCH  14  15
ENDBRANCH  13  14
ENDBRANCH   1  13
TORSDOF 20
ENDMDL
