MODEL 1
REMARK VINA RESULT:    -6.842      0.000      0.000
REMARK INTER + INTRA:         -11.720
REMARK INTER:                 -10.041
REMARK INTRA:                  -1.679
REMARK UNBOUND:                -1.679
REMARK SMILES O=c1c(O[C@@H]2O[C@@H](CO)[C@H](O)[C@@H](O)[C@@H]2O)c(-c2ccc(O)c(O)c2)oc2cc(O)cc(O)c12
REMARK SMILES IDX 4 1 3 2 16 3 25 4 2 5 26 6 1 7 33 8 27 9 31 10 28 11 30 12
REMARK SMILES IDX 17 13 18 14 19 15 20 16 24 17 22 18 21 19 23 21 32 23 29 25
REMARK SMILES IDX 5 27 14 28 6 29 12 30 7 31 10 32 15 33 13 35 8 37 9 38 11 40
REMARK H PARENT 21 20 23 22 32 24 29 26 15 34 13 36 9 39 11 41
REMARK Flexibility Score: inf
ROOT
ATOM      1  O   UNL     1      -6.153   6.014  12.855  1.00  0.00    -0.454 OA
ENDROOT
BRANCH   1   2
ATOM      2  C   UNL     1      -5.227   5.656  13.868  1.00  0.00     0.214 A 
ATOM      3  C   UNL     1      -4.003   6.361  13.933  1.00  0.00     0.180 A 
ATOM      4  O   UNL     1      -2.990   5.841  14.623  1.00  0.00    -0.452 OA
ATOM      5  C   UNL     1      -5.429   4.626  14.820  1.00  0.00     0.239 A 
ATOM      6  C   UNL     1      -3.081   4.747  15.364  1.00  0.00     0.146 A 
ATOM      7  O   UNL     1      -6.574   4.127  14.972  1.00  0.00    -0.285 OA
ATOM      8  C   UNL     1      -4.342   4.152  15.594  1.00  0.00     0.111 A 
ATOM      9  C   UNL     1      -1.920   4.210  15.928  1.00  0.00     0.094 A 
ATOM     10  C   UNL     1      -4.425   3.082  16.541  1.00  0.00     0.134 A 
ATOM     11  C   UNL     1      -2.001   3.080  16.751  1.00  0.00     0.123 A 
ATOM     12  C   UNL     1      -3.248   2.537  17.071  1.00  0.00     0.093 A 
BRANCH   3  13
ATOM     13  C   UNL     1      -3.761   7.685  13.282  1.00  0.00     0.025 A 
ATOM     14  C   UNL     1      -3.616   7.731  11.879  1.00  0.00     0.016 A 
ATOM     15  C   UNL     1      -3.177   8.886  11.242  1.00  0.00     0.051 A 
ATOM     16  C   UNL     1      -2.865  10.026  11.982  1.00  0.00     0.157 A 
ATOM     17  C   UNL     1      -3.477   8.857  14.023  1.00  0.00     0.062 A 
ATOM     18  C   UNL     1      -3.035  10.020  13.380  1.00  0.00     0.158 A 
BRANCH  16  19
ATOM     19  O   UNL     1      -2.273  11.125  11.343  1.00  0.00    -0.504 OA
ATOM     20  H   UNL     1      -2.802  11.648  10.649  1.00  0.00     0.293 HD
ENDBRANCH  16  19
BRANCH  18  21
ATOM     21  O   UNL     1      -2.654  11.123  14.152  1.00  0.00    -0.504 OA
ATOM     22  H   UNL     1      -2.684  12.074  13.793  1.00  0.00     0.293 HD
ENDBRANCH  18  21
ENDBRANCH   3  13
BRANCH  10  23
ATOM     23  O   UNL     1      -5.638   2.552  17.003  1.00  0.00    -0.507 OA
ATOM     24  H   UNL     1      -5.955   1.609  16.805  1.00  0.00     0.293 HD
ENDBRANCH  10  23
BRANCH  11  25
ATOM     25  O   UNL     1      -0.840   2.489  17.244  1.00  0.00    -0.508 OA
ATOM     26  H   UNL     1       0.014   3.018  17.400  1.00  0.00     0.293 HD
ENDBRANCH  11  25
ENDBRANCH   1   2
BRANCH   1  27
ATOM     27  C   UNL     1      -7.302   6.866  12.916  1.00  0.00     0.339 C 
ATOM     28  C   UNL     1      -8.614   6.080  12.655  1.00  0.00     0.214 C 
ATOM     29  O   UNL     1      -7.297   7.600  14.130  1.00  0.00    -0.332 OA
ATOM     30  C   UNL     1      -9.837   7.013  12.772  1.00  0.00     0.180 C 
ATOM     31  C   UNL     1      -8.383   8.509  14.251  1.00  0.00     0.179 C 
ATOM     32  C   UNL     1      -9.765   7.842  14.064  1.00  0.00     0.177 C 
BRANCH  28  33
ATOM     33  O   UNL     1      -8.754   5.014  13.554  1.00  0.00    -0.384 OA
ATOM     34  H   UNL     1      -9.708   4.983  13.829  1.00  0.00     0.211 HD
ENDBRANCH  28  33
BRANCH  30  35
ATOM     35  O   UNL     1      -9.920   7.862  11.652  1.00  0.00    -0.387 OA
ATOM     36  H   UNL     1      -9.555   8.740  11.928  1.00  0.00     0.211 HD
ENDBRANCH  30  35
BRANCH  31  37
ATOM     37  C   UNL     1      -8.170   9.768  13.387  1.00  0.00     0.191 C 
BRANCH  37  38
ATOM     38  O   UNL     1      -9.391  10.434  13.243  1.00  0.00    -0.394 OA
ATOM     39  H   UNL     1      -9.870  10.344  14.104  1.00  0.00     0.210 HD
ENDBRANCH  37  38
ENDBRANCH  31  37
BRANCH  32  40
ATOM     40  O   UNL     1     -10.005   7.008  15.170  1.00  0.00    -0.387 OA
ATOM     41  H   UNL     1      -9.451   6.193  15.051  1.00  0.00     0.211 HD
ENDBRANCH  32  40
ENDBRANCH   1  27
TORSDOF 12
ENDMDL
MODEL 2
REMARK VINA RESULT:    -6.344      1.337      5.470
REMARK INTER + INTRA:         -10.989
REMARK INTER:                  -9.898
REMARK INTRA:                  -1.091
REMARK UNBOUND:                -1.679
REMARK SMILES O=c1c(O[C@@H]2O[C@@H](CO)[C@H](O)[C@@H](O)[C@@H]2O)c(-c2ccc(O)c(O)c2)oc2cc(O)cc(O)c12
REMARK SMILES IDX 4 1 3 2 16 3 25 4 2 5 26 6 1 7 33 8 27 9 31 10 28 11 30 12
REMARK SMILES IDX 17 13 18 14 19 15 20 16 24 17 22 18 21 19 23 21 32 23 29 25
REMARK SMILES IDX 5 27 14 28 6 29 12 30 7 31 10 32 15 33 13 35 8 37 9 38 11 40
REMARK H PARENT 21 20 23 22 32 24 29 26 15 34 13 36 9 39 11 41
REMARK Flexibility Score: inf
ROOT
ATOM      1  O   UNL     1      -6.103   6.562  12.432  1.00  0.00    -0.454 OA
ENDROOT
BRANCH   1   2
ATOM      2  C   UNL     1      -4.794   7.069  12.631  1.00  0.00     0.214 A 
ATOM      3  C   UNL     1      -4.107   6.701  13.811  1.00  0.00     0.180 A 
ATOM      4  O   UNL     1      -3.049   7.411  14.194  1.00  0.00    -0.452 OA
ATOM      5  C   UNL     1      -4.118   7.936  11.736  1.00  0.00     0.239 A 
ATOM      6  C   UNL     1      -2.509   8.385  13.477  1.00  0.00     0.146 A 
ATOM      7  O   UNL     1      -4.563   8.109  10.572  1.00  0.00    -0.285 OA
ATOM      8  C   UNL     1      -2.948   8.614  12.154  1.00  0.00     0.111 A 
ATOM      9  C   UNL     1      -1.490   9.159  14.041  1.00  0.00     0.094 A 
ATOM     10  C   UNL     1      -2.222   9.551  11.351  1.00  0.00     0.134 A 
ATOM     11  C   UNL     1      -0.876  10.164  13.282  1.00  0.00     0.123 A 
ATOM     12  C   UNL     1      -1.226  10.340  11.942  1.00  0.00     0.093 A 
BRANCH   3  13
ATOM     13  C   UNL     1      -4.482   5.538  14.673  1.00  0.00     0.025 A 
ATOM     14  C   UNL     1      -5.758   5.529  15.276  1.00  0.00     0.016 A 
ATOM     15  C   UNL     1      -6.082   4.594  16.252  1.00  0.00     0.051 A 
ATOM     16  C   UNL     1      -5.145   3.645  16.660  1.00  0.00     0.157 A 
ATOM     17  C   UNL     1      -3.549   4.550  15.066  1.00  0.00     0.062 A 
ATOM     18  C   UNL     1      -3.876   3.608  16.049  1.00  0.00     0.158 A 
BRANCH  16  19
ATOM     19  O   UNL     1      -5.431   2.816  17.754  1.00  0.00    -0.504 OA
ATOM     20  H   UNL     1      -5.835   1.896  17.595  1.00  0.00     0.293 HD
ENDBRANCH  16  19
BRANCH  18  21
ATOM     21  O   UNL     1      -2.892   2.719  16.496  1.00  0.00    -0.504 OA
ATOM     22  H   UNL     1      -1.908   2.839  16.272  1.00  0.00     0.293 HD
ENDBRANCH  18  21
ENDBRANCH   3  13
BRANCH  10  23
ATOM     23  O   UNL     1      -2.430   9.713   9.974  1.00  0.00    -0.507 OA
ATOM     24  H   UNL     1      -2.527  10.614   9.519  1.00  0.00     0.293 HD
ENDBRANCH  10  23
BRANCH  11  25
ATOM     25  O   UNL     1       0.078  10.996  13.865  1.00  0.00    -0.508 OA
ATOM     26  H   UNL     1       0.797  10.642  14.491  1.00  0.00     0.293 HD
ENDBRANCH  11  25
ENDBRANCH   1   2
BRANCH   1  27
ATOM     27  C   UNL     1      -7.371   7.223  12.516  1.00  0.00     0.339 C 
ATOM     28  C   UNL     1      -8.539   6.275  12.140  1.00  0.00     0.214 C 
ATOM     29  O   UNL     1      -7.510   7.841  13.785  1.00  0.00    -0.332 OA
ATOM     30  C   UNL     1      -9.893   7.001  12.284  1.00  0.00     0.180 C 
ATOM     31  C   UNL     1      -8.725   8.564  13.936  1.00  0.00     0.179 C 
ATOM     32  C   UNL     1      -9.984   7.715  13.640  1.00  0.00     0.177 C 
BRANCH  28  33
ATOM     33  O   UNL     1      -8.539   5.126  12.942  1.00  0.00    -0.384 OA
ATOM     34  H   UNL     1      -8.830   5.401  13.851  1.00  0.00     0.211 HD
ENDBRANCH  28  33
BRANCH  30  35
ATOM     35  O   UNL     1     -10.074   7.921  11.234  1.00  0.00    -0.387 OA
ATOM     36  H   UNL     1      -9.626   7.541  10.438  1.00  0.00     0.211 HD
ENDBRANCH  30  35
BRANCH  31  37
ATOM     37  C   UNL     1      -8.684   9.911  13.187  1.00  0.00     0.191 C 
BRANCH  37  38
ATOM     38  O   UNL     1      -9.979  10.432  13.115  1.00  0.00    -0.394 OA
ATOM     39  H   UNL     1     -10.213  10.744  14.025  1.00  0.00     0.210 HD
ENDBRANCH  37  38
ENDBRANCH  31  37
BRANCH  32  40
ATOM     40  O   UNL     1     -10.123   6.762  14.664  1.00  0.00    -0.387 OA
ATOM     41  H   UNL     1      -9.543   7.050  15.417  1.00  0.00     0.211 HD
ENDBRANCH  32  40
ENDBRANCH   1  27
TORSDOF 12
ENDMDL
MODEL 3
REMARK VINA RESULT:    -6.340      1.389      2.375
REMARK INTER + INTRA:         -10.985
REMARK INTER:                 -10.421
REMARK INTRA:                  -0.564
REMARK UNBOUND:                -1.679
REMARK SMILES O=c1c(O[C@@H]2O[C@@H](CO)[C@H](O)[C@@H](O)[C@@H]2O)c(-c2ccc(O)c(O)c2)oc2cc(O)cc(O)c12
REMARK SMILES IDX 4 1 3 2 16 3 25 4 2 5 26 6 1 7 33 8 27 9 31 10 28 11 30 12
REMARK SMILES IDX 17 13 18 14 19 15 20 16 24 17 22 18 21 19 23 21 32 23 29 25
REMARK SMILES IDX 5 27 14 28 6 29 12 30 7 31 10 32 15 33 13 35 8 37 9 38 11 40
REMARK H PARENT 21 20 23 22 32 24 29 26 15 34 13 36 9 39 11 41
REMARK Flexibility Score: inf
ROOT
ATOM      1  O   UNL     1      -5.608   7.818  13.452  1.00  0.00    -0.454 OA
ENDROOT
BRANCH   1   2
ATOM      2  C   UNL     1      -4.699   7.065  14.239  1.00  0.00     0.214 A 
ATOM      3  C   UNL     1      -3.315   7.240  14.012  1.00  0.00     0.180 A 
ATOM      4  O   UNL     1      -2.461   6.326  14.468  1.00  0.00    -0.452 OA
ATOM      5  C   UNL     1      -5.075   6.129  15.235  1.00  0.00     0.239 A 
ATOM      6  C   UNL     1      -2.808   5.304  15.234  1.00  0.00     0.146 A 
ATOM      7  O   UNL     1      -6.262   6.098  15.651  1.00  0.00    -0.285 OA
ATOM      8  C   UNL     1      -4.119   5.223  15.754  1.00  0.00     0.111 A 
ATOM      9  C   UNL     1      -1.855   4.326  15.535  1.00  0.00     0.094 A 
ATOM     10  C   UNL     1      -4.406   4.206  16.719  1.00  0.00     0.134 A 
ATOM     11  C   UNL     1      -2.190   3.260  16.380  1.00  0.00     0.123 A 
ATOM     12  C   UNL     1      -3.449   3.216  16.984  1.00  0.00     0.093 A 
BRANCH   3  13
ATOM     13  C   UNL     1      -2.723   8.411  13.294  1.00  0.00     0.025 A 
ATOM     14  C   UNL     1      -2.985   8.560  11.916  1.00  0.00     0.016 A 
ATOM     15  C   UNL     1      -2.295   9.495  11.152  1.00  0.00     0.051 A 
ATOM     16  C   UNL     1      -1.322  10.304  11.737  1.00  0.00     0.157 A 
ATOM     17  C   UNL     1      -1.760   9.261  13.888  1.00  0.00     0.062 A 
ATOM     18  C   UNL     1      -1.065  10.202  13.118  1.00  0.00     0.158 A 
BRANCH  16  19
ATOM     19  O   UNL     1      -0.526  11.125  10.925  1.00  0.00    -0.504 OA
ATOM     20  H   UNL     1       0.482  10.993  10.911  1.00  0.00     0.293 HD
ENDBRANCH  16  19
BRANCH  18  21
ATOM     21  O   UNL     1      -0.039  10.945  13.713  1.00  0.00    -0.504 OA
ATOM     22  H   UNL     1      -0.212  11.830  14.183  1.00  0.00     0.293 HD
ENDBRANCH  18  21
ENDBRANCH   3  13
BRANCH  10  23
ATOM     23  O   UNL     1      -5.599   4.151  17.454  1.00  0.00    -0.507 OA
ATOM     24  H   UNL     1      -5.952   3.309  17.896  1.00  0.00     0.293 HD
ENDBRANCH  10  23
BRANCH  11  25
ATOM     25  O   UNL     1      -1.273   2.237  16.613  1.00  0.00    -0.508 OA
ATOM     26  H   UNL     1      -1.554   1.263  16.686  1.00  0.00     0.293 HD
ENDBRANCH  11  25
ENDBRANCH   1   2
BRANCH   1  27
ATOM     27  C   UNL     1      -7.038   7.773  13.399  1.00  0.00     0.339 C 
ATOM     28  C   UNL     1      -7.650   9.183  13.192  1.00  0.00     0.214 C 
ATOM     29  O   UNL     1      -7.457   6.813  12.442  1.00  0.00    -0.332 OA
ATOM     30  C   UNL     1      -9.187   9.097  13.093  1.00  0.00     0.180 C 
ATOM     31  C   UNL     1      -8.869   6.669  12.359  1.00  0.00     0.179 C 
ATOM     32  C   UNL     1      -9.607   8.003  12.100  1.00  0.00     0.177 C 
BRANCH  28  33
ATOM     33  O   UNL     1      -7.142   9.792  12.037  1.00  0.00    -0.384 OA
ATOM     34  H   UNL     1      -7.670  10.619  11.883  1.00  0.00     0.211 HD
ENDBRANCH  28  33
BRANCH  30  35
ATOM     35  O   UNL     1      -9.751   8.850  14.359  1.00  0.00    -0.387 OA
ATOM     36  H   UNL     1      -9.837   9.726  14.812  1.00  0.00     0.211 HD
ENDBRANCH  30  35
BRANCH  31  37
ATOM     37  C   UNL     1      -9.430   5.860  13.546  1.00  0.00     0.191 C 
BRANCH  37  38
ATOM     38  O   UNL     1      -8.721   4.660  13.655  1.00  0.00    -0.394 OA
ATOM     39  H   UNL     1      -9.113   4.164  14.416  1.00  0.00     0.210 HD
ENDBRANCH  37  38
ENDBRANCH  31  37
BRANCH  32  40
ATOM     40  O   UNL     1      -9.314   8.421  10.790  1.00  0.00    -0.387 OA
ATOM     41  H   UNL     1      -8.427   8.866  10.813  1.00  0.00     0.211 HD
ENDBRANCH  32  40
ENDBRANCH   1  27
TORSDOF 12
ENDMDL
MODEL 4
REMARK VINA RESULT:    -6.269      1.750      5.173
REMARK INTER + INTRA:         -10.880
REMARK INTER:                  -9.548
REMARK INTRA:                  -1.332
REMARK UNBOUND:                -1.679
REMARK SMILES O=c1c(O[C@@H]2O[C@@H](CO)[C@H](O)[C@@H](O)[C@@H]2O)c(-c2ccc(O)c(O)c2)oc2cc(O)cc(O)c12
REMARK SMILES IDX 4 1 3 2 16 3 25 4 2 5 26 6 1 7 33 8 27 9 31 10 28 11 30 12
REMARK SMILES IDX 17 13 18 14 19 15 20 16 24 17 22 18 21 19 23 21 32 23 29 25
REMARK SMILES IDX 5 27 14 28 6 29 12 30 7 31 10 32 15 33 13 35 8 37 9 38 11 40
REMARK H PARENT 21 20 23 22 32 24 29 26 15 34 13 36 9 39 11 41
REMARK Flexibility Score: inf
ROOT
ATOM      1  O   UNL     1      -4.534   6.979  14.968  1.00  0.00    -0.454 OA
ENDROOT
BRANCH   1   2
ATOM      2  C   UNL     1      -4.461   5.644  15.441  1.00  0.00     0.214 A 
ATOM      3  C   UNL     1      -5.668   4.923  15.594  1.00  0.00     0.180 A 
ATOM      4  O   UNL     1      -5.676   3.823  16.344  1.00  0.00    -0.452 OA
ATOM      5  C   UNL     1      -3.262   4.974  15.790  1.00  0.00     0.239 A 
ATOM      6  C   UNL     1      -4.592   3.278  16.874  1.00  0.00     0.146 A 
ATOM      7  O   UNL     1      -2.151   5.461  15.458  1.00  0.00    -0.285 OA
ATOM      8  C   UNL     1      -3.313   3.763  16.521  1.00  0.00     0.111 A 
ATOM      9  C   UNL     1      -4.735   2.207  17.762  1.00  0.00     0.094 A 
ATOM     10  C   UNL     1      -2.164   3.037  16.970  1.00  0.00     0.134 A 
ATOM     11  C   UNL     1      -3.599   1.589  18.298  1.00  0.00     0.123 A 
ATOM     12  C   UNL     1      -2.325   1.987  17.886  1.00  0.00     0.093 A 
BRANCH   3  13
ATOM     13  C   UNL     1      -6.962   5.305  14.950  1.00  0.00     0.025 A 
ATOM     14  C   UNL     1      -7.214   4.870  13.632  1.00  0.00     0.016 A 
ATOM     15  C   UNL     1      -8.291   5.368  12.907  1.00  0.00     0.051 A 
ATOM     16  C   UNL     1      -9.144   6.316  13.471  1.00  0.00     0.157 A 
ATOM     17  C   UNL     1      -7.853   6.240  15.529  1.00  0.00     0.062 A 
ATOM     18  C   UNL     1      -8.937   6.741  14.798  1.00  0.00     0.158 A 
BRANCH  16  19
ATOM     19  O   UNL     1     -10.125   6.925  12.674  1.00  0.00    -0.504 OA
ATOM     20  H   UNL     1     -10.154   7.939  12.600  1.00  0.00     0.293 HD
ENDBRANCH  16  19
BRANCH  18  21
ATOM     21  O   UNL     1      -9.730   7.749  15.358  1.00  0.00    -0.504 OA
ATOM     22  H   UNL     1      -9.375   8.685  15.536  1.00  0.00     0.293 HD
ENDBRANCH  18  21
ENDBRANCH   3  13
BRANCH  10  23
ATOM     23  O   UNL     1      -0.861   3.296  16.522  1.00  0.00    -0.507 OA
ATOM     24  H   UNL     1      -0.025   3.053  17.041  1.00  0.00     0.293 HD
ENDBRANCH  10  23
BRANCH  11  25
ATOM     25  O   UNL     1      -3.735   0.580  19.250  1.00  0.00    -0.508 OA
ATOM     26  H   UNL     1      -3.806   0.779  20.245  1.00  0.00     0.293 HD
ENDBRANCH  11  25
ENDBRANCH   1   2
BRANCH   1  27
ATOM     27  C   UNL     1      -3.985   7.568  13.784  1.00  0.00     0.339 C 
ATOM     28  C   UNL     1      -4.979   7.502  12.595  1.00  0.00     0.214 C 
ATOM     29  O   UNL     1      -3.508   8.874  14.070  1.00  0.00    -0.332 OA
ATOM     30  C   UNL     1      -4.378   8.184  11.349  1.00  0.00     0.180 C 
ATOM     31  C   UNL     1      -2.900   9.515  12.956  1.00  0.00     0.179 C 
ATOM     32  C   UNL     1      -3.810   9.566  11.707  1.00  0.00     0.177 C 
BRANCH  28  33
ATOM     33  O   UNL     1      -6.198   8.113  12.918  1.00  0.00    -0.384 OA
ATOM     34  H   UNL     1      -6.778   7.416  13.323  1.00  0.00     0.211 HD
ENDBRANCH  28  33
BRANCH  30  35
ATOM     35  O   UNL     1      -3.375   7.377  10.778  1.00  0.00    -0.387 OA
ATOM     36  H   UNL     1      -3.799   6.515  10.541  1.00  0.00     0.211 HD
ENDBRANCH  30  35
BRANCH  31  37
ATOM     37  C   UNL     1      -1.487   8.963  12.682  1.00  0.00     0.191 C 
BRANCH  37  38
ATOM     38  O   UNL     1      -0.761   8.956  13.877  1.00  0.00    -0.394 OA
ATOM     39  H   UNL     1       0.186   9.116  13.639  1.00  0.00     0.210 HD
ENDBRANCH  37  38
ENDBRANCH  31  37
BRANCH  32  40
ATOM     40  O   UNL     1      -4.868  10.454  11.968  1.00  0.00    -0.387 OA
ATOM     41  H   UNL     1      -5.682   9.907  12.125  1.00  0.00     0.211 HD
ENDBRANCH  32  40
ENDBRANCH   1  27
TORSDOF 12
ENDMDL
MODEL 5
REMARK VINA RESULT:    -6.030      1.699      4.758
REMARK INTER + INTRA:         -10.529
REMARK INTER:                  -9.138
REMARK INTRA:                  -1.391
REMARK UNBOUND:                -1.679
REMARK SMILES O=c1c(O[C@@H]2O[C@@H](CO)[C@H](O)[C@@H](O)[C@@H]2O)c(-c2ccc(O)c(O)c2)oc2cc(O)cc(O)c12
REMARK SMILES IDX 4 1 3 2 16 3 25 4 2 5 26 6 1 7 33 8 27 9 31 10 28 11 30 12
REMARK SMILES IDX 17 13 18 14 19 15 20 16 24 17 22 18 21 19 23 21 32 23 29 25
REMARK SMILES IDX 5 27 14 28 6 29 12 30 7 31 10 32 15 33 13 35 8 37 9 38 11 40
REMARK H PARENT 21 20 23 22 32 24 29 26 15 34 13 36 9 39 11 41
REMARK Flexibility Score: inf
ROOT
ATOM      1  O   UNL     1      -4.228   6.569  13.987  1.00  0.00    -0.454 OA
ENDROOT
BRANCH   1   2
ATOM      2  C   UNL     1      -4.292   5.324  14.663  1.00  0.00     0.214 A 
ATOM      3  C   UNL     1      -5.545   4.675  14.750  1.00  0.00     0.180 A 
ATOM      4  O   UNL     1      -5.715   3.708  15.649  1.00  0.00    -0.452 OA
ATOM      5  C   UNL     1      -3.189   4.679  15.278  1.00  0.00     0.239 A 
ATOM      6  C   UNL     1      -4.744   3.219  16.405  1.00  0.00     0.146 A 
ATOM      7  O   UNL     1      -2.018   5.072  15.037  1.00  0.00    -0.285 OA
ATOM      8  C   UNL     1      -3.405   3.601  16.169  1.00  0.00     0.111 A 
ATOM      9  C   UNL     1      -5.064   2.307  17.416  1.00  0.00     0.094 A 
ATOM     10  C   UNL     1      -2.368   2.919  16.883  1.00  0.00     0.134 A 
ATOM     11  C   UNL     1      -4.046   1.745  18.196  1.00  0.00     0.123 A 
ATOM     12  C   UNL     1      -2.709   2.033  17.914  1.00  0.00     0.093 A 
BRANCH   3  13
ATOM     13  C   UNL     1      -6.717   4.992  13.877  1.00  0.00     0.025 A 
ATOM     14  C   UNL     1      -6.545   4.958  12.477  1.00  0.00     0.016 A 
ATOM     15  C   UNL     1      -7.526   5.449  11.623  1.00  0.00     0.051 A 
ATOM     16  C   UNL     1      -8.703   5.992  12.137  1.00  0.00     0.157 A 
ATOM     17  C   UNL     1      -7.930   5.510  14.390  1.00  0.00     0.062 A 
ATOM     18  C   UNL     1      -8.917   6.005  13.529  1.00  0.00     0.158 A 
BRANCH  16  19
ATOM     19  O   UNL     1      -9.607   6.626  11.272  1.00  0.00    -0.504 OA
ATOM     20  H   UNL     1     -10.476   7.002  11.642  1.00  0.00     0.293 HD
ENDBRANCH  16  19
BRANCH  18  21
ATOM     21  O   UNL     1     -10.053   6.615  14.072  1.00  0.00    -0.504 OA
ATOM     22  H   UNL     1     -10.729   7.114  13.499  1.00  0.00     0.293 HD
ENDBRANCH  18  21
ENDBRANCH   3  13
BRANCH  10  23
ATOM     23  O   UNL     1      -1.004   3.062  16.591  1.00  0.00    -0.507 OA
ATOM     24  H   UNL     1      -0.325   3.448  17.238  1.00  0.00     0.293 HD
ENDBRANCH  10  23
BRANCH  11  25
ATOM     25  O   UNL     1      -4.365   0.904  19.261  1.00  0.00    -0.508 OA
ATOM     26  H   UNL     1      -4.419   1.239  20.220  1.00  0.00     0.293 HD
ENDBRANCH  11  25
ENDBRANCH   1   2
BRANCH   1  27
ATOM     27  C   UNL     1      -4.881   7.810  14.276  1.00  0.00     0.339 C 
ATOM     28  C   UNL     1      -3.872   8.901  14.720  1.00  0.00     0.214 C 
ATOM     29  O   UNL     1      -5.703   8.190  13.184  1.00  0.00    -0.332 OA
ATOM     30  C   UNL     1      -4.597  10.237  14.980  1.00  0.00     0.180 C 
ATOM     31  C   UNL     1      -6.428   9.392  13.408  1.00  0.00     0.179 C 
ATOM     32  C   UNL     1      -5.530  10.584  13.810  1.00  0.00     0.177 C 
BRANCH  28  33
ATOM     33  O   UNL     1      -2.875   9.092  13.754  1.00  0.00    -0.384 OA
ATOM     34  H   UNL     1      -3.057   9.962  13.310  1.00  0.00     0.211 HD
ENDBRANCH  28  33
BRANCH  30  35
ATOM     35  O   UNL     1      -5.326  10.177  16.184  1.00  0.00    -0.387 OA
ATOM     36  H   UNL     1      -4.666  10.084  16.915  1.00  0.00     0.211 HD
ENDBRANCH  30  35
BRANCH  31  37
ATOM     37  C   UNL     1      -7.630   9.165  14.348  1.00  0.00     0.191 C 
BRANCH  37  38
ATOM     38  O   UNL     1      -8.812   9.413  13.644  1.00  0.00    -0.394 OA
ATOM     39  H   UNL     1      -8.609  10.122  12.983  1.00  0.00     0.210 HD
ENDBRANCH  37  38
ENDBRANCH  31  37
BRANCH  32  40
ATOM     40  O   UNL     1      -4.762  10.953  12.692  1.00  0.00    -0.387 OA
ATOM     41  H   UNL     1      -4.332  11.824  12.903  1.00  0.00     0.211 HD
ENDBRANCH  32  40
ENDBRANCH   1  27
TORSDOF 12
ENDMDL
MODEL 6
REMARK VINA RESULT:    -5.731      1.598      5.203
REMARK INTER + INTRA:         -10.091
REMARK INTER:                  -8.976
REMARK INTRA:                  -1.115
REMARK UNBOUND:                -1.679
REMARK SMILES O=c1c(O[C@@H]2O[C@@H](CO)[C@H](O)[C@@H](O)[C@@H]2O)c(-c2ccc(O)c(O)c2)oc2cc(O)cc(O)c12
REMARK SMILES IDX 4 1 3 2 16 3 25 4 2 5 26 6 1 7 33 8 27 9 31 10 28 11 30 12
REMARK SMILES IDX 17 13 18 14 19 15 20 16 24 17 22 18 21 19 23 21 32 23 29 25
REMARK SMILES IDX 5 27 14 28 6 29 12 30 7 31 10 32 15 33 13 35 8 37 9 38 11 40
REMARK H PARENT 21 20 23 22 32 24 29 26 15 34 13 36 9 39 11 41
REMARK Flexibility Score: inf
ROOT
ATOM      1  O   UNL     1      -4.804   8.146  14.099  1.00  0.00    -0.454 OA
ENDROOT
BRANCH   1   2
ATOM      2  C   UNL     1      -4.871   6.789  14.505  1.00  0.00     0.214 A 
ATOM      3  C   UNL     1      -6.133   6.152  14.500  1.00  0.00     0.180 A 
ATOM      4  O   UNL     1      -6.293   5.022  15.185  1.00  0.00    -0.452 OA
ATOM      5  C   UNL     1      -3.762   6.017  14.933  1.00  0.00     0.239 A 
ATOM      6  C   UNL     1      -5.308   4.375  15.789  1.00  0.00     0.146 A 
ATOM      7  O   UNL     1      -2.592   6.437  14.738  1.00  0.00    -0.285 OA
ATOM      8  C   UNL     1      -3.970   4.780  15.590  1.00  0.00     0.111 A 
ATOM      9  C   UNL     1      -5.613   3.277  16.601  1.00  0.00     0.094 A 
ATOM     10  C   UNL     1      -2.924   3.952  16.110  1.00  0.00     0.134 A 
ATOM     11  C   UNL     1      -4.582   2.553  17.211  1.00  0.00     0.123 A 
ATOM     12  C   UNL     1      -3.249   2.876  16.947  1.00  0.00     0.093 A 
BRANCH   3  13
ATOM     13  C   UNL     1      -7.326   6.658  13.754  1.00  0.00     0.025 A 
ATOM     14  C   UNL     1      -7.466   6.314  12.392  1.00  0.00     0.016 A 
ATOM     15  C   UNL     1      -8.427   6.925  11.595  1.00  0.00     0.051 A 
ATOM     16  C   UNL     1      -9.273   7.897  12.127  1.00  0.00     0.157 A 
ATOM     17  C   UNL     1      -8.212   7.619  14.296  1.00  0.00     0.062 A 
ATOM     18  C   UNL     1      -9.180   8.233  13.492  1.00  0.00     0.158 A 
BRANCH  16  19
ATOM     19  O   UNL     1     -10.125   8.615  11.275  1.00  0.00    -0.504 OA
ATOM     20  H   UNL     1     -10.780   9.286  11.668  1.00  0.00     0.293 HD
ENDBRANCH  16  19
BRANCH  18  21
ATOM     21  O   UNL     1      -9.962   9.261  14.031  1.00  0.00    -0.504 OA
ATOM     22  H   UNL     1     -10.964   9.321  13.873  1.00  0.00     0.293 HD
ENDBRANCH  18  21
ENDBRANCH   3  13
BRANCH  10  23
ATOM     23  O   UNL     1      -1.568   4.136  15.805  1.00  0.00    -0.507 OA
ATOM     24  H   UNL     1      -1.228   4.792  15.111  1.00  0.00     0.293 HD
ENDBRANCH  10  23
BRANCH  11  25
ATOM     25  O   UNL     1      -4.883   1.514  18.090  1.00  0.00    -0.508 OA
ATOM     26  H   UNL     1      -5.781   1.445  18.562  1.00  0.00     0.293 HD
ENDBRANCH  11  25
ENDBRANCH   1   2
BRANCH   1  27
ATOM     27  C   UNL     1      -4.566   8.710  12.804  1.00  0.00     0.339 C 
ATOM     28  C   UNL     1      -4.781  10.247  12.799  1.00  0.00     0.214 C 
ATOM     29  O   UNL     1      -3.296   8.300  12.323  1.00  0.00    -0.332 OA
ATOM     30  C   UNL     1      -4.474  10.831  11.405  1.00  0.00     0.180 C 
ATOM     31  C   UNL     1      -3.000   8.779  11.017  1.00  0.00     0.179 C 
ATOM     32  C   UNL     1      -3.125  10.314  10.884  1.00  0.00     0.177 C 
BRANCH  28  33
ATOM     33  O   UNL     1      -3.973  10.875  13.756  1.00  0.00    -0.384 OA
ATOM     34  H   UNL     1      -3.521  11.637  13.306  1.00  0.00     0.211 HD
ENDBRANCH  28  33
BRANCH  30  35
ATOM     35  O   UNL     1      -5.503  10.512  10.498  1.00  0.00    -0.387 OA
ATOM     36  H   UNL     1      -5.370  11.082   9.700  1.00  0.00     0.211 HD
ENDBRANCH  30  35
BRANCH  31  37
ATOM     37  C   UNL     1      -3.763   7.989   9.934  1.00  0.00     0.191 C 
BRANCH  37  38
ATOM     38  O   UNL     1      -3.746   6.631  10.264  1.00  0.00    -0.394 OA
ATOM     39  H   UNL     1      -4.655   6.282  10.090  1.00  0.00     0.210 HD
ENDBRANCH  37  38
ENDBRANCH  31  37
BRANCH  32  40
ATOM     40  O   UNL     1      -2.082  10.906  11.617  1.00  0.00    -0.387 OA
ATOM     41  H   UNL     1      -2.464  11.216  12.479  1.00  0.00     0.211 HD
ENDBRANCH  32  40
ENDBRANCH   1  27
TORSDOF 12
ENDMDL
MODEL 7
REMARK VINA RESULT:    -5.709      1.841      6.378
REMARK INTER + INTRA:         -10.057
REMARK INTER:                  -9.098
REMARK INTRA:                  -0.960
REMARK UNBOUND:                -1.679
REMARK SMILES O=c1c(O[C@@H]2O[C@@H](CO)[C@H](O)[C@@H](O)[C@@H]2O)c(-c2ccc(O)c(O)c2)oc2cc(O)cc(O)c12
REMARK SMILES IDX 4 1 3 2 16 3 25 4 2 5 26 6 1 7 33 8 27 9 31 10 28 11 30 12
REMARK SMILES IDX 17 13 18 14 19 15 20 16 24 17 22 18 21 19 23 21 32 23 29 25
REMARK SMILES IDX 5 27 14 28 6 29 12 30 7 31 10 32 15 33 13 35 8 37 9 38 11 40
REMARK H PARENT 21 20 23 22 32 24 29 26 15 34 13 36 9 39 11 41
REMARK Flexibility Score: inf
ROOT
ATOM      1  O   UNL     1      -4.734   5.700  12.989  1.00  0.00    -0.454 OA
ENDROOT
BRANCH   1   2
ATOM      2  C   UNL     1      -5.550   6.723  12.441  1.00  0.00     0.214 A 
ATOM      3  C   UNL     1      -5.018   8.030  12.360  1.00  0.00     0.180 A 
ATOM      4  O   UNL     1      -5.846   9.058  12.183  1.00  0.00    -0.452 OA
ATOM      5  C   UNL     1      -6.876   6.537  11.976  1.00  0.00     0.239 A 
ATOM      6  C   UNL     1      -7.144   8.934  11.957  1.00  0.00     0.146 A 
ATOM      7  O   UNL     1      -7.322   5.374  11.797  1.00  0.00    -0.285 OA
ATOM      8  C   UNL     1      -7.703   7.658  11.723  1.00  0.00     0.111 A 
ATOM      9  C   UNL     1      -7.942  10.083  11.931  1.00  0.00     0.094 A 
ATOM     10  C   UNL     1      -9.070   7.581  11.306  1.00  0.00     0.134 A 
ATOM     11  C   UNL     1      -9.310   9.977  11.649  1.00  0.00     0.123 A 
ATOM     12  C   UNL     1      -9.861   8.738  11.317  1.00  0.00     0.093 A 
BRANCH   3  13
ATOM     13  C   UNL     1      -3.560   8.350  12.445  1.00  0.00     0.025 A 
ATOM     14  C   UNL     1      -2.891   8.130  13.668  1.00  0.00     0.016 A 
ATOM     15  C   UNL     1      -1.602   8.606  13.875  1.00  0.00     0.051 A 
ATOM     16  C   UNL     1      -0.943   9.319  12.874  1.00  0.00     0.157 A 
ATOM     17  C   UNL     1      -2.872   9.043  11.421  1.00  0.00     0.062 A 
ATOM     18  C   UNL     1      -1.573   9.522  11.630  1.00  0.00     0.158 A 
BRANCH  16  19
ATOM     19  O   UNL     1       0.289   9.928  13.154  1.00  0.00    -0.504 OA
ATOM     20  H   UNL     1       0.363  10.576  13.934  1.00  0.00     0.293 HD
ENDBRANCH  16  19
BRANCH  18  21
ATOM     21  O   UNL     1      -0.966  10.302  10.639  1.00  0.00    -0.504 OA
ATOM     22  H   UNL     1      -0.624   9.904   9.768  1.00  0.00     0.293 HD
ENDBRANCH  18  21
ENDBRANCH   3  13
BRANCH  10  23
ATOM     23  O   UNL     1      -9.674   6.400  10.850  1.00  0.00    -0.507 OA
ATOM     24  H   UNL     1      -9.498   5.990   9.939  1.00  0.00     0.293 HD
ENDBRANCH  10  23
BRANCH  11  25
ATOM     25  O   UNL     1     -10.125  11.106  11.708  1.00  0.00    -0.508 OA
ATOM     26  H   UNL     1     -11.130  11.042  11.849  1.00  0.00     0.293 HD
ENDBRANCH  11  25
ENDBRANCH   1   2
BRANCH   1  27
ATOM     27  C   UNL     1      -4.474   5.361  14.356  1.00  0.00     0.339 C 
ATOM     28  C   UNL     1      -5.782   5.276  15.186  1.00  0.00     0.214 C 
ATOM     29  O   UNL     1      -3.669   4.195  14.421  1.00  0.00    -0.332 OA
ATOM     30  C   UNL     1      -5.474   4.866  16.640  1.00  0.00     0.180 C 
ATOM     31  C   UNL     1      -3.322   3.815  15.745  1.00  0.00     0.179 C 
ATOM     32  C   UNL     1      -4.546   3.643  16.674  1.00  0.00     0.177 C 
BRANCH  28  33
ATOM     33  O   UNL     1      -6.681   4.361  14.623  1.00  0.00    -0.384 OA
ATOM     34  H   UNL     1      -6.833   4.637  13.681  1.00  0.00     0.211 HD
ENDBRANCH  28  33
BRANCH  30  35
ATOM     35  O   UNL     1      -4.894   5.939  17.344  1.00  0.00    -0.387 OA
ATOM     36  H   UNL     1      -4.513   6.554  16.669  1.00  0.00     0.211 HD
ENDBRANCH  30  35
BRANCH  31  37
ATOM     37  C   UNL     1      -2.215   4.718  16.326  1.00  0.00     0.191 C 
BRANCH  37  38
ATOM     38  O   UNL     1      -1.143   4.758  15.429  1.00  0.00    -0.394 OA
ATOM     39  H   UNL     1      -0.344   4.448  15.924  1.00  0.00     0.210 HD
ENDBRANCH  37  38
ENDBRANCH  31  37
BRANCH  32  40
ATOM     40  O   UNL     1      -5.257   2.503  16.259  1.00  0.00    -0.387 OA
ATOM     41  H   UNL     1      -4.956   2.287  15.338  1.00  0.00     0.211 HD
ENDBRANCH  32  40
ENDBRANCH   1  27
TORSDOF 12
ENDMDL
