MODEL 1
REMARK VINA RESULT:    -6.115      0.000      0.000
REMARK INTER + INTRA:         -20.676
REMARK INTER:                 -15.409
REMARK INTRA:                  -5.267
REMARK UNBOUND:                -5.267
REMARK SMILES CCCCCCCCCCCCCCCCCCCCCCCCCCCC(=O)[O-]
REMARK SMILES IDX 15 1 16 2 17 3 18 4 19 5 20 6 21 7 22 8 23 9 24 10 25 11
REMARK SMILES IDX 26 12 27 13 28 14 29 15 30 16 14 17 13 18 12 19 11 20 10 21
REMARK SMILES IDX 9 22 8 23 7 24 6 25 5 26 4 27 3 28 2 29 1 30
REMARK H PARENT
REMARK Flexibility Score: inf
ROOT
ATOM      1  C   UNL     1       8.759   8.316 -17.788  1.00  0.00     0.000 C 
ENDROOT
BRANCH   1   2
ATOM      2  C   UNL     1      10.060   8.970 -18.295  1.00  0.00     0.000 C 
BRANCH   2   3
ATOM      3  C   UNL     1      11.009   9.371 -17.145  1.00  0.00     0.000 C 
BRANCH   3   4
ATOM      4  C   UNL     1      12.335   8.591 -17.126  1.00  0.00     0.000 C 
BRANCH   4   5
ATOM      5  C   UNL     1      12.892   8.394 -15.707  1.00  0.00     0.000 C 
BRANCH   5   6
ATOM      6  C   UNL     1      14.411   8.156 -15.679  1.00  0.00     0.000 C 
BRANCH   6   7
ATOM      7  C   UNL     1      15.123   8.557 -14.371  1.00  0.00     0.000 C 
BRANCH   7   8
ATOM      8  C   UNL     1      14.754   9.963 -13.852  1.00  0.00     0.000 C 
BRANCH   8   9
ATOM      9  C   UNL     1      14.097   9.916 -12.460  1.00  0.00     0.000 C 
BRANCH   9  10
ATOM     10  C   UNL     1      12.626  10.364 -12.486  1.00  0.00     0.000 C 
BRANCH  10  11
ATOM     11  C   UNL     1      11.659   9.177 -12.641  1.00  0.00     0.000 C 
BRANCH  11  12
ATOM     12  C   UNL     1      10.179   9.602 -12.597  1.00  0.00     0.006 C 
BRANCH  12  13
ATOM     13  C   UNL     1       9.918  11.055 -13.029  1.00  0.00     0.053 C 
BRANCH  13  14
ATOM     14  C   UNL     1       8.456  11.354 -13.184  1.00  0.00     0.041 C 
ATOM     15  O   UNL     1       7.632  10.419 -13.372  1.00  0.00    -0.550 OA
ATOM     16  O   UNL     1       8.003  12.666 -13.103  1.00  0.00    -0.550 OA
ENDBRANCH  13  14
ENDBRANCH  12  13
ENDBRANCH  11  12
ENDBRANCH  10  11
ENDBRANCH   9  10
ENDBRANCH   8   9
ENDBRANCH   7   8
ENDBRANCH   6   7
ENDBRANCH   5   6
ENDBRANCH   4   5
ENDBRANCH   3   4
ENDBRANCH   2   3
ENDBRANCH   1   2
BRANCH   1  17
ATOM     17  C   UNL     1       8.495   8.631 -16.305  1.00  0.00     0.000 C 
BRANCH  17  18
ATOM     18  C   UNL     1       8.284   7.356 -15.477  1.00  0.00     0.000 C 
BRANCH  18  19
ATOM     19  C   UNL     1       9.594   6.895 -14.817  1.00  0.00     0.000 C 
BRANCH  19  20
ATOM     20  C   UNL     1      10.276   5.753 -15.588  1.00  0.00     0.000 C 
BRANCH  20  21
ATOM     21  C   UNL     1      10.926   4.707 -14.665  1.00  0.00     0.000 C 
BRANCH  21  22
ATOM     22  C   UNL     1      12.402   5.022 -14.375  1.00  0.00    -0.000 C 
BRANCH  22  23
ATOM     23  C   UNL     1      12.714   5.052 -12.867  1.00  0.00    -0.000 C 
BRANCH  23  24
ATOM     24  C   UNL     1      13.712   6.160 -12.490  1.00  0.00    -0.000 C 
BRANCH  24  25
ATOM     25  C   UNL     1      13.933   6.273 -10.972  1.00  0.00    -0.000 C 
BRANCH  25  26
ATOM     26  C   UNL     1      12.787   7.006 -10.257  1.00  0.00    -0.000 C 
BRANCH  26  27
ATOM     27  C   UNL     1      12.064   6.118  -9.227  1.00  0.00    -0.000 C 
BRANCH  27  28
ATOM     28  C   UNL     1      10.551   6.009  -9.515  1.00  0.00    -0.000 C 
BRANCH  28  29
ATOM     29  C   UNL     1      10.187   6.296 -10.982  1.00  0.00    -0.003 C 
ATOM     30  C   UNL     1       8.901   5.600 -11.425  1.00  0.00     0.004 C 
ENDBRANCH  28  29
ENDBRANCH  27  28
ENDBRANCH  26  27
ENDBRANCH  25  26
ENDBRANCH  24  25
ENDBRANCH  23  24
ENDBRANCH  22  23
ENDBRANCH  21  22
ENDBRANCH  20  21
ENDBRANCH  19  20
ENDBRANCH  18  19
ENDBRANCH  17  18
ENDBRANCH   1  17
TORSDOF 26
ENDMDL
MODEL 2
REMARK VINA RESULT:    -5.967      2.057      5.599
REMARK INTER + INTRA:         -20.304
REMARK INTER:                 -15.337
REMARK INTRA:                  -4.966
REMARK UNBOUND:                -5.267
REMARK SMILES CCCCCCCCCCCCCCCCCCCCCCCCCCCC(=O)[O-]
REMARK SMILES IDX 15 1 16 2 17 3 18 4 19 5 20 6 21 7 22 8 23 9 24 10 25 11
REMARK SMILES IDX 26 12 27 13 28 14 29 15 30 16 14 17 13 18 12 19 11 20 10 21
REMARK SMILES IDX 9 22 8 23 7 24 6 25 5 26 4 27 3 28 2 29 1 30
REMARK H PARENT
REMARK Flexibility Score: inf
ROOT
ATOM      1  C   UNL     1      11.164   5.547 -15.201  1.00  0.00     0.000 C 
ENDROOT
BRANCH   1   2
ATOM      2  C   UNL     1      11.276   4.489 -14.085  1.00  0.00     0.000 C 
BRANCH   2   3
ATOM      3  C   UNL     1      11.231   5.110 -12.672  1.00  0.00     0.000 C 
BRANCH   3   4
ATOM      4  C   UNL     1       9.807   5.336 -12.133  1.00  0.00     0.000 C 
BRANCH   4   5
ATOM      5  C   UNL     1       9.793   5.855 -10.686  1.00  0.00     0.000 C 
BRANCH   5   6
ATOM      6  C   UNL     1      11.046   6.666 -10.319  1.00  0.00     0.000 C 
BRANCH   6   7
ATOM      7  C   UNL     1      11.909   6.080  -9.184  1.00  0.00     0.000 C 
BRANCH   7   8
ATOM      8  C   UNL     1      13.389   5.854  -9.562  1.00  0.00     0.000 C 
BRANCH   8   9
ATOM      9  C   UNL     1      14.001   7.076 -10.272  1.00  0.00     0.000 C 
BRANCH   9  10
ATOM     10  C   UNL     1      14.430   6.766 -11.716  1.00  0.00     0.000 C 
BRANCH  10  11
ATOM     11  C   UNL     1      13.723   7.670 -12.739  1.00  0.00     0.000 C 
BRANCH  11  12
ATOM     12  C   UNL     1      14.686   8.646 -13.440  1.00  0.00     0.006 C 
BRANCH  12  13
ATOM     13  C   UNL     1      14.300  10.130 -13.310  1.00  0.00     0.053 C 
BRANCH  13  14
ATOM     14  C   UNL     1      14.070  10.541 -11.886  1.00  0.00     0.041 C 
ATOM     15  O   UNL     1      14.963  10.349 -11.017  1.00  0.00    -0.550 OA
ATOM     16  O   UNL     1      12.875  11.151 -11.524  1.00  0.00    -0.550 OA
ENDBRANCH  13  14
ENDBRANCH  12  13
ENDBRANCH  11  12
ENDBRANCH  10  11
ENDBRANCH   9  10
ENDBRANCH   8   9
ENDBRANCH   7   8
ENDBRANCH   6   7
ENDBRANCH   5   6
ENDBRANCH   4   5
ENDBRANCH   3   4
ENDBRANCH   2   3
ENDBRANCH   1   2
BRANCH   1  17
ATOM     17  C   UNL     1      12.517   5.809 -15.885  1.00  0.00     0.000 C 
BRANCH  17  18
ATOM     18  C   UNL     1      12.742   7.302 -16.159  1.00  0.00     0.000 C 
BRANCH  18  19
ATOM     19  C   UNL     1      11.411   8.073 -16.175  1.00  0.00     0.000 C 
BRANCH  19  20
ATOM     20  C   UNL     1      11.298   9.036 -17.367  1.00  0.00     0.000 C 
BRANCH  20  21
ATOM     21  C   UNL     1       9.985   8.872 -18.152  1.00  0.00     0.000 C 
BRANCH  21  22
ATOM     22  C   UNL     1       8.933   8.070 -17.369  1.00  0.00    -0.000 C 
BRANCH  22  23
ATOM     23  C   UNL     1       8.060   8.963 -16.468  1.00  0.00    -0.000 C 
BRANCH  23  24
ATOM     24  C   UNL     1       7.046   8.157 -15.638  1.00  0.00    -0.000 C 
BRANCH  24  25
ATOM     25  C   UNL     1       7.719   7.160 -14.679  1.00  0.00    -0.000 C 
BRANCH  25  26
ATOM     26  C   UNL     1       7.294   7.361 -13.216  1.00  0.00    -0.000 C 
BRANCH  26  27
ATOM     27  C   UNL     1       7.958   8.590 -12.568  1.00  0.00    -0.000 C 
BRANCH  27  28
ATOM     28  C   UNL     1       9.418   8.776 -13.036  1.00  0.00    -0.000 C 
BRANCH  28  29
ATOM     29  C   UNL     1       9.911  10.229 -12.934  1.00  0.00    -0.003 C 
ATOM     30  C   UNL     1       8.795  11.253 -13.135  1.00  0.00     0.004 C 
ENDBRANCH  28  29
ENDBRANCH  27  28
ENDBRANCH  26  27
ENDBRANCH  25  26
ENDBRANCH  24  25
ENDBRANCH  23  24
ENDBRANCH  22  23
ENDBRANCH  21  22
ENDBRANCH  20  21
ENDBRANCH  19  20
ENDBRANCH  18  19
ENDBRANCH  17  18
ENDBRANCH   1  17
TORSDOF 26
ENDMDL
MODEL 3
REMARK VINA RESULT:    -5.957      1.191      4.683
REMARK INTER + INTRA:         -20.279
REMARK INTER:                 -15.461
REMARK INTRA:                  -4.819
REMARK UNBOUND:                -5.267
REMARK SMILES CCCCCCCCCCCCCCCCCCCCCCCCCCCC(=O)[O-]
REMARK SMILES IDX 15 1 16 2 17 3 18 4 19 5 20 6 21 7 22 8 23 9 24 10 25 11
REMARK SMILES IDX 26 12 27 13 28 14 29 15 30 16 14 17 13 18 12 19 11 20 10 21
REMARK SMILES IDX 9 22 8 23 7 24 6 25 5 26 4 27 3 28 2 29 1 30
REMARK H PARENT
REMARK Flexibility Score: inf
ROOT
ATOM      1  C   UNL     1      10.621   6.450 -12.778  1.00  0.00     0.000 C 
ENDROOT
BRANCH   1   2
ATOM      2  C   UNL     1      11.074   4.980 -12.882  1.00  0.00     0.000 C 
BRANCH   2   3
ATOM      3  C   UNL     1      11.002   4.438 -14.325  1.00  0.00     0.000 C 
BRANCH   3   4
ATOM      4  C   UNL     1      12.315   4.582 -15.115  1.00  0.00     0.000 C 
BRANCH   4   5
ATOM      5  C   UNL     1      12.254   5.691 -16.178  1.00  0.00     0.000 C 
BRANCH   5   6
ATOM      6  C   UNL     1      12.534   7.092 -15.610  1.00  0.00     0.000 C 
BRANCH   6   7
ATOM      7  C   UNL     1      12.842   8.183 -16.654  1.00  0.00     0.000 C 
BRANCH   7   8
ATOM      8  C   UNL     1      11.601   8.953 -17.154  1.00  0.00     0.000 C 
BRANCH   8   9
ATOM      9  C   UNL     1      10.415   8.842 -16.179  1.00  0.00     0.000 C 
BRANCH   9  10
ATOM     10  C   UNL     1       9.263   7.994 -16.745  1.00  0.00     0.000 C 
BRANCH  10  11
ATOM     11  C   UNL     1       8.734   6.976 -15.721  1.00  0.00     0.000 C 
BRANCH  11  12
ATOM     12  C   UNL     1       7.573   7.529 -14.873  1.00  0.00     0.006 C 
BRANCH  12  13
ATOM     13  C   UNL     1       7.289   9.027 -15.077  1.00  0.00     0.053 C 
BRANCH  13  14
ATOM     14  C   UNL     1       7.377   9.809 -13.801  1.00  0.00     0.041 C 
ATOM     15  O   UNL     1       7.288  11.066 -13.818  1.00  0.00    -0.550 OA
ATOM     16  O   UNL     1       7.540   9.145 -12.590  1.00  0.00    -0.550 OA
ENDBRANCH  13  14
ENDBRANCH  12  13
ENDBRANCH  11  12
ENDBRANCH  10  11
ENDBRANCH   9  10
ENDBRANCH   8   9
ENDBRANCH   7   8
ENDBRANCH   6   7
ENDBRANCH   5   6
ENDBRANCH   4   5
ENDBRANCH   3   4
ENDBRANCH   2   3
ENDBRANCH   1   2
BRANCH   1  17
ATOM     17  C   UNL     1       9.589   6.658 -11.656  1.00  0.00     0.000 C 
BRANCH  17  18
ATOM     18  C   UNL     1      10.002   5.950 -10.359  1.00  0.00     0.000 C 
BRANCH  18  19
ATOM     19  C   UNL     1      11.122   6.718  -9.635  1.00  0.00     0.000 C 
BRANCH  19  20
ATOM     20  C   UNL     1      12.169   5.785  -9.007  1.00  0.00     0.000 C 
BRANCH  20  21
ATOM     21  C   UNL     1      13.556   5.909  -9.662  1.00  0.00     0.000 C 
BRANCH  21  22
ATOM     22  C   UNL     1      13.661   7.139 -10.579  1.00  0.00    -0.000 C 
BRANCH  22  23
ATOM     23  C   UNL     1      14.239   6.795 -11.964  1.00  0.00    -0.000 C 
BRANCH  23  24
ATOM     24  C   UNL     1      15.327   7.784 -12.415  1.00  0.00    -0.000 C 
BRANCH  24  25
ATOM     25  C   UNL     1      14.996   8.464 -13.755  1.00  0.00    -0.000 C 
BRANCH  25  26
ATOM     26  C   UNL     1      14.343   9.844 -13.576  1.00  0.00    -0.000 C 
BRANCH  26  27
ATOM     27  C   UNL     1      14.332  10.312 -12.110  1.00  0.00    -0.000 C 
BRANCH  27  28
ATOM     28  C   UNL     1      12.959  10.883 -11.693  1.00  0.00    -0.000 C 
BRANCH  28  29
ATOM     29  C   UNL     1      11.786   9.938 -12.003  1.00  0.00    -0.003 C 
ATOM     30  C   UNL     1      10.701  10.593 -12.857  1.00  0.00     0.004 C 
ENDBRANCH  28  29
ENDBRANCH  27  28
ENDBRANCH  26  27
ENDBRANCH  25  26
ENDBRANCH  24  25
ENDBRANCH  23  24
ENDBRANCH  22  23
ENDBRANCH  21  22
ENDBRANCH  20  21
ENDBRANCH  19  20
ENDBRANCH  18  19
ENDBRANCH  17  18
ENDBRANCH   1  17
TORSDOF 26
ENDMDL
MODEL 4
REMARK VINA RESULT:    -5.957      1.886      5.542
REMARK INTER + INTRA:         -20.279
REMARK INTER:                 -15.032
REMARK INTRA:                  -5.247
REMARK UNBOUND:                -5.267
REMARK SMILES CCCCCCCCCCCCCCCCCCCCCCCCCCCC(=O)[O-]
REMARK SMILES IDX 15 1 16 2 17 3 18 4 19 5 20 6 21 7 22 8 23 9 24 10 25 11
REMARK SMILES IDX 26 12 27 13 28 14 29 15 30 16 14 17 13 18 12 19 11 20 10 21
REMARK SMILES IDX 9 22 8 23 7 24 6 25 5 26 4 27 3 28 2 29 1 30
REMARK H PARENT
REMARK Flexibility Score: inf
ROOT
ATOM      1  C   UNL     1      11.094   6.515 -12.490  1.00  0.00     0.000 C 
ENDROOT
BRANCH   1   2
ATOM      2  C   UNL     1       9.829   6.500 -11.608  1.00  0.00     0.000 C 
BRANCH   2   3
ATOM      3  C   UNL     1      10.103   5.957 -10.189  1.00  0.00     0.000 C 
BRANCH   3   4
ATOM      4  C   UNL     1      11.298   6.622  -9.484  1.00  0.00     0.000 C 
BRANCH   4   5
ATOM      5  C   UNL     1      12.318   5.603  -8.948  1.00  0.00     0.000 C 
BRANCH   5   6
ATOM      6  C   UNL     1      13.774   5.975  -9.270  1.00  0.00     0.000 C 
BRANCH   6   7
ATOM      7  C   UNL     1      13.959   7.117 -10.289  1.00  0.00     0.000 C 
BRANCH   7   8
ATOM      8  C   UNL     1      15.345   7.795 -10.240  1.00  0.00     0.000 C 
BRANCH   8   9
ATOM      9  C   UNL     1      16.002   7.879 -11.630  1.00  0.00     0.000 C 
BRANCH   9  10
ATOM     10  C   UNL     1      15.069   7.400 -12.755  1.00  0.00     0.000 C 
BRANCH  10  11
ATOM     11  C   UNL     1      15.103   8.333 -13.977  1.00  0.00     0.000 C 
BRANCH  11  12
ATOM     12  C   UNL     1      14.434   9.694 -13.710  1.00  0.00     0.006 C 
BRANCH  12  13
ATOM     13  C   UNL     1      13.067   9.608 -13.010  1.00  0.00     0.053 C 
BRANCH  13  14
ATOM     14  C   UNL     1      12.920  10.616 -11.910  1.00  0.00     0.041 C 
ATOM     15  O   UNL     1      13.929  10.998 -11.258  1.00  0.00    -0.550 OA
ATOM     16  O   UNL     1      11.668  11.147 -11.616  1.00  0.00    -0.550 OA
ENDBRANCH  13  14
ENDBRANCH  12  13
ENDBRANCH  11  12
ENDBRANCH  10  11
ENDBRANCH   9  10
ENDBRANCH   8   9
ENDBRANCH   7   8
ENDBRANCH   6   7
ENDBRANCH   5   6
ENDBRANCH   4   5
ENDBRANCH   3   4
ENDBRANCH   2   3
ENDBRANCH   1   2
BRANCH   1  17
ATOM     17  C   UNL     1      11.692   5.108 -12.665  1.00  0.00     0.000 C 
BRANCH  17  18
ATOM     18  C   UNL     1      11.019   4.336 -13.807  1.00  0.00     0.000 C 
BRANCH  18  19
ATOM     19  C   UNL     1      10.898   5.202 -15.072  1.00  0.00     0.000 C 
BRANCH  19  20
ATOM     20  C   UNL     1      12.141   5.114 -15.971  1.00  0.00     0.000 C 
BRANCH  20  21
ATOM     21  C   UNL     1      12.855   6.466 -16.148  1.00  0.00     0.000 C 
BRANCH  21  22
ATOM     22  C   UNL     1      11.926   7.657 -15.860  1.00  0.00    -0.000 C 
BRANCH  22  23
ATOM     23  C   UNL     1      11.961   8.716 -16.978  1.00  0.00    -0.000 C 
BRANCH  23  24
ATOM     24  C   UNL     1      10.562   9.049 -17.524  1.00  0.00    -0.000 C 
BRANCH  24  25
ATOM     25  C   UNL     1       9.518   7.970 -17.188  1.00  0.00    -0.000 C 
BRANCH  25  26
ATOM     26  C   UNL     1       8.296   8.534 -16.446  1.00  0.00    -0.000 C 
BRANCH  26  27
ATOM     27  C   UNL     1       8.335   8.249 -14.934  1.00  0.00    -0.000 C 
BRANCH  27  28
ATOM     28  C   UNL     1       9.279   9.215 -14.185  1.00  0.00    -0.000 C 
BRANCH  28  29
ATOM     29  C   UNL     1       8.583   9.995 -13.056  1.00  0.00    -0.003 C 
ATOM     30  C   UNL     1       7.401  10.829 -13.548  1.00  0.00     0.004 C 
ENDBRANCH  28  29
ENDBRANCH  27  28
ENDBRANCH  26  27
ENDBRANCH  25  26
ENDBRANCH  24  25
ENDBRANCH  23  24
ENDBRANCH  22  23
ENDBRANCH  21  22
ENDBRANCH  20  21
ENDBRANCH  19  20
ENDBRANCH  18  19
ENDBRANCH  17  18
ENDBRANCH   1  17
TORSDOF 26
ENDMDL
MODEL 5
REMARK VINA RESULT:    -5.955      2.167      6.140
REMARK INTER + INTRA:         -20.273
REMARK INTER:                 -15.318
REMARK INTRA:                  -4.955
REMARK UNBOUND:                -5.267
REMARK SMILES CCCCCCCCCCCCCCCCCCCCCCCCCCCC(=O)[O-]
REMARK SMILES IDX 15 1 16 2 17 3 18 4 19 5 20 6 21 7 22 8 23 9 24 10 25 11
REMARK SMILES IDX 26 12 27 13 28 14 29 15 30 16 14 17 13 18 12 19 11 20 10 21
REMARK SMILES IDX 9 22 8 23 7 24 6 25 5 26 4 27 3 28 2 29 1 30
REMARK H PARENT
REMARK Flexibility Score: inf
ROOT
ATOM      1  C   UNL     1      10.052  10.157 -13.342  1.00  0.00     0.000 C 
ENDROOT
BRANCH   1   2
ATOM      2  C   UNL     1       8.585  10.239 -12.877  1.00  0.00     0.000 C 
BRANCH   2   3
ATOM      3  C   UNL     1       8.005   8.859 -12.498  1.00  0.00     0.000 C 
BRANCH   3   4
ATOM      4  C   UNL     1       9.027   7.711 -12.563  1.00  0.00     0.000 C 
BRANCH   4   5
ATOM      5  C   UNL     1       8.498   6.405 -11.948  1.00  0.00     0.000 C 
BRANCH   5   6
ATOM      6  C   UNL     1       9.521   5.705 -11.039  1.00  0.00     0.000 C 
BRANCH   6   7
ATOM      7  C   UNL     1      10.666   6.596 -10.516  1.00  0.00     0.000 C 
BRANCH   7   8
ATOM      8  C   UNL     1      11.477   5.975  -9.360  1.00  0.00     0.000 C 
BRANCH   8   9
ATOM      9  C   UNL     1      12.970   5.824  -9.709  1.00  0.00     0.000 C 
BRANCH   9  10
ATOM     10  C   UNL     1      13.456   6.900 -10.695  1.00  0.00     0.000 C 
BRANCH  10  11
ATOM     11  C   UNL     1      14.048   6.289 -11.977  1.00  0.00     0.000 C 
BRANCH  11  12
ATOM     12  C   UNL     1      13.138   5.216 -12.603  1.00  0.00     0.006 C 
BRANCH  12  13
ATOM     13  C   UNL     1      12.271   5.714 -13.771  1.00  0.00     0.053 C 
BRANCH  13  14
ATOM     14  C   UNL     1      11.210   4.728 -14.161  1.00  0.00     0.041 C 
ATOM     15  O   UNL     1      10.949   3.746 -13.414  1.00  0.00    -0.550 OA
ATOM     16  O   UNL     1      10.498   4.904 -15.342  1.00  0.00    -0.550 OA
ENDBRANCH  13  14
ENDBRANCH  12  13
ENDBRANCH  11  12
ENDBRANCH  10  11
ENDBRANCH   9  10
ENDBRANCH   8   9
ENDBRANCH   7   8
ENDBRANCH   6   7
ENDBRANCH   5   6
ENDBRANCH   4   5
ENDBRANCH   3   4
ENDBRANCH   2   3
ENDBRANCH   1   2
BRANCH   1  17
ATOM     17  C   UNL     1      11.020  10.754 -12.305  1.00  0.00     0.000 C 
BRANCH  17  18
ATOM     18  C   UNL     1      12.124   9.763 -11.913  1.00  0.00     0.000 C 
BRANCH  18  19
ATOM     19  C   UNL     1      13.513  10.420 -11.976  1.00  0.00     0.000 C 
BRANCH  19  20
ATOM     20  C   UNL     1      14.269  10.085 -13.271  1.00  0.00     0.000 C 
BRANCH  20  21
ATOM     21  C   UNL     1      13.576   8.995 -14.108  1.00  0.00     0.000 C 
BRANCH  21  22
ATOM     22  C   UNL     1      14.466   8.484 -15.253  1.00  0.00    -0.000 C 
BRANCH  22  23
ATOM     23  C   UNL     1      13.649   7.900 -16.420  1.00  0.00    -0.000 C 
BRANCH  23  24
ATOM     24  C   UNL     1      12.146   8.201 -16.301  1.00  0.00    -0.000 C 
BRANCH  24  25
ATOM     25  C   UNL     1      11.597   8.984 -17.506  1.00  0.00    -0.000 C 
BRANCH  25  26
ATOM     26  C   UNL     1      10.091   8.764 -17.724  1.00  0.00    -0.000 C 
BRANCH  26  27
ATOM     27  C   UNL     1       9.270   8.958 -16.436  1.00  0.00    -0.000 C 
BRANCH  27  28
ATOM     28  C   UNL     1       8.486   7.684 -16.051  1.00  0.00    -0.000 C 
BRANCH  28  29
ATOM     29  C   UNL     1       6.992   7.943 -15.791  1.00  0.00    -0.003 C 
ATOM     30  C   UNL     1       6.599   9.408 -15.977  1.00  0.00     0.004 C 
ENDBRANCH  28  29
ENDBRANCH  27  28
ENDBRANCH  26  27
ENDBRANCH  25  26
ENDBRANCH  24  25
ENDBRANCH  23  24
ENDBRANCH  22  23
ENDBRANCH  21  22
ENDBRANCH  20  21
ENDBRANCH  19  20
ENDBRANCH  18  19
ENDBRANCH  17  18
ENDBRANCH   1  17
TORSDOF 26
ENDMDL
MODEL 6
REMARK VINA RESULT:    -5.910      1.929      4.979
REMARK INTER + INTRA:         -20.161
REMARK INTER:                 -15.325
REMARK INTRA:                  -4.835
REMARK UNBOUND:                -5.267
REMARK SMILES CCCCCCCCCCCCCCCCCCCCCCCCCCCC(=O)[O-]
REMARK SMILES IDX 15 1 16 2 17 3 18 4 19 5 20 6 21 7 22 8 23 9 24 10 25 11
REMARK SMILES IDX 26 12 27 13 28 14 29 15 30 16 14 17 13 18 12 19 11 20 10 21
REMARK SMILES IDX 9 22 8 23 7 24 6 25 5 26 4 27 3 28 2 29 1 30
REMARK H PARENT
REMARK Flexibility Score: inf
ROOT
ATOM      1  C   UNL     1      14.130   8.677 -13.746  1.00  0.00     0.000 C 
ENDROOT
BRANCH   1   2
ATOM      2  C   UNL     1      14.378  10.114 -13.246  1.00  0.00     0.000 C 
BRANCH   2   3
ATOM      3  C   UNL     1      13.553  10.454 -11.986  1.00  0.00     0.000 C 
BRANCH   3   4
ATOM      4  C   UNL     1      12.159   9.804 -11.956  1.00  0.00     0.000 C 
BRANCH   4   5
ATOM      5  C   UNL     1      11.018  10.833 -12.025  1.00  0.00     0.000 C 
BRANCH   5   6
ATOM      6  C   UNL     1      10.041  10.580 -13.185  1.00  0.00     0.000 C 
BRANCH   6   7
ATOM      7  C   UNL     1       9.580   9.118 -13.358  1.00  0.00     0.000 C 
BRANCH   7   8
ATOM      8  C   UNL     1       8.105   8.868 -12.975  1.00  0.00     0.000 C 
BRANCH   8   9
ATOM      9  C   UNL     1       7.672   7.415 -13.245  1.00  0.00     0.000 C 
BRANCH   9  10
ATOM     10  C   UNL     1       7.255   7.185 -14.708  1.00  0.00     0.000 C 
BRANCH  10  11
ATOM     11  C   UNL     1       6.727   8.469 -15.370  1.00  0.00     0.000 C 
BRANCH  11  12
ATOM     12  C   UNL     1       7.512   8.855 -16.637  1.00  0.00     0.006 C 
BRANCH  12  13
ATOM     13  C   UNL     1       8.910   8.223 -16.741  1.00  0.00     0.053 C 
BRANCH  13  14
ATOM     14  C   UNL     1       9.731   8.822 -17.843  1.00  0.00     0.041 C 
ATOM     15  O   UNL     1       9.388   8.670 -19.047  1.00  0.00    -0.550 OA
ATOM     16  O   UNL     1      10.868   9.563 -17.539  1.00  0.00    -0.550 OA
ENDBRANCH  13  14
ENDBRANCH  12  13
ENDBRANCH  11  12
ENDBRANCH  10  11
ENDBRANCH   9  10
ENDBRANCH   8   9
ENDBRANCH   7   8
ENDBRANCH   6   7
ENDBRANCH   5   6
ENDBRANCH   4   5
ENDBRANCH   3   4
ENDBRANCH   2   3
ENDBRANCH   1   2
BRANCH   1  17
ATOM     17  C   UNL     1      14.667   8.462 -15.172  1.00  0.00     0.000 C 
BRANCH  17  18
ATOM     18  C   UNL     1      13.591   7.899 -16.110  1.00  0.00     0.000 C 
BRANCH  18  19
ATOM     19  C   UNL     1      12.359   7.420 -15.324  1.00  0.00     0.000 C 
BRANCH  19  20
ATOM     20  C   UNL     1      11.816   6.076 -15.835  1.00  0.00     0.000 C 
BRANCH  20  21
ATOM     21  C   UNL     1      10.663   5.526 -14.976  1.00  0.00     0.000 C 
BRANCH  21  22
ATOM     22  C   UNL     1      11.089   4.309 -14.138  1.00  0.00    -0.000 C 
BRANCH  22  23
ATOM     23  C   UNL     1      11.369   4.673 -12.668  1.00  0.00    -0.000 C 
BRANCH  23  24
ATOM     24  C   UNL     1      10.677   5.978 -12.238  1.00  0.00    -0.000 C 
BRANCH  24  25
ATOM     25  C   UNL     1      10.296   5.987 -10.747  1.00  0.00    -0.000 C 
BRANCH  25  26
ATOM     26  C   UNL     1      11.321   6.728  -9.875  1.00  0.00    -0.000 C 
BRANCH  26  27
ATOM     27  C   UNL     1      12.191   5.773  -9.038  1.00  0.00    -0.000 C 
BRANCH  27  28
ATOM     28  C   UNL     1      13.699   6.001  -9.278  1.00  0.00    -0.000 C 
BRANCH  28  29
ATOM     29  C   UNL     1      13.993   6.959 -10.444  1.00  0.00    -0.003 C 
ATOM     30  C   UNL     1      15.261   7.785 -10.233  1.00  0.00     0.004 C 
ENDBRANCH  28  29
ENDBRANCH  27  28
ENDBRANCH  26  27
ENDBRANCH  25  26
ENDBRANCH  24  25
ENDBRANCH  23  24
ENDBRANCH  22  23
ENDBRANCH  21  22
ENDBRANCH  20  21
ENDBRANCH  19  20
ENDBRANCH  18  19
ENDBRANCH  17  18
ENDBRANCH   1  17
TORSDOF 26
ENDMDL
MODEL 7
REMARK VINA RESULT:    -5.910      1.857      5.325
REMARK INTER + INTRA:         -20.160
REMARK INTER:                 -15.147
REMARK INTRA:                  -5.013
REMARK UNBOUND:                -5.267
REMARK SMILES CCCCCCCCCCCCCCCCCCCCCCCCCCCC(=O)[O-]
REMARK SMILES IDX 15 1 16 2 17 3 18 4 19 5 20 6 21 7 22 8 23 9 24 10 25 11
REMARK SMILES IDX 26 12 27 13 28 14 29 15 30 16 14 17 13 18 12 19 11 20 10 21
REMARK SMILES IDX 9 22 8 23 7 24 6 25 5 26 4 27 3 28 2 29 1 30
REMARK H PARENT
REMARK Flexibility Score: inf
ROOT
ATOM      1  C   UNL     1       9.790   7.880 -12.821  1.00  0.00     0.000 C 
ENDROOT
BRANCH   1   2
ATOM      2  C   UNL     1       8.928   6.714 -12.297  1.00  0.00     0.000 C 
BRANCH   2   3
ATOM      3  C   UNL     1       9.555   6.019 -11.069  1.00  0.00     0.000 C 
BRANCH   3   4
ATOM      4  C   UNL     1      10.845   6.687 -10.562  1.00  0.00     0.000 C 
BRANCH   4   5
ATOM      5  C   UNL     1      11.312   6.131  -9.207  1.00  0.00     0.000 C 
BRANCH   5   6
ATOM      6  C   UNL     1      12.795   5.726  -9.196  1.00  0.00     0.000 C 
BRANCH   6   7
ATOM      7  C   UNL     1      13.642   6.270 -10.364  1.00  0.00     0.000 C 
BRANCH   7   8
ATOM      8  C   UNL     1      14.738   7.273  -9.942  1.00  0.00     0.000 C 
BRANCH   8   9
ATOM      9  C   UNL     1      15.376   7.981 -11.151  1.00  0.00     0.000 C 
BRANCH   9  10
ATOM     10  C   UNL     1      14.834   7.463 -12.493  1.00  0.00     0.000 C 
BRANCH  10  11
ATOM     11  C   UNL     1      15.143   8.422 -13.655  1.00  0.00     0.000 C 
BRANCH  11  12
ATOM     12  C   UNL     1      14.437   9.783 -13.511  1.00  0.00     0.006 C 
BRANCH  12  13
ATOM     13  C   UNL     1      13.003   9.706 -12.959  1.00  0.00     0.053 C 
BRANCH  13  14
ATOM     14  C   UNL     1      12.754  10.701 -11.866  1.00  0.00     0.041 C 
ATOM     15  O   UNL     1      11.575  10.962 -11.500  1.00  0.00    -0.550 OA
ATOM     16  O   UNL     1      13.825  11.329 -11.239  1.00  0.00    -0.550 OA
ENDBRANCH  13  14
ENDBRANCH  12  13
ENDBRANCH  11  12
ENDBRANCH  10  11
ENDBRANCH   9  10
ENDBRANCH   8   9
ENDBRANCH   7   8
ENDBRANCH   6   7
ENDBRANCH   5   6
ENDBRANCH   4   5
ENDBRANCH   3   4
ENDBRANCH   2   3
ENDBRANCH   1   2
BRANCH   1  17
ATOM     17  C   UNL     1       9.068   9.234 -12.694  1.00  0.00     0.000 C 
BRANCH  17  18
ATOM     18  C   UNL     1       7.597   9.141 -13.122  1.00  0.00     0.000 C 
BRANCH  18  19
ATOM     19  C   UNL     1       7.293  10.098 -14.287  1.00  0.00     0.000 C 
BRANCH  19  20
ATOM     20  C   UNL     1       6.913   9.356 -15.578  1.00  0.00     0.000 C 
BRANCH  20  21
ATOM     21  C   UNL     1       7.266   7.859 -15.540  1.00  0.00     0.000 C 
BRANCH  21  22
ATOM     22  C   UNL     1       8.656   7.572 -16.131  1.00  0.00    -0.000 C 
BRANCH  22  23
ATOM     23  C   UNL     1       8.920   8.360 -17.428  1.00  0.00    -0.000 C 
BRANCH  23  24
ATOM     24  C   UNL     1      10.292   9.055 -17.431  1.00  0.00    -0.000 C 
BRANCH  24  25
ATOM     25  C   UNL     1      11.160   8.668 -16.221  1.00  0.00    -0.000 C 
BRANCH  25  26
ATOM     26  C   UNL     1      12.574   8.218 -16.622  1.00  0.00    -0.000 C 
BRANCH  26  27
ATOM     27  C   UNL     1      13.027   6.950 -15.876  1.00  0.00    -0.000 C 
BRANCH  27  28
ATOM     28  C   UNL     1      11.837   6.177 -15.268  1.00  0.00    -0.000 C 
BRANCH  28  29
ATOM     29  C   UNL     1      12.232   5.288 -14.076  1.00  0.00    -0.003 C 
ATOM     30  C   UNL     1      11.243   4.151 -13.825  1.00  0.00     0.004 C 
ENDBRANCH  28  29
ENDBRANCH  27  28
ENDBRANCH  26  27
ENDBRANCH  25  26
ENDBRANCH  24  25
ENDBRANCH  23  24
ENDBRANCH  22  23
ENDBRANCH  21  22
ENDBRANCH  20  21
ENDBRANCH  19  20
ENDBRANCH  18  19
ENDBRANCH  17  18
ENDBRANCH   1  17
TORSDOF 26
ENDMDL
MODEL 8
REMARK VINA RESULT:    -5.882      1.538      5.404
REMARK INTER + INTRA:         -20.089
REMARK INTER:                 -15.368
REMARK INTRA:                  -4.721
REMARK UNBOUND:                -5.267
REMARK SMILES CCCCCCCCCCCCCCCCCCCCCCCCCCCC(=O)[O-]
REMARK SMILES IDX 15 1 16 2 17 3 18 4 19 5 20 6 21 7 22 8 23 9 24 10 25 11
REMARK SMILES IDX 26 12 27 13 28 14 29 15 30 16 14 17 13 18 12 19 11 20 10 21
REMARK SMILES IDX 9 22 8 23 7 24 6 25 5 26 4 27 3 28 2 29 1 30
REMARK H PARENT
REMARK Flexibility Score: inf
ROOT
ATOM      1  C   UNL     1      13.723   6.695 -10.669  1.00  0.00     0.000 C 
ENDROOT
BRANCH   1   2
ATOM      2  C   UNL     1      14.936   7.558 -10.270  1.00  0.00     0.000 C 
BRANCH   2   3
ATOM      3  C   UNL     1      15.817   7.938 -11.479  1.00  0.00     0.000 C 
BRANCH   3   4
ATOM      4  C   UNL     1      15.271   7.447 -12.831  1.00  0.00     0.000 C 
BRANCH   4   5
ATOM      5  C   UNL     1      15.099   8.582 -13.854  1.00  0.00     0.000 C 
BRANCH   5   6
ATOM      6  C   UNL     1      14.348   9.799 -13.289  1.00  0.00     0.000 C 
BRANCH   6   7
ATOM      7  C   UNL     1      12.926   9.517 -12.762  1.00  0.00     0.000 C 
BRANCH   7   8
ATOM      8  C   UNL     1      12.246  10.729 -12.090  1.00  0.00     0.000 C 
BRANCH   8   9
ATOM      9  C   UNL     1      10.736  10.789 -12.388  1.00  0.00     0.000 C 
BRANCH   9  10
ATOM     10  C   UNL     1      10.213   9.502 -13.048  1.00  0.00     0.000 C 
BRANCH  10  11
ATOM     11  C   UNL     1       9.059   9.777 -14.026  1.00  0.00     0.000 C 
BRANCH  11  12
ATOM     12  C   UNL     1       7.889   8.789 -13.864  1.00  0.00     0.006 C 
BRANCH  12  13
ATOM     13  C   UNL     1       7.316   8.253 -15.187  1.00  0.00     0.053 C 
BRANCH  13  14
ATOM     14  C   UNL     1       6.561   9.298 -15.951  1.00  0.00     0.041 C 
ATOM     15  O   UNL     1       6.292   9.124 -17.171  1.00  0.00    -0.550 OA
ATOM     16  O   UNL     1       6.138  10.458 -15.311  1.00  0.00    -0.550 OA
ENDBRANCH  13  14
ENDBRANCH  12  13
ENDBRANCH  11  12
ENDBRANCH  10  11
ENDBRANCH   9  10
ENDBRANCH   8   9
ENDBRANCH   7   8
ENDBRANCH   6   7
ENDBRANCH   5   6
ENDBRANCH   4   5
ENDBRANCH   3   4
ENDBRANCH   2   3
ENDBRANCH   1   2
BRANCH   1  17
ATOM     17  C   UNL     1      13.154   5.910  -9.473  1.00  0.00     0.000 C 
BRANCH  17  18
ATOM     18  C   UNL     1      11.703   6.304  -9.167  1.00  0.00     0.000 C 
BRANCH  18  19
ATOM     19  C   UNL     1      11.006   6.880 -10.411  1.00  0.00     0.000 C 
BRANCH  19  20
ATOM     20  C   UNL     1       9.902   5.958 -10.952  1.00  0.00     0.000 C 
BRANCH  20  21
ATOM     21  C   UNL     1       9.879   5.883 -12.489  1.00  0.00     0.000 C 
BRANCH  21  22
ATOM     22  C   UNL     1      10.691   4.694 -13.027  1.00  0.00    -0.000 C 
BRANCH  22  23
ATOM     23  C   UNL     1      12.111   5.098 -13.463  1.00  0.00    -0.000 C 
BRANCH  23  24
ATOM     24  C   UNL     1      12.336   4.939 -14.976  1.00  0.00    -0.000 C 
BRANCH  24  25
ATOM     25  C   UNL     1      11.355   5.775 -15.816  1.00  0.00    -0.000 C 
BRANCH  25  26
ATOM     26  C   UNL     1      11.388   7.269 -15.456  1.00  0.00    -0.000 C 
BRANCH  26  27
ATOM     27  C   UNL     1      12.460   8.046 -16.240  1.00  0.00    -0.000 C 
BRANCH  27  28
ATOM     28  C   UNL     1      11.849   8.889 -17.381  1.00  0.00    -0.000 C 
BRANCH  28  29
ATOM     29  C   UNL     1      10.327   9.073 -17.255  1.00  0.00    -0.003 C 
ATOM     30  C   UNL     1       9.575   8.713 -18.535  1.00  0.00     0.004 C 
ENDBRANCH  28  29
ENDBRANCH  27  28
ENDBRANCH  26  27
ENDBRANCH  25  26
ENDBRANCH  24  25
ENDBRANCH  23  24
ENDBRANCH  22  23
ENDBRANCH  21  22
ENDBRANCH  20  21
ENDBRANCH  19  20
ENDBRANCH  18  19
ENDBRANCH  17  18
ENDBRANCH   1  17
TORSDOF 26
ENDMDL
MODEL 9
REMARK VINA RESULT:    -5.867      3.101      6.442
REMARK INTER + INTRA:         -20.051
REMARK INTER:                 -15.099
REMARK INTRA:                  -4.952
REMARK UNBOUND:                -5.267
REMARK SMILES CCCCCCCCCCCCCCCCCCCCCCCCCCCC(=O)[O-]
REMARK SMILES IDX 15 1 16 2 17 3 18 4 19 5 20 6 21 7 22 8 23 9 24 10 25 11
REMARK SMILES IDX 26 12 27 13 28 14 29 15 30 16 14 17 13 18 12 19 11 20 10 21
REMARK SMILES IDX 9 22 8 23 7 24 6 25 5 26 4 27 3 28 2 29 1 30
REMARK H PARENT
REMARK Flexibility Score: inf
ROOT
ATOM      1  C   UNL     1      11.418   9.998 -12.465  1.00  0.00     0.000 C 
ENDROOT
BRANCH   1   2
ATOM      2  C   UNL     1      10.160  10.861 -12.691  1.00  0.00     0.000 C 
BRANCH   2   3
ATOM      3  C   UNL     1       8.918  10.016 -13.045  1.00  0.00     0.000 C 
BRANCH   3   4
ATOM      4  C   UNL     1       9.114   8.502 -12.852  1.00  0.00     0.000 C 
BRANCH   4   5
ATOM      5  C   UNL     1       7.809   7.772 -12.493  1.00  0.00     0.000 C 
BRANCH   5   6
ATOM      6  C   UNL     1       8.042   6.386 -11.869  1.00  0.00     0.000 C 
BRANCH   6   7
ATOM      7  C   UNL     1       9.518   5.972 -11.699  1.00  0.00     0.000 C 
BRANCH   7   8
ATOM      8  C   UNL     1      10.025   6.012 -10.242  1.00  0.00     0.000 C 
BRANCH   8   9
ATOM      9  C   UNL     1      11.539   6.281 -10.159  1.00  0.00     0.000 C 
BRANCH   9  10
ATOM     10  C   UNL     1      12.173   6.518 -11.539  1.00  0.00     0.000 C 
BRANCH  10  11
ATOM     11  C   UNL     1      13.710   6.475 -11.489  1.00  0.00     0.000 C 
BRANCH  11  12
ATOM     12  C   UNL     1      14.278   6.957 -10.142  1.00  0.00     0.006 C 
BRANCH  12  13
ATOM     13  C   UNL     1      15.385   8.019 -10.257  1.00  0.00     0.053 C 
BRANCH  13  14
ATOM     14  C   UNL     1      16.701   7.539  -9.723  1.00  0.00     0.041 C 
ATOM     15  O   UNL     1      17.710   7.479 -10.476  1.00  0.00    -0.550 OA
ATOM     16  O   UNL     1      16.816   7.174  -8.386  1.00  0.00    -0.550 OA
ENDBRANCH  13  14
ENDBRANCH  12  13
ENDBRANCH  11  12
ENDBRANCH  10  11
ENDBRANCH   9  10
ENDBRANCH   8   9
ENDBRANCH   7   8
ENDBRANCH   6   7
ENDBRANCH   5   6
ENDBRANCH   4   5
ENDBRANCH   3   4
ENDBRANCH   2   3
ENDBRANCH   1   2
BRANCH   1  17
ATOM     17  C   UNL     1      12.601  10.830 -11.940  1.00  0.00     0.000 C 
BRANCH  17  18
ATOM     18  C   UNL     1      13.940  10.103 -12.127  1.00  0.00     0.000 C 
BRANCH  18  19
ATOM     19  C   UNL     1      14.380  10.113 -13.600  1.00  0.00     0.000 C 
BRANCH  19  20
ATOM     20  C   UNL     1      14.679   8.705 -14.139  1.00  0.00     0.000 C 
BRANCH  20  21
ATOM     21  C   UNL     1      13.460   8.044 -14.807  1.00  0.00     0.000 C 
BRANCH  21  22
ATOM     22  C   UNL     1      13.513   8.137 -16.340  1.00  0.00    -0.000 C 
BRANCH  22  23
ATOM     23  C   UNL     1      12.164   8.553 -16.954  1.00  0.00    -0.000 C 
BRANCH  23  24
ATOM     24  C   UNL     1      11.084   8.813 -15.891  1.00  0.00    -0.000 C 
BRANCH  24  25
ATOM     25  C   UNL     1       9.707   8.256 -16.290  1.00  0.00    -0.000 C 
BRANCH  25  26
ATOM     26  C   UNL     1       9.733   6.743 -16.559  1.00  0.00    -0.000 C 
BRANCH  26  27
ATOM     27  C   UNL     1      10.266   5.935 -15.362  1.00  0.00    -0.000 C 
BRANCH  27  28
ATOM     28  C   UNL     1      11.579   5.196 -15.700  1.00  0.00    -0.000 C 
BRANCH  28  29
ATOM     29  C   UNL     1      12.114   4.341 -14.538  1.00  0.00    -0.003 C 
ATOM     30  C   UNL     1      11.003   3.726 -13.688  1.00  0.00     0.004 C 
ENDBRANCH  28  29
ENDBRANCH  27  28
ENDBRANCH  26  27
ENDBRANCH  25  26
ENDBRANCH  24  25
ENDBRANCH  23  24
ENDBRANCH  22  23
ENDBRANCH  21  22
ENDBRANCH  20  21
ENDBRANCH  19  20
ENDBRANCH  18  19
ENDBRANCH  17  18
ENDBRANCH   1  17
TORSDOF 26
ENDMDL
