MODEL 1
REMARK VINA RESULT:    -2.369      0.000      0.000
REMARK INTER + INTRA:          -5.816
REMARK INTER:                  -4.307
REMARK INTRA:                  -1.509
REMARK UNBOUND:                -1.509
REMARK SMILES CCCCCCCCCCCCCCCC(=O)[O-]
REMARK SMILES IDX 9 1 10 2 11 3 12 4 13 5 14 6 15 7 16 8 17 9 18 10 8 11 7 12
REMARK SMILES IDX 6 13 5 14 4 15 3 16 2 17 1 18
REMARK H PARENT
REMARK Flexibility Score: inf
ROOT
ATOM      1  C   UNL     1      27.563  65.245  18.672  1.00  0.00     0.000 C 
ENDROOT
BRANCH   1   2
ATOM      2  C   UNL     1      26.994  65.995  17.461  1.00  0.00     0.000 C 
BRANCH   2   3
ATOM      3  C   UNL     1      28.017  66.044  16.315  1.00  0.00     0.000 C 
BRANCH   3   4
ATOM      4  C   UNL     1      28.658  64.676  16.033  1.00  0.00     0.000 C 
BRANCH   4   5
ATOM      5  C   UNL     1      30.186  64.753  15.909  1.00  0.00     0.000 C 
BRANCH   5   6
ATOM      6  C   UNL     1      30.862  64.446  17.251  1.00  0.00     0.006 C 
BRANCH   6   7
ATOM      7  C   UNL     1      32.384  64.384  17.100  1.00  0.00     0.053 C 
BRANCH   7   8
ATOM      8  C   UNL     1      32.783  63.192  16.289  1.00  0.00     0.041 C 
ATOM      9  O   UNL     1      32.860  62.056  16.826  1.00  0.00    -0.550 OA
ATOM     10  O   UNL     1      33.120  63.344  14.949  1.00  0.00    -0.550 OA
ENDBRANCH   7   8
ENDBRANCH   6   7
ENDBRANCH   5   6
ENDBRANCH   4   5
ENDBRANCH   3   4
ENDBRANCH   2   3
ENDBRANCH   1   2
BRANCH   1  11
ATOM     11  C   UNL     1      28.559  66.125  19.443  1.00  0.00     0.000 C 
BRANCH  11  12
ATOM     12  C   UNL     1      28.405  65.997  20.966  1.00  0.00    -0.000 C 
BRANCH  12  13
ATOM     13  C   UNL     1      29.750  65.808  21.684  1.00  0.00    -0.000 C 
BRANCH  13  14
ATOM     14  C   UNL     1      30.866  65.487  20.683  1.00  0.00    -0.000 C 
BRANCH  14  15
ATOM     15  C   UNL     1      32.171  65.127  21.410  1.00  0.00    -0.000 C 
BRANCH  15  16
ATOM     16  C   UNL     1      32.937  63.987  20.722  1.00  0.00    -0.000 C 
BRANCH  16  17
ATOM     17  C   UNL     1      32.755  62.639  21.437  1.00  0.00    -0.003 C 
ATOM     18  C   UNL     1      32.548  61.509  20.431  1.00  0.00     0.004 C 
ENDBRANCH  16  17
ENDBRANCH  15  16
ENDBRANCH  14  15
ENDBRANCH  13  14
ENDBRANCH  12  13
ENDBRANCH  11  12
ENDBRANCH   1  11
TORSDOF 14
ENDMDL
MODEL 2
REMARK VINA RESULT:    -2.190      7.495     10.929
REMARK INTER + INTRA:          -5.490
REMARK INTER:                  -4.813
REMARK INTRA:                  -0.677
REMARK UNBOUND:                -1.509
REMARK SMILES CCCCCCCCCCCCCCCC(=O)[O-]
REMARK SMILES IDX 9 1 10 2 11 3 12 4 13 5 14 6 15 7 16 8 17 9 18 10 8 11 7 12
REMARK SMILES IDX 6 13 5 14 4 15 3 16 2 17 1 18
REMARK H PARENT
REMARK Flexibility Score: inf
ROOT
ATOM      1  C   UNL     1      21.307  65.596  16.361  1.00  0.00     0.000 C 
ENDROOT
BRANCH   1   2
ATOM      2  C   UNL     1      22.805  65.928  16.330  1.00  0.00     0.000 C 
BRANCH   2   3
ATOM      3  C   UNL     1      23.621  64.736  15.806  1.00  0.00     0.000 C 
BRANCH   3   4
ATOM      4  C   UNL     1      25.127  65.035  15.737  1.00  0.00     0.000 C 
BRANCH   4   5
ATOM      5  C   UNL     1      25.576  66.057  16.791  1.00  0.00     0.000 C 
BRANCH   5   6
ATOM      6  C   UNL     1      27.045  65.841  17.174  1.00  0.00     0.006 C 
BRANCH   6   7
ATOM      7  C   UNL     1      27.740  64.904  16.183  1.00  0.00     0.053 C 
BRANCH   7   8
ATOM      8  C   UNL     1      29.219  65.128  16.196  1.00  0.00     0.041 C 
ATOM      9  O   UNL     1      29.704  66.125  16.793  1.00  0.00    -0.550 OA
ATOM     10  O   UNL     1      30.060  64.264  15.505  1.00  0.00    -0.550 OA
ENDBRANCH   7   8
ENDBRANCH   6   7
ENDBRANCH   5   6
ENDBRANCH   4   5
ENDBRANCH   3   4
ENDBRANCH   2   3
ENDBRANCH   1   2
BRANCH   1  11
ATOM     11  C   UNL     1      20.679  65.764  14.969  1.00  0.00     0.000 C 
BRANCH  11  12
ATOM     12  C   UNL     1      19.157  65.553  14.978  1.00  0.00    -0.000 C 
BRANCH  12  13
ATOM     13  C   UNL     1      18.577  65.488  16.400  1.00  0.00    -0.000 C 
BRANCH  13  14
ATOM     14  C   UNL     1      17.055  65.666  16.380  1.00  0.00    -0.000 C 
BRANCH  14  15
ATOM     15  C   UNL     1      16.383  64.780  17.440  1.00  0.00    -0.000 C 
BRANCH  15  16
ATOM     16  C   UNL     1      14.864  64.998  17.519  1.00  0.00    -0.000 C 
BRANCH  16  17
ATOM     17  C   UNL     1      14.257  65.416  16.171  1.00  0.00    -0.003 C 
ATOM     18  C   UNL     1      13.643  64.217  15.452  1.00  0.00     0.004 C 
ENDBRANCH  16  17
ENDBRANCH  15  16
ENDBRANCH  14  15
ENDBRANCH  13  14
ENDBRANCH  12  13
ENDBRANCH  11  12
ENDBRANCH   1  11
TORSDOF 14
ENDMDL
MODEL 3
REMARK VINA RESULT:    -2.049      5.375      7.204
REMARK INTER + INTRA:          -5.235
REMARK INTER:                  -4.415
REMARK INTRA:                  -0.820
REMARK UNBOUND:                -1.509
REMARK SMILES CCCCCCCCCCCCCCCC(=O)[O-]
REMARK SMILES IDX 9 1 10 2 11 3 12 4 13 5 14 6 15 7 16 8 17 9 18 10 8 11 7 12
REMARK SMILES IDX 6 13 5 14 4 15 3 16 2 17 1 18
REMARK H PARENT
REMARK Flexibility Score: inf
ROOT
ATOM      1  C   UNL     1      28.727  64.995  17.335  1.00  0.00     0.000 C 
ENDROOT
BRANCH   1   2
ATOM      2  C   UNL     1      27.616  65.491  16.401  1.00  0.00     0.000 C 
BRANCH   2   3
ATOM      3  C   UNL     1      26.236  65.341  17.059  1.00  0.00     0.000 C 
BRANCH   3   4
ATOM      4  C   UNL     1      25.135  66.107  16.308  1.00  0.00     0.000 C 
BRANCH   4   5
ATOM      5  C   UNL     1      23.909  65.233  16.005  1.00  0.00     0.000 C 
BRANCH   5   6
ATOM      6  C   UNL     1      22.624  66.070  16.010  1.00  0.00     0.006 C 
BRANCH   6   7
ATOM      7  C   UNL     1      21.407  65.209  16.360  1.00  0.00     0.053 C 
BRANCH   7   8
ATOM      8  C   UNL     1      20.184  65.722  15.668  1.00  0.00     0.041 C 
ATOM      9  O   UNL     1      19.120  65.907  16.315  1.00  0.00    -0.550 OA
ATOM     10  O   UNL     1      20.204  65.947  14.297  1.00  0.00    -0.550 OA
ENDBRANCH   7   8
ENDBRANCH   6   7
ENDBRANCH   5   6
ENDBRANCH   4   5
ENDBRANCH   3   4
ENDBRANCH   2   3
ENDBRANCH   1   2
BRANCH   1  11
ATOM     11  C   UNL     1      29.160  66.102  18.309  1.00  0.00     0.000 C 
BRANCH  11  12
ATOM     12  C   UNL     1      30.551  65.849  18.910  1.00  0.00    -0.000 C 
BRANCH  12  13
ATOM     13  C   UNL     1      30.911  64.356  18.962  1.00  0.00    -0.000 C 
BRANCH  13  14
ATOM     14  C   UNL     1      32.424  64.161  19.111  1.00  0.00    -0.000 C 
BRANCH  14  15
ATOM     15  C   UNL     1      33.125  64.232  17.746  1.00  0.00    -0.000 C 
BRANCH  15  16
ATOM     16  C   UNL     1      32.735  63.070  16.819  1.00  0.00    -0.000 C 
BRANCH  16  17
ATOM     17  C   UNL     1      32.664  63.491  15.343  1.00  0.00    -0.003 C 
ATOM     18  C   UNL     1      31.310  63.132  14.736  1.00  0.00     0.004 C 
ENDBRANCH  16  17
ENDBRANCH  15  16
ENDBRANCH  14  15
ENDBRANCH  13  14
ENDBRANCH  12  13
ENDBRANCH  11  12
ENDBRANCH   1  11
TORSDOF 14
ENDMDL
MODEL 4
REMARK VINA RESULT:    -2.004      9.210     12.680
REMARK INTER + INTRA:          -5.153
REMARK INTER:                  -4.557
REMARK INTRA:                  -0.595
REMARK UNBOUND:                -1.509
REMARK SMILES CCCCCCCCCCCCCCCC(=O)[O-]
REMARK SMILES IDX 9 1 10 2 11 3 12 4 13 5 14 6 15 7 16 8 17 9 18 10 8 11 7 12
REMARK SMILES IDX 6 13 5 14 4 15 3 16 2 17 1 18
REMARK H PARENT
REMARK Flexibility Score: inf
ROOT
ATOM      1  C   UNL     1      18.783  65.052  16.760  1.00  0.00     0.000 C 
ENDROOT
BRANCH   1   2
ATOM      2  C   UNL     1      19.458  65.261  15.399  1.00  0.00     0.000 C 
BRANCH   2   3
ATOM      3  C   UNL     1      20.721  66.125  15.538  1.00  0.00     0.000 C 
BRANCH   3   4
ATOM      4  C   UNL     1      21.889  65.366  16.187  1.00  0.00     0.000 C 
BRANCH   4   5
ATOM      5  C   UNL     1      23.259  65.900  15.744  1.00  0.00     0.000 C 
BRANCH   5   6
ATOM      6  C   UNL     1      24.394  65.039  16.313  1.00  0.00     0.006 C 
BRANCH   6   7
ATOM      7  C   UNL     1      25.638  65.885  16.595  1.00  0.00     0.053 C 
BRANCH   7   8
ATOM      8  C   UNL     1      26.807  65.009  16.919  1.00  0.00     0.041 C 
ATOM      9  O   UNL     1      27.533  64.554  15.997  1.00  0.00    -0.550 OA
ATOM     10  O   UNL     1      27.064  64.653  18.238  1.00  0.00    -0.550 OA
ENDBRANCH   7   8
ENDBRANCH   6   7
ENDBRANCH   5   6
ENDBRANCH   4   5
ENDBRANCH   3   4
ENDBRANCH   2   3
ENDBRANCH   1   2
BRANCH   1  11
ATOM     11  C   UNL     1      17.281  65.364  16.681  1.00  0.00     0.000 C 
BRANCH  11  12
ATOM     12  C   UNL     1      16.447  64.508  17.647  1.00  0.00    -0.000 C 
BRANCH  12  13
ATOM     13  C   UNL     1      14.940  64.780  17.529  1.00  0.00    -0.000 C 
BRANCH  13  14
ATOM     14  C   UNL     1      14.602  65.425  16.180  1.00  0.00    -0.000 C 
BRANCH  14  15
ATOM     15  C   UNL     1      13.408  64.722  15.516  1.00  0.00    -0.000 C 
BRANCH  15  16
ATOM     16  C   UNL     1      13.640  64.444  14.023  1.00  0.00    -0.000 C 
BRANCH  16  17
ATOM     17  C   UNL     1      14.281  65.634  13.293  1.00  0.00    -0.003 C 
ATOM     18  C   UNL     1      15.754  65.365  12.993  1.00  0.00     0.004 C 
ENDBRANCH  16  17
ENDBRANCH  15  16
ENDBRANCH  14  15
ENDBRANCH  13  14
ENDBRANCH  12  13
ENDBRANCH  11  12
ENDBRANCH   1  11
TORSDOF 14
ENDMDL
MODEL 5
REMARK VINA RESULT:    -1.966      2.128      5.502
REMARK INTER + INTRA:          -5.083
REMARK INTER:                  -3.900
REMARK INTRA:                  -1.183
REMARK UNBOUND:                -1.509
REMARK SMILES CCCCCCCCCCCCCCCC(=O)[O-]
REMARK SMILES IDX 9 1 10 2 11 3 12 4 13 5 14 6 15 7 16 8 17 9 18 10 8 11 7 12
REMARK SMILES IDX 6 13 5 14 4 15 3 16 2 17 1 18
REMARK H PARENT
REMARK Flexibility Score: inf
ROOT
ATOM      1  C   UNL     1      29.725  65.057  19.156  1.00  0.00     0.000 C 
ENDROOT
BRANCH   1   2
ATOM      2  C   UNL     1      30.912  66.017  19.009  1.00  0.00     0.000 C 
BRANCH   2   3
ATOM      3  C   UNL     1      31.697  66.125  20.325  1.00  0.00     0.000 C 
BRANCH   3   4
ATOM      4  C   UNL     1      31.267  65.072  21.360  1.00  0.00     0.000 C 
BRANCH   4   5
ATOM      5  C   UNL     1      32.162  65.070  22.608  1.00  0.00     0.000 C 
BRANCH   5   6
ATOM      6  C   UNL     1      32.895  63.731  22.756  1.00  0.00     0.006 C 
BRANCH   6   7
ATOM      7  C   UNL     1      32.975  62.997  21.414  1.00  0.00     0.053 C 
BRANCH   7   8
ATOM      8  C   UNL     1      32.630  61.551  21.586  1.00  0.00     0.041 C 
ATOM      9  O   UNL     1      32.319  60.850  20.587  1.00  0.00    -0.550 OA
ATOM     10  O   UNL     1      32.603  60.989  22.856  1.00  0.00    -0.550 OA
ENDBRANCH   7   8
ENDBRANCH   6   7
ENDBRANCH   5   6
ENDBRANCH   4   5
ENDBRANCH   3   4
ENDBRANCH   2   3
ENDBRANCH   1   2
BRANCH   1  11
ATOM     11  C   UNL     1      28.391  65.810  19.035  1.00  0.00     0.000 C 
BRANCH  11  12
ATOM     12  C   UNL     1      27.480  65.229  17.943  1.00  0.00    -0.000 C 
BRANCH  12  13
ATOM     13  C   UNL     1      27.432  66.107  16.683  1.00  0.00    -0.000 C 
BRANCH  13  14
ATOM     14  C   UNL     1      28.757  66.038  15.915  1.00  0.00    -0.000 C 
BRANCH  14  15
ATOM     15  C   UNL     1      28.969  64.644  15.307  1.00  0.00    -0.000 C 
BRANCH  15  16
ATOM     16  C   UNL     1      30.295  64.002  15.743  1.00  0.00    -0.000 C 
BRANCH  16  17
ATOM     17  C   UNL     1      31.040  63.334  14.577  1.00  0.00    -0.003 C 
ATOM     18  C   UNL     1      32.524  63.692  14.599  1.00  0.00     0.004 C 
ENDBRANCH  16  17
ENDBRANCH  15  16
ENDBRANCH  14  15
ENDBRANCH  13  14
ENDBRANCH  12  13
ENDBRANCH  11  12
ENDBRANCH   1  11
TORSDOF 14
ENDMDL
MODEL 6
REMARK VINA RESULT:    -1.927      5.470      7.073
REMARK INTER + INTRA:          -5.014
REMARK INTER:                  -4.475
REMARK INTRA:                  -0.539
REMARK UNBOUND:                -1.509
REMARK SMILES CCCCCCCCCCCCCCCC(=O)[O-]
REMARK SMILES IDX 9 1 10 2 11 3 12 4 13 5 14 6 15 7 16 8 17 9 18 10 8 11 7 12
REMARK SMILES IDX 6 13 5 14 4 15 3 16 2 17 1 18
REMARK H PARENT
REMARK Flexibility Score: inf
ROOT
ATOM      1  C   UNL     1      28.339  65.029  17.577  1.00  0.00     0.000 C 
ENDROOT
BRANCH   1   2
ATOM      2  C   UNL     1      27.394  65.239  16.388  1.00  0.00     0.000 C 
BRANCH   2   3
ATOM      3  C   UNL     1      26.094  65.928  16.833  1.00  0.00     0.000 C 
BRANCH   3   4
ATOM      4  C   UNL     1      24.837  65.206  16.323  1.00  0.00     0.000 C 
BRANCH   4   5
ATOM      5  C   UNL     1      23.589  66.100  16.354  1.00  0.00     0.000 C 
BRANCH   5   6
ATOM      6  C   UNL     1      22.314  65.270  16.158  1.00  0.00     0.006 C 
BRANCH   6   7
ATOM      7  C   UNL     1      21.184  66.125  15.578  1.00  0.00     0.053 C 
BRANCH   7   8
ATOM      8  C   UNL     1      19.857  65.482  15.828  1.00  0.00     0.041 C 
ATOM      9  O   UNL     1      18.840  65.854  15.186  1.00  0.00    -0.550 OA
ATOM     10  O   UNL     1      19.732  64.506  16.809  1.00  0.00    -0.550 OA
ENDBRANCH   7   8
ENDBRANCH   6   7
ENDBRANCH   5   6
ENDBRANCH   4   5
ENDBRANCH   3   4
ENDBRANCH   2   3
ENDBRANCH   1   2
BRANCH   1  11
ATOM     11  C   UNL     1      29.601  65.893  17.435  1.00  0.00     0.000 C 
BRANCH  11  12
ATOM     12  C   UNL     1      30.812  65.092  16.929  1.00  0.00    -0.000 C 
BRANCH  12  13
ATOM     13  C   UNL     1      32.055  65.279  17.812  1.00  0.00    -0.000 C 
BRANCH  13  14
ATOM     14  C   UNL     1      31.665  65.422  19.287  1.00  0.00    -0.000 C 
BRANCH  14  15
ATOM     15  C   UNL     1      32.722  64.784  20.201  1.00  0.00    -0.000 C 
BRANCH  15  16
ATOM     16  C   UNL     1      32.228  63.487  20.862  1.00  0.00    -0.000 C 
BRANCH  16  17
ATOM     17  C   UNL     1      32.757  62.228  20.159  1.00  0.00    -0.003 C 
ATOM     18  C   UNL     1      32.185  60.964  20.797  1.00  0.00     0.004 C 
ENDBRANCH  16  17
ENDBRANCH  15  16
ENDBRANCH  14  15
ENDBRANCH  13  14
ENDBRANCH  12  13
ENDBRANCH  11  12
ENDBRANCH   1  11
TORSDOF 14
ENDMDL
MODEL 7
REMARK VINA RESULT:    -1.722      8.609     12.147
REMARK INTER + INTRA:          -4.639
REMARK INTER:                  -4.057
REMARK INTRA:                  -0.583
REMARK UNBOUND:                -1.509
REMARK SMILES CCCCCCCCCCCCCCCC(=O)[O-]
REMARK SMILES IDX 9 1 10 2 11 3 12 4 13 5 14 6 15 7 16 8 17 9 18 10 8 11 7 12
REMARK SMILES IDX 6 13 5 14 4 15 3 16 2 17 1 18
REMARK H PARENT
REMARK Flexibility Score: inf
ROOT
ATOM      1  C   UNL     1      20.108  65.496  15.031  1.00  0.00     0.000 C 
ENDROOT
BRANCH   1   2
ATOM      2  C   UNL     1      21.482  66.082  15.378  1.00  0.00     0.000 C 
BRANCH   2   3
ATOM      3  C   UNL     1      22.183  65.239  16.455  1.00  0.00     0.000 C 
BRANCH   3   4
ATOM      4  C   UNL     1      23.631  64.886  16.082  1.00  0.00     0.000 C 
BRANCH   4   5
ATOM      5  C   UNL     1      24.543  66.121  16.021  1.00  0.00     0.000 C 
BRANCH   5   6
ATOM      6  C   UNL     1      25.757  65.952  16.944  1.00  0.00     0.006 C 
BRANCH   6   7
ATOM      7  C   UNL     1      26.963  65.409  16.173  1.00  0.00     0.053 C 
BRANCH   7   8
ATOM      8  C   UNL     1      28.203  65.502  17.005  1.00  0.00     0.041 C 
ATOM      9  O   UNL     1      28.156  65.998  18.161  1.00  0.00    -0.550 OA
ATOM     10  O   UNL     1      29.422  65.086  16.484  1.00  0.00    -0.550 OA
ENDBRANCH   7   8
ENDBRANCH   6   7
ENDBRANCH   5   6
ENDBRANCH   4   5
ENDBRANCH   3   4
ENDBRANCH   2   3
ENDBRANCH   1   2
BRANCH   1  11
ATOM     11  C   UNL     1      19.320  65.154  16.304  1.00  0.00     0.000 C 
BRANCH  11  12
ATOM     12  C   UNL     1      17.893  65.724  16.288  1.00  0.00    -0.000 C 
BRANCH  12  13
ATOM     13  C   UNL     1      17.349  65.916  14.864  1.00  0.00    -0.000 C 
BRANCH  13  14
ATOM     14  C   UNL     1      15.830  66.125  14.880  1.00  0.00    -0.000 C 
BRANCH  14  15
ATOM     15  C   UNL     1      15.133  65.164  13.905  1.00  0.00    -0.000 C 
BRANCH  15  16
ATOM     16  C   UNL     1      13.781  64.661  14.434  1.00  0.00    -0.000 C 
BRANCH  16  17
ATOM     17  C   UNL     1      13.057  63.748  13.432  1.00  0.00    -0.003 C 
ATOM     18  C   UNL     1      13.938  63.459  12.219  1.00  0.00     0.004 C 
ENDBRANCH  16  17
ENDBRANCH  15  16
ENDBRANCH  14  15
ENDBRANCH  13  14
ENDBRANCH  12  13
ENDBRANCH  11  12
ENDBRANCH   1  11
TORSDOF 14
ENDMDL
MODEL 8
REMARK VINA RESULT:    -1.720      1.362      2.188
REMARK INTER + INTRA:          -4.637
REMARK INTER:                  -3.709
REMARK INTRA:                  -0.928
REMARK UNBOUND:                -1.509
REMARK SMILES CCCCCCCCCCCCCCCC(=O)[O-]
REMARK SMILES IDX 9 1 10 2 11 3 12 4 13 5 14 6 15 7 16 8 17 9 18 10 8 11 7 12
REMARK SMILES IDX 6 13 5 14 4 15 3 16 2 17 1 18
REMARK H PARENT
REMARK Flexibility Score: inf
ROOT
ATOM      1  C   UNL     1      29.461  64.990  18.836  1.00  0.00     0.000 C 
ENDROOT
BRANCH   1   2
ATOM      2  C   UNL     1      28.208  65.836  18.579  1.00  0.00     0.000 C 
BRANCH   2   3
ATOM      3  C   UNL     1      27.894  65.911  17.076  1.00  0.00     0.000 C 
BRANCH   3   4
ATOM      4  C   UNL     1      29.119  65.607  16.199  1.00  0.00     0.000 C 
BRANCH   4   5
ATOM      5  C   UNL     1      28.905  64.393  15.284  1.00  0.00     0.000 C 
BRANCH   5   6
ATOM      6  C   UNL     1      30.245  63.828  14.798  1.00  0.00     0.006 C 
BRANCH   6   7
ATOM      7  C   UNL     1      31.355  64.091  15.819  1.00  0.00     0.053 C 
BRANCH   7   8
ATOM      8  C   UNL     1      32.573  63.287  15.490  1.00  0.00     0.041 C 
ATOM      9  O   UNL     1      33.104  63.377  14.352  1.00  0.00    -0.550 OA
ATOM     10  O   UNL     1      33.092  62.398  16.424  1.00  0.00    -0.550 OA
ENDBRANCH   7   8
ENDBRANCH   6   7
ENDBRANCH   5   6
ENDBRANCH   4   5
ENDBRANCH   3   4
ENDBRANCH   2   3
ENDBRANCH   1   2
BRANCH   1  11
ATOM     11  C   UNL     1      30.589  65.846  19.431  1.00  0.00     0.000 C 
BRANCH  11  12
ATOM     12  C   UNL     1      31.940  65.115  19.448  1.00  0.00    -0.000 C 
BRANCH  12  13
ATOM     13  C   UNL     1      33.061  65.957  20.077  1.00  0.00    -0.000 C 
BRANCH  13  14
ATOM     14  C   UNL     1      33.079  65.797  21.601  1.00  0.00    -0.000 C 
BRANCH  14  15
ATOM     15  C   UNL     1      31.958  64.855  22.069  1.00  0.00    -0.000 C 
BRANCH  15  16
ATOM     16  C   UNL     1      32.249  64.222  23.438  1.00  0.00    -0.000 C 
BRANCH  16  17
ATOM     17  C   UNL     1      33.106  62.951  23.331  1.00  0.00    -0.003 C 
ATOM     18  C   UNL     1      32.897  62.261  21.985  1.00  0.00     0.004 C 
ENDBRANCH  16  17
ENDBRANCH  15  16
ENDBRANCH  14  15
ENDBRANCH  13  14
ENDBRANCH  12  13
ENDBRANCH  11  12
ENDBRANCH   1  11
TORSDOF 14
ENDMDL
MODEL 9
REMARK VINA RESULT:    -1.704      7.331      9.090
REMARK INTER + INTRA:          -4.606
REMARK INTER:                  -4.105
REMARK INTRA:                  -0.501
REMARK UNBOUND:                -1.509
REMARK SMILES CCCCCCCCCCCCCCCC(=O)[O-]
REMARK SMILES IDX 9 1 10 2 11 3 12 4 13 5 14 6 15 7 16 8 17 9 18 10 8 11 7 12
REMARK SMILES IDX 6 13 5 14 4 15 3 16 2 17 1 18
REMARK H PARENT
REMARK Flexibility Score: inf
ROOT
ATOM      1  C   UNL     1      24.907  66.054  16.282  1.00  0.00     0.000 C 
ENDROOT
BRANCH   1   2
ATOM      2  C   UNL     1      23.631  65.245  16.021  1.00  0.00     0.000 C 
BRANCH   2   3
ATOM      3  C   UNL     1      22.380  66.123  16.188  1.00  0.00     0.000 C 
BRANCH   3   4
ATOM      4  C   UNL     1      21.074  65.322  16.067  1.00  0.00     0.000 C 
BRANCH   4   5
ATOM      5  C   UNL     1      20.398  65.497  14.700  1.00  0.00     0.000 C 
BRANCH   5   6
ATOM      6  C   UNL     1      18.913  65.845  14.862  1.00  0.00     0.006 C 
BRANCH   6   7
ATOM      7  C   UNL     1      18.476  65.724  16.325  1.00  0.00     0.053 C 
BRANCH   7   8
ATOM      8  C   UNL     1      16.986  65.645  16.423  1.00  0.00     0.041 C 
ATOM      9  O   UNL     1      16.444  65.108  17.425  1.00  0.00    -0.550 OA
ATOM     10  O   UNL     1      16.195  66.120  15.384  1.00  0.00    -0.550 OA
ENDBRANCH   7   8
ENDBRANCH   6   7
ENDBRANCH   5   6
ENDBRANCH   4   5
ENDBRANCH   3   4
ENDBRANCH   2   3
ENDBRANCH   1   2
BRANCH   1  11
ATOM     11  C   UNL     1      26.156  65.171  16.132  1.00  0.00     0.000 C 
BRANCH  11  12
ATOM     12  C   UNL     1      27.410  65.811  16.749  1.00  0.00    -0.000 C 
BRANCH  12  13
ATOM     13  C   UNL     1      27.728  65.259  18.147  1.00  0.00    -0.000 C 
BRANCH  13  14
ATOM     14  C   UNL     1      28.962  65.948  18.741  1.00  0.00    -0.000 C 
BRANCH  14  15
ATOM     15  C   UNL     1      30.233  65.561  17.970  1.00  0.00    -0.000 C 
BRANCH  15  16
ATOM     16  C   UNL     1      31.454  65.391  18.887  1.00  0.00    -0.000 C 
BRANCH  16  17
ATOM     17  C   UNL     1      31.760  63.918  19.198  1.00  0.00    -0.003 C 
ATOM     18  C   UNL     1      32.129  63.733  20.668  1.00  0.00     0.004 C 
ENDBRANCH  16  17
ENDBRANCH  15  16
ENDBRANCH  14  15
ENDBRANCH  13  14
ENDBRANCH  12  13
ENDBRANCH  11  12
ENDBRANCH   1  11
TORSDOF 14
ENDMDL
