MODEL 1
REMARK VINA RESULT:    -1.868      0.000      0.000
REMARK INTER + INTRA:          -5.760
REMARK INTER:                  -4.270
REMARK INTRA:                  -1.490
REMARK UNBOUND:                -1.490
REMARK SMILES CCCCCCCCCCCCCCCCCCCCCCCC(=O)[O-]
REMARK SMILES IDX 13 1 14 2 15 3 16 4 17 5 18 6 19 7 20 8 21 9 22 10 23 11
REMARK SMILES IDX 24 12 25 13 26 14 12 15 11 16 10 17 9 18 8 19 7 20 6 21 5 22
REMARK SMILES IDX 4 23 3 24 2 25 1 26
REMARK H PARENT
REMARK Flexibility Score: inf
ROOT
ATOM      1  C   UNL     1     -21.173   1.475  10.604  1.00  0.00     0.000 C 
ENDROOT
BRANCH   1   2
ATOM      2  C   UNL     1     -21.957   2.192   9.493  1.00  0.00     0.000 C 
BRANCH   2   3
ATOM      3  C   UNL     1     -21.213   3.422   8.950  1.00  0.00     0.000 C 
BRANCH   3   4
ATOM      4  C   UNL     1     -22.129   4.651   8.818  1.00  0.00     0.000 C 
BRANCH   4   5
ATOM      5  C   UNL     1     -21.514   5.913   9.444  1.00  0.00     0.000 C 
BRANCH   5   6
ATOM      6  C   UNL     1     -20.022   6.066   9.103  1.00  0.00     0.000 C 
BRANCH   6   7
ATOM      7  C   UNL     1     -19.195   6.606  10.280  1.00  0.00     0.000 C 
BRANCH   7   8
ATOM      8  C   UNL     1     -18.386   7.859   9.913  1.00  0.00     0.000 C 
BRANCH   8   9
ATOM      9  C   UNL     1     -16.902   7.674  10.254  1.00  0.00     0.000 C 
BRANCH   9  10
ATOM     10  C   UNL     1     -16.080   8.895   9.820  1.00  0.00     0.006 C 
BRANCH  10  11
ATOM     11  C   UNL     1     -15.486   9.618  11.032  1.00  0.00     0.053 C 
BRANCH  11  12
ATOM     12  C   UNL     1     -14.364  10.513  10.610  1.00  0.00     0.041 C 
ATOM     13  O   UNL     1     -13.518  10.910  11.452  1.00  0.00    -0.550 OA
ATOM     14  O   UNL     1     -14.225  10.871   9.274  1.00  0.00    -0.550 OA
ENDBRANCH  11  12
ENDBRANCH  10  11
ENDBRANCH   9  10
ENDBRANCH   8   9
ENDBRANCH   7   8
ENDBRANCH   6   7
ENDBRANCH   5   6
ENDBRANCH   4   5
ENDBRANCH   3   4
ENDBRANCH   2   3
ENDBRANCH   1   2
BRANCH   1  15
ATOM     15  C   UNL     1     -21.924   1.457  11.948  1.00  0.00     0.000 C 
BRANCH  15  16
ATOM     16  C   UNL     1     -21.028   1.283  13.190  1.00  0.00     0.000 C 
BRANCH  16  17
ATOM     17  C   UNL     1     -21.381   0.078  14.086  1.00  0.00     0.000 C 
BRANCH  17  18
ATOM     18  C   UNL     1     -20.477  -1.157  13.898  1.00  0.00    -0.000 C 
BRANCH  18  19
ATOM     19  C   UNL     1     -20.793  -2.018  12.658  1.00  0.00    -0.000 C 
BRANCH  19  20
ATOM     20  C   UNL     1     -19.710  -2.012  11.564  1.00  0.00    -0.000 C 
BRANCH  20  21
ATOM     21  C   UNL     1     -20.293  -1.861  10.149  1.00  0.00    -0.000 C 
BRANCH  21  22
ATOM     22  C   UNL     1     -19.531  -2.688   9.097  1.00  0.00    -0.000 C 
BRANCH  22  23
ATOM     23  C   UNL     1     -19.946  -2.436   7.632  1.00  0.00    -0.000 C 
BRANCH  23  24
ATOM     24  C   UNL     1     -20.658  -1.096   7.374  1.00  0.00    -0.000 C 
BRANCH  24  25
ATOM     25  C   UNL     1     -19.840  -0.150   6.483  1.00  0.00    -0.003 C 
ATOM     26  C   UNL     1     -19.710   1.230   7.121  1.00  0.00     0.004 C 
ENDBRANCH  24  25
ENDBRANCH  23  24
ENDBRANCH  22  23
ENDBRANCH  21  22
ENDBRANCH  20  21
ENDBRANCH  19  20
ENDBRANCH  18  19
ENDBRANCH  17  18
ENDBRANCH  16  17
ENDBRANCH  15  16
ENDBRANCH   1  15
TORSDOF 22
ENDMDL
MODEL 2
REMARK VINA RESULT:    -1.787      3.455      9.701
REMARK INTER + INTRA:          -5.576
REMARK INTER:                  -3.982
REMARK INTRA:                  -1.594
REMARK UNBOUND:                -1.490
REMARK SMILES CCCCCCCCCCCCCCCCCCCCCCCC(=O)[O-]
REMARK SMILES IDX 13 1 14 2 15 3 16 4 17 5 18 6 19 7 20 8 21 9 22 10 23 11
REMARK SMILES IDX 24 12 25 13 26 14 12 15 11 16 10 17 9 18 8 19 7 20 6 21 5 22
REMARK SMILES IDX 4 23 3 24 2 25 1 26
REMARK H PARENT
REMARK Flexibility Score: inf
ROOT
ATOM      1  C   UNL     1     -21.519   1.734  10.081  1.00  0.00     0.000 C 
ENDROOT
BRANCH   1   2
ATOM      2  C   UNL     1     -20.874   2.047  11.442  1.00  0.00     0.000 C 
BRANCH   2   3
ATOM      3  C   UNL     1     -21.666   1.452  12.617  1.00  0.00     0.000 C 
BRANCH   3   4
ATOM      4  C   UNL     1     -20.790   0.580  13.532  1.00  0.00     0.000 C 
BRANCH   4   5
ATOM      5  C   UNL     1     -21.345  -0.846  13.693  1.00  0.00     0.000 C 
BRANCH   5   6
ATOM      6  C   UNL     1     -20.526  -1.883  12.906  1.00  0.00     0.000 C 
BRANCH   6   7
ATOM      7  C   UNL     1     -20.418  -1.546  11.412  1.00  0.00     0.000 C 
BRANCH   7   8
ATOM      8  C   UNL     1     -19.245  -2.261  10.724  1.00  0.00     0.000 C 
BRANCH   8   9
ATOM      9  C   UNL     1     -19.513  -2.439   9.224  1.00  0.00     0.000 C 
BRANCH   9  10
ATOM     10  C   UNL     1     -20.386  -1.301   8.680  1.00  0.00     0.006 C 
BRANCH  10  11
ATOM     11  C   UNL     1     -20.122  -1.067   7.190  1.00  0.00     0.053 C 
BRANCH  11  12
ATOM     12  C   UNL     1     -20.300   0.379   6.848  1.00  0.00     0.041 C 
ATOM     13  O   UNL     1     -19.504   1.241   7.302  1.00  0.00    -0.550 OA
ATOM     14  O   UNL     1     -21.318   0.769   5.986  1.00  0.00    -0.550 OA
ENDBRANCH  11  12
ENDBRANCH  10  11
ENDBRANCH   9  10
ENDBRANCH   8   9
ENDBRANCH   7   8
ENDBRANCH   6   7
ENDBRANCH   5   6
ENDBRANCH   4   5
ENDBRANCH   3   4
ENDBRANCH   2   3
ENDBRANCH   1   2
BRANCH   1  15
ATOM     15  C   UNL     1     -22.431   2.868   9.580  1.00  0.00     0.000 C 
BRANCH  15  16
ATOM     16  C   UNL     1     -21.768   3.846   8.590  1.00  0.00     0.000 C 
BRANCH  16  17
ATOM     17  C   UNL     1     -21.696   5.311   9.068  1.00  0.00     0.000 C 
BRANCH  17  18
ATOM     18  C   UNL     1     -20.513   5.632  10.004  1.00  0.00    -0.000 C 
BRANCH  18  19
ATOM     19  C   UNL     1     -19.535   6.702   9.479  1.00  0.00    -0.000 C 
BRANCH  19  20
ATOM     20  C   UNL     1     -18.281   6.925  10.344  1.00  0.00    -0.000 C 
BRANCH  20  21
ATOM     21  C   UNL     1     -17.663   8.319  10.150  1.00  0.00    -0.000 C 
BRANCH  21  22
ATOM     22  C   UNL     1     -16.133   8.278   9.987  1.00  0.00    -0.000 C 
BRANCH  22  23
ATOM     23  C   UNL     1     -15.487   9.585   9.479  1.00  0.00    -0.000 C 
BRANCH  23  24
ATOM     24  C   UNL     1     -14.726  10.396  10.543  1.00  0.00    -0.000 C 
BRANCH  24  25
ATOM     25  C   UNL     1     -15.143  10.035  11.976  1.00  0.00    -0.003 C 
ATOM     26  C   UNL     1     -14.632  11.070  12.974  1.00  0.00     0.004 C 
ENDBRANCH  24  25
ENDBRANCH  23  24
ENDBRANCH  22  23
ENDBRANCH  21  22
ENDBRANCH  20  21
ENDBRANCH  19  20
ENDBRANCH  18  19
ENDBRANCH  17  18
ENDBRANCH  16  17
ENDBRANCH  15  16
ENDBRANCH   1  15
TORSDOF 22
ENDMDL
MODEL 3
REMARK VINA RESULT:    -1.617      1.426      4.592
REMARK INTER + INTRA:          -5.186
REMARK INTER:                  -4.251
REMARK INTRA:                  -0.935
REMARK UNBOUND:                -1.490
REMARK SMILES CCCCCCCCCCCCCCCCCCCCCCCC(=O)[O-]
REMARK SMILES IDX 13 1 14 2 15 3 16 4 17 5 18 6 19 7 20 8 21 9 22 10 23 11
REMARK SMILES IDX 24 12 25 13 26 14 12 15 11 16 10 17 9 18 8 19 7 20 6 21 5 22
REMARK SMILES IDX 4 23 3 24 2 25 1 26
REMARK H PARENT
REMARK Flexibility Score: inf
ROOT
ATOM      1  C   UNL     1     -21.904   4.408   9.135  1.00  0.00     0.000 C 
ENDROOT
BRANCH   1   2
ATOM      2  C   UNL     1     -21.491   5.871   9.367  1.00  0.00     0.000 C 
BRANCH   2   3
ATOM      3  C   UNL     1     -20.013   6.123   9.030  1.00  0.00     0.000 C 
BRANCH   3   4
ATOM      4  C   UNL     1     -19.208   6.608  10.248  1.00  0.00     0.000 C 
BRANCH   4   5
ATOM      5  C   UNL     1     -18.411   7.890   9.954  1.00  0.00     0.000 C 
BRANCH   5   6
ATOM      6  C   UNL     1     -16.918   7.740  10.290  1.00  0.00     0.000 C 
BRANCH   6   7
ATOM      7  C   UNL     1     -16.021   8.635   9.421  1.00  0.00     0.000 C 
BRANCH   7   8
ATOM      8  C   UNL     1     -15.393   9.793  10.210  1.00  0.00     0.000 C 
BRANCH   8   9
ATOM      9  C   UNL     1     -15.268   9.441  11.698  1.00  0.00     0.000 C 
BRANCH   9  10
ATOM     10  C   UNL     1     -14.861  10.669  12.523  1.00  0.00     0.006 C 
BRANCH  10  11
ATOM     11  C   UNL     1     -13.969  10.270  13.702  1.00  0.00     0.053 C 
BRANCH  11  12
ATOM     12  C   UNL     1     -12.569  10.753  13.487  1.00  0.00     0.041 C 
ATOM     13  O   UNL     1     -12.179  11.074  12.334  1.00  0.00    -0.550 OA
ATOM     14  O   UNL     1     -11.709  10.896  14.569  1.00  0.00    -0.550 OA
ENDBRANCH  11  12
ENDBRANCH  10  11
ENDBRANCH   9  10
ENDBRANCH   8   9
ENDBRANCH   7   8
ENDBRANCH   6   7
ENDBRANCH   5   6
ENDBRANCH   4   5
ENDBRANCH   3   4
ENDBRANCH   2   3
ENDBRANCH   1   2
BRANCH   1  15
ATOM     15  C   UNL     1     -20.939   3.657   8.201  1.00  0.00     0.000 C 
BRANCH  15  16
ATOM     16  C   UNL     1     -21.003   2.120   8.301  1.00  0.00     0.000 C 
BRANCH  16  17
ATOM     17  C   UNL     1     -20.148   1.362   7.265  1.00  0.00     0.000 C 
BRANCH  17  18
ATOM     18  C   UNL     1     -20.803   0.092   6.686  1.00  0.00    -0.000 C 
BRANCH  18  19
ATOM     19  C   UNL     1     -20.331  -1.234   7.316  1.00  0.00    -0.000 C 
BRANCH  19  20
ATOM     20  C   UNL     1     -20.341  -1.269   8.855  1.00  0.00    -0.000 C 
BRANCH  20  21
ATOM     21  C   UNL     1     -19.444  -2.376   9.432  1.00  0.00    -0.000 C 
BRANCH  21  22
ATOM     22  C   UNL     1     -19.287  -2.282  10.961  1.00  0.00    -0.000 C 
BRANCH  22  23
ATOM     23  C   UNL     1     -20.585  -1.982  11.741  1.00  0.00    -0.000 C 
BRANCH  23  24
ATOM     24  C   UNL     1     -20.392  -1.660  13.234  1.00  0.00    -0.000 C 
BRANCH  24  25
ATOM     25  C   UNL     1     -21.151  -0.399  13.672  1.00  0.00    -0.003 C 
ATOM     26  C   UNL     1     -21.861  -0.621  15.005  1.00  0.00     0.004 C 
ENDBRANCH  24  25
ENDBRANCH  23  24
ENDBRANCH  22  23
ENDBRANCH  21  22
ENDBRANCH  20  21
ENDBRANCH  19  20
ENDBRANCH  18  19
ENDBRANCH  17  18
ENDBRANCH  16  17
ENDBRANCH  15  16
ENDBRANCH   1  15
TORSDOF 22
ENDMDL
MODEL 4
REMARK VINA RESULT:    -1.260      4.078     10.675
REMARK INTER + INTRA:          -4.371
REMARK INTER:                  -3.221
REMARK INTRA:                  -1.150
REMARK UNBOUND:                -1.490
REMARK SMILES CCCCCCCCCCCCCCCCCCCCCCCC(=O)[O-]
REMARK SMILES IDX 13 1 14 2 15 3 16 4 17 5 18 6 19 7 20 8 21 9 22 10 23 11
REMARK SMILES IDX 24 12 25 13 26 14 12 15 11 16 10 17 9 18 8 19 7 20 6 21 5 22
REMARK SMILES IDX 4 23 3 24 2 25 1 26
REMARK H PARENT
REMARK Flexibility Score: inf
ROOT
ATOM      1  C   UNL     1     -21.163   4.261   8.425  1.00  0.00     0.000 C 
ENDROOT
BRANCH   1   2
ATOM      2  C   UNL     1     -21.887   2.996   8.915  1.00  0.00     0.000 C 
BRANCH   2   3
ATOM      3  C   UNL     1     -21.019   1.735   8.785  1.00  0.00     0.000 C 
BRANCH   3   4
ATOM      4  C   UNL     1     -20.241   1.693   7.458  1.00  0.00     0.000 C 
BRANCH   4   5
ATOM      5  C   UNL     1     -20.490   0.396   6.671  1.00  0.00     0.000 C 
BRANCH   5   6
ATOM      6  C   UNL     1     -20.832  -0.789   7.590  1.00  0.00     0.000 C 
BRANCH   6   7
ATOM      7  C   UNL     1     -19.590  -1.404   8.253  1.00  0.00     0.000 C 
BRANCH   7   8
ATOM      8  C   UNL     1     -19.940  -2.500   9.270  1.00  0.00     0.000 C 
BRANCH   8   9
ATOM      9  C   UNL     1     -19.380  -2.161  10.658  1.00  0.00     0.000 C 
BRANCH   9  10
ATOM     10  C   UNL     1     -20.357  -1.280  11.447  1.00  0.00     0.006 C 
BRANCH  10  11
ATOM     11  C   UNL     1     -20.541  -1.803  12.874  1.00  0.00     0.053 C 
BRANCH  11  12
ATOM     12  C   UNL     1     -20.988  -0.700  13.782  1.00  0.00     0.041 C 
ATOM     13  O   UNL     1     -22.195  -0.343  13.799  1.00  0.00    -0.550 OA
ATOM     14  O   UNL     1     -20.081  -0.100  14.646  1.00  0.00    -0.550 OA
ENDBRANCH  11  12
ENDBRANCH  10  11
ENDBRANCH   9  10
ENDBRANCH   8   9
ENDBRANCH   7   8
ENDBRANCH   6   7
ENDBRANCH   5   6
ENDBRANCH   4   5
ENDBRANCH   3   4
ENDBRANCH   2   3
ENDBRANCH   1   2
BRANCH   1  15
ATOM     15  C   UNL     1     -21.495   5.502   9.272  1.00  0.00     0.000 C 
BRANCH  15  16
ATOM     16  C   UNL     1     -20.348   5.996  10.177  1.00  0.00     0.000 C 
BRANCH  16  17
ATOM     17  C   UNL     1     -19.178   6.676   9.435  1.00  0.00     0.000 C 
BRANCH  17  18
ATOM     18  C   UNL     1     -18.107   7.304  10.348  1.00  0.00    -0.000 C 
BRANCH  18  19
ATOM     19  C   UNL     1     -17.178   8.326   9.662  1.00  0.00    -0.000 C 
BRANCH  19  20
ATOM     20  C   UNL     1     -15.766   8.437  10.264  1.00  0.00    -0.000 C 
BRANCH  20  21
ATOM     21  C   UNL     1     -15.390   9.879  10.642  1.00  0.00    -0.000 C 
BRANCH  21  22
ATOM     22  C   UNL     1     -15.162  10.061  12.154  1.00  0.00    -0.000 C 
BRANCH  22  23
ATOM     23  C   UNL     1     -13.826  10.728  12.544  1.00  0.00    -0.000 C 
BRANCH  23  24
ATOM     24  C   UNL     1     -12.819  10.903  11.392  1.00  0.00    -0.000 C 
BRANCH  24  25
ATOM     25  C   UNL     1     -11.383  11.124  11.886  1.00  0.00    -0.003 C 
ATOM     26  C   UNL     1     -11.213  10.631  13.320  1.00  0.00     0.004 C 
ENDBRANCH  24  25
ENDBRANCH  23  24
ENDBRANCH  22  23
ENDBRANCH  21  22
ENDBRANCH  20  21
ENDBRANCH  19  20
ENDBRANCH  18  19
ENDBRANCH  17  18
ENDBRANCH  16  17
ENDBRANCH  15  16
ENDBRANCH   1  15
TORSDOF 22
ENDMDL
MODEL 5
REMARK VINA RESULT:    -1.060      7.374     12.151
REMARK INTER + INTRA:          -3.913
REMARK INTER:                  -2.245
REMARK INTRA:                  -1.668
REMARK UNBOUND:                -1.490
REMARK SMILES CCCCCCCCCCCCCCCCCCCCCCCC(=O)[O-]
REMARK SMILES IDX 13 1 14 2 15 3 16 4 17 5 18 6 19 7 20 8 21 9 22 10 23 11
REMARK SMILES IDX 24 12 25 13 26 14 12 15 11 16 10 17 9 18 8 19 7 20 6 21 5 22
REMARK SMILES IDX 4 23 3 24 2 25 1 26
REMARK H PARENT
REMARK Flexibility Score: inf
ROOT
ATOM      1  C   UNL     1     -19.141  -2.752   9.701  1.00  0.00     0.000 C 
ENDROOT
BRANCH   1   2
ATOM      2  C   UNL     1     -19.472  -3.585   8.451  1.00  0.00     0.000 C 
BRANCH   2   3
ATOM      3  C   UNL     1     -19.169  -5.079   8.644  1.00  0.00     0.000 C 
BRANCH   3   4
ATOM      4  C   UNL     1     -20.307  -5.819   9.368  1.00  0.00     0.000 C 
BRANCH   4   5
ATOM      5  C   UNL     1     -21.340  -6.408   8.393  1.00  0.00     0.000 C 
BRANCH   5   6
ATOM      6  C   UNL     1     -22.599  -6.920   9.114  1.00  0.00     0.000 C 
BRANCH   6   7
ATOM      7  C   UNL     1     -23.243  -8.120   8.404  1.00  0.00     0.000 C 
BRANCH   7   8
ATOM      8  C   UNL     1     -24.752  -7.940   8.183  1.00  0.00     0.000 C 
BRANCH   8   9
ATOM      9  C   UNL     1     -25.543  -9.092   8.816  1.00  0.00     0.000 C 
BRANCH   9  10
ATOM     10  C   UNL     1     -26.493  -8.577   9.904  1.00  0.00     0.006 C 
BRANCH  10  11
ATOM     11  C   UNL     1     -26.031  -7.220  10.442  1.00  0.00     0.053 C 
BRANCH  11  12
ATOM     12  C   UNL     1     -26.994  -6.707  11.466  1.00  0.00     0.041 C 
ATOM     13  O   UNL     1     -27.298  -7.415  12.461  1.00  0.00    -0.550 OA
ATOM     14  O   UNL     1     -27.518  -5.426  11.347  1.00  0.00    -0.550 OA
ENDBRANCH  11  12
ENDBRANCH  10  11
ENDBRANCH   9  10
ENDBRANCH   8   9
ENDBRANCH   7   8
ENDBRANCH   6   7
ENDBRANCH   5   6
ENDBRANCH   4   5
ENDBRANCH   3   4
ENDBRANCH   2   3
ENDBRANCH   1   2
BRANCH   1  15
ATOM     15  C   UNL     1     -20.381  -2.071  10.308  1.00  0.00     0.000 C 
BRANCH  15  16
ATOM     16  C   UNL     1     -20.724  -2.510  11.746  1.00  0.00     0.000 C 
BRANCH  16  17
ATOM     17  C   UNL     1     -20.283  -1.528  12.851  1.00  0.00     0.000 C 
BRANCH  17  18
ATOM     18  C   UNL     1     -21.426  -0.717  13.493  1.00  0.00    -0.000 C 
BRANCH  18  19
ATOM     19  C   UNL     1     -21.084   0.751  13.819  1.00  0.00    -0.000 C 
BRANCH  19  20
ATOM     20  C   UNL     1     -21.086   1.708  12.614  1.00  0.00    -0.000 C 
BRANCH  20  21
ATOM     21  C   UNL     1     -21.924   1.183  11.436  1.00  0.00    -0.000 C 
BRANCH  21  22
ATOM     22  C   UNL     1     -21.519   1.807  10.088  1.00  0.00    -0.000 C 
BRANCH  22  23
ATOM     23  C   UNL     1     -20.695   0.891   9.158  1.00  0.00    -0.000 C 
BRANCH  23  24
ATOM     24  C   UNL     1     -20.514   1.411   7.720  1.00  0.00    -0.000 C 
BRANCH  24  25
ATOM     25  C   UNL     1     -20.815   0.343   6.659  1.00  0.00    -0.003 C 
ATOM     26  C   UNL     1     -19.571  -0.483   6.343  1.00  0.00     0.004 C 
ENDBRANCH  24  25
ENDBRANCH  23  24
ENDBRANCH  22  23
ENDBRANCH  21  22
ENDBRANCH  20  21
ENDBRANCH  19  20
ENDBRANCH  18  19
ENDBRANCH  17  18
ENDBRANCH  16  17
ENDBRANCH  15  16
ENDBRANCH   1  15
TORSDOF 22
ENDMDL
MODEL 6
REMARK VINA RESULT:    -0.923      3.281      4.767
REMARK INTER + INTRA:          -3.600
REMARK INTER:                  -3.020
REMARK INTRA:                  -0.580
REMARK UNBOUND:                -1.490
REMARK SMILES CCCCCCCCCCCCCCCCCCCCCCCC(=O)[O-]
REMARK SMILES IDX 13 1 14 2 15 3 16 4 17 5 18 6 19 7 20 8 21 9 22 10 23 11
REMARK SMILES IDX 24 12 25 13 26 14 12 15 11 16 10 17 9 18 8 19 7 20 6 21 5 22
REMARK SMILES IDX 4 23 3 24 2 25 1 26
REMARK H PARENT
REMARK Flexibility Score: inf
ROOT
ATOM      1  C   UNL     1     -19.996   0.439   7.280  1.00  0.00     0.000 C 
ENDROOT
BRANCH   1   2
ATOM      2  C   UNL     1     -20.776   1.705   7.671  1.00  0.00     0.000 C 
BRANCH   2   3
ATOM      3  C   UNL     1     -21.203   1.698   9.148  1.00  0.00     0.000 C 
BRANCH   3   4
ATOM      4  C   UNL     1     -21.354   3.118   9.721  1.00  0.00     0.000 C 
BRANCH   4   5
ATOM      5  C   UNL     1     -22.048   4.078   8.740  1.00  0.00     0.000 C 
BRANCH   5   6
ATOM      6  C   UNL     1     -21.779   5.554   9.079  1.00  0.00     0.000 C 
BRANCH   6   7
ATOM      7  C   UNL     1     -20.555   5.741   9.988  1.00  0.00     0.000 C 
BRANCH   7   8
ATOM      8  C   UNL     1     -19.471   6.623   9.350  1.00  0.00     0.000 C 
BRANCH   8   9
ATOM      9  C   UNL     1     -18.370   6.960  10.363  1.00  0.00     0.000 C 
BRANCH   9  10
ATOM     10  C   UNL     1     -17.789   8.356  10.103  1.00  0.00     0.006 C 
BRANCH  10  11
ATOM     11  C   UNL     1     -16.296   8.278   9.769  1.00  0.00     0.053 C 
BRANCH  11  12
ATOM     12  C   UNL     1     -15.558   9.413  10.406  1.00  0.00     0.041 C 
ATOM     13  O   UNL     1     -15.564   9.551  11.657  1.00  0.00    -0.550 OA
ATOM     14  O   UNL     1     -14.821  10.291   9.621  1.00  0.00    -0.550 OA
ENDBRANCH  11  12
ENDBRANCH  10  11
ENDBRANCH   9  10
ENDBRANCH   8   9
ENDBRANCH   7   8
ENDBRANCH   6   7
ENDBRANCH   5   6
ENDBRANCH   4   5
ENDBRANCH   3   4
ENDBRANCH   2   3
ENDBRANCH   1   2
BRANCH   1  15
ATOM     15  C   UNL     1     -20.634  -0.848   7.834  1.00  0.00     0.000 C 
BRANCH  15  16
ATOM     16  C   UNL     1     -20.352  -1.123   9.324  1.00  0.00     0.000 C 
BRANCH  16  17
ATOM     17  C   UNL     1     -19.536  -2.400   9.610  1.00  0.00     0.000 C 
BRANCH  17  18
ATOM     18  C   UNL     1     -19.451  -3.394   8.434  1.00  0.00    -0.000 C 
BRANCH  18  19
ATOM     19  C   UNL     1     -18.593  -4.647   8.697  1.00  0.00    -0.000 C 
BRANCH  19  20
ATOM     20  C   UNL     1     -19.327  -5.991   8.533  1.00  0.00    -0.000 C 
BRANCH  20  21
ATOM     21  C   UNL     1     -20.840  -5.821   8.320  1.00  0.00    -0.000 C 
BRANCH  21  22
ATOM     22  C   UNL     1     -21.679  -6.530   9.400  1.00  0.00    -0.000 C 
BRANCH  22  23
ATOM     23  C   UNL     1     -23.083  -6.989   8.950  1.00  0.00    -0.000 C 
BRANCH  23  24
ATOM     24  C   UNL     1     -23.188  -8.470   8.542  1.00  0.00    -0.000 C 
BRANCH  24  25
ATOM     25  C   UNL     1     -24.517  -8.802   7.848  1.00  0.00    -0.003 C 
ATOM     26  C   UNL     1     -25.683  -8.727   8.830  1.00  0.00     0.004 C 
ENDBRANCH  24  25
ENDBRANCH  23  24
ENDBRANCH  22  23
ENDBRANCH  21  22
ENDBRANCH  20  21
ENDBRANCH  19  20
ENDBRANCH  18  19
ENDBRANCH  17  18
ENDBRANCH  16  17
ENDBRANCH  15  16
ENDBRANCH   1  15
TORSDOF 22
ENDMDL
MODEL 7
REMARK VINA RESULT:    -0.911      6.101      8.906
REMARK INTER + INTRA:          -3.574
REMARK INTER:                  -2.497
REMARK INTRA:                  -1.077
REMARK UNBOUND:                -1.490
REMARK SMILES CCCCCCCCCCCCCCCCCCCCCCCC(=O)[O-]
REMARK SMILES IDX 13 1 14 2 15 3 16 4 17 5 18 6 19 7 20 8 21 9 22 10 23 11
REMARK SMILES IDX 24 12 25 13 26 14 12 15 11 16 10 17 9 18 8 19 7 20 6 21 5 22
REMARK SMILES IDX 4 23 3 24 2 25 1 26
REMARK H PARENT
REMARK Flexibility Score: inf
ROOT
ATOM      1  C   UNL     1     -20.024  -3.388   9.515  1.00  0.00     0.000 C 
ENDROOT
BRANCH   1   2
ATOM      2  C   UNL     1     -19.435  -1.981   9.709  1.00  0.00     0.000 C 
BRANCH   2   3
ATOM      3  C   UNL     1     -20.332  -0.883   9.117  1.00  0.00     0.000 C 
BRANCH   3   4
ATOM      4  C   UNL     1     -20.372  -0.924   7.579  1.00  0.00     0.000 C 
BRANCH   4   5
ATOM      5  C   UNL     1     -20.775   0.427   6.965  1.00  0.00     0.000 C 
BRANCH   5   6
ATOM      6  C   UNL     1     -20.274   1.620   7.797  1.00  0.00     0.000 C 
BRANCH   6   7
ATOM      7  C   UNL     1     -21.420   2.457   8.384  1.00  0.00     0.000 C 
BRANCH   7   8
ATOM      8  C   UNL     1     -21.326   2.607   9.910  1.00  0.00     0.000 C 
BRANCH   8   9
ATOM      9  C   UNL     1     -21.894   1.371  10.620  1.00  0.00     0.000 C 
BRANCH   9  10
ATOM     10  C   UNL     1     -21.475   1.341  12.095  1.00  0.00     0.006 C 
BRANCH  10  11
ATOM     11  C   UNL     1     -21.045  -0.067  12.517  1.00  0.00     0.053 C 
BRANCH  11  12
ATOM     12  C   UNL     1     -21.182  -0.235  13.997  1.00  0.00     0.041 C 
ATOM     13  O   UNL     1     -22.290  -0.559  14.499  1.00  0.00    -0.550 OA
ATOM     14  O   UNL     1     -20.073  -0.081  14.820  1.00  0.00    -0.550 OA
ENDBRANCH  11  12
ENDBRANCH  10  11
ENDBRANCH   9  10
ENDBRANCH   8   9
ENDBRANCH   7   8
ENDBRANCH   6   7
ENDBRANCH   5   6
ENDBRANCH   4   5
ENDBRANCH   3   4
ENDBRANCH   2   3
ENDBRANCH   1   2
BRANCH   1  15
ATOM     15  C   UNL     1     -19.068  -4.336   8.768  1.00  0.00     0.000 C 
BRANCH  15  16
ATOM     16  C   UNL     1     -19.531  -5.805   8.701  1.00  0.00     0.000 C 
BRANCH  16  17
ATOM     17  C   UNL     1     -20.967  -6.013   8.176  1.00  0.00     0.000 C 
BRANCH  17  18
ATOM     18  C   UNL     1     -21.872  -6.870   9.084  1.00  0.00    -0.000 C 
BRANCH  18  19
ATOM     19  C   UNL     1     -23.259  -7.203   8.498  1.00  0.00    -0.000 C 
BRANCH  19  20
ATOM     20  C   UNL     1     -23.610  -8.701   8.455  1.00  0.00    -0.000 C 
BRANCH  20  21
ATOM     21  C   UNL     1     -25.050  -8.963   7.985  1.00  0.00    -0.000 C 
BRANCH  21  22
ATOM     22  C   UNL     1     -26.041  -9.125   9.152  1.00  0.00    -0.000 C 
BRANCH  22  23
ATOM     23  C   UNL     1     -26.277  -7.856   9.999  1.00  0.00    -0.000 C 
BRANCH  23  24
ATOM     24  C   UNL     1     -27.072  -8.074  11.299  1.00  0.00    -0.000 C 
BRANCH  24  25
ATOM     25  C   UNL     1     -26.987  -6.877  12.256  1.00  0.00    -0.003 C 
ATOM     26  C   UNL     1     -27.696  -5.657  11.675  1.00  0.00     0.004 C 
ENDBRANCH  24  25
ENDBRANCH  23  24
ENDBRANCH  22  23
ENDBRANCH  21  22
ENDBRANCH  20  21
ENDBRANCH  19  20
ENDBRANCH  18  19
ENDBRANCH  17  18
ENDBRANCH  16  17
ENDBRANCH  15  16
ENDBRANCH   1  15
TORSDOF 22
ENDMDL
MODEL 8
REMARK VINA RESULT:    -0.789      5.695      8.732
REMARK INTER + INTRA:          -3.294
REMARK INTER:                  -1.685
REMARK INTRA:                  -1.609
REMARK UNBOUND:                -1.490
REMARK SMILES CCCCCCCCCCCCCCCCCCCCCCCC(=O)[O-]
REMARK SMILES IDX 13 1 14 2 15 3 16 4 17 5 18 6 19 7 20 8 21 9 22 10 23 11
REMARK SMILES IDX 24 12 25 13 26 14 12 15 11 16 10 17 9 18 8 19 7 20 6 21 5 22
REMARK SMILES IDX 4 23 3 24 2 25 1 26
REMARK H PARENT
REMARK Flexibility Score: inf
ROOT
ATOM      1  C   UNL     1     -19.209  -2.624   9.956  1.00  0.00     0.000 C 
ENDROOT
BRANCH   1   2
ATOM      2  C   UNL     1     -20.399  -2.317  10.882  1.00  0.00     0.000 C 
BRANCH   2   3
ATOM      3  C   UNL     1     -19.958  -1.703  12.219  1.00  0.00     0.000 C 
BRANCH   3   4
ATOM      4  C   UNL     1     -21.036  -1.834  13.309  1.00  0.00     0.000 C 
BRANCH   4   5
ATOM      5  C   UNL     1     -21.734  -0.497  13.610  1.00  0.00     0.000 C 
BRANCH   5   6
ATOM      6  C   UNL     1     -20.769   0.698  13.524  1.00  0.00     0.000 C 
BRANCH   6   7
ATOM      7  C   UNL     1     -21.164   1.703  12.432  1.00  0.00     0.000 C 
BRANCH   7   8
ATOM      8  C   UNL     1     -21.612   1.020  11.131  1.00  0.00     0.000 C 
BRANCH   8   9
ATOM      9  C   UNL     1     -22.015   2.058  10.075  1.00  0.00     0.000 C 
BRANCH   9  10
ATOM     10  C   UNL     1     -21.172   1.907   8.803  1.00  0.00     0.006 C 
BRANCH  10  11
ATOM     11  C   UNL     1     -20.478   0.542   8.760  1.00  0.00     0.053 C 
BRANCH  11  12
ATOM     12  C   UNL     1     -20.381   0.049   7.351  1.00  0.00     0.041 C 
ATOM     13  O   UNL     1     -19.572   0.581   6.547  1.00  0.00    -0.550 OA
ATOM     14  O   UNL     1     -21.149  -1.033   6.938  1.00  0.00    -0.550 OA
ENDBRANCH  11  12
ENDBRANCH  10  11
ENDBRANCH   9  10
ENDBRANCH   8   9
ENDBRANCH   7   8
ENDBRANCH   6   7
ENDBRANCH   5   6
ENDBRANCH   4   5
ENDBRANCH   3   4
ENDBRANCH   2   3
ENDBRANCH   1   2
BRANCH   1  15
ATOM     15  C   UNL     1     -19.608  -3.473   8.736  1.00  0.00     0.000 C 
BRANCH  15  16
ATOM     16  C   UNL     1     -18.961  -4.872   8.679  1.00  0.00     0.000 C 
BRANCH  16  17
ATOM     17  C   UNL     1     -19.877  -6.033   9.115  1.00  0.00     0.000 C 
BRANCH  17  18
ATOM     18  C   UNL     1     -21.214  -6.129   8.353  1.00  0.00    -0.000 C 
BRANCH  18  19
ATOM     19  C   UNL     1     -22.341  -6.874   9.096  1.00  0.00    -0.000 C 
BRANCH  19  20
ATOM     20  C   UNL     1     -22.934  -8.081   8.348  1.00  0.00    -0.000 C 
BRANCH  20  21
ATOM     21  C   UNL     1     -24.421  -7.898   8.004  1.00  0.00    -0.000 C 
BRANCH  21  22
ATOM     22  C   UNL     1     -25.295  -9.072   8.482  1.00  0.00    -0.000 C 
BRANCH  22  23
ATOM     23  C   UNL     1     -26.303  -8.732   9.600  1.00  0.00    -0.000 C 
BRANCH  23  24
ATOM     24  C   UNL     1     -26.032  -7.415  10.349  1.00  0.00    -0.000 C 
BRANCH  24  25
ATOM     25  C   UNL     1     -26.927  -7.238  11.584  1.00  0.00    -0.003 C 
ATOM     26  C   UNL     1     -27.539  -5.841  11.623  1.00  0.00     0.004 C 
ENDBRANCH  24  25
ENDBRANCH  23  24
ENDBRANCH  22  23
ENDBRANCH  21  22
ENDBRANCH  20  21
ENDBRANCH  19  20
ENDBRANCH  18  19
ENDBRANCH  17  18
ENDBRANCH  16  17
ENDBRANCH  15  16
ENDBRANCH   1  15
TORSDOF 22
ENDMDL
MODEL 9
REMARK VINA RESULT:    -0.651      1.394      3.919
REMARK INTER + INTRA:          -2.977
REMARK INTER:                  -2.385
REMARK INTRA:                  -0.592
REMARK UNBOUND:                -1.490
REMARK SMILES CCCCCCCCCCCCCCCCCCCCCCCC(=O)[O-]
REMARK SMILES IDX 13 1 14 2 15 3 16 4 17 5 18 6 19 7 20 8 21 9 22 10 23 11
REMARK SMILES IDX 24 12 25 13 26 14 12 15 11 16 10 17 9 18 8 19 7 20 6 21 5 22
REMARK SMILES IDX 4 23 3 24 2 25 1 26
REMARK H PARENT
REMARK Flexibility Score: inf
ROOT
ATOM      1  C   UNL     1     -22.125   4.030   8.813  1.00  0.00     0.000 C 
ENDROOT
BRANCH   1   2
ATOM      2  C   UNL     1     -21.771   5.526   8.783  1.00  0.00     0.000 C 
BRANCH   2   3
ATOM      3  C   UNL     1     -20.791   5.919   9.900  1.00  0.00     0.000 C 
BRANCH   3   4
ATOM      4  C   UNL     1     -19.439   6.405   9.351  1.00  0.00     0.000 C 
BRANCH   4   5
ATOM      5  C   UNL     1     -18.507   6.925  10.458  1.00  0.00     0.000 C 
BRANCH   5   6
ATOM      6  C   UNL     1     -17.852   8.267  10.088  1.00  0.00     0.000 C 
BRANCH   6   7
ATOM      7  C   UNL     1     -16.355   8.130   9.773  1.00  0.00     0.000 C 
BRANCH   7   8
ATOM      8  C   UNL     1     -15.649   9.488   9.639  1.00  0.00     0.000 C 
BRANCH   8   9
ATOM      9  C   UNL     1     -15.133   9.977  10.997  1.00  0.00     0.000 C 
BRANCH   9  10
ATOM     10  C   UNL     1     -14.125  11.120  10.825  1.00  0.00     0.006 C 
BRANCH  10  11
ATOM     11  C   UNL     1     -13.094  11.121  11.957  1.00  0.00     0.053 C 
BRANCH  11  12
ATOM     12  C   UNL     1     -13.759  10.863  13.273  1.00  0.00     0.041 C 
ATOM     13  O   UNL     1     -13.087  10.450  14.253  1.00  0.00    -0.550 OA
ATOM     14  O   UNL     1     -15.114  11.125  13.429  1.00  0.00    -0.550 OA
ENDBRANCH  11  12
ENDBRANCH  10  11
ENDBRANCH   9  10
ENDBRANCH   8   9
ENDBRANCH   7   8
ENDBRANCH   6   7
ENDBRANCH   5   6
ENDBRANCH   4   5
ENDBRANCH   3   4
ENDBRANCH   2   3
ENDBRANCH   1   2
BRANCH   1  15
ATOM     15  C   UNL     1     -21.611   3.321  10.079  1.00  0.00     0.000 C 
BRANCH  15  16
ATOM     16  C   UNL     1     -21.149   1.866   9.866  1.00  0.00     0.000 C 
BRANCH  16  17
ATOM     17  C   UNL     1     -21.544   1.247   8.509  1.00  0.00     0.000 C 
BRANCH  17  18
ATOM     18  C   UNL     1     -20.575   1.552   7.350  1.00  0.00    -0.000 C 
BRANCH  18  19
ATOM     19  C   UNL     1     -19.359   0.609   7.247  1.00  0.00    -0.000 C 
BRANCH  19  20
ATOM     20  C   UNL     1     -19.630  -0.734   6.545  1.00  0.00    -0.000 C 
BRANCH  20  21
ATOM     21  C   UNL     1     -20.463  -1.699   7.404  1.00  0.00    -0.000 C 
BRANCH  21  22
ATOM     22  C   UNL     1     -19.617  -2.818   8.038  1.00  0.00    -0.000 C 
BRANCH  22  23
ATOM     23  C   UNL     1     -19.284  -2.627   9.534  1.00  0.00    -0.000 C 
BRANCH  23  24
ATOM     24  C   UNL     1     -20.236  -1.693  10.302  1.00  0.00    -0.000 C 
BRANCH  24  25
ATOM     25  C   UNL     1     -20.274  -1.991  11.808  1.00  0.00    -0.003 C 
ATOM     26  C   UNL     1     -20.718  -0.764  12.600  1.00  0.00     0.004 C 
ENDBRANCH  24  25
ENDBRANCH  23  24
ENDBRANCH  22  23
ENDBRANCH  21  22
ENDBRANCH  20  21
ENDBRANCH  19  20
ENDBRANCH  18  19
ENDBRANCH  17  18
ENDBRANCH  16  17
ENDBRANCH  15  16
ENDBRANCH   1  15
TORSDOF 22
ENDMDL
