MODEL 1
REMARK VINA RESULT:    -3.043      0.000      0.000
REMARK INTER + INTRA:         -13.923
REMARK INTER:                  -8.024
REMARK INTRA:                  -5.899
REMARK UNBOUND:                -5.899
REMARK SMILES CCCCCCCCCCCCCCCCCCCCCCCCCCCCCC(=O)[O-]
REMARK SMILES IDX 16 1 17 2 18 3 19 4 20 5 21 6 22 7 23 8 24 9 25 10 26 11
REMARK SMILES IDX 27 12 28 13 29 14 30 15 31 16 32 17 15 18 14 19 13 20 12 21
REMARK SMILES IDX 11 22 10 23 9 24 8 25 7 26 6 27 5 28 4 29 3 30 2 31 1 32
REMARK H PARENT
REMARK Flexibility Score: inf
ROOT
ATOM      1  C   UNL     1     166.981 155.297 161.884  1.00  0.00     0.000 C 
ENDROOT
BRANCH   1   2
ATOM      2  C   UNL     1     165.730 154.579 162.445  1.00  0.00     0.000 C 
BRANCH   2   3
ATOM      3  C   UNL     1     166.028 153.559 163.563  1.00  0.00     0.000 C 
BRANCH   3   4
ATOM      4  C   UNL     1     165.193 153.813 164.832  1.00  0.00     0.000 C 
BRANCH   4   5
ATOM      5  C   UNL     1     164.977 155.319 165.093  1.00  0.00     0.000 C 
BRANCH   5   6
ATOM      6  C   UNL     1     164.039 155.613 166.283  1.00  0.00     0.000 C 
BRANCH   6   7
ATOM      7  C   UNL     1     163.201 156.896 166.145  1.00  0.00     0.000 C 
BRANCH   7   8
ATOM      8  C   UNL     1     161.800 156.632 165.571  1.00  0.00     0.000 C 
BRANCH   8   9
ATOM      9  C   UNL     1     161.740 156.802 164.040  1.00  0.00     0.000 C 
BRANCH   9  10
ATOM     10  C   UNL     1     161.779 155.484 163.236  1.00  0.00     0.000 C 
BRANCH  10  11
ATOM     11  C   UNL     1     161.439 154.211 164.040  1.00  0.00     0.000 C 
BRANCH  11  12
ATOM     12  C   UNL     1     160.380 153.304 163.391  1.00  0.00     0.000 C 
BRANCH  12  13
ATOM     13  C   UNL     1     160.831 151.838 163.310  1.00  0.00     0.006 C 
BRANCH  13  14
ATOM     14  C   UNL     1     162.272 151.674 163.797  1.00  0.00     0.053 C 
BRANCH  14  15
ATOM     15  C   UNL     1     162.483 150.318 164.400  1.00  0.00     0.041 C 
ATOM     16  O   UNL     1     161.521 149.509 164.502  1.00  0.00    -0.550 OA
ATOM     17  O   UNL     1     163.744 149.953 164.864  1.00  0.00    -0.550 OA
ENDBRANCH  14  15
ENDBRANCH  13  14
ENDBRANCH  12  13
ENDBRANCH  11  12
ENDBRANCH  10  11
ENDBRANCH   9  10
ENDBRANCH   8   9
ENDBRANCH   7   8
ENDBRANCH   6   7
ENDBRANCH   5   6
ENDBRANCH   4   5
ENDBRANCH   3   4
ENDBRANCH   2   3
ENDBRANCH   1   2
BRANCH   1  18
ATOM     18  C   UNL     1     167.377 154.904 160.440  1.00  0.00     0.000 C 
BRANCH  18  19
ATOM     19  C   UNL     1     166.381 153.975 159.724  1.00  0.00     0.000 C 
BRANCH  19  20
ATOM     20  C   UNL     1     165.553 154.704 158.651  1.00  0.00     0.000 C 
BRANCH  20  21
ATOM     21  C   UNL     1     165.593 153.988 157.289  1.00  0.00     0.000 C 
BRANCH  21  22
ATOM     22  C   UNL     1     165.677 152.448 157.385  1.00  0.00     0.000 C 
BRANCH  22  23
ATOM     23  C   UNL     1     164.536 151.712 156.643  1.00  0.00     0.000 C 
BRANCH  23  24
ATOM     24  C   UNL     1     163.325 151.423 157.548  1.00  0.00    -0.000 C 
BRANCH  24  25
ATOM     25  C   UNL     1     163.710 151.282 159.029  1.00  0.00    -0.000 C 
BRANCH  25  26
ATOM     26  C   UNL     1     162.607 151.759 159.999  1.00  0.00    -0.000 C 
BRANCH  26  27
ATOM     27  C   UNL     1     162.901 153.168 160.551  1.00  0.00    -0.000 C 
BRANCH  27  28
ATOM     28  C   UNL     1     162.038 154.264 159.890  1.00  0.00    -0.000 C 
BRANCH  28  29
ATOM     29  C   UNL     1     160.746 153.738 159.240  1.00  0.00    -0.000 C 
BRANCH  29  30
ATOM     30  C   UNL     1     160.671 154.028 157.734  1.00  0.00    -0.000 C 
BRANCH  30  31
ATOM     31  C   UNL     1     161.885 154.842 157.264  1.00  0.00    -0.003 C 
ATOM     32  C   UNL     1     162.214 154.541 155.803  1.00  0.00     0.004 C 
ENDBRANCH  30  31
ENDBRANCH  29  30
ENDBRANCH  28  29
ENDBRANCH  27  28
ENDBRANCH  26  27
ENDBRANCH  25  26
ENDBRANCH  24  25
ENDBRANCH  23  24
ENDBRANCH  22  23
ENDBRANCH  21  22
ENDBRANCH  20  21
ENDBRANCH  19  20
ENDBRANCH  18  19
ENDBRANCH   1  18
TORSDOF 28
ENDMDL
MODEL 2
REMARK VINA RESULT:    -3.026      3.627      7.545
REMARK INTER + INTRA:         -13.878
REMARK INTER:                  -8.232
REMARK INTRA:                  -5.646
REMARK UNBOUND:                -5.899
REMARK SMILES CCCCCCCCCCCCCCCCCCCCCCCCCCCCCC(=O)[O-]
REMARK SMILES IDX 16 1 17 2 18 3 19 4 20 5 21 6 22 7 23 8 24 9 25 10 26 11
REMARK SMILES IDX 27 12 28 13 29 14 30 15 31 16 32 17 15 18 14 19 13 20 12 21
REMARK SMILES IDX 11 22 10 23 9 24 8 25 7 26 6 27 5 28 4 29 3 30 2 31 1 32
REMARK H PARENT
REMARK Flexibility Score: inf
ROOT
ATOM      1  C   UNL     1     161.897 154.535 160.894  1.00  0.00     0.000 C 
ENDROOT
BRANCH   1   2
ATOM      2  C   UNL     1     161.627 153.011 160.923  1.00  0.00     0.000 C 
BRANCH   2   3
ATOM      3  C   UNL     1     160.251 152.598 160.362  1.00  0.00     0.000 C 
BRANCH   3   4
ATOM      4  C   UNL     1     159.149 152.606 161.437  1.00  0.00     0.000 C 
BRANCH   4   5
ATOM      5  C   UNL     1     159.198 151.347 162.329  1.00  0.00     0.000 C 
BRANCH   5   6
ATOM      6  C   UNL     1     158.721 151.594 163.776  1.00  0.00     0.000 C 
BRANCH   6   7
ATOM      7  C   UNL     1     158.183 153.009 164.048  1.00  0.00     0.000 C 
BRANCH   7   8
ATOM      8  C   UNL     1     156.705 153.012 164.472  1.00  0.00     0.000 C 
BRANCH   8   9
ATOM      9  C   UNL     1     155.748 152.698 163.304  1.00  0.00     0.000 C 
BRANCH   9  10
ATOM     10  C   UNL     1     155.655 153.797 162.224  1.00  0.00     0.000 C 
BRANCH  10  11
ATOM     11  C   UNL     1     155.100 153.334 160.860  1.00  0.00     0.000 C 
BRANCH  11  12
ATOM     12  C   UNL     1     155.774 152.078 160.283  1.00  0.00     0.000 C 
BRANCH  12  13
ATOM     13  C   UNL     1     156.287 152.292 158.850  1.00  0.00     0.006 C 
BRANCH  13  14
ATOM     14  C   UNL     1     156.992 153.643 158.710  1.00  0.00     0.053 C 
BRANCH  14  15
ATOM     15  C   UNL     1     157.629 153.777 157.360  1.00  0.00     0.041 C 
ATOM     16  O   UNL     1     158.881 153.877 157.254  1.00  0.00    -0.550 OA
ATOM     17  O   UNL     1     156.835 153.807 156.216  1.00  0.00    -0.550 OA
ENDBRANCH  14  15
ENDBRANCH  13  14
ENDBRANCH  12  13
ENDBRANCH  11  12
ENDBRANCH  10  11
ENDBRANCH   9  10
ENDBRANCH   8   9
ENDBRANCH   7   8
ENDBRANCH   6   7
ENDBRANCH   5   6
ENDBRANCH   4   5
ENDBRANCH   3   4
ENDBRANCH   2   3
ENDBRANCH   1   2
BRANCH   1  18
ATOM     18  C   UNL     1     162.109 155.196 162.278  1.00  0.00     0.000 C 
BRANCH  18  19
ATOM     19  C   UNL     1     161.654 154.346 163.479  1.00  0.00     0.000 C 
BRANCH  19  20
ATOM     20  C   UNL     1     161.025 155.192 164.601  1.00  0.00     0.000 C 
BRANCH  20  21
ATOM     21  C   UNL     1     161.064 156.700 164.294  1.00  0.00     0.000 C 
BRANCH  21  22
ATOM     22  C   UNL     1     161.713 157.557 165.403  1.00  0.00     0.000 C 
BRANCH  22  23
ATOM     23  C   UNL     1     163.113 157.063 165.839  1.00  0.00     0.000 C 
BRANCH  23  24
ATOM     24  C   UNL     1     164.176 157.240 164.740  1.00  0.00    -0.000 C 
BRANCH  24  25
ATOM     25  C   UNL     1     165.054 155.992 164.556  1.00  0.00    -0.000 C 
BRANCH  25  26
ATOM     26  C   UNL     1     164.650 154.817 165.474  1.00  0.00    -0.000 C 
BRANCH  26  27
ATOM     27  C   UNL     1     165.262 153.484 164.999  1.00  0.00    -0.000 C 
BRANCH  27  28
ATOM     28  C   UNL     1     165.175 153.294 163.469  1.00  0.00    -0.000 C 
BRANCH  28  29
ATOM     29  C   UNL     1     164.486 151.988 163.038  1.00  0.00    -0.000 C 
BRANCH  29  30
ATOM     30  C   UNL     1     163.845 151.231 164.210  1.00  0.00    -0.000 C 
BRANCH  30  31
ATOM     31  C   UNL     1     162.375 150.898 163.918  1.00  0.00    -0.003 C 
ATOM     32  C   UNL     1     161.974 149.577 164.570  1.00  0.00     0.004 C 
ENDBRANCH  30  31
ENDBRANCH  29  30
ENDBRANCH  28  29
ENDBRANCH  27  28
ENDBRANCH  26  27
ENDBRANCH  25  26
ENDBRANCH  24  25
ENDBRANCH  23  24
ENDBRANCH  22  23
ENDBRANCH  21  22
ENDBRANCH  20  21
ENDBRANCH  19  20
ENDBRANCH  18  19
ENDBRANCH   1  18
TORSDOF 28
ENDMDL
MODEL 3
REMARK VINA RESULT:    -3.009      2.413      5.233
REMARK INTER + INTRA:         -13.834
REMARK INTER:                  -9.305
REMARK INTRA:                  -4.528
REMARK UNBOUND:                -5.899
REMARK SMILES CCCCCCCCCCCCCCCCCCCCCCCCCCCCCC(=O)[O-]
REMARK SMILES IDX 16 1 17 2 18 3 19 4 20 5 21 6 22 7 23 8 24 9 25 10 26 11
REMARK SMILES IDX 27 12 28 13 29 14 30 15 31 16 32 17 15 18 14 19 13 20 12 21
REMARK SMILES IDX 11 22 10 23 9 24 8 25 7 26 6 27 5 28 4 29 3 30 2 31 1 32
REMARK H PARENT
REMARK Flexibility Score: inf
ROOT
ATOM      1  C   UNL     1     162.088 156.473 164.946  1.00  0.00     0.000 C 
ENDROOT
BRANCH   1   2
ATOM      2  C   UNL     1     162.779 156.113 166.283  1.00  0.00     0.000 C 
BRANCH   2   3
ATOM      3  C   UNL     1     164.213 155.565 166.132  1.00  0.00     0.000 C 
BRANCH   3   4
ATOM      4  C   UNL     1     164.903 156.063 164.849  1.00  0.00     0.000 C 
BRANCH   4   5
ATOM      5  C   UNL     1     166.419 155.771 164.854  1.00  0.00     0.000 C 
BRANCH   5   6
ATOM      6  C   UNL     1     167.185 156.453 163.700  1.00  0.00     0.000 C 
BRANCH   6   7
ATOM      7  C   UNL     1     167.999 155.498 162.811  1.00  0.00     0.000 C 
BRANCH   7   8
ATOM      8  C   UNL     1     167.716 155.693 161.313  1.00  0.00     0.000 C 
BRANCH   8   9
ATOM      9  C   UNL     1     166.885 154.543 160.707  1.00  0.00     0.000 C 
BRANCH   9  10
ATOM     10  C   UNL     1     165.781 153.982 161.627  1.00  0.00     0.000 C 
BRANCH  10  11
ATOM     11  C   UNL     1     165.950 152.502 162.032  1.00  0.00     0.000 C 
BRANCH  11  12
ATOM     12  C   UNL     1     164.733 151.886 162.743  1.00  0.00     0.000 C 
BRANCH  12  13
ATOM     13  C   UNL     1     164.504 152.482 164.140  1.00  0.00     0.006 C 
BRANCH  13  14
ATOM     14  C   UNL     1     165.657 152.139 165.085  1.00  0.00     0.053 C 
BRANCH  14  15
ATOM     15  C   UNL     1     165.665 150.676 165.411  1.00  0.00     0.041 C 
ATOM     16  O   UNL     1     164.707 150.160 166.048  1.00  0.00    -0.550 OA
ATOM     17  O   UNL     1     166.742 149.882 165.023  1.00  0.00    -0.550 OA
ENDBRANCH  14  15
ENDBRANCH  13  14
ENDBRANCH  12  13
ENDBRANCH  11  12
ENDBRANCH  10  11
ENDBRANCH   9  10
ENDBRANCH   8   9
ENDBRANCH   7   8
ENDBRANCH   6   7
ENDBRANCH   5   6
ENDBRANCH   4   5
ENDBRANCH   3   4
ENDBRANCH   2   3
ENDBRANCH   1   2
BRANCH   1  18
ATOM     18  C   UNL     1     161.003 155.476 164.473  1.00  0.00     0.000 C 
BRANCH  18  19
ATOM     19  C   UNL     1     161.472 154.460 163.416  1.00  0.00     0.000 C 
BRANCH  19  20
ATOM     20  C   UNL     1     162.498 155.055 162.433  1.00  0.00     0.000 C 
BRANCH  20  21
ATOM     21  C   UNL     1     162.088 154.854 160.963  1.00  0.00     0.000 C 
BRANCH  21  22
ATOM     22  C   UNL     1     161.804 153.384 160.580  1.00  0.00     0.000 C 
BRANCH  22  23
ATOM     23  C   UNL     1     162.858 152.770 159.628  1.00  0.00     0.000 C 
BRANCH  23  24
ATOM     24  C   UNL     1     163.125 153.643 158.389  1.00  0.00    -0.000 C 
BRANCH  24  25
ATOM     25  C   UNL     1     164.613 153.695 158.009  1.00  0.00    -0.000 C 
BRANCH  25  26
ATOM     26  C   UNL     1     164.986 154.927 157.156  1.00  0.00    -0.000 C 
BRANCH  26  27
ATOM     27  C   UNL     1     166.507 155.177 157.147  1.00  0.00    -0.000 C 
BRANCH  27  28
ATOM     28  C   UNL     1     167.080 155.346 155.723  1.00  0.00    -0.000 C 
BRANCH  28  29
ATOM     29  C   UNL     1     167.408 156.801 155.348  1.00  0.00    -0.000 C 
BRANCH  29  30
ATOM     30  C   UNL     1     166.178 157.593 154.880  1.00  0.00    -0.000 C 
BRANCH  30  31
ATOM     31  C   UNL     1     166.467 159.100 154.850  1.00  0.00    -0.003 C 
ATOM     32  C   UNL     1     167.204 159.491 153.571  1.00  0.00     0.004 C 
ENDBRANCH  30  31
ENDBRANCH  29  30
ENDBRANCH  28  29
ENDBRANCH  27  28
ENDBRANCH  26  27
ENDBRANCH  25  26
ENDBRANCH  24  25
ENDBRANCH  23  24
ENDBRANCH  22  23
ENDBRANCH  21  22
ENDBRANCH  20  21
ENDBRANCH  19  20
ENDBRANCH  18  19
ENDBRANCH   1  18
TORSDOF 28
ENDMDL
MODEL 4
REMARK VINA RESULT:    -3.005      3.038      7.300
REMARK INTER + INTRA:         -13.822
REMARK INTER:                  -9.099
REMARK INTRA:                  -4.723
REMARK UNBOUND:                -5.899
REMARK SMILES CCCCCCCCCCCCCCCCCCCCCCCCCCCCCC(=O)[O-]
REMARK SMILES IDX 16 1 17 2 18 3 19 4 20 5 21 6 22 7 23 8 24 9 25 10 26 11
REMARK SMILES IDX 27 12 28 13 29 14 30 15 31 16 32 17 15 18 14 19 13 20 12 21
REMARK SMILES IDX 11 22 10 23 9 24 8 25 7 26 6 27 5 28 4 29 3 30 2 31 1 32
REMARK H PARENT
REMARK Flexibility Score: inf
ROOT
ATOM      1  C   UNL     1     162.075 153.530 163.700  1.00  0.00     0.000 C 
ENDROOT
BRANCH   1   2
ATOM      2  C   UNL     1     161.806 154.704 162.728  1.00  0.00     0.000 C 
BRANCH   2   3
ATOM      3  C   UNL     1     161.794 156.094 163.395  1.00  0.00     0.000 C 
BRANCH   3   4
ATOM      4  C   UNL     1     161.489 156.022 164.903  1.00  0.00     0.000 C 
BRANCH   4   5
ATOM      5  C   UNL     1     162.478 156.865 165.737  1.00  0.00     0.000 C 
BRANCH   5   6
ATOM      6  C   UNL     1     163.424 156.020 166.615  1.00  0.00     0.000 C 
BRANCH   6   7
ATOM      7  C   UNL     1     164.560 155.317 165.853  1.00  0.00     0.000 C 
BRANCH   7   8
ATOM      8  C   UNL     1     165.160 156.192 164.739  1.00  0.00     0.000 C 
BRANCH   8   9
ATOM      9  C   UNL     1     166.106 155.408 163.808  1.00  0.00     0.000 C 
BRANCH   9  10
ATOM     10  C   UNL     1     165.727 153.927 163.590  1.00  0.00     0.000 C 
BRANCH  10  11
ATOM     11  C   UNL     1     165.426 153.532 162.129  1.00  0.00     0.000 C 
BRANCH  11  12
ATOM     12  C   UNL     1     166.082 154.434 161.070  1.00  0.00     0.000 C 
BRANCH  12  13
ATOM     13  C   UNL     1     165.112 154.819 159.942  1.00  0.00     0.006 C 
BRANCH  13  14
ATOM     14  C   UNL     1     163.880 153.912 159.938  1.00  0.00     0.053 C 
BRANCH  14  15
ATOM     15  C   UNL     1     162.823 154.448 159.021  1.00  0.00     0.041 C 
ATOM     16  O   UNL     1     161.627 154.066 159.134  1.00  0.00    -0.550 OA
ATOM     17  O   UNL     1     163.163 155.364 158.028  1.00  0.00    -0.550 OA
ENDBRANCH  14  15
ENDBRANCH  13  14
ENDBRANCH  12  13
ENDBRANCH  11  12
ENDBRANCH  10  11
ENDBRANCH   9  10
ENDBRANCH   8   9
ENDBRANCH   7   8
ENDBRANCH   6   7
ENDBRANCH   5   6
ENDBRANCH   4   5
ENDBRANCH   3   4
ENDBRANCH   2   3
ENDBRANCH   1   2
BRANCH   1  18
ATOM     18  C   UNL     1     160.971 152.447 163.753  1.00  0.00     0.000 C 
BRANCH  18  19
ATOM     19  C   UNL     1     160.254 152.186 162.416  1.00  0.00     0.000 C 
BRANCH  19  20
ATOM     20  C   UNL     1     158.744 152.476 162.483  1.00  0.00     0.000 C 
BRANCH  20  21
ATOM     21  C   UNL     1     158.291 152.906 163.890  1.00  0.00     0.000 C 
BRANCH  21  22
ATOM     22  C   UNL     1     156.758 152.923 164.085  1.00  0.00     0.000 C 
BRANCH  22  23
ATOM     23  C   UNL     1     156.274 152.118 165.315  1.00  0.00     0.000 C 
BRANCH  23  24
ATOM     24  C   UNL     1     156.308 150.597 165.084  1.00  0.00    -0.000 C 
BRANCH  24  25
ATOM     25  C   UNL     1     157.112 149.851 166.160  1.00  0.00    -0.000 C 
BRANCH  25  26
ATOM     26  C   UNL     1     158.133 148.848 165.579  1.00  0.00    -0.000 C 
BRANCH  26  27
ATOM     27  C   UNL     1     159.374 149.561 165.007  1.00  0.00    -0.000 C 
BRANCH  27  28
ATOM     28  C   UNL     1     160.570 148.608 164.797  1.00  0.00    -0.000 C 
BRANCH  28  29
ATOM     29  C   UNL     1     161.451 148.423 166.044  1.00  0.00    -0.000 C 
BRANCH  29  30
ATOM     30  C   UNL     1     162.930 148.750 165.789  1.00  0.00    -0.000 C 
BRANCH  30  31
ATOM     31  C   UNL     1     163.098 149.627 164.541  1.00  0.00    -0.003 C 
ATOM     32  C   UNL     1     164.312 150.543 164.675  1.00  0.00     0.004 C 
ENDBRANCH  30  31
ENDBRANCH  29  30
ENDBRANCH  28  29
ENDBRANCH  27  28
ENDBRANCH  26  27
ENDBRANCH  25  26
ENDBRANCH  24  25
ENDBRANCH  23  24
ENDBRANCH  22  23
ENDBRANCH  21  22
ENDBRANCH  20  21
ENDBRANCH  19  20
ENDBRANCH  18  19
ENDBRANCH   1  18
TORSDOF 28
ENDMDL
MODEL 5
REMARK VINA RESULT:    -3.002      4.871      9.206
REMARK INTER + INTRA:         -13.815
REMARK INTER:                 -10.178
REMARK INTRA:                  -3.637
REMARK UNBOUND:                -5.899
REMARK SMILES CCCCCCCCCCCCCCCCCCCCCCCCCCCCCC(=O)[O-]
REMARK SMILES IDX 16 1 17 2 18 3 19 4 20 5 21 6 22 7 23 8 24 9 25 10 26 11
REMARK SMILES IDX 27 12 28 13 29 14 30 15 31 16 32 17 15 18 14 19 13 20 12 21
REMARK SMILES IDX 11 22 10 23 9 24 8 25 7 26 6 27 5 28 4 29 3 30 2 31 1 32
REMARK H PARENT
REMARK Flexibility Score: inf
ROOT
ATOM      1  C   UNL     1     159.033 152.270 163.533  1.00  0.00     0.000 C 
ENDROOT
BRANCH   1   2
ATOM      2  C   UNL     1     160.416 151.738 163.089  1.00  0.00     0.000 C 
BRANCH   2   3
ATOM      3  C   UNL     1     161.614 152.418 163.783  1.00  0.00     0.000 C 
BRANCH   3   4
ATOM      4  C   UNL     1     161.347 153.901 164.101  1.00  0.00     0.000 C 
BRANCH   4   5
ATOM      5  C   UNL     1     161.786 154.830 162.948  1.00  0.00     0.000 C 
BRANCH   5   6
ATOM      6  C   UNL     1     161.768 156.328 163.319  1.00  0.00     0.000 C 
BRANCH   6   7
ATOM      7  C   UNL     1     161.010 156.665 164.613  1.00  0.00     0.000 C 
BRANCH   7   8
ATOM      8  C   UNL     1     161.508 157.961 165.274  1.00  0.00     0.000 C 
BRANCH   8   9
ATOM      9  C   UNL     1     162.750 157.741 166.160  1.00  0.00     0.000 C 
BRANCH   9  10
ATOM     10  C   UNL     1     162.830 156.356 166.839  1.00  0.00     0.000 C 
BRANCH  10  11
ATOM     11  C   UNL     1     164.105 155.543 166.530  1.00  0.00     0.000 C 
BRANCH  11  12
ATOM     12  C   UNL     1     164.711 155.801 165.140  1.00  0.00     0.000 C 
BRANCH  12  13
ATOM     13  C   UNL     1     165.658 154.676 164.694  1.00  0.00     0.006 C 
BRANCH  13  14
ATOM     14  C   UNL     1     164.987 153.307 164.813  1.00  0.00     0.053 C 
BRANCH  14  15
ATOM     15  C   UNL     1     165.995 152.240 165.118  1.00  0.00     0.041 C 
ATOM     16  O   UNL     1     167.082 152.190 164.482  1.00  0.00    -0.550 OA
ATOM     17  O   UNL     1     165.726 151.290 166.100  1.00  0.00    -0.550 OA
ENDBRANCH  14  15
ENDBRANCH  13  14
ENDBRANCH  12  13
ENDBRANCH  11  12
ENDBRANCH  10  11
ENDBRANCH   9  10
ENDBRANCH   8   9
ENDBRANCH   7   8
ENDBRANCH   6   7
ENDBRANCH   5   6
ENDBRANCH   4   5
ENDBRANCH   3   4
ENDBRANCH   2   3
ENDBRANCH   1   2
BRANCH   1  18
ATOM     18  C   UNL     1     158.115 151.234 164.225  1.00  0.00     0.000 C 
BRANCH  18  19
ATOM     19  C   UNL     1     158.629 149.783 164.184  1.00  0.00     0.000 C 
BRANCH  19  20
ATOM     20  C   UNL     1     159.076 149.271 165.565  1.00  0.00     0.000 C 
BRANCH  20  21
ATOM     21  C   UNL     1     160.485 148.651 165.534  1.00  0.00     0.000 C 
BRANCH  21  22
ATOM     22  C   UNL     1     160.551 147.199 166.057  1.00  0.00     0.000 C 
BRANCH  22  23
ATOM     23  C   UNL     1     159.189 146.644 166.537  1.00  0.00     0.000 C 
BRANCH  23  24
ATOM     24  C   UNL     1     159.333 145.592 167.652  1.00  0.00    -0.000 C 
BRANCH  24  25
ATOM     25  C   UNL     1     159.279 146.207 169.059  1.00  0.00    -0.000 C 
BRANCH  25  26
ATOM     26  C   UNL     1     158.435 145.385 170.057  1.00  0.00    -0.000 C 
BRANCH  26  27
ATOM     27  C   UNL     1     156.979 145.888 170.125  1.00  0.00    -0.000 C 
BRANCH  27  28
ATOM     28  C   UNL     1     156.844 147.386 169.778  1.00  0.00    -0.000 C 
BRANCH  28  29
ATOM     29  C   UNL     1     155.712 147.700 168.785  1.00  0.00    -0.000 C 
BRANCH  29  30
ATOM     30  C   UNL     1     154.747 146.523 168.582  1.00  0.00    -0.000 C 
BRANCH  30  31
ATOM     31  C   UNL     1     154.361 146.370 167.104  1.00  0.00    -0.003 C 
ATOM     32  C   UNL     1     155.590 146.083 166.244  1.00  0.00     0.004 C 
ENDBRANCH  30  31
ENDBRANCH  29  30
ENDBRANCH  28  29
ENDBRANCH  27  28
ENDBRANCH  26  27
ENDBRANCH  25  26
ENDBRANCH  24  25
ENDBRANCH  23  24
ENDBRANCH  22  23
ENDBRANCH  21  22
ENDBRANCH  20  21
ENDBRANCH  19  20
ENDBRANCH  18  19
ENDBRANCH   1  18
TORSDOF 28
ENDMDL
MODEL 6
REMARK VINA RESULT:    -3.000      2.561      6.962
REMARK INTER + INTRA:         -13.810
REMARK INTER:                  -7.667
REMARK INTRA:                  -6.143
REMARK UNBOUND:                -5.899
REMARK SMILES CCCCCCCCCCCCCCCCCCCCCCCCCCCCCC(=O)[O-]
REMARK SMILES IDX 16 1 17 2 18 3 19 4 20 5 21 6 22 7 23 8 24 9 25 10 26 11
REMARK SMILES IDX 27 12 28 13 29 14 30 15 31 16 32 17 15 18 14 19 13 20 12 21
REMARK SMILES IDX 11 22 10 23 9 24 8 25 7 26 6 27 5 28 4 29 3 30 2 31 1 32
REMARK H PARENT
REMARK Flexibility Score: inf
ROOT
ATOM      1  C   UNL     1     161.925 155.911 163.146  1.00  0.00     0.000 C 
ENDROOT
BRANCH   1   2
ATOM      2  C   UNL     1     161.462 154.480 163.511  1.00  0.00     0.000 C 
BRANCH   2   3
ATOM      3  C   UNL     1     162.408 153.362 163.026  1.00  0.00     0.000 C 
BRANCH   3   4
ATOM      4  C   UNL     1     162.383 152.127 163.946  1.00  0.00     0.000 C 
BRANCH   4   5
ATOM      5  C   UNL     1     162.502 150.809 163.151  1.00  0.00     0.000 C 
BRANCH   5   6
ATOM      6  C   UNL     1     161.300 149.859 163.342  1.00  0.00     0.000 C 
BRANCH   6   7
ATOM      7  C   UNL     1     160.015 150.536 163.849  1.00  0.00     0.000 C 
BRANCH   7   8
ATOM      8  C   UNL     1     158.956 150.701 162.747  1.00  0.00     0.000 C 
BRANCH   8   9
ATOM      9  C   UNL     1     159.044 152.066 162.034  1.00  0.00     0.000 C 
BRANCH   9  10
ATOM     10  C   UNL     1     159.838 152.061 160.711  1.00  0.00     0.000 C 
BRANCH  10  11
ATOM     11  C   UNL     1     159.968 153.432 160.014  1.00  0.00     0.000 C 
BRANCH  11  12
ATOM     12  C   UNL     1     161.096 153.521 158.973  1.00  0.00     0.000 C 
BRANCH  12  13
ATOM     13  C   UNL     1     162.345 154.230 159.517  1.00  0.00     0.006 C 
BRANCH  13  14
ATOM     14  C   UNL     1     163.538 153.275 159.589  1.00  0.00     0.053 C 
BRANCH  14  15
ATOM     15  C   UNL     1     164.621 153.697 158.643  1.00  0.00     0.041 C 
ATOM     16  O   UNL     1     165.174 154.823 158.769  1.00  0.00    -0.550 OA
ATOM     17  O   UNL     1     165.011 152.849 157.609  1.00  0.00    -0.550 OA
ENDBRANCH  14  15
ENDBRANCH  13  14
ENDBRANCH  12  13
ENDBRANCH  11  12
ENDBRANCH  10  11
ENDBRANCH   9  10
ENDBRANCH   8   9
ENDBRANCH   7   8
ENDBRANCH   6   7
ENDBRANCH   5   6
ENDBRANCH   4   5
ENDBRANCH   3   4
ENDBRANCH   2   3
ENDBRANCH   1   2
BRANCH   1  18
ATOM     18  C   UNL     1     161.507 157.017 164.146  1.00  0.00     0.000 C 
BRANCH  18  19
ATOM     19  C   UNL     1     161.765 156.684 165.627  1.00  0.00     0.000 C 
BRANCH  19  20
ATOM     20  C   UNL     1     163.230 156.913 166.041  1.00  0.00     0.000 C 
BRANCH  20  21
ATOM     21  C   UNL     1     163.970 155.596 166.338  1.00  0.00     0.000 C 
BRANCH  21  22
ATOM     22  C   UNL     1     164.984 155.180 165.249  1.00  0.00     0.000 C 
BRANCH  22  23
ATOM     23  C   UNL     1     165.472 156.352 164.366  1.00  0.00     0.000 C 
BRANCH  23  24
ATOM     24  C   UNL     1     166.978 156.282 164.058  1.00  0.00    -0.000 C 
BRANCH  24  25
ATOM     25  C   UNL     1     167.536 154.853 164.146  1.00  0.00    -0.000 C 
BRANCH  25  26
ATOM     26  C   UNL     1     168.062 154.315 162.797  1.00  0.00    -0.000 C 
BRANCH  26  27
ATOM     27  C   UNL     1     166.914 154.003 161.817  1.00  0.00    -0.000 C 
BRANCH  27  28
ATOM     28  C   UNL     1     165.881 153.013 162.398  1.00  0.00    -0.000 C 
BRANCH  28  29
ATOM     29  C   UNL     1     166.261 151.533 162.216  1.00  0.00    -0.000 C 
BRANCH  29  30
ATOM     30  C   UNL     1     166.187 150.728 163.522  1.00  0.00    -0.000 C 
BRANCH  30  31
ATOM     31  C   UNL     1     165.935 151.647 164.726  1.00  0.00    -0.003 C 
ATOM     32  C   UNL     1     165.549 150.835 165.961  1.00  0.00     0.004 C 
ENDBRANCH  30  31
ENDBRANCH  29  30
ENDBRANCH  28  29
ENDBRANCH  27  28
ENDBRANCH  26  27
ENDBRANCH  25  26
ENDBRANCH  24  25
ENDBRANCH  23  24
ENDBRANCH  22  23
ENDBRANCH  21  22
ENDBRANCH  20  21
ENDBRANCH  19  20
ENDBRANCH  18  19
ENDBRANCH   1  18
TORSDOF 28
ENDMDL
MODEL 7
REMARK VINA RESULT:    -2.986      2.319      6.587
REMARK INTER + INTRA:         -13.773
REMARK INTER:                  -8.275
REMARK INTRA:                  -5.498
REMARK UNBOUND:                -5.899
REMARK SMILES CCCCCCCCCCCCCCCCCCCCCCCCCCCCCC(=O)[O-]
REMARK SMILES IDX 16 1 17 2 18 3 19 4 20 5 21 6 22 7 23 8 24 9 25 10 26 11
REMARK SMILES IDX 27 12 28 13 29 14 30 15 31 16 32 17 15 18 14 19 13 20 12 21
REMARK SMILES IDX 11 22 10 23 9 24 8 25 7 26 6 27 5 28 4 29 3 30 2 31 1 32
REMARK H PARENT
REMARK Flexibility Score: inf
ROOT
ATOM      1  C   UNL     1     162.208 153.273 163.754  1.00  0.00     0.000 C 
ENDROOT
BRANCH   1   2
ATOM      2  C   UNL     1     161.358 154.164 162.816  1.00  0.00     0.000 C 
BRANCH   2   3
ATOM      3  C   UNL     1     162.161 155.240 162.058  1.00  0.00     0.000 C 
BRANCH   3   4
ATOM      4  C   UNL     1     163.245 154.635 161.147  1.00  0.00     0.000 C 
BRANCH   4   5
ATOM      5  C   UNL     1     162.674 153.556 160.201  1.00  0.00     0.000 C 
BRANCH   5   6
ATOM      6  C   UNL     1     161.770 154.125 159.087  1.00  0.00     0.000 C 
BRANCH   6   7
ATOM      7  C   UNL     1     160.283 153.748 159.205  1.00  0.00     0.000 C 
BRANCH   7   8
ATOM      8  C   UNL     1     160.066 152.242 159.420  1.00  0.00     0.000 C 
BRANCH   8   9
ATOM      9  C   UNL     1     159.328 151.927 160.737  1.00  0.00     0.000 C 
BRANCH   9  10
ATOM     10  C   UNL     1     157.950 152.604 160.890  1.00  0.00     0.000 C 
BRANCH  10  11
ATOM     11  C   UNL     1     157.253 152.381 162.250  1.00  0.00     0.000 C 
BRANCH  11  12
ATOM     12  C   UNL     1     158.203 152.337 163.459  1.00  0.00     0.000 C 
BRANCH  12  13
ATOM     13  C   UNL     1     157.672 151.443 164.591  1.00  0.00     0.006 C 
BRANCH  13  14
ATOM     14  C   UNL     1     157.794 149.962 164.230  1.00  0.00     0.053 C 
BRANCH  14  15
ATOM     15  C   UNL     1     158.560 149.216 165.280  1.00  0.00     0.041 C 
ATOM     16  O   UNL     1     157.953 148.528 166.145  1.00  0.00    -0.550 OA
ATOM     17  O   UNL     1     159.951 149.292 165.313  1.00  0.00    -0.550 OA
ENDBRANCH  14  15
ENDBRANCH  13  14
ENDBRANCH  12  13
ENDBRANCH  11  12
ENDBRANCH  10  11
ENDBRANCH   9  10
ENDBRANCH   8   9
ENDBRANCH   7   8
ENDBRANCH   6   7
ENDBRANCH   5   6
ENDBRANCH   4   5
ENDBRANCH   3   4
ENDBRANCH   2   3
ENDBRANCH   1   2
BRANCH   1  18
ATOM     18  C   UNL     1     161.839 151.770 163.754  1.00  0.00     0.000 C 
BRANCH  18  19
ATOM     19  C   UNL     1     162.738 150.881 162.877  1.00  0.00     0.000 C 
BRANCH  19  20
ATOM     20  C   UNL     1     163.110 149.553 163.560  1.00  0.00     0.000 C 
BRANCH  20  21
ATOM     21  C   UNL     1     163.644 149.756 164.989  1.00  0.00     0.000 C 
BRANCH  21  22
ATOM     22  C   UNL     1     165.183 149.690 165.106  1.00  0.00     0.000 C 
BRANCH  22  23
ATOM     23  C   UNL     1     165.805 150.885 165.867  1.00  0.00     0.000 C 
BRANCH  23  24
ATOM     24  C   UNL     1     165.451 152.244 165.236  1.00  0.00    -0.000 C 
BRANCH  24  25
ATOM     25  C   UNL     1     166.006 152.399 163.811  1.00  0.00    -0.000 C 
BRANCH  25  26
ATOM     26  C   UNL     1     166.008 153.860 163.309  1.00  0.00    -0.000 C 
BRANCH  26  27
ATOM     27  C   UNL     1     166.688 154.810 164.315  1.00  0.00    -0.000 C 
BRANCH  27  28
ATOM     28  C   UNL     1     165.969 156.171 164.435  1.00  0.00    -0.000 C 
BRANCH  28  29
ATOM     29  C   UNL     1     164.473 156.062 164.776  1.00  0.00    -0.000 C 
BRANCH  29  30
ATOM     30  C   UNL     1     164.217 155.529 166.194  1.00  0.00    -0.000 C 
BRANCH  30  31
ATOM     31  C   UNL     1     162.937 156.132 166.791  1.00  0.00    -0.003 C 
ATOM     32  C   UNL     1     161.922 156.454 165.697  1.00  0.00     0.004 C 
ENDBRANCH  30  31
ENDBRANCH  29  30
ENDBRANCH  28  29
ENDBRANCH  27  28
ENDBRANCH  26  27
ENDBRANCH  25  26
ENDBRANCH  24  25
ENDBRANCH  23  24
ENDBRANCH  22  23
ENDBRANCH  21  22
ENDBRANCH  20  21
ENDBRANCH  19  20
ENDBRANCH  18  19
ENDBRANCH   1  18
TORSDOF 28
ENDMDL
MODEL 8
REMARK VINA RESULT:    -2.977      1.848      6.800
REMARK INTER + INTRA:         -13.748
REMARK INTER:                  -7.940
REMARK INTRA:                  -5.808
REMARK UNBOUND:                -5.899
REMARK SMILES CCCCCCCCCCCCCCCCCCCCCCCCCCCCCC(=O)[O-]
REMARK SMILES IDX 16 1 17 2 18 3 19 4 20 5 21 6 22 7 23 8 24 9 25 10 26 11
REMARK SMILES IDX 27 12 28 13 29 14 30 15 31 16 32 17 15 18 14 19 13 20 12 21
REMARK SMILES IDX 11 22 10 23 9 24 8 25 7 26 6 27 5 28 4 29 3 30 2 31 1 32
REMARK H PARENT
REMARK Flexibility Score: inf
ROOT
ATOM      1  C   UNL     1     162.200 153.459 163.793  1.00  0.00     0.000 C 
ENDROOT
BRANCH   1   2
ATOM      2  C   UNL     1     162.998 153.308 162.476  1.00  0.00     0.000 C 
BRANCH   2   3
ATOM      3  C   UNL     1     162.677 154.377 161.411  1.00  0.00     0.000 C 
BRANCH   3   4
ATOM      4  C   UNL     1     163.883 154.689 160.506  1.00  0.00     0.000 C 
BRANCH   4   5
ATOM      5  C   UNL     1     164.328 153.458 159.687  1.00  0.00     0.000 C 
BRANCH   5   6
ATOM      6  C   UNL     1     163.999 153.562 158.183  1.00  0.00     0.000 C 
BRANCH   6   7
ATOM      7  C   UNL     1     163.419 154.916 157.740  1.00  0.00     0.000 C 
BRANCH   7   8
ATOM      8  C   UNL     1     161.922 154.839 157.398  1.00  0.00     0.000 C 
BRANCH   8   9
ATOM      9  C   UNL     1     161.234 153.599 158.003  1.00  0.00     0.000 C 
BRANCH   9  10
ATOM     10  C   UNL     1     159.980 153.898 158.851  1.00  0.00     0.000 C 
BRANCH  10  11
ATOM     11  C   UNL     1     159.362 152.679 159.568  1.00  0.00     0.000 C 
BRANCH  11  12
ATOM     12  C   UNL     1     160.385 151.684 160.143  1.00  0.00     0.000 C 
BRANCH  12  13
ATOM     13  C   UNL     1     160.089 151.314 161.604  1.00  0.00     0.006 C 
BRANCH  13  14
ATOM     14  C   UNL     1     158.837 152.030 162.114  1.00  0.00     0.053 C 
BRANCH  14  15
ATOM     15  C   UNL     1     158.637 151.784 163.579  1.00  0.00     0.041 C 
ATOM     16  O   UNL     1     157.978 152.600 164.278  1.00  0.00    -0.550 OA
ATOM     17  O   UNL     1     159.194 150.656 164.176  1.00  0.00    -0.550 OA
ENDBRANCH  14  15
ENDBRANCH  13  14
ENDBRANCH  12  13
ENDBRANCH  11  12
ENDBRANCH  10  11
ENDBRANCH   9  10
ENDBRANCH   8   9
ENDBRANCH   7   8
ENDBRANCH   6   7
ENDBRANCH   5   6
ENDBRANCH   4   5
ENDBRANCH   3   4
ENDBRANCH   2   3
ENDBRANCH   1   2
BRANCH   1  18
ATOM     18  C   UNL     1     161.077 154.524 163.769  1.00  0.00     0.000 C 
BRANCH  18  19
ATOM     19  C   UNL     1     161.280 155.702 164.739  1.00  0.00     0.000 C 
BRANCH  19  20
ATOM     20  C   UNL     1     162.111 156.842 164.124  1.00  0.00     0.000 C 
BRANCH  20  21
ATOM     21  C   UNL     1     163.334 157.209 164.984  1.00  0.00     0.000 C 
BRANCH  21  22
ATOM     22  C   UNL     1     163.717 156.139 166.031  1.00  0.00     0.000 C 
BRANCH  22  23
ATOM     23  C   UNL     1     164.908 155.247 165.607  1.00  0.00     0.000 C 
BRANCH  23  24
ATOM     24  C   UNL     1     165.860 155.949 164.623  1.00  0.00    -0.000 C 
BRANCH  24  25
ATOM     25  C   UNL     1     166.106 155.129 163.347  1.00  0.00    -0.000 C 
BRANCH  25  26
ATOM     26  C   UNL     1     167.086 153.953 163.552  1.00  0.00    -0.000 C 
BRANCH  26  27
ATOM     27  C   UNL     1     166.523 152.633 162.990  1.00  0.00    -0.000 C 
BRANCH  27  28
ATOM     28  C   UNL     1     166.521 151.490 164.029  1.00  0.00    -0.000 C 
BRANCH  28  29
ATOM     29  C   UNL     1     165.485 151.666 165.153  1.00  0.00    -0.000 C 
BRANCH  29  30
ATOM     30  C   UNL     1     164.877 150.336 165.622  1.00  0.00    -0.000 C 
BRANCH  30  31
ATOM     31  C   UNL     1     164.194 149.598 164.461  1.00  0.00    -0.003 C 
ATOM     32  C   UNL     1     162.717 149.973 164.368  1.00  0.00     0.004 C 
ENDBRANCH  30  31
ENDBRANCH  29  30
ENDBRANCH  28  29
ENDBRANCH  27  28
ENDBRANCH  26  27
ENDBRANCH  25  26
ENDBRANCH  24  25
ENDBRANCH  23  24
ENDBRANCH  22  23
ENDBRANCH  21  22
ENDBRANCH  20  21
ENDBRANCH  19  20
ENDBRANCH  18  19
ENDBRANCH   1  18
TORSDOF 28
ENDMDL
MODEL 9
REMARK VINA RESULT:    -2.956      2.217      4.268
REMARK INTER + INTRA:         -13.692
REMARK INTER:                  -7.525
REMARK INTRA:                  -6.168
REMARK UNBOUND:                -5.899
REMARK SMILES CCCCCCCCCCCCCCCCCCCCCCCCCCCCCC(=O)[O-]
REMARK SMILES IDX 16 1 17 2 18 3 19 4 20 5 21 6 22 7 23 8 24 9 25 10 26 11
REMARK SMILES IDX 27 12 28 13 29 14 30 15 31 16 32 17 15 18 14 19 13 20 12 21
REMARK SMILES IDX 11 22 10 23 9 24 8 25 7 26 6 27 5 28 4 29 3 30 2 31 1 32
REMARK H PARENT
REMARK Flexibility Score: inf
ROOT
ATOM      1  C   UNL     1     162.206 154.871 161.114  1.00  0.00     0.000 C 
ENDROOT
BRANCH   1   2
ATOM      2  C   UNL     1     161.761 153.788 162.126  1.00  0.00     0.000 C 
BRANCH   2   3
ATOM      3  C   UNL     1     161.944 154.185 163.605  1.00  0.00     0.000 C 
BRANCH   3   4
ATOM      4  C   UNL     1     160.687 154.847 164.199  1.00  0.00     0.000 C 
BRANCH   4   5
ATOM      5  C   UNL     1     160.989 156.240 164.792  1.00  0.00     0.000 C 
BRANCH   5   6
ATOM      6  C   UNL     1     162.212 156.933 164.156  1.00  0.00     0.000 C 
BRANCH   6   7
ATOM      7  C   UNL     1     163.277 157.414 165.156  1.00  0.00     0.000 C 
BRANCH   7   8
ATOM      8  C   UNL     1     163.488 156.430 166.319  1.00  0.00     0.000 C 
BRANCH   8   9
ATOM      9  C   UNL     1     164.476 155.298 165.972  1.00  0.00     0.000 C 
BRANCH   9  10
ATOM     10  C   UNL     1     165.499 155.641 164.869  1.00  0.00     0.000 C 
BRANCH  10  11
ATOM     11  C   UNL     1     165.697 154.554 163.792  1.00  0.00     0.000 C 
BRANCH  11  12
ATOM     12  C   UNL     1     165.145 153.168 164.167  1.00  0.00     0.000 C 
BRANCH  12  13
ATOM     13  C   UNL     1     166.237 152.220 164.686  1.00  0.00     0.006 C 
BRANCH  13  14
ATOM     14  C   UNL     1     165.649 151.150 165.607  1.00  0.00     0.053 C 
BRANCH  14  15
ATOM     15  C   UNL     1     165.628 149.813 164.930  1.00  0.00     0.041 C 
ATOM     16  O   UNL     1     164.773 148.946 165.258  1.00  0.00    -0.550 OA
ATOM     17  O   UNL     1     166.566 149.518 163.944  1.00  0.00    -0.550 OA
ENDBRANCH  14  15
ENDBRANCH  13  14
ENDBRANCH  12  13
ENDBRANCH  11  12
ENDBRANCH  10  11
ENDBRANCH   9  10
ENDBRANCH   8   9
ENDBRANCH   7   8
ENDBRANCH   6   7
ENDBRANCH   5   6
ENDBRANCH   4   5
ENDBRANCH   3   4
ENDBRANCH   2   3
ENDBRANCH   1   2
BRANCH   1  18
ATOM     18  C   UNL     1     163.523 154.570 160.358  1.00  0.00     0.000 C 
BRANCH  18  19
ATOM     19  C   UNL     1     163.676 153.117 159.876  1.00  0.00     0.000 C 
BRANCH  19  20
ATOM     20  C   UNL     1     164.812 152.368 160.597  1.00  0.00     0.000 C 
BRANCH  20  21
ATOM     21  C   UNL     1     164.329 151.068 161.264  1.00  0.00     0.000 C 
BRANCH  21  22
ATOM     22  C   UNL     1     163.031 150.488 160.658  1.00  0.00     0.000 C 
BRANCH  22  23
ATOM     23  C   UNL     1     161.978 150.073 161.713  1.00  0.00     0.000 C 
BRANCH  23  24
ATOM     24  C   UNL     1     162.416 150.394 163.152  1.00  0.00    -0.000 C 
BRANCH  24  25
ATOM     25  C   UNL     1     161.228 150.661 164.089  1.00  0.00    -0.000 C 
BRANCH  25  26
ATOM     26  C   UNL     1     159.857 150.379 163.438  1.00  0.00    -0.000 C 
BRANCH  26  27
ATOM     27  C   UNL     1     158.848 151.512 163.714  1.00  0.00    -0.000 C 
BRANCH  27  28
ATOM     28  C   UNL     1     158.587 152.399 162.477  1.00  0.00    -0.000 C 
BRANCH  28  29
ATOM     29  C   UNL     1     158.310 151.608 161.187  1.00  0.00    -0.000 C 
BRANCH  29  30
ATOM     30  C   UNL     1     159.345 151.875 160.085  1.00  0.00    -0.000 C 
BRANCH  30  31
ATOM     31  C   UNL     1     159.192 153.291 159.511  1.00  0.00    -0.003 C 
ATOM     32  C   UNL     1     157.822 153.474 158.863  1.00  0.00     0.004 C 
ENDBRANCH  30  31
ENDBRANCH  29  30
ENDBRANCH  28  29
ENDBRANCH  27  28
ENDBRANCH  26  27
ENDBRANCH  25  26
ENDBRANCH  24  25
ENDBRANCH  23  24
ENDBRANCH  22  23
ENDBRANCH  21  22
ENDBRANCH  20  21
ENDBRANCH  19  20
ENDBRANCH  18  19
ENDBRANCH   1  18
TORSDOF 28
ENDMDL
