MODEL 1
REMARK VINA RESULT:    -4.354      0.000      0.000
REMARK INTER + INTRA:         -10.049
REMARK INTER:                  -8.171
REMARK INTRA:                  -1.878
REMARK UNBOUND:                -1.878
REMARK SMILES CCCCCCCCC=CCCCCCCCC(=O)[O-]
REMARK SMILES IDX 10 1 9 2 11 3 12 4 13 5 14 6 15 7 16 8 17 9 18 10 19 11
REMARK SMILES IDX 20 12 8 13 7 14 6 15 5 16 4 17 3 18 2 19 1 20
REMARK H PARENT
REMARK Flexibility Score: inf
ROOT
ATOM      1  C   UNL     1      14.049   7.328   4.523  1.00  0.00    -0.031 C 
ATOM      2  C   UNL     1      14.922   7.021   5.499  1.00  0.00    -0.031 C 
ENDROOT
BRANCH   1   3
ATOM      3  C   UNL     1      14.197   8.490   3.569  1.00  0.00     0.027 C 
BRANCH   3   4
ATOM      4  C   UNL     1      14.848   8.071   2.240  1.00  0.00     0.004 C 
BRANCH   4   5
ATOM      5  C   UNL     1      16.278   7.515   2.383  1.00  0.00     0.000 C 
BRANCH   5   6
ATOM      6  C   UNL     1      16.517   6.261   1.526  1.00  0.00     0.000 C 
BRANCH   6   7
ATOM      7  C   UNL     1      15.508   6.130   0.374  1.00  0.00     0.000 C 
BRANCH   7   8
ATOM      8  C   UNL     1      15.839   4.969  -0.573  1.00  0.00     0.006 C 
BRANCH   8   9
ATOM      9  C   UNL     1      16.399   5.488  -1.901  1.00  0.00     0.053 C 
BRANCH   9  10
ATOM     10  C   UNL     1      15.708   6.752  -2.304  1.00  0.00     0.041 C 
ATOM     11  O   UNL     1      16.312   7.853  -2.233  1.00  0.00    -0.550 OA
ATOM     12  O   UNL     1      14.376   6.721  -2.699  1.00  0.00    -0.550 OA
ENDBRANCH   9  10
ENDBRANCH   8   9
ENDBRANCH   7   8
ENDBRANCH   6   7
ENDBRANCH   5   6
ENDBRANCH   4   5
ENDBRANCH   3   4
ENDBRANCH   1   3
BRANCH   2  13
ATOM     13  C   UNL     1      16.136   7.844   5.857  1.00  0.00     0.027 C 
BRANCH  13  14
ATOM     14  C   UNL     1      17.442   7.053   5.672  1.00  0.00     0.004 C 
BRANCH  14  15
ATOM     15  C   UNL     1      18.621   7.966   5.290  1.00  0.00     0.000 C 
BRANCH  15  16
ATOM     16  C   UNL     1      18.163   9.357   4.825  1.00  0.00     0.000 C 
BRANCH  16  17
ATOM     17  C   UNL     1      18.691   9.719   3.428  1.00  0.00    -0.000 C 
BRANCH  17  18
ATOM     18  C   UNL     1      17.975  10.959   2.874  1.00  0.00    -0.000 C 
BRANCH  18  19
ATOM     19  C   UNL     1      16.563  11.133   3.453  1.00  0.00    -0.003 C 
ATOM     20  C   UNL     1      15.763  12.227   2.747  1.00  0.00     0.004 C 
ENDBRANCH  18  19
ENDBRANCH  17  18
ENDBRANCH  16  17
ENDBRANCH  15  16
ENDBRANCH  14  15
ENDBRANCH  13  14
ENDBRANCH   2  13
TORSDOF 15
ENDMDL
MODEL 2
REMARK VINA RESULT:    -4.007      2.301      5.734
REMARK INTER + INTRA:          -9.399
REMARK INTER:                  -7.939
REMARK INTRA:                  -1.460
REMARK UNBOUND:                -1.878
REMARK SMILES CCCCCCCCC=CCCCCCCCC(=O)[O-]
REMARK SMILES IDX 10 1 9 2 11 3 12 4 13 5 14 6 15 7 16 8 17 9 18 10 19 11
REMARK SMILES IDX 20 12 8 13 7 14 6 15 5 16 4 17 3 18 2 19 1 20
REMARK H PARENT
REMARK Flexibility Score: inf
ROOT
ATOM      1  C   UNL     1      14.678   7.118   5.440  1.00  0.00    -0.031 C 
ATOM      2  C   UNL     1      13.879   7.504   4.428  1.00  0.00    -0.031 C 
ENDROOT
BRANCH   1   3
ATOM      3  C   UNL     1      16.116   7.544   5.613  1.00  0.00     0.027 C 
BRANCH   3   4
ATOM      4  C   UNL     1      17.088   6.637   4.841  1.00  0.00     0.004 C 
BRANCH   4   5
ATOM      5  C   UNL     1      18.379   7.340   4.380  1.00  0.00     0.000 C 
BRANCH   5   6
ATOM      6  C   UNL     1      18.491   8.780   4.906  1.00  0.00     0.000 C 
BRANCH   6   7
ATOM      7  C   UNL     1      18.484   9.825   3.779  1.00  0.00     0.000 C 
BRANCH   7   8
ATOM      8  C   UNL     1      17.068  10.292   3.415  1.00  0.00     0.006 C 
BRANCH   8   9
ATOM      9  C   UNL     1      17.053  11.787   3.080  1.00  0.00     0.053 C 
BRANCH   9  10
ATOM     10  C   UNL     1      15.673  12.229   2.711  1.00  0.00     0.041 C 
ATOM     11  O   UNL     1      15.479  13.388   2.260  1.00  0.00    -0.550 OA
ATOM     12  O   UNL     1      14.591  11.383   2.923  1.00  0.00    -0.550 OA
ENDBRANCH   9  10
ENDBRANCH   8   9
ENDBRANCH   7   8
ENDBRANCH   6   7
ENDBRANCH   5   6
ENDBRANCH   4   5
ENDBRANCH   3   4
ENDBRANCH   1   3
BRANCH   2  13
ATOM     13  C   UNL     1      14.322   8.345   3.256  1.00  0.00     0.027 C 
BRANCH  13  14
ATOM     14  C   UNL     1      14.543   7.500   1.992  1.00  0.00     0.004 C 
BRANCH  14  15
ATOM     15  C   UNL     1      16.037   7.268   1.705  1.00  0.00     0.000 C 
BRANCH  15  16
ATOM     16  C   UNL     1      16.291   5.986   0.897  1.00  0.00     0.000 C 
BRANCH  16  17
ATOM     17  C   UNL     1      15.358   5.855  -0.317  1.00  0.00    -0.000 C 
BRANCH  17  18
ATOM     18  C   UNL     1      15.537   7.041  -1.277  1.00  0.00    -0.000 C 
BRANCH  18  19
ATOM     19  C   UNL     1      15.646   6.600  -2.744  1.00  0.00    -0.003 C 
ATOM     20  C   UNL     1      16.967   5.897  -3.056  1.00  0.00     0.004 C 
ENDBRANCH  18  19
ENDBRANCH  17  18
ENDBRANCH  16  17
ENDBRANCH  15  16
ENDBRANCH  14  15
ENDBRANCH  13  14
ENDBRANCH   2  13
TORSDOF 15
ENDMDL
MODEL 3
REMARK VINA RESULT:    -3.939      2.835      4.451
REMARK INTER + INTRA:          -9.271
REMARK INTER:                  -8.589
REMARK INTRA:                  -0.682
REMARK UNBOUND:                -1.878
REMARK SMILES CCCCCCCCC=CCCCCCCCC(=O)[O-]
REMARK SMILES IDX 10 1 9 2 11 3 12 4 13 5 14 6 15 7 16 8 17 9 18 10 19 11
REMARK SMILES IDX 20 12 8 13 7 14 6 15 5 16 4 17 3 18 2 19 1 20
REMARK H PARENT
REMARK Flexibility Score: inf
ROOT
ATOM      1  C   UNL     1      16.291   6.584   4.459  1.00  0.00    -0.031 C 
ATOM      2  C   UNL     1      17.607   6.840   4.343  1.00  0.00    -0.031 C 
ENDROOT
BRANCH   1   3
ATOM      3  C   UNL     1      15.268   7.559   4.992  1.00  0.00     0.027 C 
BRANCH   3   4
ATOM      4  C   UNL     1      14.406   8.166   3.871  1.00  0.00     0.004 C 
BRANCH   4   5
ATOM      5  C   UNL     1      15.165   8.415   2.555  1.00  0.00     0.000 C 
BRANCH   5   6
ATOM      6  C   UNL     1      14.864   7.352   1.485  1.00  0.00     0.000 C 
BRANCH   6   7
ATOM      7  C   UNL     1      16.110   6.544   1.087  1.00  0.00     0.000 C 
BRANCH   7   8
ATOM      8  C   UNL     1      15.831   5.549  -0.048  1.00  0.00     0.006 C 
BRANCH   8   9
ATOM      9  C   UNL     1      14.931   6.176  -1.117  1.00  0.00     0.053 C 
BRANCH   9  10
ATOM     10  C   UNL     1      15.756   6.789  -2.204  1.00  0.00     0.041 C 
ATOM     11  O   UNL     1      15.733   8.034  -2.390  1.00  0.00    -0.550 OA
ATOM     12  O   UNL     1      16.501   5.979  -3.053  1.00  0.00    -0.550 OA
ENDBRANCH   9  10
ENDBRANCH   8   9
ENDBRANCH   7   8
ENDBRANCH   6   7
ENDBRANCH   5   6
ENDBRANCH   4   5
ENDBRANCH   3   4
ENDBRANCH   1   3
BRANCH   2  13
ATOM     13  C   UNL     1      18.282   8.104   4.816  1.00  0.00     0.027 C 
BRANCH  13  14
ATOM     14  C   UNL     1      18.643   8.039   6.309  1.00  0.00     0.004 C 
BRANCH  14  15
ATOM     15  C   UNL     1      19.997   8.708   6.606  1.00  0.00     0.000 C 
BRANCH  15  16
ATOM     16  C   UNL     1      20.639   8.191   7.904  1.00  0.00     0.000 C 
BRANCH  16  17
ATOM     17  C   UNL     1      21.881   8.996   8.313  1.00  0.00    -0.000 C 
BRANCH  17  18
ATOM     18  C   UNL     1      22.682   8.258   9.396  1.00  0.00    -0.000 C 
BRANCH  18  19
ATOM     19  C   UNL     1      21.797   7.367  10.280  1.00  0.00    -0.003 C 
ATOM     20  C   UNL     1      22.081   5.876  10.093  1.00  0.00     0.004 C 
ENDBRANCH  18  19
ENDBRANCH  17  18
ENDBRANCH  16  17
ENDBRANCH  15  16
ENDBRANCH  14  15
ENDBRANCH  13  14
ENDBRANCH   2  13
TORSDOF 15
ENDMDL
MODEL 4
REMARK VINA RESULT:    -3.902      2.566      4.311
REMARK INTER + INTRA:          -9.201
REMARK INTER:                  -7.794
REMARK INTRA:                  -1.407
REMARK UNBOUND:                -1.878
REMARK SMILES CCCCCCCCC=CCCCCCCCC(=O)[O-]
REMARK SMILES IDX 10 1 9 2 11 3 12 4 13 5 14 6 15 7 16 8 17 9 18 10 19 11
REMARK SMILES IDX 20 12 8 13 7 14 6 15 5 16 4 17 3 18 2 19 1 20
REMARK H PARENT
REMARK Flexibility Score: inf
ROOT
ATOM      1  C   UNL     1      16.489  10.589   3.016  1.00  0.00    -0.031 C 
ATOM      2  C   UNL     1      17.568  10.305   3.768  1.00  0.00    -0.031 C 
ENDROOT
BRANCH   1   3
ATOM      3  C   UNL     1      15.071  10.205   3.366  1.00  0.00     0.027 C 
BRANCH   3   4
ATOM      4  C   UNL     1      14.627   8.914   2.656  1.00  0.00     0.004 C 
BRANCH   4   5
ATOM      5  C   UNL     1      14.982   7.622   3.415  1.00  0.00     0.000 C 
BRANCH   5   6
ATOM      6  C   UNL     1      16.052   6.784   2.695  1.00  0.00     0.000 C 
BRANCH   6   7
ATOM      7  C   UNL     1      16.141   7.103   1.194  1.00  0.00     0.000 C 
BRANCH   7   8
ATOM      8  C   UNL     1      16.035   5.849   0.316  1.00  0.00     0.006 C 
BRANCH   8   9
ATOM      9  C   UNL     1      15.063   6.074  -0.847  1.00  0.00     0.053 C 
BRANCH   9  10
ATOM     10  C   UNL     1      15.770   6.695  -2.009  1.00  0.00     0.041 C 
ATOM     11  O   UNL     1      15.651   7.926  -2.239  1.00  0.00    -0.550 OA
ATOM     12  O   UNL     1      16.511   5.901  -2.877  1.00  0.00    -0.550 OA
ENDBRANCH   9  10
ENDBRANCH   8   9
ENDBRANCH   7   8
ENDBRANCH   6   7
ENDBRANCH   5   6
ENDBRANCH   4   5
ENDBRANCH   3   4
ENDBRANCH   1   3
BRANCH   2  13
ATOM     13  C   UNL     1      17.544   9.476   5.029  1.00  0.00     0.027 C 
BRANCH  13  14
ATOM     14  C   UNL     1      18.516   8.287   4.955  1.00  0.00     0.004 C 
BRANCH  14  15
ATOM     15  C   UNL     1      18.993   7.842   6.349  1.00  0.00     0.000 C 
BRANCH  15  16
ATOM     16  C   UNL     1      20.138   8.715   6.887  1.00  0.00     0.000 C 
BRANCH  16  17
ATOM     17  C   UNL     1      20.589   8.298   8.295  1.00  0.00    -0.000 C 
BRANCH  17  18
ATOM     18  C   UNL     1      22.020   8.781   8.578  1.00  0.00    -0.000 C 
BRANCH  18  19
ATOM     19  C   UNL     1      22.663   8.053   9.768  1.00  0.00    -0.003 C 
ATOM     20  C   UNL     1      21.863   6.831  10.219  1.00  0.00     0.004 C 
ENDBRANCH  18  19
ENDBRANCH  17  18
ENDBRANCH  16  17
ENDBRANCH  15  16
ENDBRANCH  14  15
ENDBRANCH  13  14
ENDBRANCH   2  13
TORSDOF 15
ENDMDL
MODEL 5
REMARK VINA RESULT:    -3.826      4.619      7.791
REMARK INTER + INTRA:          -9.059
REMARK INTER:                  -7.538
REMARK INTRA:                  -1.520
REMARK UNBOUND:                -1.878
REMARK SMILES CCCCCCCCC=CCCCCCCCC(=O)[O-]
REMARK SMILES IDX 10 1 9 2 11 3 12 4 13 5 14 6 15 7 16 8 17 9 18 10 19 11
REMARK SMILES IDX 20 12 8 13 7 14 6 15 5 16 4 17 3 18 2 19 1 20
REMARK H PARENT
REMARK Flexibility Score: inf
ROOT
ATOM      1  C   UNL     1      16.161  10.411   3.229  1.00  0.00    -0.031 C 
ATOM      2  C   UNL     1      14.983   9.788   3.045  1.00  0.00    -0.031 C 
ENDROOT
BRANCH   1   3
ATOM      3  C   UNL     1      17.204   9.999   4.240  1.00  0.00     0.027 C 
BRANCH   3   4
ATOM      4  C   UNL     1      18.204   8.983   3.661  1.00  0.00     0.004 C 
BRANCH   4   5
ATOM      5  C   UNL     1      18.177   7.607   4.353  1.00  0.00     0.000 C 
BRANCH   5   6
ATOM      6  C   UNL     1      18.296   7.708   5.883  1.00  0.00     0.000 C 
BRANCH   6   7
ATOM      7  C   UNL     1      19.587   8.412   6.330  1.00  0.00     0.000 C 
BRANCH   7   8
ATOM      8  C   UNL     1      20.014   8.016   7.750  1.00  0.00     0.006 C 
BRANCH   8   9
ATOM      9  C   UNL     1      21.115   8.946   8.271  1.00  0.00     0.053 C 
BRANCH   9  10
ATOM     10  C   UNL     1      21.998   8.224   9.239  1.00  0.00     0.041 C 
ATOM     11  O   UNL     1      23.245   8.387   9.201  1.00  0.00    -0.550 OA
ATOM     12  O   UNL     1      21.448   7.323  10.143  1.00  0.00    -0.550 OA
ENDBRANCH   9  10
ENDBRANCH   8   9
ENDBRANCH   7   8
ENDBRANCH   6   7
ENDBRANCH   5   6
ENDBRANCH   4   5
ENDBRANCH   3   4
ENDBRANCH   1   3
BRANCH   2  13
ATOM     13  C   UNL     1      14.477   8.639   3.883  1.00  0.00     0.027 C 
BRANCH  13  14
ATOM     14  C   UNL     1      14.744   7.280   3.217  1.00  0.00     0.004 C 
BRANCH  14  15
ATOM     15  C   UNL     1      15.078   7.425   1.721  1.00  0.00     0.000 C 
BRANCH  15  16
ATOM     16  C   UNL     1      16.252   6.532   1.289  1.00  0.00     0.000 C 
BRANCH  16  17
ATOM     17  C   UNL     1      15.909   5.645   0.082  1.00  0.00    -0.000 C 
BRANCH  17  18
ATOM     18  C   UNL     1      15.038   6.405  -0.928  1.00  0.00    -0.000 C 
BRANCH  18  19
ATOM     19  C   UNL     1      15.869   7.098  -2.019  1.00  0.00    -0.003 C 
ATOM     20  C   UNL     1      16.604   6.108  -2.923  1.00  0.00     0.004 C 
ENDBRANCH  18  19
ENDBRANCH  17  18
ENDBRANCH  16  17
ENDBRANCH  15  16
ENDBRANCH  14  15
ENDBRANCH  13  14
ENDBRANCH   2  13
TORSDOF 15
ENDMDL
MODEL 6
REMARK VINA RESULT:    -3.792      1.100      2.898
REMARK INTER + INTRA:          -8.994
REMARK INTER:                  -7.383
REMARK INTRA:                  -1.611
REMARK UNBOUND:                -1.878
REMARK SMILES CCCCCCCCC=CCCCCCCCC(=O)[O-]
REMARK SMILES IDX 10 1 9 2 11 3 12 4 13 5 14 6 15 7 16 8 17 9 18 10 19 11
REMARK SMILES IDX 20 12 8 13 7 14 6 15 5 16 4 17 3 18 2 19 1 20
REMARK H PARENT
REMARK Flexibility Score: inf
ROOT
ATOM      1  C   UNL     1      14.280   7.426   4.624  1.00  0.00    -0.031 C 
ATOM      2  C   UNL     1      13.823   8.234   3.650  1.00  0.00    -0.031 C 
ENDROOT
BRANCH   1   3
ATOM      3  C   UNL     1      15.718   7.355   5.081  1.00  0.00     0.027 C 
BRANCH   3   4
ATOM      4  C   UNL     1      16.443   6.117   4.528  1.00  0.00     0.004 C 
BRANCH   4   5
ATOM      5  C   UNL     1      17.583   6.440   3.543  1.00  0.00     0.000 C 
BRANCH   5   6
ATOM      6  C   UNL     1      17.079   7.089   2.243  1.00  0.00     0.000 C 
BRANCH   6   7
ATOM      7  C   UNL     1      16.433   6.074   1.286  1.00  0.00     0.000 C 
BRANCH   7   8
ATOM      8  C   UNL     1      15.489   6.735   0.273  1.00  0.00     0.006 C 
BRANCH   8   9
ATOM      9  C   UNL     1      15.349   5.874  -0.987  1.00  0.00     0.053 C 
BRANCH   9  10
ATOM     10  C   UNL     1      15.782   6.640  -2.197  1.00  0.00     0.041 C 
ATOM     11  O   UNL     1      16.544   6.106  -3.045  1.00  0.00    -0.550 OA
ATOM     12  O   UNL     1      15.396   7.966  -2.356  1.00  0.00    -0.550 OA
ENDBRANCH   9  10
ENDBRANCH   8   9
ENDBRANCH   7   8
ENDBRANCH   6   7
ENDBRANCH   5   6
ENDBRANCH   4   5
ENDBRANCH   3   4
ENDBRANCH   1   3
BRANCH   2  13
ATOM     13  C   UNL     1      14.691   9.126   2.796  1.00  0.00     0.027 C 
BRANCH  13  14
ATOM     14  C   UNL     1      14.557  10.606   3.189  1.00  0.00     0.004 C 
BRANCH  14  15
ATOM     15  C   UNL     1      15.829  11.409   2.862  1.00  0.00     0.000 C 
BRANCH  15  16
ATOM     16  C   UNL     1      17.008  11.044   3.777  1.00  0.00     0.000 C 
BRANCH  16  17
ATOM     17  C   UNL     1      18.226  10.526   2.996  1.00  0.00    -0.000 C 
BRANCH  17  18
ATOM     18  C   UNL     1      19.049   9.548   3.846  1.00  0.00    -0.000 C 
BRANCH  18  19
ATOM     19  C   UNL     1      18.322   9.130   5.134  1.00  0.00    -0.003 C 
ATOM     20  C   UNL     1      19.212   8.331   6.085  1.00  0.00     0.004 C 
ENDBRANCH  18  19
ENDBRANCH  17  18
ENDBRANCH  16  17
ENDBRANCH  15  16
ENDBRANCH  14  15
ENDBRANCH  13  14
ENDBRANCH   2  13
TORSDOF 15
ENDMDL
MODEL 7
REMARK VINA RESULT:    -3.742      3.343      6.411
REMARK INTER + INTRA:          -8.901
REMARK INTER:                  -8.019
REMARK INTRA:                  -0.882
REMARK UNBOUND:                -1.878
REMARK SMILES CCCCCCCCC=CCCCCCCCC(=O)[O-]
REMARK SMILES IDX 10 1 9 2 11 3 12 4 13 5 14 6 15 7 16 8 17 9 18 10 19 11
REMARK SMILES IDX 20 12 8 13 7 14 6 15 5 16 4 17 3 18 2 19 1 20
REMARK H PARENT
REMARK Flexibility Score: inf
ROOT
ATOM      1  C   UNL     1      18.004   9.997   3.659  1.00  0.00    -0.031 C 
ATOM      2  C   UNL     1      18.320   8.950   4.443  1.00  0.00    -0.031 C 
ENDROOT
BRANCH   1   3
ATOM      3  C   UNL     1      16.600  10.488   3.403  1.00  0.00     0.027 C 
BRANCH   3   4
ATOM      4  C   UNL     1      16.568  11.972   2.996  1.00  0.00     0.004 C 
BRANCH   4   5
ATOM      5  C   UNL     1      15.159  12.513   2.690  1.00  0.00     0.000 C 
BRANCH   5   6
ATOM      6  C   UNL     1      15.148  14.028   2.426  1.00  0.00     0.000 C 
BRANCH   6   7
ATOM      7  C   UNL     1      15.093  14.367   0.927  1.00  0.00     0.000 C 
BRANCH   7   8
ATOM      8  C   UNL     1      13.815  15.124   0.540  1.00  0.00     0.006 C 
BRANCH   8   9
ATOM      9  C   UNL     1      13.579  15.062  -0.973  1.00  0.00     0.053 C 
BRANCH   9  10
ATOM     10  C   UNL     1      12.286  14.373  -1.274  1.00  0.00     0.041 C 
ATOM     11  O   UNL     1      11.913  13.394  -0.577  1.00  0.00    -0.550 OA
ATOM     12  O   UNL     1      11.524  14.771  -2.366  1.00  0.00    -0.550 OA
ENDBRANCH   9  10
ENDBRANCH   8   9
ENDBRANCH   7   8
ENDBRANCH   6   7
ENDBRANCH   5   6
ENDBRANCH   4   5
ENDBRANCH   3   4
ENDBRANCH   1   3
BRANCH   2  13
ATOM     13  C   UNL     1      17.316   8.043   5.112  1.00  0.00     0.027 C 
BRANCH  13  14
ATOM     14  C   UNL     1      17.223   6.676   4.417  1.00  0.00     0.004 C 
BRANCH  14  15
ATOM     15  C   UNL     1      17.233   6.806   2.883  1.00  0.00     0.000 C 
BRANCH  15  16
ATOM     16  C   UNL     1      15.818   6.867   2.286  1.00  0.00     0.000 C 
BRANCH  16  17
ATOM     17  C   UNL     1      15.825   7.116   0.770  1.00  0.00    -0.000 C 
BRANCH  17  18
ATOM     18  C   UNL     1      15.499   5.828   0.000  1.00  0.00    -0.000 C 
BRANCH  18  19
ATOM     19  C   UNL     1      15.458   6.045  -1.520  1.00  0.00    -0.003 C 
ATOM     20  C   UNL     1      15.920   7.442  -1.933  1.00  0.00     0.004 C 
ENDBRANCH  18  19
ENDBRANCH  17  18
ENDBRANCH  16  17
ENDBRANCH  15  16
ENDBRANCH  14  15
ENDBRANCH  13  14
ENDBRANCH   2  13
TORSDOF 15
ENDMDL
MODEL 8
REMARK VINA RESULT:    -3.675      2.436      4.823
REMARK INTER + INTRA:          -8.776
REMARK INTER:                  -7.373
REMARK INTRA:                  -1.403
REMARK UNBOUND:                -1.878
REMARK SMILES CCCCCCCCC=CCCCCCCCC(=O)[O-]
REMARK SMILES IDX 10 1 9 2 11 3 12 4 13 5 14 6 15 7 16 8 17 9 18 10 19 11
REMARK SMILES IDX 20 12 8 13 7 14 6 15 5 16 4 17 3 18 2 19 1 20
REMARK H PARENT
REMARK Flexibility Score: inf
ROOT
ATOM      1  C   UNL     1      18.133   9.900   3.780  1.00  0.00    -0.031 C 
ATOM      2  C   UNL     1      17.459  10.779   3.016  1.00  0.00    -0.031 C 
ENDROOT
BRANCH   1   3
ATOM      3  C   UNL     1      17.634   9.337   5.089  1.00  0.00     0.027 C 
BRANCH   3   4
ATOM      4  C   UNL     1      18.136   7.904   5.334  1.00  0.00     0.004 C 
BRANCH   4   5
ATOM      5  C   UNL     1      17.537   6.853   4.380  1.00  0.00     0.000 C 
BRANCH   5   6
ATOM      6  C   UNL     1      16.001   6.897   4.336  1.00  0.00     0.000 C 
BRANCH   6   7
ATOM      7  C   UNL     1      15.460   7.323   2.962  1.00  0.00     0.000 C 
BRANCH   7   8
ATOM      8  C   UNL     1      16.309   6.788   1.801  1.00  0.00     0.006 C 
BRANCH   8   9
ATOM      9  C   UNL     1      15.751   7.254   0.453  1.00  0.00     0.053 C 
BRANCH   9  10
ATOM     10  C   UNL     1      15.607   6.097  -0.484  1.00  0.00     0.041 C 
ATOM     11  O   UNL     1      15.560   4.922  -0.036  1.00  0.00    -0.550 OA
ATOM     12  O   UNL     1      15.589   6.312  -1.857  1.00  0.00    -0.550 OA
ENDBRANCH   9  10
ENDBRANCH   8   9
ENDBRANCH   7   8
ENDBRANCH   6   7
ENDBRANCH   5   6
ENDBRANCH   4   5
ENDBRANCH   3   4
ENDBRANCH   1   3
BRANCH   2  13
ATOM     13  C   UNL     1      16.142  11.413   3.393  1.00  0.00     0.027 C 
BRANCH  13  14
ATOM     14  C   UNL     1      15.728  12.513   2.401  1.00  0.00     0.004 C 
BRANCH  14  15
ATOM     15  C   UNL     1      15.075  13.713   3.108  1.00  0.00     0.000 C 
BRANCH  15  16
ATOM     16  C   UNL     1      14.948  14.940   2.192  1.00  0.00     0.000 C 
BRANCH  16  17
ATOM     17  C   UNL     1      14.976  14.572   0.701  1.00  0.00    -0.000 C 
BRANCH  17  18
ATOM     18  C   UNL     1      13.684  15.017   0.001  1.00  0.00    -0.000 C 
BRANCH  18  19
ATOM     19  C   UNL     1      13.134  13.948  -0.957  1.00  0.00    -0.003 C 
ATOM     20  C   UNL     1      11.674  13.594  -0.674  1.00  0.00     0.004 C 
ENDBRANCH  18  19
ENDBRANCH  17  18
ENDBRANCH  16  17
ENDBRANCH  15  16
ENDBRANCH  14  15
ENDBRANCH  13  14
ENDBRANCH   2  13
TORSDOF 15
ENDMDL
