MODEL 1
REMARK VINA RESULT:    -7.411      0.000      0.000
REMARK INTER + INTRA:          -9.270
REMARK INTER:                  -9.144
REMARK INTRA:                  -0.126
REMARK UNBOUND:                -0.126
REMARK SMILES Oc1cc(O)c2cc(O)c(-c3cc(O)c(O)c(O)c3)[o+]c2c1.[Cl-]
REMARK SMILES IDX 10 1 20 2 21 3 22 4 2 5 3 6 4 7 6 8 7 9 8 10 11 11 12 12
REMARK SMILES IDX 13 13 19 14 15 15 17 16 14 17 16 19 18 21 9 23 1 25 5 27
REMARK H PARENT 14 18 16 20 18 22 9 24 1 26 5 28
REMARK Flexibility Score: inf
ROOT
ATOM      1  C   UNL     1       7.243  28.915 -13.637  1.00  0.00     0.402 A 
ATOM      2  O   UNL     1       7.593  29.887 -12.797  1.00  0.00    -0.202 OA
ATOM      3  C   UNL     1       7.334  31.171 -13.018  1.00  0.00     0.368 A 
ATOM      4  C   UNL     1       7.739  32.119 -12.074  1.00  0.00     0.162 A 
ATOM      5  C   UNL     1       7.479  33.474 -12.279  1.00  0.00     0.128 A 
ATOM      6  C   UNL     1       6.807  33.888 -13.435  1.00  0.00     0.093 A 
ATOM      7  C   UNL     1       6.390  32.958 -14.396  1.00  0.00     0.136 A 
ATOM      8  C   UNL     1       6.656  31.579 -14.192  1.00  0.00     0.125 A 
ATOM      9  C   UNL     1       6.288  30.578 -15.107  1.00  0.00     0.078 A 
ATOM     10  C   UNL     1       6.589  29.239 -14.839  1.00  0.00     0.223 A 
ENDROOT
BRANCH   1  11
ATOM     11  C   UNL     1       7.580  27.520 -13.273  1.00  0.00     0.091 A 
ATOM     12  C   UNL     1       6.562  26.554 -13.229  1.00  0.00     0.068 A 
ATOM     13  C   UNL     1       6.857  25.222 -12.906  1.00  0.00     0.162 A 
ATOM     14  C   UNL     1       8.906  27.128 -13.025  1.00  0.00     0.068 A 
ATOM     15  C   UNL     1       8.179  24.842 -12.639  1.00  0.00     0.200 A 
ATOM     16  C   UNL     1       9.207  25.797 -12.704  1.00  0.00     0.162 A 
BRANCH  13  17
ATOM     17  O   UNL     1       5.841  24.270 -12.850  1.00  0.00    -0.504 OA
ATOM     18  H   UNL     1       4.869  24.537 -12.744  1.00  0.00     0.293 HD
ENDBRANCH  13  17
BRANCH  15  19
ATOM     19  O   UNL     1       8.454  23.512 -12.318  1.00  0.00    -0.502 OA
ATOM     20  H   UNL     1       7.767  22.778 -12.432  1.00  0.00     0.293 HD
ENDBRANCH  15  19
BRANCH  16  21
ATOM     21  O   UNL     1      10.526  25.420 -12.453  1.00  0.00    -0.504 OA
ATOM     22  H   UNL     1      11.308  25.924 -12.854  1.00  0.00     0.293 HD
ENDBRANCH  16  21
ENDBRANCH   1  11
BRANCH  10  23
ATOM     23  O   UNL     1       6.268  28.250 -15.770  1.00  0.00    -0.500 OA
ATOM     24  H   UNL     1       6.315  28.424 -16.768  1.00  0.00     0.294 HD
ENDBRANCH  10  23
BRANCH   5  25
ATOM     25  O   UNL     1       7.890  34.404 -11.327  1.00  0.00    -0.507 OA
ATOM     26  H   UNL     1       7.926  35.395 -11.534  1.00  0.00     0.293 HD
ENDBRANCH   5  25
BRANCH   7  27
ATOM     27  O   UNL     1       5.722  33.450 -15.521  1.00  0.00    -0.507 OA
ATOM     28  H   UNL     1       6.160  33.620 -16.414  1.00  0.00     0.293 HD
ENDBRANCH   7  27
TORSDOF 7
ENDMDL
MODEL 2
REMARK VINA RESULT:    -7.354      0.181      1.797
REMARK INTER + INTRA:          -9.200
REMARK INTER:                  -9.020
REMARK INTRA:                  -0.179
REMARK UNBOUND:                -0.126
REMARK SMILES Oc1cc(O)c2cc(O)c(-c3cc(O)c(O)c(O)c3)[o+]c2c1.[Cl-]
REMARK SMILES IDX 10 1 20 2 21 3 22 4 2 5 3 6 4 7 6 8 7 9 8 10 11 11 12 12
REMARK SMILES IDX 13 13 19 14 15 15 17 16 14 17 16 19 18 21 9 23 1 25 5 27
REMARK H PARENT 14 18 16 20 18 22 9 24 1 26 5 28
REMARK Flexibility Score: inf
ROOT
ATOM      1  C   UNL     1       7.322  28.950 -13.692  1.00  0.00     0.402 A 
ATOM      2  O   UNL     1       7.711  29.887 -12.829  1.00  0.00    -0.202 OA
ATOM      3  C   UNL     1       7.511  31.186 -13.023  1.00  0.00     0.368 A 
ATOM      4  C   UNL     1       7.953  32.094 -12.058  1.00  0.00     0.162 A 
ATOM      5  C   UNL     1       7.755  33.463 -12.234  1.00  0.00     0.128 A 
ATOM      6  C   UNL     1       7.108  33.932 -13.383  1.00  0.00     0.093 A 
ATOM      7  C   UNL     1       6.655  33.042 -14.366  1.00  0.00     0.136 A 
ATOM      8  C   UNL     1       6.858  31.649 -14.192  1.00  0.00     0.125 A 
ATOM      9  C   UNL     1       6.450  30.686 -15.129  1.00  0.00     0.078 A 
ATOM     10  C   UNL     1       6.689  29.329 -14.890  1.00  0.00     0.223 A 
ENDROOT
BRANCH   1  11
ATOM     11  C   UNL     1       7.594  27.534 -13.357  1.00  0.00     0.091 A 
ATOM     12  C   UNL     1       8.905  27.136 -13.051  1.00  0.00     0.068 A 
ATOM     13  C   UNL     1       9.185  25.805 -12.712  1.00  0.00     0.162 A 
ATOM     14  C   UNL     1       6.557  26.588 -13.284  1.00  0.00     0.068 A 
ATOM     15  C   UNL     1       8.150  24.862 -12.661  1.00  0.00     0.200 A 
ATOM     16  C   UNL     1       6.832  25.256 -12.944  1.00  0.00     0.162 A 
BRANCH  13  17
ATOM     17  O   UNL     1      10.490  25.413 -12.422  1.00  0.00    -0.504 OA
ATOM     18  H   UNL     1      11.271  25.697 -13.002  1.00  0.00     0.293 HD
ENDBRANCH  13  17
BRANCH  15  19
ATOM     19  O   UNL     1       8.448  23.541 -12.324  1.00  0.00    -0.502 OA
ATOM     20  H   UNL     1       9.140  23.000 -12.828  1.00  0.00     0.293 HD
ENDBRANCH  15  19
BRANCH  16  21
ATOM     21  O   UNL     1       5.797  24.323 -12.881  1.00  0.00    -0.504 OA
ATOM     22  H   UNL     1       5.962  23.366 -12.593  1.00  0.00     0.293 HD
ENDBRANCH  16  21
ENDBRANCH   1  11
BRANCH  10  23
ATOM     23  O   UNL     1       6.330  28.376 -15.844  1.00  0.00    -0.500 OA
ATOM     24  H   UNL     1       5.465  27.853 -15.773  1.00  0.00     0.294 HD
ENDBRANCH  10  23
BRANCH   5  25
ATOM     25  O   UNL     1       8.203  34.353 -11.260  1.00  0.00    -0.507 OA
ATOM     26  H   UNL     1       8.652  35.227 -11.506  1.00  0.00     0.293 HD
ENDBRANCH   5  25
BRANCH   7  27
ATOM     27  O   UNL     1       6.016  33.588 -15.483  1.00  0.00    -0.507 OA
ATOM     28  H   UNL     1       6.362  34.378 -16.009  1.00  0.00     0.293 HD
ENDBRANCH   7  27
TORSDOF 7
ENDMDL
MODEL 3
REMARK VINA RESULT:    -7.102      1.836      7.176
REMARK INTER + INTRA:          -8.889
REMARK INTER:                  -8.572
REMARK INTRA:                  -0.317
REMARK UNBOUND:                -0.126
REMARK SMILES Oc1cc(O)c2cc(O)c(-c3cc(O)c(O)c(O)c3)[o+]c2c1.[Cl-]
REMARK SMILES IDX 10 1 20 2 21 3 22 4 2 5 3 6 4 7 6 8 7 9 8 10 11 11 12 12
REMARK SMILES IDX 13 13 19 14 15 15 17 16 14 17 16 19 18 21 9 23 1 25 5 27
REMARK H PARENT 14 18 16 20 18 22 9 24 1 26 5 28
REMARK Flexibility Score: inf
ROOT
ATOM      1  C   UNL     1       7.482  29.251 -14.172  1.00  0.00     0.402 A 
ATOM      2  O   UNL     1       6.873  28.123 -13.810  1.00  0.00    -0.202 OA
ATOM      3  C   UNL     1       7.515  27.079 -13.300  1.00  0.00     0.368 A 
ATOM      4  C   UNL     1       6.789  25.939 -12.947  1.00  0.00     0.162 A 
ATOM      5  C   UNL     1       7.436  24.828 -12.407  1.00  0.00     0.128 A 
ATOM      6  C   UNL     1       8.823  24.854 -12.215  1.00  0.00     0.093 A 
ATOM      7  C   UNL     1       9.574  25.985 -12.560  1.00  0.00     0.136 A 
ATOM      8  C   UNL     1       8.919  27.115 -13.113  1.00  0.00     0.125 A 
ATOM      9  C   UNL     1       9.593  28.285 -13.501  1.00  0.00     0.078 A 
ATOM     10  C   UNL     1       8.878  29.359 -14.043  1.00  0.00     0.223 A 
ENDROOT
BRANCH   1  11
ATOM     11  C   UNL     1       6.654  30.349 -14.720  1.00  0.00     0.091 A 
ATOM     12  C   UNL     1       6.644  30.583 -16.104  1.00  0.00     0.068 A 
ATOM     13  C   UNL     1       5.854  31.604 -16.649  1.00  0.00     0.162 A 
ATOM     14  C   UNL     1       5.831  31.129 -13.889  1.00  0.00     0.068 A 
ATOM     15  C   UNL     1       5.052  32.392 -15.813  1.00  0.00     0.200 A 
ATOM     16  C   UNL     1       5.037  32.150 -14.429  1.00  0.00     0.162 A 
BRANCH  13  17
ATOM     17  O   UNL     1       5.859  31.841 -18.022  1.00  0.00    -0.504 OA
ATOM     18  H   UNL     1       5.527  32.716 -18.411  1.00  0.00     0.293 HD
ENDBRANCH  13  17
BRANCH  15  19
ATOM     19  O   UNL     1       4.273  33.405 -16.373  1.00  0.00    -0.502 OA
ATOM     20  H   UNL     1       3.262  33.401 -16.317  1.00  0.00     0.293 HD
ENDBRANCH  15  19
BRANCH  16  21
ATOM     21  O   UNL     1       4.229  32.923 -13.596  1.00  0.00    -0.504 OA
ATOM     22  H   UNL     1       4.144  32.724 -12.606  1.00  0.00     0.293 HD
ENDBRANCH  16  21
ENDBRANCH   1  11
BRANCH  10  23
ATOM     23  O   UNL     1       9.553  30.501 -14.475  1.00  0.00    -0.500 OA
ATOM     24  H   UNL     1       9.310  30.966 -15.342  1.00  0.00     0.294 HD
ENDBRANCH  10  23
BRANCH   5  25
ATOM     25  O   UNL     1       6.694  23.701 -12.061  1.00  0.00    -0.507 OA
ATOM     26  H   UNL     1       6.366  23.047 -12.761  1.00  0.00     0.293 HD
ENDBRANCH   5  25
BRANCH   7  27
ATOM     27  O   UNL     1      10.953  25.934 -12.337  1.00  0.00    -0.507 OA
ATOM     28  H   UNL     1      11.645  26.349 -12.943  1.00  0.00     0.293 HD
ENDBRANCH   7  27
TORSDOF 7
ENDMDL
MODEL 4
REMARK VINA RESULT:    -7.102      1.832      7.130
REMARK INTER + INTRA:          -8.889
REMARK INTER:                  -8.568
REMARK INTRA:                  -0.321
REMARK UNBOUND:                -0.126
REMARK SMILES Oc1cc(O)c2cc(O)c(-c3cc(O)c(O)c(O)c3)[o+]c2c1.[Cl-]
REMARK SMILES IDX 10 1 20 2 21 3 22 4 2 5 3 6 4 7 6 8 7 9 8 10 11 11 12 12
REMARK SMILES IDX 13 13 19 14 15 15 17 16 14 17 16 19 18 21 9 23 1 25 5 27
REMARK H PARENT 14 18 16 20 18 22 9 24 1 26 5 28
REMARK Flexibility Score: inf
ROOT
ATOM      1  C   UNL     1       7.453  29.218 -14.156  1.00  0.00     0.402 A 
ATOM      2  O   UNL     1       6.860  28.082 -13.795  1.00  0.00    -0.202 OA
ATOM      3  C   UNL     1       7.513  27.057 -13.258  1.00  0.00     0.368 A 
ATOM      4  C   UNL     1       6.803  25.906 -12.908  1.00  0.00     0.162 A 
ATOM      5  C   UNL     1       7.462  24.815 -12.341  1.00  0.00     0.128 A 
ATOM      6  C   UNL     1       8.842  24.873 -12.119  1.00  0.00     0.093 A 
ATOM      7  C   UNL     1       9.577  26.016 -12.460  1.00  0.00     0.136 A 
ATOM      8  C   UNL     1       8.911  27.125 -13.040  1.00  0.00     0.125 A 
ATOM      9  C   UNL     1       9.568  28.306 -13.426  1.00  0.00     0.078 A 
ATOM     10  C   UNL     1       8.843  29.357 -13.996  1.00  0.00     0.223 A 
ENDROOT
BRANCH   1  11
ATOM     11  C   UNL     1       6.614  30.292 -14.734  1.00  0.00     0.091 A 
ATOM     12  C   UNL     1       5.842  31.099 -13.883  1.00  0.00     0.068 A 
ATOM     13  C   UNL     1       5.055  32.135 -14.403  1.00  0.00     0.162 A 
ATOM     14  C   UNL     1       6.615  30.559 -16.113  1.00  0.00     0.068 A 
ATOM     15  C   UNL     1       5.045  32.383 -15.782  1.00  0.00     0.200 A 
ATOM     16  C   UNL     1       5.831  31.595 -16.639  1.00  0.00     0.162 A 
BRANCH  13  17
ATOM     17  O   UNL     1       4.281  32.925 -13.555  1.00  0.00    -0.504 OA
ATOM     18  H   UNL     1       3.443  33.391 -13.882  1.00  0.00     0.293 HD
ENDBRANCH  13  17
BRANCH  15  19
ATOM     19  O   UNL     1       4.253  33.417 -16.283  1.00  0.00    -0.502 OA
ATOM     20  H   UNL     1       4.084  33.535 -17.274  1.00  0.00     0.293 HD
ENDBRANCH  15  19
BRANCH  16  21
ATOM     21  O   UNL     1       5.835  31.848 -18.010  1.00  0.00    -0.504 OA
ATOM     22  H   UNL     1       5.689  32.781 -18.379  1.00  0.00     0.293 HD
ENDBRANCH  16  21
ENDBRANCH   1  11
BRANCH  10  23
ATOM     23  O   UNL     1       9.503  30.509 -14.425  1.00  0.00    -0.500 OA
ATOM     24  H   UNL     1      10.503  30.520 -14.588  1.00  0.00     0.294 HD
ENDBRANCH  10  23
BRANCH   5  25
ATOM     25  O   UNL     1       6.736  23.675 -12.000  1.00  0.00    -0.507 OA
ATOM     26  H   UNL     1       5.724  23.682 -11.968  1.00  0.00     0.293 HD
ENDBRANCH   5  25
BRANCH   7  27
ATOM     27  O   UNL     1      10.952  25.997 -12.204  1.00  0.00    -0.507 OA
ATOM     28  H   UNL     1      11.588  25.300 -12.561  1.00  0.00     0.293 HD
ENDBRANCH   7  27
TORSDOF 7
ENDMDL
MODEL 5
REMARK VINA RESULT:    -6.972     10.171     12.791
REMARK INTER + INTRA:          -8.728
REMARK INTER:                  -8.386
REMARK INTRA:                  -0.342
REMARK UNBOUND:                -0.126
REMARK SMILES Oc1cc(O)c2cc(O)c(-c3cc(O)c(O)c(O)c3)[o+]c2c1.[Cl-]
REMARK SMILES IDX 10 1 20 2 21 3 22 4 2 5 3 6 4 7 6 8 7 9 8 10 11 11 12 12
REMARK SMILES IDX 13 13 19 14 15 15 17 16 14 17 16 19 18 21 9 23 1 25 5 27
REMARK H PARENT 14 18 16 20 18 22 9 24 1 26 5 28
REMARK Flexibility Score: inf
ROOT
ATOM      1  C   UNL     1      -1.503  33.921 -18.198  1.00  0.00     0.402 A 
ATOM      2  O   UNL     1      -2.532  34.660 -17.788  1.00  0.00    -0.202 OA
ATOM      3  C   UNL     1      -3.678  34.143 -17.359  1.00  0.00     0.368 A 
ATOM      4  C   UNL     1      -4.700  35.001 -16.946  1.00  0.00     0.162 A 
ATOM      5  C   UNL     1      -5.913  34.486 -16.489  1.00  0.00     0.128 A 
ATOM      6  C   UNL     1      -6.108  33.101 -16.440  1.00  0.00     0.093 A 
ATOM      7  C   UNL     1      -5.098  32.219 -16.847  1.00  0.00     0.136 A 
ATOM      8  C   UNL     1      -3.865  32.739 -17.316  1.00  0.00     0.125 A 
ATOM      9  C   UNL     1      -2.804  31.932 -17.757  1.00  0.00     0.078 A 
ATOM     10  C   UNL     1      -1.617  32.519 -18.211  1.00  0.00     0.223 A 
ENDROOT
BRANCH   1  11
ATOM     11  C   UNL     1      -0.275  34.616 -18.644  1.00  0.00     0.091 A 
ATOM     12  C   UNL     1       0.648  35.070 -17.688  1.00  0.00     0.068 A 
ATOM     13  C   UNL     1       1.827  35.714 -18.086  1.00  0.00     0.162 A 
ATOM     14  C   UNL     1       0.016  34.784 -20.008  1.00  0.00     0.068 A 
ATOM     15  C   UNL     1       2.102  35.896 -19.448  1.00  0.00     0.200 A 
ATOM     16  C   UNL     1       1.195  35.425 -20.412  1.00  0.00     0.162 A 
BRANCH  13  17
ATOM     17  O   UNL     1       2.734  36.174 -17.132  1.00  0.00    -0.504 OA
ATOM     18  H   UNL     1       2.946  35.636 -16.299  1.00  0.00     0.293 HD
ENDBRANCH  13  17
BRANCH  15  19
ATOM     19  O   UNL     1       3.280  36.541 -19.824  1.00  0.00    -0.502 OA
ATOM     20  H   UNL     1       3.904  36.962 -19.147  1.00  0.00     0.293 HD
ENDBRANCH  15  19
BRANCH  16  21
ATOM     21  O   UNL     1       1.472  35.592 -21.768  1.00  0.00    -0.504 OA
ATOM     22  H   UNL     1       1.057  34.993 -22.472  1.00  0.00     0.293 HD
ENDBRANCH  16  21
ENDBRANCH   1  11
BRANCH  10  23
ATOM     23  O   UNL     1      -0.582  31.720 -18.696  1.00  0.00    -0.500 OA
ATOM     24  H   UNL     1      -0.329  30.847 -18.247  1.00  0.00     0.294 HD
ENDBRANCH  10  23
BRANCH   5  25
ATOM     25  O   UNL     1      -6.920  35.358 -16.082  1.00  0.00    -0.507 OA
ATOM     26  H   UNL     1      -6.996  35.670 -15.121  1.00  0.00     0.293 HD
ENDBRANCH   5  25
BRANCH   7  27
ATOM     27  O   UNL     1      -5.369  30.849 -16.766  1.00  0.00    -0.507 OA
ATOM     28  H   UNL     1      -6.049  30.368 -17.335  1.00  0.00     0.293 HD
ENDBRANCH   7  27
TORSDOF 7
ENDMDL
MODEL 6
REMARK VINA RESULT:    -6.894     10.836     13.583
REMARK INTER + INTRA:          -8.632
REMARK INTER:                  -8.463
REMARK INTRA:                  -0.169
REMARK UNBOUND:                -0.126
REMARK SMILES Oc1cc(O)c2cc(O)c(-c3cc(O)c(O)c(O)c3)[o+]c2c1.[Cl-]
REMARK SMILES IDX 10 1 20 2 21 3 22 4 2 5 3 6 4 7 6 8 7 9 8 10 11 11 12 12
REMARK SMILES IDX 13 13 19 14 15 15 17 16 14 17 16 19 18 21 9 23 1 25 5 27
REMARK H PARENT 14 18 16 20 18 22 9 24 1 26 5 28
REMARK Flexibility Score: inf
ROOT
ATOM      1  C   UNL     1      -3.725  33.451 -17.697  1.00  0.00     0.402 A 
ATOM      2  O   UNL     1      -2.919  34.404 -17.234  1.00  0.00    -0.202 OA
ATOM      3  C   UNL     1      -1.653  34.537 -17.614  1.00  0.00     0.368 A 
ATOM      4  C   UNL     1      -0.886  35.572 -17.074  1.00  0.00     0.162 A 
ATOM      5  C   UNL     1       0.445  35.738 -17.456  1.00  0.00     0.128 A 
ATOM      6  C   UNL     1       1.017  34.864 -18.388  1.00  0.00     0.093 A 
ATOM      7  C   UNL     1       0.269  33.819 -18.946  1.00  0.00     0.136 A 
ATOM      8  C   UNL     1      -1.084  33.646 -18.556  1.00  0.00     0.125 A 
ATOM      9  C   UNL     1      -1.905  32.619 -19.052  1.00  0.00     0.078 A 
ATOM     10  C   UNL     1      -3.230  32.508 -18.617  1.00  0.00     0.223 A 
ENDROOT
BRANCH   1  11
ATOM     11  C   UNL     1      -5.120  33.412 -17.204  1.00  0.00     0.091 A 
ATOM     12  C   UNL     1      -5.977  34.491 -17.472  1.00  0.00     0.068 A 
ATOM     13  C   UNL     1      -7.308  34.471 -17.033  1.00  0.00     0.162 A 
ATOM     14  C   UNL     1      -5.623  32.294 -16.518  1.00  0.00     0.068 A 
ATOM     15  C   UNL     1      -7.798  33.361 -16.332  1.00  0.00     0.200 A 
ATOM     16  C   UNL     1      -6.954  32.267 -16.078  1.00  0.00     0.162 A 
BRANCH  13  17
ATOM     17  O   UNL     1      -8.151  35.550 -17.291  1.00  0.00    -0.504 OA
ATOM     18  H   UNL     1      -8.736  35.952 -16.568  1.00  0.00     0.293 HD
ENDBRANCH  13  17
BRANCH  15  19
ATOM     19  O   UNL     1      -9.125  33.360 -15.900  1.00  0.00    -0.502 OA
ATOM     20  H   UNL     1      -9.785  34.073 -16.185  1.00  0.00     0.293 HD
ENDBRANCH  15  19
BRANCH  16  21
ATOM     21  O   UNL     1      -7.442  31.155 -15.393  1.00  0.00    -0.504 OA
ATOM     22  H   UNL     1      -7.470  30.237 -15.822  1.00  0.00     0.293 HD
ENDBRANCH  16  21
ENDBRANCH   1  11
BRANCH  10  23
ATOM     23  O   UNL     1      -4.030  31.459 -19.070  1.00  0.00    -0.500 OA
ATOM     24  H   UNL     1      -5.041  31.526 -19.076  1.00  0.00     0.294 HD
ENDBRANCH  10  23
BRANCH   5  25
ATOM     25  O   UNL     1       1.194  36.776 -16.906  1.00  0.00    -0.507 OA
ATOM     26  H   UNL     1       1.531  36.738 -15.951  1.00  0.00     0.293 HD
ENDBRANCH   5  25
BRANCH   7  27
ATOM     27  O   UNL     1       0.910  32.991 -19.872  1.00  0.00    -0.507 OA
ATOM     28  H   UNL     1       1.267  32.071 -19.662  1.00  0.00     0.293 HD
ENDBRANCH   7  27
TORSDOF 7
ENDMDL
MODEL 7
REMARK VINA RESULT:    -6.836      1.247      7.326
REMARK INTER + INTRA:          -8.560
REMARK INTER:                  -8.177
REMARK INTRA:                  -0.383
REMARK UNBOUND:                -0.126
REMARK SMILES Oc1cc(O)c2cc(O)c(-c3cc(O)c(O)c(O)c3)[o+]c2c1.[Cl-]
REMARK SMILES IDX 10 1 20 2 21 3 22 4 2 5 3 6 4 7 6 8 7 9 8 10 11 11 12 12
REMARK SMILES IDX 13 13 19 14 15 15 17 16 14 17 16 19 18 21 9 23 1 25 5 27
REMARK H PARENT 14 18 16 20 18 22 9 24 1 26 5 28
REMARK Flexibility Score: inf
ROOT
ATOM      1  C   UNL     1       8.258  29.825 -13.233  1.00  0.00     0.402 A 
ATOM      2  O   UNL     1       7.351  28.851 -13.279  1.00  0.00    -0.202 OA
ATOM      3  C   UNL     1       7.649  27.568 -13.108  1.00  0.00     0.368 A 
ATOM      4  C   UNL     1       6.626  26.619 -13.171  1.00  0.00     0.162 A 
ATOM      5  C   UNL     1       6.908  25.264 -12.993  1.00  0.00     0.128 A 
ATOM      6  C   UNL     1       8.223  24.853 -12.746  1.00  0.00     0.093 A 
ATOM      7  C   UNL     1       9.267  25.785 -12.677  1.00  0.00     0.136 A 
ATOM      8  C   UNL     1       8.983  27.163 -12.862  1.00  0.00     0.125 A 
ATOM      9  C   UNL     1       9.967  28.165 -12.823  1.00  0.00     0.078 A 
ATOM     10  C   UNL     1       9.611  29.504 -13.018  1.00  0.00     0.223 A 
ENDROOT
BRANCH   1  11
ATOM     11  C   UNL     1       7.800  31.219 -13.429  1.00  0.00     0.091 A 
ATOM     12  C   UNL     1       7.602  31.703 -14.732  1.00  0.00     0.068 A 
ATOM     13  C   UNL     1       7.150  33.013 -14.945  1.00  0.00     0.162 A 
ATOM     14  C   UNL     1       7.505  32.053 -12.338  1.00  0.00     0.068 A 
ATOM     15  C   UNL     1       6.877  33.846 -13.852  1.00  0.00     0.200 A 
ATOM     16  C   UNL     1       7.051  33.363 -12.545  1.00  0.00     0.162 A 
BRANCH  13  17
ATOM     17  O   UNL     1       6.968  33.492 -16.241  1.00  0.00    -0.504 OA
ATOM     18  H   UNL     1       6.636  34.433 -16.417  1.00  0.00     0.293 HD
ENDBRANCH  13  17
BRANCH  15  19
ATOM     19  O   UNL     1       6.431  35.148 -14.084  1.00  0.00    -0.502 OA
ATOM     20  H   UNL     1       6.352  35.830 -13.340  1.00  0.00     0.293 HD
ENDBRANCH  15  19
BRANCH  16  21
ATOM     21  O   UNL     1       6.767  34.185 -11.455  1.00  0.00    -0.504 OA
ATOM     22  H   UNL     1       6.018  33.969 -10.808  1.00  0.00     0.293 HD
ENDBRANCH  16  21
ENDBRANCH   1  11
BRANCH  10  23
ATOM     23  O   UNL     1      10.594  30.494 -13.030  1.00  0.00    -0.500 OA
ATOM     24  H   UNL     1      10.405  31.435 -12.704  1.00  0.00     0.294 HD
ENDBRANCH  10  23
BRANCH   5  25
ATOM     25  O   UNL     1       5.875  24.332 -13.060  1.00  0.00    -0.507 OA
ATOM     26  H   UNL     1       4.992  24.485 -12.588  1.00  0.00     0.293 HD
ENDBRANCH   5  25
BRANCH   7  27
ATOM     27  O   UNL     1      10.552  25.296 -12.425  1.00  0.00    -0.507 OA
ATOM     28  H   UNL     1      11.279  25.220 -13.120  1.00  0.00     0.293 HD
ENDBRANCH   7  27
TORSDOF 7
ENDMDL
MODEL 8
REMARK VINA RESULT:    -6.833      1.671      2.762
REMARK INTER + INTRA:          -8.558
REMARK INTER:                  -8.281
REMARK INTRA:                  -0.277
REMARK UNBOUND:                -0.126
REMARK SMILES Oc1cc(O)c2cc(O)c(-c3cc(O)c(O)c(O)c3)[o+]c2c1.[Cl-]
REMARK SMILES IDX 10 1 20 2 21 3 22 4 2 5 3 6 4 7 6 8 7 9 8 10 11 11 12 12
REMARK SMILES IDX 13 13 19 14 15 15 17 16 14 17 16 19 18 21 9 23 1 25 5 27
REMARK H PARENT 14 18 16 20 18 22 9 24 1 26 5 28
REMARK Flexibility Score: inf
ROOT
ATOM      1  C   UNL     1       8.482  28.482 -13.653  1.00  0.00     0.402 A 
ATOM      2  O   UNL     1       7.377  28.946 -14.232  1.00  0.00    -0.202 OA
ATOM      3  C   UNL     1       7.076  30.238 -14.301  1.00  0.00     0.368 A 
ATOM      4  C   UNL     1       5.894  30.629 -14.934  1.00  0.00     0.162 A 
ATOM      5  C   UNL     1       5.553  31.979 -15.023  1.00  0.00     0.128 A 
ATOM      6  C   UNL     1       6.402  32.949 -14.478  1.00  0.00     0.093 A 
ATOM      7  C   UNL     1       7.594  32.584 -13.840  1.00  0.00     0.136 A 
ATOM      8  C   UNL     1       7.941  31.212 -13.744  1.00  0.00     0.125 A 
ATOM      9  C   UNL     1       9.108  30.753 -13.110  1.00  0.00     0.078 A 
ATOM     10  C   UNL     1       9.381  29.382 -13.052  1.00  0.00     0.223 A 
ENDROOT
BRANCH   1  11
ATOM     11  C   UNL     1       8.710  27.020 -13.649  1.00  0.00     0.091 A 
ATOM     12  C   UNL     1       7.815  26.183 -12.962  1.00  0.00     0.068 A 
ATOM     13  C   UNL     1       7.998  24.794 -12.960  1.00  0.00     0.162 A 
ATOM     14  C   UNL     1       9.772  26.443 -14.366  1.00  0.00     0.068 A 
ATOM     15  C   UNL     1       9.071  24.226 -13.660  1.00  0.00     0.200 A 
ATOM     16  C   UNL     1       9.958  25.053 -14.368  1.00  0.00     0.162 A 
BRANCH  13  17
ATOM     17  O   UNL     1       7.114  23.969 -12.266  1.00  0.00    -0.504 OA
ATOM     18  H   UNL     1       6.372  23.469 -12.740  1.00  0.00     0.293 HD
ENDBRANCH  13  17
BRANCH  15  19
ATOM     19  O   UNL     1       9.238  22.841 -13.644  1.00  0.00    -0.502 OA
ATOM     20  H   UNL     1       9.604  22.352 -12.837  1.00  0.00     0.293 HD
ENDBRANCH  15  19
BRANCH  16  21
ATOM     21  O   UNL     1      11.019  24.492 -15.077  1.00  0.00    -0.504 OA
ATOM     22  H   UNL     1      11.419  24.951 -15.887  1.00  0.00     0.293 HD
ENDBRANCH  16  21
ENDBRANCH   1  11
BRANCH  10  23
ATOM     23  O   UNL     1      10.514  28.923 -12.379  1.00  0.00    -0.500 OA
ATOM     24  H   UNL     1      11.446  29.062 -12.751  1.00  0.00     0.294 HD
ENDBRANCH  10  23
BRANCH   5  25
ATOM     25  O   UNL     1       4.369  32.348 -15.657  1.00  0.00    -0.507 OA
ATOM     26  H   UNL     1       3.991  33.284 -15.571  1.00  0.00     0.293 HD
ENDBRANCH   5  25
BRANCH   7  27
ATOM     27  O   UNL     1       8.389  33.612 -13.323  1.00  0.00    -0.507 OA
ATOM     28  H   UNL     1       8.548  34.496 -13.783  1.00  0.00     0.293 HD
ENDBRANCH   7  27
TORSDOF 7
ENDMDL
MODEL 9
REMARK VINA RESULT:    -6.758      2.090      3.566
REMARK INTER + INTRA:          -8.465
REMARK INTER:                  -8.287
REMARK INTRA:                  -0.178
REMARK UNBOUND:                -0.126
REMARK SMILES Oc1cc(O)c2cc(O)c(-c3cc(O)c(O)c(O)c3)[o+]c2c1.[Cl-]
REMARK SMILES IDX 10 1 20 2 21 3 22 4 2 5 3 6 4 7 6 8 7 9 8 10 11 11 12 12
REMARK SMILES IDX 13 13 19 14 15 15 17 16 14 17 16 19 18 21 9 23 1 25 5 27
REMARK H PARENT 14 18 16 20 18 22 9 24 1 26 5 28
REMARK Flexibility Score: inf
ROOT
ATOM      1  C   UNL     1       8.532  27.082 -13.012  1.00  0.00     0.402 A 
ATOM      2  O   UNL     1       7.983  28.272 -12.775  1.00  0.00    -0.202 OA
ATOM      3  C   UNL     1       8.440  29.403 -13.299  1.00  0.00     0.368 A 
ATOM      4  C   UNL     1       7.795  30.604 -12.993  1.00  0.00     0.162 A 
ATOM      5  C   UNL     1       8.251  31.808 -13.531  1.00  0.00     0.128 A 
ATOM      6  C   UNL     1       9.361  31.814 -14.383  1.00  0.00     0.093 A 
ATOM      7  C   UNL     1      10.026  30.624 -14.706  1.00  0.00     0.136 A 
ATOM      8  C   UNL     1       9.566  29.398 -14.158  1.00  0.00     0.125 A 
ATOM      9  C   UNL     1      10.178  28.160 -14.415  1.00  0.00     0.078 A 
ATOM     10  C   UNL     1       9.670  26.993 -13.835  1.00  0.00     0.223 A 
ENDROOT
BRANCH   1  11
ATOM     11  C   UNL     1       7.924  25.891 -12.377  1.00  0.00     0.091 A 
ATOM     12  C   UNL     1       8.670  25.148 -11.448  1.00  0.00     0.068 A 
ATOM     13  C   UNL     1       8.110  24.028 -10.818  1.00  0.00     0.162 A 
ATOM     14  C   UNL     1       6.595  25.520 -12.641  1.00  0.00     0.068 A 
ATOM     15  C   UNL     1       6.791  23.650 -11.101  1.00  0.00     0.200 A 
ATOM     16  C   UNL     1       6.030  24.401 -12.012  1.00  0.00     0.162 A 
BRANCH  13  17
ATOM     17  O   UNL     1       8.859  23.286  -9.906  1.00  0.00    -0.504 OA
ATOM     18  H   UNL     1       9.399  22.478 -10.196  1.00  0.00     0.293 HD
ENDBRANCH  13  17
BRANCH  15  19
ATOM     19  O   UNL     1       6.251  22.531 -10.466  1.00  0.00    -0.502 OA
ATOM     20  H   UNL     1       6.748  21.650 -10.414  1.00  0.00     0.293 HD
ENDBRANCH  15  19
BRANCH  16  21
ATOM     21  O   UNL     1       4.712  24.037 -12.286  1.00  0.00    -0.504 OA
ATOM     22  H   UNL     1       4.271  24.262 -13.170  1.00  0.00     0.293 HD
ENDBRANCH  16  21
ENDBRANCH   1  11
BRANCH  10  23
ATOM     23  O   UNL     1      10.307  25.771 -14.049  1.00  0.00    -0.500 OA
ATOM     24  H   UNL     1      11.172  25.706 -14.573  1.00  0.00     0.294 HD
ENDBRANCH  10  23
BRANCH   5  25
ATOM     25  O   UNL     1       7.594  32.995 -13.214  1.00  0.00    -0.507 OA
ATOM     26  H   UNL     1       7.740  33.841 -13.751  1.00  0.00     0.293 HD
ENDBRANCH   5  25
BRANCH   7  27
ATOM     27  O   UNL     1      11.125  30.713 -15.566  1.00  0.00    -0.507 OA
ATOM     28  H   UNL     1      12.072  30.479 -15.306  1.00  0.00     0.293 HD
ENDBRANCH   7  27
TORSDOF 7
ENDMDL
