MODEL 1
REMARK VINA RESULT:    -4.729      0.000      0.000
REMARK INTER + INTRA:         -15.108
REMARK INTER:                 -11.916
REMARK INTRA:                  -3.191
REMARK UNBOUND:                -3.191
REMARK SMILES CCCCCCCCCCCCCCCCCCCCCCCCCCCC(=O)[O-]
REMARK SMILES IDX 15 1 16 2 17 3 18 4 19 5 20 6 21 7 22 8 23 9 24 10 25 11
REMARK SMILES IDX 26 12 27 13 28 14 29 15 30 16 14 17 13 18 12 19 11 20 10 21
REMARK SMILES IDX 9 22 8 23 7 24 6 25 5 26 4 27 3 28 2 29 1 30
REMARK H PARENT
REMARK Flexibility Score: inf
ROOT
ATOM      1  C   UNL     1      -5.818 -15.976   5.841  1.00  0.00     0.000 C 
ENDROOT
BRANCH   1   2
ATOM      2  C   UNL     1      -4.625 -16.254   4.910  1.00  0.00     0.000 C 
BRANCH   2   3
ATOM      3  C   UNL     1      -3.271 -16.030   5.603  1.00  0.00     0.000 C 
BRANCH   3   4
ATOM      4  C   UNL     1      -2.075 -16.406   4.709  1.00  0.00     0.000 C 
BRANCH   4   5
ATOM      5  C   UNL     1      -2.522 -17.021   3.365  1.00  0.00     0.000 C 
BRANCH   5   6
ATOM      6  C   UNL     1      -1.892 -18.395   3.079  1.00  0.00     0.000 C 
BRANCH   6   7
ATOM      7  C   UNL     1      -1.574 -19.182   4.362  1.00  0.00     0.000 C 
BRANCH   7   8
ATOM      8  C   UNL     1      -2.755 -20.044   4.835  1.00  0.00     0.000 C 
BRANCH   8   9
ATOM      9  C   UNL     1      -3.158 -19.743   6.290  1.00  0.00     0.000 C 
BRANCH   9  10
ATOM     10  C   UNL     1      -4.682 -19.679   6.480  1.00  0.00     0.000 C 
BRANCH  10  11
ATOM     11  C   UNL     1      -5.440 -19.633   5.143  1.00  0.00     0.000 C 
BRANCH  11  12
ATOM     12  C   UNL     1      -6.917 -20.032   5.285  1.00  0.00     0.006 C 
BRANCH  12  13
ATOM     13  C   UNL     1      -7.864 -19.097   4.519  1.00  0.00     0.053 C 
BRANCH  13  14
ATOM     14  C   UNL     1      -8.996 -19.873   3.925  1.00  0.00     0.041 C 
ATOM     15  O   UNL     1      -9.502 -20.839   4.554  1.00  0.00    -0.550 OA
ATOM     16  O   UNL     1      -9.526 -19.498   2.696  1.00  0.00    -0.550 OA
ENDBRANCH  13  14
ENDBRANCH  12  13
ENDBRANCH  11  12
ENDBRANCH  10  11
ENDBRANCH   9  10
ENDBRANCH   8   9
ENDBRANCH   7   8
ENDBRANCH   6   7
ENDBRANCH   5   6
ENDBRANCH   4   5
ENDBRANCH   3   4
ENDBRANCH   2   3
ENDBRANCH   1   2
BRANCH   1  17
ATOM     17  C   UNL     1      -7.013 -15.333   5.111  1.00  0.00     0.000 C 
BRANCH  17  18
ATOM     18  C   UNL     1      -7.257 -13.848   5.436  1.00  0.00     0.000 C 
BRANCH  18  19
ATOM     19  C   UNL     1      -8.735 -13.440   5.300  1.00  0.00     0.000 C 
BRANCH  19  20
ATOM     20  C   UNL     1      -9.125 -12.314   6.281  1.00  0.00     0.000 C 
BRANCH  20  21
ATOM     21  C   UNL     1     -10.642 -12.076   6.377  1.00  0.00     0.000 C 
BRANCH  21  22
ATOM     22  C   UNL     1     -11.022 -10.593   6.238  1.00  0.00    -0.000 C 
BRANCH  22  23
ATOM     23  C   UNL     1     -12.543 -10.370   6.262  1.00  0.00    -0.000 C 
BRANCH  23  24
ATOM     24  C   UNL     1     -12.976  -9.379   7.358  1.00  0.00    -0.000 C 
BRANCH  24  25
ATOM     25  C   UNL     1     -13.141 -10.058   8.735  1.00  0.00    -0.000 C 
BRANCH  25  26
ATOM     26  C   UNL     1     -12.029  -9.703   9.741  1.00  0.00    -0.000 C 
BRANCH  26  27
ATOM     27  C   UNL     1     -10.905 -10.748   9.865  1.00  0.00    -0.000 C 
BRANCH  27  28
ATOM     28  C   UNL     1      -9.532 -10.188  10.286  1.00  0.00    -0.000 C 
BRANCH  28  29
ATOM     29  C   UNL     1      -8.568  -9.887   9.125  1.00  0.00    -0.003 C 
ATOM     30  C   UNL     1      -7.476  -8.885   9.500  1.00  0.00     0.004 C 
ENDBRANCH  28  29
ENDBRANCH  27  28
ENDBRANCH  26  27
ENDBRANCH  25  26
ENDBRANCH  24  25
ENDBRANCH  23  24
ENDBRANCH  22  23
ENDBRANCH  21  22
ENDBRANCH  20  21
ENDBRANCH  19  20
ENDBRANCH  18  19
ENDBRANCH  17  18
ENDBRANCH   1  17
TORSDOF 26
ENDMDL
MODEL 2
REMARK VINA RESULT:    -4.652      3.339      8.872
REMARK INTER + INTRA:         -14.914
REMARK INTER:                 -10.883
REMARK INTRA:                  -4.031
REMARK UNBOUND:                -3.191
REMARK SMILES CCCCCCCCCCCCCCCCCCCCCCCCCCCC(=O)[O-]
REMARK SMILES IDX 15 1 16 2 17 3 18 4 19 5 20 6 21 7 22 8 23 9 24 10 25 11
REMARK SMILES IDX 26 12 27 13 28 14 29 15 30 16 14 17 13 18 12 19 11 20 10 21
REMARK SMILES IDX 9 22 8 23 7 24 6 25 5 26 4 27 3 28 2 29 1 30
REMARK H PARENT
REMARK Flexibility Score: inf
ROOT
ATOM      1  C   UNL     1      -1.712 -16.557   4.903  1.00  0.00     0.000 C 
ENDROOT
BRANCH   1   2
ATOM      2  C   UNL     1      -1.586 -15.207   5.628  1.00  0.00     0.000 C 
BRANCH   2   3
ATOM      3  C   UNL     1      -1.774 -15.333   7.149  1.00  0.00     0.000 C 
BRANCH   3   4
ATOM      4  C   UNL     1      -2.511 -16.622   7.554  1.00  0.00     0.000 C 
BRANCH   4   5
ATOM      5  C   UNL     1      -3.827 -16.328   8.309  1.00  0.00     0.000 C 
BRANCH   5   6
ATOM      6  C   UNL     1      -4.665 -15.209   7.667  1.00  0.00     0.000 C 
BRANCH   6   7
ATOM      7  C   UNL     1      -5.914 -15.740   6.944  1.00  0.00     0.000 C 
BRANCH   7   8
ATOM      8  C   UNL     1      -5.998 -15.269   5.484  1.00  0.00     0.000 C 
BRANCH   8   9
ATOM      9  C   UNL     1      -7.450 -15.056   5.017  1.00  0.00     0.000 C 
BRANCH   9  10
ATOM     10  C   UNL     1      -7.869 -13.578   5.047  1.00  0.00     0.000 C 
BRANCH  10  11
ATOM     11  C   UNL     1      -8.656 -13.214   6.317  1.00  0.00     0.000 C 
BRANCH  11  12
ATOM     12  C   UNL     1     -10.046 -12.635   6.008  1.00  0.00     0.006 C 
BRANCH  12  13
ATOM     13  C   UNL     1     -10.423 -11.466   6.928  1.00  0.00     0.053 C 
BRANCH  13  14
ATOM     14  C   UNL     1     -11.040 -10.356   6.137  1.00  0.00     0.041 C 
ATOM     15  O   UNL     1     -10.344  -9.372   5.776  1.00  0.00    -0.550 OA
ATOM     16  O   UNL     1     -12.374 -10.433   5.756  1.00  0.00    -0.550 OA
ENDBRANCH  13  14
ENDBRANCH  12  13
ENDBRANCH  11  12
ENDBRANCH  10  11
ENDBRANCH   9  10
ENDBRANCH   8   9
ENDBRANCH   7   8
ENDBRANCH   6   7
ENDBRANCH   5   6
ENDBRANCH   4   5
ENDBRANCH   3   4
ENDBRANCH   2   3
ENDBRANCH   1   2
BRANCH   1  17
ATOM     17  C   UNL     1      -2.659 -16.502   3.689  1.00  0.00     0.000 C 
BRANCH  17  18
ATOM     18  C   UNL     1      -3.561 -17.735   3.504  1.00  0.00     0.000 C 
BRANCH  18  19
ATOM     19  C   UNL     1      -3.374 -18.787   4.612  1.00  0.00     0.000 C 
BRANCH  19  20
ATOM     20  C   UNL     1      -4.610 -18.900   5.528  1.00  0.00     0.000 C 
BRANCH  20  21
ATOM     21  C   UNL     1      -5.871 -19.405   4.804  1.00  0.00     0.000 C 
BRANCH  21  22
ATOM     22  C   UNL     1      -7.165 -18.789   5.360  1.00  0.00    -0.000 C 
BRANCH  22  23
ATOM     23  C   UNL     1      -8.278 -18.702   4.304  1.00  0.00    -0.000 C 
BRANCH  23  24
ATOM     24  C   UNL     1      -8.500 -20.037   3.571  1.00  0.00    -0.000 C 
BRANCH  24  25
ATOM     25  C   UNL     1      -9.500 -20.955   4.308  1.00  0.00    -0.000 C 
BRANCH  25  26
ATOM     26  C   UNL     1      -8.909 -21.647   5.552  1.00  0.00    -0.000 C 
BRANCH  26  27
ATOM     27  C   UNL     1      -7.830 -22.706   5.257  1.00  0.00    -0.000 C 
BRANCH  27  28
ATOM     28  C   UNL     1      -6.579 -22.634   6.156  1.00  0.00    -0.000 C 
BRANCH  28  29
ATOM     29  C   UNL     1      -6.757 -21.834   7.458  1.00  0.00    -0.003 C 
ATOM     30  C   UNL     1      -5.437 -21.565   8.179  1.00  0.00     0.004 C 
ENDBRANCH  28  29
ENDBRANCH  27  28
ENDBRANCH  26  27
ENDBRANCH  25  26
ENDBRANCH  24  25
ENDBRANCH  23  24
ENDBRANCH  22  23
ENDBRANCH  21  22
ENDBRANCH  20  21
ENDBRANCH  19  20
ENDBRANCH  18  19
ENDBRANCH  17  18
ENDBRANCH   1  17
TORSDOF 26
ENDMDL
MODEL 3
REMARK VINA RESULT:    -4.518      3.238     10.271
REMARK INTER + INTRA:         -14.577
REMARK INTER:                 -11.055
REMARK INTRA:                  -3.522
REMARK UNBOUND:                -3.191
REMARK SMILES CCCCCCCCCCCCCCCCCCCCCCCCCCCC(=O)[O-]
REMARK SMILES IDX 15 1 16 2 17 3 18 4 19 5 20 6 21 7 22 8 23 9 24 10 25 11
REMARK SMILES IDX 26 12 27 13 28 14 29 15 30 16 14 17 13 18 12 19 11 20 10 21
REMARK SMILES IDX 9 22 8 23 7 24 6 25 5 26 4 27 3 28 2 29 1 30
REMARK H PARENT
REMARK Flexibility Score: inf
ROOT
ATOM      1  C   UNL     1      -6.871 -16.288   5.125  1.00  0.00     0.000 C 
ENDROOT
BRANCH   1   2
ATOM      2  C   UNL     1      -6.286 -14.910   5.481  1.00  0.00     0.000 C 
BRANCH   2   3
ATOM      3  C   UNL     1      -7.252 -13.757   5.158  1.00  0.00     0.000 C 
BRANCH   3   4
ATOM      4  C   UNL     1      -8.721 -14.213   5.082  1.00  0.00     0.000 C 
BRANCH   4   5
ATOM      5  C   UNL     1      -9.697 -13.109   5.543  1.00  0.00     0.000 C 
BRANCH   5   6
ATOM      6  C   UNL     1      -9.075 -12.117   6.541  1.00  0.00     0.000 C 
BRANCH   6   7
ATOM      7  C   UNL     1      -9.904 -10.832   6.697  1.00  0.00     0.000 C 
BRANCH   7   8
ATOM      8  C   UNL     1      -9.143  -9.725   7.445  1.00  0.00     0.000 C 
BRANCH   8   9
ATOM      9  C   UNL     1      -9.631  -9.553   8.896  1.00  0.00     0.000 C 
BRANCH   9  10
ATOM     10  C   UNL     1     -10.898 -10.370   9.193  1.00  0.00     0.000 C 
BRANCH  10  11
ATOM     11  C   UNL     1     -12.055  -9.497   9.707  1.00  0.00     0.000 C 
BRANCH  11  12
ATOM     12  C   UNL     1     -13.427 -10.164   9.527  1.00  0.00     0.006 C 
BRANCH  12  13
ATOM     13  C   UNL     1     -14.369  -9.357   8.623  1.00  0.00     0.053 C 
BRANCH  13  14
ATOM     14  C   UNL     1     -14.664 -10.115   7.367  1.00  0.00     0.041 C 
ATOM     15  O   UNL     1     -15.832 -10.128   6.895  1.00  0.00    -0.550 OA
ATOM     16  O   UNL     1     -13.640 -10.766   6.691  1.00  0.00    -0.550 OA
ENDBRANCH  13  14
ENDBRANCH  12  13
ENDBRANCH  11  12
ENDBRANCH  10  11
ENDBRANCH   9  10
ENDBRANCH   8   9
ENDBRANCH   7   8
ENDBRANCH   6   7
ENDBRANCH   5   6
ENDBRANCH   4   5
ENDBRANCH   3   4
ENDBRANCH   2   3
ENDBRANCH   1   2
BRANCH   1  17
ATOM     17  C   UNL     1      -6.319 -17.422   6.010  1.00  0.00     0.000 C 
BRANCH  17  18
ATOM     18  C   UNL     1      -5.554 -16.962   7.264  1.00  0.00     0.000 C 
BRANCH  18  19
ATOM     19  C   UNL     1      -4.833 -18.115   7.984  1.00  0.00     0.000 C 
BRANCH  19  20
ATOM     20  C   UNL     1      -4.379 -19.222   7.009  1.00  0.00     0.000 C 
BRANCH  20  21
ATOM     21  C   UNL     1      -2.855 -19.424   6.971  1.00  0.00     0.000 C 
BRANCH  21  22
ATOM     22  C   UNL     1      -2.271 -19.296   5.554  1.00  0.00    -0.000 C 
BRANCH  22  23
ATOM     23  C   UNL     1      -3.344 -19.428   4.461  1.00  0.00    -0.000 C 
BRANCH  23  24
ATOM     24  C   UNL     1      -3.517 -18.133   3.647  1.00  0.00    -0.000 C 
BRANCH  24  25
ATOM     25  C   UNL     1      -2.384 -17.116   3.909  1.00  0.00    -0.000 C 
BRANCH  25  26
ATOM     26  C   UNL     1      -2.774 -15.989   4.886  1.00  0.00    -0.000 C 
BRANCH  26  27
ATOM     27  C   UNL     1      -1.612 -15.425   5.724  1.00  0.00    -0.000 C 
BRANCH  27  28
ATOM     28  C   UNL     1      -1.527 -15.956   7.169  1.00  0.00    -0.000 C 
BRANCH  28  29
ATOM     29  C   UNL     1      -2.421 -15.224   8.186  1.00  0.00    -0.003 C 
ATOM     30  C   UNL     1      -2.556 -13.730   7.895  1.00  0.00     0.004 C 
ENDBRANCH  28  29
ENDBRANCH  27  28
ENDBRANCH  26  27
ENDBRANCH  25  26
ENDBRANCH  24  25
ENDBRANCH  23  24
ENDBRANCH  22  23
ENDBRANCH  21  22
ENDBRANCH  20  21
ENDBRANCH  19  20
ENDBRANCH  18  19
ENDBRANCH  17  18
ENDBRANCH   1  17
TORSDOF 26
ENDMDL
MODEL 4
REMARK VINA RESULT:    -4.497      3.385      9.660
REMARK INTER + INTRA:         -14.524
REMARK INTER:                 -11.129
REMARK INTRA:                  -3.395
REMARK UNBOUND:                -3.191
REMARK SMILES CCCCCCCCCCCCCCCCCCCCCCCCCCCC(=O)[O-]
REMARK SMILES IDX 15 1 16 2 17 3 18 4 19 5 20 6 21 7 22 8 23 9 24 10 25 11
REMARK SMILES IDX 26 12 27 13 28 14 29 15 30 16 14 17 13 18 12 19 11 20 10 21
REMARK SMILES IDX 9 22 8 23 7 24 6 25 5 26 4 27 3 28 2 29 1 30
REMARK H PARENT
REMARK Flexibility Score: inf
ROOT
ATOM      1  C   UNL     1      -1.805 -16.630   4.745  1.00  0.00     0.000 C 
ENDROOT
BRANCH   1   2
ATOM      2  C   UNL     1      -3.029 -16.769   3.825  1.00  0.00     0.000 C 
BRANCH   2   3
ATOM      3  C   UNL     1      -4.296 -17.190   4.587  1.00  0.00     0.000 C 
BRANCH   3   4
ATOM      4  C   UNL     1      -5.332 -16.056   4.695  1.00  0.00     0.000 C 
BRANCH   4   5
ATOM      5  C   UNL     1      -5.871 -15.895   6.134  1.00  0.00     0.000 C 
BRANCH   5   6
ATOM      6  C   UNL     1      -6.672 -14.599   6.346  1.00  0.00     0.000 C 
BRANCH   6   7
ATOM      7  C   UNL     1      -7.445 -14.164   5.089  1.00  0.00     0.000 C 
BRANCH   7   8
ATOM      8  C   UNL     1      -8.757 -13.438   5.424  1.00  0.00     0.000 C 
BRANCH   8   9
ATOM      9  C   UNL     1      -8.775 -12.890   6.863  1.00  0.00     0.000 C 
BRANCH   9  10
ATOM     10  C   UNL     1      -9.690 -11.664   7.016  1.00  0.00     0.000 C 
BRANCH  10  11
ATOM     11  C   UNL     1     -10.972 -11.778   6.176  1.00  0.00     0.000 C 
BRANCH  11  12
ATOM     12  C   UNL     1     -11.551 -10.408   5.788  1.00  0.00     0.006 C 
BRANCH  12  13
ATOM     13  C   UNL     1     -11.977  -9.575   7.005  1.00  0.00     0.053 C 
BRANCH  13  14
ATOM     14  C   UNL     1     -13.189 -10.170   7.647  1.00  0.00     0.041 C 
ATOM     15  O   UNL     1     -13.242 -10.305   8.898  1.00  0.00    -0.550 OA
ATOM     16  O   UNL     1     -14.282 -10.531   6.869  1.00  0.00    -0.550 OA
ENDBRANCH  13  14
ENDBRANCH  12  13
ENDBRANCH  11  12
ENDBRANCH  10  11
ENDBRANCH   9  10
ENDBRANCH   8   9
ENDBRANCH   7   8
ENDBRANCH   6   7
ENDBRANCH   5   6
ENDBRANCH   4   5
ENDBRANCH   3   4
ENDBRANCH   2   3
ENDBRANCH   1   2
BRANCH   1  17
ATOM     17  C   UNL     1      -1.694 -15.235   5.392  1.00  0.00     0.000 C 
BRANCH  17  18
ATOM     18  C   UNL     1      -1.301 -15.232   6.880  1.00  0.00     0.000 C 
BRANCH  18  19
ATOM     19  C   UNL     1      -2.516 -15.283   7.822  1.00  0.00     0.000 C 
BRANCH  19  20
ATOM     20  C   UNL     1      -2.540 -16.567   8.679  1.00  0.00     0.000 C 
BRANCH  20  21
ATOM     21  C   UNL     1      -3.234 -17.755   7.991  1.00  0.00     0.000 C 
BRANCH  21  22
ATOM     22  C   UNL     1      -2.240 -18.801   7.461  1.00  0.00    -0.000 C 
BRANCH  22  23
ATOM     23  C   UNL     1      -2.819 -20.225   7.475  1.00  0.00    -0.000 C 
BRANCH  23  24
ATOM     24  C   UNL     1      -3.862 -20.448   6.366  1.00  0.00    -0.000 C 
BRANCH  24  25
ATOM     25  C   UNL     1      -5.295 -20.588   6.924  1.00  0.00    -0.000 C 
BRANCH  25  26
ATOM     26  C   UNL     1      -6.379 -20.700   5.833  1.00  0.00    -0.000 C 
BRANCH  26  27
ATOM     27  C   UNL     1      -7.387 -19.536   5.796  1.00  0.00    -0.000 C 
BRANCH  27  28
ATOM     28  C   UNL     1      -7.606 -18.903   4.407  1.00  0.00    -0.000 C 
BRANCH  28  29
ATOM     29  C   UNL     1      -8.930 -19.282   3.721  1.00  0.00    -0.003 C 
ATOM     30  C   UNL     1      -9.336 -20.735   3.965  1.00  0.00     0.004 C 
ENDBRANCH  28  29
ENDBRANCH  27  28
ENDBRANCH  26  27
ENDBRANCH  25  26
ENDBRANCH  24  25
ENDBRANCH  23  24
ENDBRANCH  22  23
ENDBRANCH  21  22
ENDBRANCH  20  21
ENDBRANCH  19  20
ENDBRANCH  18  19
ENDBRANCH  17  18
ENDBRANCH   1  17
TORSDOF 26
ENDMDL
MODEL 5
REMARK VINA RESULT:    -4.420     10.187     12.491
REMARK INTER + INTRA:         -14.330
REMARK INTER:                  -9.970
REMARK INTRA:                  -4.360
REMARK UNBOUND:                -3.191
REMARK SMILES CCCCCCCCCCCCCCCCCCCCCCCCCCCC(=O)[O-]
REMARK SMILES IDX 15 1 16 2 17 3 18 4 19 5 20 6 21 7 22 8 23 9 24 10 25 11
REMARK SMILES IDX 26 12 27 13 28 14 29 15 30 16 14 17 13 18 12 19 11 20 10 21
REMARK SMILES IDX 9 22 8 23 7 24 6 25 5 26 4 27 3 28 2 29 1 30
REMARK H PARENT
REMARK Flexibility Score: inf
ROOT
ATOM      1  C   UNL     1      -5.803 -24.885  14.434  1.00  0.00     0.000 C 
ENDROOT
BRANCH   1   2
ATOM      2  C   UNL     1      -6.059 -24.198  13.081  1.00  0.00     0.000 C 
BRANCH   2   3
ATOM      3  C   UNL     1      -5.637 -25.069  11.887  1.00  0.00     0.000 C 
BRANCH   3   4
ATOM      4  C   UNL     1      -5.257 -26.503  12.300  1.00  0.00     0.000 C 
BRANCH   4   5
ATOM      5  C   UNL     1      -3.973 -26.992  11.594  1.00  0.00     0.000 C 
BRANCH   5   6
ATOM      6  C   UNL     1      -2.869 -27.437  12.568  1.00  0.00     0.000 C 
BRANCH   6   7
ATOM      7  C   UNL     1      -3.396 -27.684  13.992  1.00  0.00     0.000 C 
BRANCH   7   8
ATOM      8  C   UNL     1      -2.746 -26.757  15.031  1.00  0.00     0.000 C 
BRANCH   8   9
ATOM      9  C   UNL     1      -1.748 -25.771  14.396  1.00  0.00     0.000 C 
BRANCH   9  10
ATOM     10  C   UNL     1      -2.127 -24.303  14.648  1.00  0.00     0.000 C 
BRANCH  10  11
ATOM     11  C   UNL     1      -2.438 -23.544  13.348  1.00  0.00     0.000 C 
BRANCH  11  12
ATOM     12  C   UNL     1      -3.012 -22.141  13.603  1.00  0.00     0.006 C 
BRANCH  12  13
ATOM     13  C   UNL     1      -1.946 -21.039  13.534  1.00  0.00     0.053 C 
BRANCH  13  14
ATOM     14  C   UNL     1      -2.177 -20.021  14.606  1.00  0.00     0.041 C 
ATOM     15  O   UNL     1      -1.531 -20.079  15.685  1.00  0.00    -0.550 OA
ATOM     16  O   UNL     1      -3.070 -18.978  14.393  1.00  0.00    -0.550 OA
ENDBRANCH  13  14
ENDBRANCH  12  13
ENDBRANCH  11  12
ENDBRANCH  10  11
ENDBRANCH   9  10
ENDBRANCH   8   9
ENDBRANCH   7   8
ENDBRANCH   6   7
ENDBRANCH   5   6
ENDBRANCH   4   5
ENDBRANCH   3   4
ENDBRANCH   2   3
ENDBRANCH   1   2
BRANCH   1  17
ATOM     17  C   UNL     1      -5.957 -23.929  15.632  1.00  0.00     0.000 C 
BRANCH  17  18
ATOM     18  C   UNL     1      -7.051 -22.857  15.480  1.00  0.00     0.000 C 
BRANCH  18  19
ATOM     19  C   UNL     1      -6.830 -21.640  16.396  1.00  0.00     0.000 C 
BRANCH  19  20
ATOM     20  C   UNL     1      -6.059 -20.507  15.688  1.00  0.00     0.000 C 
BRANCH  20  21
ATOM     21  C   UNL     1      -6.280 -20.466  14.166  1.00  0.00     0.000 C 
BRANCH  21  22
ATOM     22  C   UNL     1      -6.959 -19.168  13.697  1.00  0.00    -0.000 C 
BRANCH  22  23
ATOM     23  C   UNL     1      -8.110 -18.738  14.620  1.00  0.00    -0.000 C 
BRANCH  23  24
ATOM     24  C   UNL     1      -9.491 -19.110  14.053  1.00  0.00    -0.000 C 
BRANCH  24  25
ATOM     25  C   UNL     1      -9.959 -20.509  14.511  1.00  0.00    -0.000 C 
BRANCH  25  26
ATOM     26  C   UNL     1     -11.137 -20.476  15.504  1.00  0.00    -0.000 C 
BRANCH  26  27
ATOM     27  C   UNL     1     -10.885 -21.205  16.837  1.00  0.00    -0.000 C 
BRANCH  27  28
ATOM     28  C   UNL     1     -10.913 -20.308  18.091  1.00  0.00    -0.000 C 
BRANCH  28  29
ATOM     29  C   UNL     1     -12.281 -19.682  18.412  1.00  0.00    -0.003 C 
ATOM     30  C   UNL     1     -12.746 -19.961  19.841  1.00  0.00     0.004 C 
ENDBRANCH  28  29
ENDBRANCH  27  28
ENDBRANCH  26  27
ENDBRANCH  25  26
ENDBRANCH  24  25
ENDBRANCH  23  24
ENDBRANCH  22  23
ENDBRANCH  21  22
ENDBRANCH  20  21
ENDBRANCH  19  20
ENDBRANCH  18  19
ENDBRANCH  17  18
ENDBRANCH   1  17
TORSDOF 26
ENDMDL
MODEL 6
REMARK VINA RESULT:    -4.383      3.428      9.172
REMARK INTER + INTRA:         -14.236
REMARK INTER:                 -10.592
REMARK INTRA:                  -3.644
REMARK UNBOUND:                -3.191
REMARK SMILES CCCCCCCCCCCCCCCCCCCCCCCCCCCC(=O)[O-]
REMARK SMILES IDX 15 1 16 2 17 3 18 4 19 5 20 6 21 7 22 8 23 9 24 10 25 11
REMARK SMILES IDX 26 12 27 13 28 14 29 15 30 16 14 17 13 18 12 19 11 20 10 21
REMARK SMILES IDX 9 22 8 23 7 24 6 25 5 26 4 27 3 28 2 29 1 30
REMARK H PARENT
REMARK Flexibility Score: inf
ROOT
ATOM      1  C   UNL     1      -1.659 -15.286   5.460  1.00  0.00     0.000 C 
ENDROOT
BRANCH   1   2
ATOM      2  C   UNL     1      -1.675 -16.743   4.968  1.00  0.00     0.000 C 
BRANCH   2   3
ATOM      3  C   UNL     1      -2.557 -16.935   3.723  1.00  0.00     0.000 C 
BRANCH   3   4
ATOM      4  C   UNL     1      -4.035 -16.590   3.980  1.00  0.00     0.000 C 
BRANCH   4   5
ATOM      5  C   UNL     1      -4.798 -17.756   4.646  1.00  0.00     0.000 C 
BRANCH   5   6
ATOM      6  C   UNL     1      -5.818 -17.298   5.703  1.00  0.00     0.000 C 
BRANCH   6   7
ATOM      7  C   UNL     1      -6.802 -16.246   5.163  1.00  0.00     0.000 C 
BRANCH   7   8
ATOM      8  C   UNL     1      -6.680 -14.896   5.889  1.00  0.00     0.000 C 
BRANCH   8   9
ATOM      9  C   UNL     1      -7.263 -13.732   5.066  1.00  0.00     0.000 C 
BRANCH   9  10
ATOM     10  C   UNL     1      -8.771 -13.543   5.296  1.00  0.00     0.000 C 
BRANCH  10  11
ATOM     11  C   UNL     1      -9.079 -12.838   6.628  1.00  0.00     0.000 C 
BRANCH  11  12
ATOM     12  C   UNL     1      -9.535 -11.383   6.437  1.00  0.00     0.006 C 
BRANCH  12  13
ATOM     13  C   UNL     1     -10.996 -11.271   5.979  1.00  0.00     0.053 C 
BRANCH  13  14
ATOM     14  C   UNL     1     -11.806 -10.528   6.994  1.00  0.00     0.041 C 
ATOM     15  O   UNL     1     -11.452 -10.517   8.202  1.00  0.00    -0.550 OA
ATOM     16  O   UNL     1     -12.925  -9.807   6.597  1.00  0.00    -0.550 OA
ENDBRANCH  13  14
ENDBRANCH  12  13
ENDBRANCH  11  12
ENDBRANCH  10  11
ENDBRANCH   9  10
ENDBRANCH   8   9
ENDBRANCH   7   8
ENDBRANCH   6   7
ENDBRANCH   5   6
ENDBRANCH   4   5
ENDBRANCH   3   4
ENDBRANCH   2   3
ENDBRANCH   1   2
BRANCH   1  17
ATOM     17  C   UNL     1      -1.867 -15.163   6.982  1.00  0.00     0.000 C 
BRANCH  17  18
ATOM     18  C   UNL     1      -3.230 -15.655   7.500  1.00  0.00     0.000 C 
BRANCH  18  19
ATOM     19  C   UNL     1      -3.111 -16.554   8.743  1.00  0.00     0.000 C 
BRANCH  19  20
ATOM     20  C   UNL     1      -2.159 -17.747   8.515  1.00  0.00     0.000 C 
BRANCH  20  21
ATOM     21  C   UNL     1      -2.684 -18.771   7.494  1.00  0.00     0.000 C 
BRANCH  21  22
ATOM     22  C   UNL     1      -3.965 -19.478   7.965  1.00  0.00    -0.000 C 
BRANCH  22  23
ATOM     23  C   UNL     1      -3.956 -20.984   7.654  1.00  0.00    -0.000 C 
BRANCH  23  24
ATOM     24  C   UNL     1      -5.243 -21.448   6.949  1.00  0.00    -0.000 C 
BRANCH  24  25
ATOM     25  C   UNL     1      -6.519 -20.991   7.690  1.00  0.00    -0.000 C 
BRANCH  25  26
ATOM     26  C   UNL     1      -7.703 -20.678   6.755  1.00  0.00    -0.000 C 
BRANCH  26  27
ATOM     27  C   UNL     1      -7.943 -21.712   5.640  1.00  0.00    -0.000 C 
BRANCH  27  28
ATOM     28  C   UNL     1      -8.433 -21.129   4.299  1.00  0.00    -0.000 C 
BRANCH  28  29
ATOM     29  C   UNL     1      -7.981 -19.686   4.013  1.00  0.00    -0.003 C 
ATOM     30  C   UNL     1      -9.116 -18.792   3.516  1.00  0.00     0.004 C 
ENDBRANCH  28  29
ENDBRANCH  27  28
ENDBRANCH  26  27
ENDBRANCH  25  26
ENDBRANCH  24  25
ENDBRANCH  23  24
ENDBRANCH  22  23
ENDBRANCH  21  22
ENDBRANCH  20  21
ENDBRANCH  19  20
ENDBRANCH  18  19
ENDBRANCH  17  18
ENDBRANCH   1  17
TORSDOF 26
ENDMDL
MODEL 7
REMARK VINA RESULT:    -4.371      2.033      4.299
REMARK INTER + INTRA:         -14.205
REMARK INTER:                 -10.758
REMARK INTRA:                  -3.448
REMARK UNBOUND:                -3.191
REMARK SMILES CCCCCCCCCCCCCCCCCCCCCCCCCCCC(=O)[O-]
REMARK SMILES IDX 15 1 16 2 17 3 18 4 19 5 20 6 21 7 22 8 23 9 24 10 25 11
REMARK SMILES IDX 26 12 27 13 28 14 29 15 30 16 14 17 13 18 12 19 11 20 10 21
REMARK SMILES IDX 9 22 8 23 7 24 6 25 5 26 4 27 3 28 2 29 1 30
REMARK H PARENT
REMARK Flexibility Score: inf
ROOT
ATOM      1  C   UNL     1      -2.340 -16.919   3.790  1.00  0.00     0.000 C 
ENDROOT
BRANCH   1   2
ATOM      2  C   UNL     1      -1.791 -17.654   5.025  1.00  0.00     0.000 C 
BRANCH   2   3
ATOM      3  C   UNL     1      -1.101 -16.706   6.019  1.00  0.00     0.000 C 
BRANCH   3   4
ATOM      4  C   UNL     1      -1.438 -15.226   5.764  1.00  0.00     0.000 C 
BRANCH   4   5
ATOM      5  C   UNL     1      -2.129 -14.568   6.978  1.00  0.00     0.000 C 
BRANCH   5   6
ATOM      6  C   UNL     1      -3.487 -15.200   7.328  1.00  0.00     0.000 C 
BRANCH   6   7
ATOM      7  C   UNL     1      -3.758 -15.229   8.842  1.00  0.00     0.000 C 
BRANCH   7   8
ATOM      8  C   UNL     1      -4.042 -16.645   9.365  1.00  0.00     0.000 C 
BRANCH   8   9
ATOM      9  C   UNL     1      -3.741 -17.731   8.314  1.00  0.00     0.000 C 
BRANCH   9  10
ATOM     10  C   UNL     1      -4.181 -19.131   8.770  1.00  0.00     0.000 C 
BRANCH  10  11
ATOM     11  C   UNL     1      -4.268 -20.129   7.604  1.00  0.00     0.000 C 
BRANCH  11  12
ATOM     12  C   UNL     1      -5.613 -20.871   7.558  1.00  0.00     0.006 C 
BRANCH  12  13
ATOM     13  C   UNL     1      -5.834 -21.625   6.239  1.00  0.00     0.053 C 
BRANCH  13  14
ATOM     14  C   UNL     1      -7.186 -21.315   5.679  1.00  0.00     0.041 C 
ATOM     15  O   UNL     1      -7.656 -20.151   5.767  1.00  0.00    -0.550 OA
ATOM     16  O   UNL     1      -7.907 -22.301   5.017  1.00  0.00    -0.550 OA
ENDBRANCH  13  14
ENDBRANCH  12  13
ENDBRANCH  11  12
ENDBRANCH  10  11
ENDBRANCH   9  10
ENDBRANCH   8   9
ENDBRANCH   7   8
ENDBRANCH   6   7
ENDBRANCH   5   6
ENDBRANCH   4   5
ENDBRANCH   3   4
ENDBRANCH   2   3
ENDBRANCH   1   2
BRANCH   1  17
ATOM     17  C   UNL     1      -3.865 -17.067   3.630  1.00  0.00     0.000 C 
BRANCH  17  18
ATOM     18  C   UNL     1      -4.561 -17.902   4.721  1.00  0.00     0.000 C 
BRANCH  18  19
ATOM     19  C   UNL     1      -5.840 -17.238   5.260  1.00  0.00     0.000 C 
BRANCH  19  20
ATOM     20  C   UNL     1      -5.968 -15.765   4.816  1.00  0.00     0.000 C 
BRANCH  20  21
ATOM     21  C   UNL     1      -6.852 -14.915   5.745  1.00  0.00     0.000 C 
BRANCH  21  22
ATOM     22  C   UNL     1      -7.420 -13.667   5.049  1.00  0.00    -0.000 C 
BRANCH  22  23
ATOM     23  C   UNL     1      -8.937 -13.520   5.248  1.00  0.00    -0.000 C 
BRANCH  23  24
ATOM     24  C   UNL     1      -9.290 -12.563   6.401  1.00  0.00    -0.000 C 
BRANCH  24  25
ATOM     25  C   UNL     1     -10.599 -11.786   6.142  1.00  0.00    -0.000 C 
BRANCH  25  26
ATOM     26  C   UNL     1     -10.534 -10.303   6.558  1.00  0.00    -0.000 C 
BRANCH  26  27
ATOM     27  C   UNL     1     -11.850  -9.520   6.385  1.00  0.00    -0.000 C 
BRANCH  27  28
ATOM     28  C   UNL     1     -13.132 -10.375   6.434  1.00  0.00    -0.000 C 
BRANCH  28  29
ATOM     29  C   UNL     1     -14.082 -10.058   7.602  1.00  0.00    -0.003 C 
ATOM     30  C   UNL     1     -13.389 -10.094   8.963  1.00  0.00     0.004 C 
ENDBRANCH  28  29
ENDBRANCH  27  28
ENDBRANCH  26  27
ENDBRANCH  25  26
ENDBRANCH  24  25
ENDBRANCH  23  24
ENDBRANCH  22  23
ENDBRANCH  21  22
ENDBRANCH  20  21
ENDBRANCH  19  20
ENDBRANCH  18  19
ENDBRANCH  17  18
ENDBRANCH   1  17
TORSDOF 26
ENDMDL
MODEL 8
REMARK VINA RESULT:    -4.355      1.401      2.291
REMARK INTER + INTRA:         -14.166
REMARK INTER:                 -10.727
REMARK INTRA:                  -3.439
REMARK UNBOUND:                -3.191
REMARK SMILES CCCCCCCCCCCCCCCCCCCCCCCCCCCC(=O)[O-]
REMARK SMILES IDX 15 1 16 2 17 3 18 4 19 5 20 6 21 7 22 8 23 9 24 10 25 11
REMARK SMILES IDX 26 12 27 13 28 14 29 15 30 16 14 17 13 18 12 19 11 20 10 21
REMARK SMILES IDX 9 22 8 23 7 24 6 25 5 26 4 27 3 28 2 29 1 30
REMARK H PARENT
REMARK Flexibility Score: inf
ROOT
ATOM      1  C   UNL     1      -4.123 -14.514   7.704  1.00  0.00     0.000 C 
ENDROOT
BRANCH   1   2
ATOM      2  C   UNL     1      -2.655 -14.808   7.351  1.00  0.00     0.000 C 
BRANCH   2   3
ATOM      3  C   UNL     1      -2.467 -16.192   6.708  1.00  0.00     0.000 C 
BRANCH   3   4
ATOM      4  C   UNL     1      -1.764 -16.124   5.340  1.00  0.00     0.000 C 
BRANCH   4   5
ATOM      5  C   UNL     1      -2.751 -16.311   4.167  1.00  0.00     0.000 C 
BRANCH   5   6
ATOM      6  C   UNL     1      -2.387 -17.485   3.241  1.00  0.00     0.000 C 
BRANCH   6   7
ATOM      7  C   UNL     1      -1.202 -18.312   3.767  1.00  0.00     0.000 C 
BRANCH   7   8
ATOM      8  C   UNL     1      -1.292 -19.793   3.367  1.00  0.00     0.000 C 
BRANCH   8   9
ATOM      9  C   UNL     1      -2.056 -20.637   4.404  1.00  0.00     0.000 C 
BRANCH   9  10
ATOM     10  C   UNL     1      -1.908 -20.092   5.833  1.00  0.00     0.000 C 
BRANCH  10  11
ATOM     11  C   UNL     1      -3.263 -19.757   6.479  1.00  0.00     0.000 C 
BRANCH  11  12
ATOM     12  C   UNL     1      -4.437 -19.892   5.497  1.00  0.00     0.006 C 
BRANCH  12  13
ATOM     13  C   UNL     1      -5.268 -18.606   5.380  1.00  0.00     0.053 C 
BRANCH  13  14
ATOM     14  C   UNL     1      -6.719 -18.934   5.225  1.00  0.00     0.041 C 
ATOM     15  O   UNL     1      -7.153 -20.065   5.567  1.00  0.00    -0.550 OA
ATOM     16  O   UNL     1      -7.602 -17.972   4.749  1.00  0.00    -0.550 OA
ENDBRANCH  13  14
ENDBRANCH  12  13
ENDBRANCH  11  12
ENDBRANCH  10  11
ENDBRANCH   9  10
ENDBRANCH   8   9
ENDBRANCH   7   8
ENDBRANCH   6   7
ENDBRANCH   5   6
ENDBRANCH   4   5
ENDBRANCH   3   4
ENDBRANCH   2   3
ENDBRANCH   1   2
BRANCH   1  17
ATOM     17  C   UNL     1      -5.112 -15.462   6.999  1.00  0.00     0.000 C 
BRANCH  17  18
ATOM     18  C   UNL     1      -6.513 -14.877   6.746  1.00  0.00     0.000 C 
BRANCH  18  19
ATOM     19  C   UNL     1      -6.783 -14.587   5.259  1.00  0.00     0.000 C 
BRANCH  19  20
ATOM     20  C   UNL     1      -8.095 -13.804   5.043  1.00  0.00     0.000 C 
BRANCH  20  21
ATOM     21  C   UNL     1      -8.545 -13.002   6.276  1.00  0.00     0.000 C 
BRANCH  21  22
ATOM     22  C   UNL     1     -10.041 -12.651   6.246  1.00  0.00    -0.000 C 
BRANCH  22  23
ATOM     23  C   UNL     1     -10.295 -11.139   6.359  1.00  0.00    -0.000 C 
BRANCH  23  24
ATOM     24  C   UNL     1     -11.694 -10.737   5.860  1.00  0.00    -0.000 C 
BRANCH  24  25
ATOM     25  C   UNL     1     -12.301  -9.576   6.678  1.00  0.00    -0.000 C 
BRANCH  25  26
ATOM     26  C   UNL     1     -12.915 -10.016   8.022  1.00  0.00    -0.000 C 
BRANCH  26  27
ATOM     27  C   UNL     1     -12.127  -9.581   9.271  1.00  0.00    -0.000 C 
BRANCH  27  28
ATOM     28  C   UNL     1     -11.231 -10.672   9.893  1.00  0.00    -0.000 C 
BRANCH  28  29
ATOM     29  C   UNL     1      -9.740 -10.308   9.997  1.00  0.00    -0.003 C 
ATOM     30  C   UNL     1      -9.418  -9.448  11.219  1.00  0.00     0.004 C 
ENDBRANCH  28  29
ENDBRANCH  27  28
ENDBRANCH  26  27
ENDBRANCH  25  26
ENDBRANCH  24  25
ENDBRANCH  23  24
ENDBRANCH  22  23
ENDBRANCH  21  22
ENDBRANCH  20  21
ENDBRANCH  19  20
ENDBRANCH  18  19
ENDBRANCH  17  18
ENDBRANCH   1  17
TORSDOF 26
ENDMDL
MODEL 9
REMARK VINA RESULT:    -4.326      3.579      6.285
REMARK INTER + INTRA:         -14.094
REMARK INTER:                 -10.467
REMARK INTRA:                  -3.627
REMARK UNBOUND:                -3.191
REMARK SMILES CCCCCCCCCCCCCCCCCCCCCCCCCCCC(=O)[O-]
REMARK SMILES IDX 15 1 16 2 17 3 18 4 19 5 20 6 21 7 22 8 23 9 24 10 25 11
REMARK SMILES IDX 26 12 27 13 28 14 29 15 30 16 14 17 13 18 12 19 11 20 10 21
REMARK SMILES IDX 9 22 8 23 7 24 6 25 5 26 4 27 3 28 2 29 1 30
REMARK H PARENT
REMARK Flexibility Score: inf
ROOT
ATOM      1  C   UNL     1      -2.356 -16.852   3.861  1.00  0.00     0.000 C 
ENDROOT
BRANCH   1   2
ATOM      2  C   UNL     1      -1.851 -17.738   5.012  1.00  0.00     0.000 C 
BRANCH   2   3
ATOM      3  C   UNL     1      -1.114 -16.935   6.097  1.00  0.00     0.000 C 
BRANCH   3   4
ATOM      4  C   UNL     1      -1.300 -15.414   5.942  1.00  0.00     0.000 C 
BRANCH   4   5
ATOM      5  C   UNL     1      -2.017 -14.788   7.158  1.00  0.00     0.000 C 
BRANCH   5   6
ATOM      6  C   UNL     1      -3.533 -15.048   7.176  1.00  0.00     0.000 C 
BRANCH   6   7
ATOM      7  C   UNL     1      -3.998 -15.768   8.454  1.00  0.00     0.000 C 
BRANCH   7   8
ATOM      8  C   UNL     1      -4.958 -14.914   9.297  1.00  0.00     0.000 C 
BRANCH   8   9
ATOM      9  C   UNL     1      -6.255 -15.665   9.653  1.00  0.00     0.000 C 
BRANCH   9  10
ATOM     10  C   UNL     1      -7.485 -14.744   9.672  1.00  0.00     0.000 C 
BRANCH  10  11
ATOM     11  C   UNL     1      -7.160 -13.319   9.197  1.00  0.00     0.000 C 
BRANCH  11  12
ATOM     12  C   UNL     1      -7.523 -12.249  10.240  1.00  0.00     0.006 C 
BRANCH  12  13
ATOM     13  C   UNL     1      -8.623 -11.294   9.756  1.00  0.00     0.053 C 
BRANCH  13  14
ATOM     14  C   UNL     1      -9.797 -11.336  10.681  1.00  0.00     0.041 C 
ATOM     15  O   UNL     1     -10.164 -12.428  11.190  1.00  0.00    -0.550 OA
ATOM     16  O   UNL     1     -10.457 -10.162  11.022  1.00  0.00    -0.550 OA
ENDBRANCH  13  14
ENDBRANCH  12  13
ENDBRANCH  11  12
ENDBRANCH  10  11
ENDBRANCH   9  10
ENDBRANCH   8   9
ENDBRANCH   7   8
ENDBRANCH   6   7
ENDBRANCH   5   6
ENDBRANCH   4   5
ENDBRANCH   3   4
ENDBRANCH   2   3
ENDBRANCH   1   2
BRANCH   1  17
ATOM     17  C   UNL     1      -3.892 -16.749   3.811  1.00  0.00     0.000 C 
BRANCH  17  18
ATOM     18  C   UNL     1      -4.645 -17.697   4.761  1.00  0.00     0.000 C 
BRANCH  18  19
ATOM     19  C   UNL     1      -5.952 -17.091   5.303  1.00  0.00     0.000 C 
BRANCH  19  20
ATOM     20  C   UNL     1      -6.150 -15.628   4.854  1.00  0.00     0.000 C 
BRANCH  20  21
ATOM     21  C   UNL     1      -6.880 -14.757   5.891  1.00  0.00     0.000 C 
BRANCH  21  22
ATOM     22  C   UNL     1      -7.580 -13.542   5.261  1.00  0.00    -0.000 C 
BRANCH  22  23
ATOM     23  C   UNL     1      -9.105 -13.577   5.449  1.00  0.00    -0.000 C 
BRANCH  23  24
ATOM     24  C   UNL     1      -9.590 -12.589   6.525  1.00  0.00    -0.000 C 
BRANCH  24  25
ATOM     25  C   UNL     1     -10.651 -11.605   5.989  1.00  0.00    -0.000 C 
BRANCH  25  26
ATOM     26  C   UNL     1     -10.629 -10.228   6.680  1.00  0.00    -0.000 C 
BRANCH  26  27
ATOM     27  C   UNL     1     -11.950  -9.440   6.604  1.00  0.00    -0.000 C 
BRANCH  27  28
ATOM     28  C   UNL     1     -13.229 -10.302   6.613  1.00  0.00    -0.000 C 
BRANCH  28  29
ATOM     29  C   UNL     1     -14.237  -9.959   7.723  1.00  0.00    -0.003 C 
ATOM     30  C   UNL     1     -13.631 -10.031   9.124  1.00  0.00     0.004 C 
ENDBRANCH  28  29
ENDBRANCH  27  28
ENDBRANCH  26  27
ENDBRANCH  25  26
ENDBRANCH  24  25
ENDBRANCH  23  24
ENDBRANCH  22  23
ENDBRANCH  21  22
ENDBRANCH  20  21
ENDBRANCH  19  20
ENDBRANCH  18  19
ENDBRANCH  17  18
ENDBRANCH   1  17
TORSDOF 26
ENDMDL
