MODEL 1
REMARK VINA RESULT:    -4.304      0.000      0.000
REMARK INTER + INTRA:         -13.412
REMARK INTER:                  -9.840
REMARK INTRA:                  -3.572
REMARK UNBOUND:                -3.572
REMARK SMILES CCCCCCCCCCCCCCCCCCCCCCCC(=O)[O-]
REMARK SMILES IDX 13 1 14 2 15 3 16 4 17 5 18 6 19 7 20 8 21 9 22 10 23 11
REMARK SMILES IDX 24 12 25 13 26 14 12 15 11 16 10 17 9 18 8 19 7 20 6 21 5 22
REMARK SMILES IDX 4 23 3 24 2 25 1 26
REMARK H PARENT
REMARK Flexibility Score: inf
ROOT
ATOM      1  C   UNL     1      58.576  -3.130  29.986  1.00  0.00     0.000 C 
ENDROOT
BRANCH   1   2
ATOM      2  C   UNL     1      59.867  -3.837  29.531  1.00  0.00     0.000 C 
BRANCH   2   3
ATOM      3  C   UNL     1      60.574  -3.191  28.324  1.00  0.00     0.000 C 
BRANCH   3   4
ATOM      4  C   UNL     1      61.500  -2.028  28.721  1.00  0.00     0.000 C 
BRANCH   4   5
ATOM      5  C   UNL     1      62.414  -2.382  29.905  1.00  0.00     0.000 C 
BRANCH   5   6
ATOM      6  C   UNL     1      63.885  -2.555  29.483  1.00  0.00     0.000 C 
BRANCH   6   7
ATOM      7  C   UNL     1      64.126  -2.196  28.008  1.00  0.00     0.000 C 
BRANCH   7   8
ATOM      8  C   UNL     1      64.650  -3.390  27.187  1.00  0.00     0.000 C 
BRANCH   8   9
ATOM      9  C   UNL     1      63.538  -4.089  26.388  1.00  0.00     0.000 C 
BRANCH   9  10
ATOM     10  C   UNL     1      63.477  -5.603  26.657  1.00  0.00     0.006 C 
BRANCH  10  11
ATOM     11  C   UNL     1      63.092  -5.919  28.108  1.00  0.00     0.053 C 
BRANCH  11  12
ATOM     12  C   UNL     1      63.942  -7.012  28.682  1.00  0.00     0.041 C 
ATOM     13  O   UNL     1      63.427  -8.120  28.992  1.00  0.00    -0.550 OA
ATOM     14  O   UNL     1      65.309  -6.817  28.849  1.00  0.00    -0.550 OA
ENDBRANCH  11  12
ENDBRANCH  10  11
ENDBRANCH   9  10
ENDBRANCH   8   9
ENDBRANCH   7   8
ENDBRANCH   6   7
ENDBRANCH   5   6
ENDBRANCH   4   5
ENDBRANCH   3   4
ENDBRANCH   2   3
ENDBRANCH   1   2
BRANCH   1  15
ATOM     15  C   UNL     1      58.722  -2.230  31.228  1.00  0.00     0.000 C 
BRANCH  15  16
ATOM     16  C   UNL     1      58.940  -0.737  30.901  1.00  0.00     0.000 C 
BRANCH  16  17
ATOM     17  C   UNL     1      57.766   0.149  31.353  1.00  0.00     0.000 C 
BRANCH  17  18
ATOM     18  C   UNL     1      57.126   0.932  30.195  1.00  0.00    -0.000 C 
BRANCH  18  19
ATOM     19  C   UNL     1      57.191   0.195  28.839  1.00  0.00    -0.000 C 
BRANCH  19  20
ATOM     20  C   UNL     1      55.795  -0.119  28.277  1.00  0.00    -0.000 C 
BRANCH  20  21
ATOM     21  C   UNL     1      55.225  -1.450  28.798  1.00  0.00    -0.000 C 
BRANCH  21  22
ATOM     22  C   UNL     1      53.844  -1.314  29.473  1.00  0.00    -0.000 C 
BRANCH  22  23
ATOM     23  C   UNL     1      53.904  -1.589  30.986  1.00  0.00    -0.000 C 
BRANCH  23  24
ATOM     24  C   UNL     1      55.159  -2.397  31.382  1.00  0.00    -0.000 C 
BRANCH  24  25
ATOM     25  C   UNL     1      54.837  -3.742  32.054  1.00  0.00    -0.003 C 
ATOM     26  C   UNL     1      55.580  -4.918  31.422  1.00  0.00     0.004 C 
ENDBRANCH  24  25
ENDBRANCH  23  24
ENDBRANCH  22  23
ENDBRANCH  21  22
ENDBRANCH  20  21
ENDBRANCH  19  20
ENDBRANCH  18  19
ENDBRANCH  17  18
ENDBRANCH  16  17
ENDBRANCH  15  16
ENDBRANCH   1  15
TORSDOF 22
ENDMDL
MODEL 2
REMARK VINA RESULT:    -4.296      3.359      8.229
REMARK INTER + INTRA:         -13.394
REMARK INTER:                  -9.430
REMARK INTRA:                  -3.964
REMARK UNBOUND:                -3.572
REMARK SMILES CCCCCCCCCCCCCCCCCCCCCCCC(=O)[O-]
REMARK SMILES IDX 13 1 14 2 15 3 16 4 17 5 18 6 19 7 20 8 21 9 22 10 23 11
REMARK SMILES IDX 24 12 25 13 26 14 12 15 11 16 10 17 9 18 8 19 7 20 6 21 5 22
REMARK SMILES IDX 4 23 3 24 2 25 1 26
REMARK H PARENT
REMARK Flexibility Score: inf
ROOT
ATOM      1  C   UNL     1      59.761  -3.849  29.506  1.00  0.00     0.000 C 
ENDROOT
BRANCH   1   2
ATOM      2  C   UNL     1      58.241  -3.721  29.718  1.00  0.00     0.000 C 
BRANCH   2   3
ATOM      3  C   UNL     1      57.768  -3.898  31.174  1.00  0.00     0.000 C 
BRANCH   3   4
ATOM      4  C   UNL     1      58.335  -2.830  32.125  1.00  0.00     0.000 C 
BRANCH   4   5
ATOM      5  C   UNL     1      57.736  -1.437  31.870  1.00  0.00     0.000 C 
BRANCH   5   6
ATOM      6  C   UNL     1      58.798  -0.410  31.436  1.00  0.00     0.000 C 
BRANCH   6   7
ATOM      7  C   UNL     1      58.501   0.205  30.059  1.00  0.00     0.000 C 
BRANCH   7   8
ATOM      8  C   UNL     1      57.000   0.474  29.842  1.00  0.00     0.000 C 
BRANCH   8   9
ATOM      9  C   UNL     1      56.531   0.091  28.429  1.00  0.00     0.000 C 
BRANCH   9  10
ATOM     10  C   UNL     1      55.158  -0.603  28.427  1.00  0.00     0.006 C 
BRANCH  10  11
ATOM     11  C   UNL     1      55.172  -1.917  29.219  1.00  0.00     0.053 C 
BRANCH  11  12
ATOM     12  C   UNL     1      54.253  -1.862  30.402  1.00  0.00     0.041 C 
ATOM     13  O   UNL     1      53.287  -1.053  30.417  1.00  0.00    -0.550 OA
ATOM     14  O   UNL     1      54.447  -2.725  31.475  1.00  0.00    -0.550 OA
ENDBRANCH  11  12
ENDBRANCH  10  11
ENDBRANCH   9  10
ENDBRANCH   8   9
ENDBRANCH   7   8
ENDBRANCH   6   7
ENDBRANCH   5   6
ENDBRANCH   4   5
ENDBRANCH   3   4
ENDBRANCH   2   3
ENDBRANCH   1   2
BRANCH   1  15
ATOM     15  C   UNL     1      60.415  -2.698  28.719  1.00  0.00     0.000 C 
BRANCH  15  16
ATOM     16  C   UNL     1      61.525  -1.956  29.495  1.00  0.00     0.000 C 
BRANCH  16  17
ATOM     17  C   UNL     1      62.406  -2.905  30.326  1.00  0.00     0.000 C 
BRANCH  17  18
ATOM     18  C   UNL     1      63.818  -2.348  30.572  1.00  0.00    -0.000 C 
BRANCH  18  19
ATOM     19  C   UNL     1      64.843  -2.759  29.493  1.00  0.00    -0.000 C 
BRANCH  19  20
ATOM     20  C   UNL     1      64.998  -1.692  28.397  1.00  0.00    -0.000 C 
BRANCH  20  21
ATOM     21  C   UNL     1      65.030  -2.289  26.980  1.00  0.00    -0.000 C 
BRANCH  21  22
ATOM     22  C   UNL     1      63.643  -2.360  26.304  1.00  0.00    -0.000 C 
BRANCH  22  23
ATOM     23  C   UNL     1      62.951  -3.716  26.532  1.00  0.00    -0.000 C 
BRANCH  23  24
ATOM     24  C   UNL     1      63.834  -4.903  26.087  1.00  0.00    -0.000 C 
BRANCH  24  25
ATOM     25  C   UNL     1      64.115  -5.915  27.211  1.00  0.00    -0.003 C 
ATOM     26  C   UNL     1      63.077  -5.865  28.330  1.00  0.00     0.004 C 
ENDBRANCH  24  25
ENDBRANCH  23  24
ENDBRANCH  22  23
ENDBRANCH  21  22
ENDBRANCH  20  21
ENDBRANCH  19  20
ENDBRANCH  18  19
ENDBRANCH  17  18
ENDBRANCH  16  17
ENDBRANCH  15  16
ENDBRANCH   1  15
TORSDOF 22
ENDMDL
MODEL 3
REMARK VINA RESULT:    -4.225     15.465     18.950
REMARK INTER + INTRA:         -13.231
REMARK INTER:                  -8.457
REMARK INTRA:                  -4.773
REMARK UNBOUND:                -3.572
REMARK SMILES CCCCCCCCCCCCCCCCCCCCCCCC(=O)[O-]
REMARK SMILES IDX 13 1 14 2 15 3 16 4 17 5 18 6 19 7 20 8 21 9 22 10 23 11
REMARK SMILES IDX 24 12 25 13 26 14 12 15 11 16 10 17 9 18 8 19 7 20 6 21 5 22
REMARK SMILES IDX 4 23 3 24 2 25 1 26
REMARK H PARENT
REMARK Flexibility Score: inf
ROOT
ATOM      1  C   UNL     1      59.974 -15.301  14.970  1.00  0.00     0.000 C 
ENDROOT
BRANCH   1   2
ATOM      2  C   UNL     1      59.964 -16.833  14.810  1.00  0.00     0.000 C 
BRANCH   2   3
ATOM      3  C   UNL     1      61.018 -17.394  13.837  1.00  0.00     0.000 C 
BRANCH   3   4
ATOM      4  C   UNL     1      62.262 -16.497  13.714  1.00  0.00     0.000 C 
BRANCH   4   5
ATOM      5  C   UNL     1      63.569 -17.307  13.678  1.00  0.00     0.000 C 
BRANCH   5   6
ATOM      6  C   UNL     1      64.486 -17.000  14.877  1.00  0.00     0.000 C 
BRANCH   6   7
ATOM      7  C   UNL     1      63.822 -16.078  15.911  1.00  0.00     0.000 C 
BRANCH   7   8
ATOM      8  C   UNL     1      63.640 -16.759  17.280  1.00  0.00     0.000 C 
BRANCH   8   9
ATOM      9  C   UNL     1      62.773 -18.026  17.198  1.00  0.00     0.000 C 
BRANCH   9  10
ATOM     10  C   UNL     1      61.478 -17.913  18.021  1.00  0.00     0.006 C 
BRANCH  10  11
ATOM     11  C   UNL     1      61.750 -17.900  19.531  1.00  0.00     0.053 C 
BRANCH  11  12
ATOM     12  C   UNL     1      61.249 -16.642  20.174  1.00  0.00     0.041 C 
ATOM     13  O   UNL     1      61.482 -15.522  19.645  1.00  0.00    -0.550 OA
ATOM     14  O   UNL     1      60.500 -16.708  21.344  1.00  0.00    -0.550 OA
ENDBRANCH  11  12
ENDBRANCH  10  11
ENDBRANCH   9  10
ENDBRANCH   8   9
ENDBRANCH   7   8
ENDBRANCH   6   7
ENDBRANCH   5   6
ENDBRANCH   4   5
ENDBRANCH   3   4
ENDBRANCH   2   3
ENDBRANCH   1   2
BRANCH   1  15
ATOM     15  C   UNL     1      60.360 -14.789  16.371  1.00  0.00     0.000 C 
BRANCH  15  16
ATOM     16  C   UNL     1      61.165 -13.472  16.359  1.00  0.00     0.000 C 
BRANCH  16  17
ATOM     17  C   UNL     1      61.303 -12.871  14.949  1.00  0.00     0.000 C 
BRANCH  17  18
ATOM     18  C   UNL     1      62.124 -11.571  14.931  1.00  0.00    -0.000 C 
BRANCH  18  19
ATOM     19  C   UNL     1      63.140 -11.498  13.770  1.00  0.00    -0.000 C 
BRANCH  19  20
ATOM     20  C   UNL     1      63.713 -12.878  13.407  1.00  0.00    -0.000 C 
BRANCH  20  21
ATOM     21  C   UNL     1      64.988 -13.222  14.194  1.00  0.00    -0.000 C 
BRANCH  21  22
ATOM     22  C   UNL     1      65.901 -12.006  14.463  1.00  0.00    -0.000 C 
BRANCH  22  23
ATOM     23  C   UNL     1      66.076 -11.730  15.967  1.00  0.00    -0.000 C 
BRANCH  23  24
ATOM     24  C   UNL     1      65.586 -12.908  16.838  1.00  0.00    -0.000 C 
BRANCH  24  25
ATOM     25  C   UNL     1      64.397 -12.549  17.745  1.00  0.00    -0.003 C 
ATOM     26  C   UNL     1      64.241 -11.044  17.955  1.00  0.00     0.004 C 
ENDBRANCH  24  25
ENDBRANCH  23  24
ENDBRANCH  22  23
ENDBRANCH  21  22
ENDBRANCH  20  21
ENDBRANCH  19  20
ENDBRANCH  18  19
ENDBRANCH  17  18
ENDBRANCH  16  17
ENDBRANCH  15  16
ENDBRANCH   1  15
TORSDOF 22
ENDMDL
MODEL 4
REMARK VINA RESULT:    -4.215     14.086     18.126
REMARK INTER + INTRA:         -13.208
REMARK INTER:                  -8.651
REMARK INTRA:                  -4.556
REMARK UNBOUND:                -3.572
REMARK SMILES CCCCCCCCCCCCCCCCCCCCCCCC(=O)[O-]
REMARK SMILES IDX 13 1 14 2 15 3 16 4 17 5 18 6 19 7 20 8 21 9 22 10 23 11
REMARK SMILES IDX 24 12 25 13 26 14 12 15 11 16 10 17 9 18 8 19 7 20 6 21 5 22
REMARK SMILES IDX 4 23 3 24 2 25 1 26
REMARK H PARENT
REMARK Flexibility Score: inf
ROOT
ATOM      1  C   UNL     1      61.585 -13.199  16.689  1.00  0.00     0.000 C 
ENDROOT
BRANCH   1   2
ATOM      2  C   UNL     1      60.362 -14.073  17.023  1.00  0.00     0.000 C 
BRANCH   2   3
ATOM      3  C   UNL     1      60.396 -15.495  16.432  1.00  0.00     0.000 C 
BRANCH   3   4
ATOM      4  C   UNL     1      60.282 -15.512  14.898  1.00  0.00     0.000 C 
BRANCH   4   5
ATOM      5  C   UNL     1      61.031 -16.696  14.265  1.00  0.00     0.000 C 
BRANCH   5   6
ATOM      6  C   UNL     1      62.435 -16.306  13.766  1.00  0.00     0.000 C 
BRANCH   6   7
ATOM      7  C   UNL     1      63.529 -17.264  14.261  1.00  0.00     0.000 C 
BRANCH   7   8
ATOM      8  C   UNL     1      63.768 -17.156  15.778  1.00  0.00     0.000 C 
BRANCH   8   9
ATOM      9  C   UNL     1      64.193 -15.743  16.209  1.00  0.00     0.000 C 
BRANCH   9  10
ATOM     10  C   UNL     1      64.237 -15.577  17.738  1.00  0.00     0.006 C 
BRANCH  10  11
ATOM     11  C   UNL     1      63.422 -16.656  18.463  1.00  0.00     0.053 C 
BRANCH  11  12
ATOM     12  C   UNL     1      62.845 -16.147  19.748  1.00  0.00     0.041 C 
ATOM     13  O   UNL     1      63.588 -15.965  20.750  1.00  0.00    -0.550 OA
ATOM     14  O   UNL     1      61.490 -15.845  19.833  1.00  0.00    -0.550 OA
ENDBRANCH  11  12
ENDBRANCH  10  11
ENDBRANCH   9  10
ENDBRANCH   8   9
ENDBRANCH   7   8
ENDBRANCH   6   7
ENDBRANCH   5   6
ENDBRANCH   4   5
ENDBRANCH   3   4
ENDBRANCH   2   3
ENDBRANCH   1   2
BRANCH   1  15
ATOM     15  C   UNL     1      61.261 -11.799  16.133  1.00  0.00     0.000 C 
BRANCH  15  16
ATOM     16  C   UNL     1      62.041 -11.435  14.851  1.00  0.00     0.000 C 
BRANCH  16  17
ATOM     17  C   UNL     1      62.416 -12.670  14.013  1.00  0.00     0.000 C 
BRANCH  17  18
ATOM     18  C   UNL     1      63.733 -12.489  13.239  1.00  0.00    -0.000 C 
BRANCH  18  19
ATOM     19  C   UNL     1      64.990 -12.825  14.070  1.00  0.00    -0.000 C 
BRANCH  19  20
ATOM     20  C   UNL     1      65.782 -11.569  14.466  1.00  0.00    -0.000 C 
BRANCH  20  21
ATOM     21  C   UNL     1      66.113 -11.519  15.967  1.00  0.00    -0.000 C 
BRANCH  21  22
ATOM     22  C   UNL     1      64.998 -12.091  16.869  1.00  0.00    -0.000 C 
BRANCH  22  23
ATOM     23  C   UNL     1      64.458 -11.047  17.863  1.00  0.00    -0.000 C 
BRANCH  23  24
ATOM     24  C   UNL     1      64.966 -11.294  19.301  1.00  0.00    -0.000 C 
BRANCH  24  25
ATOM     25  C   UNL     1      64.418 -12.585  19.933  1.00  0.00    -0.003 C 
ATOM     26  C   UNL     1      64.155 -12.450  21.432  1.00  0.00     0.004 C 
ENDBRANCH  24  25
ENDBRANCH  23  24
ENDBRANCH  22  23
ENDBRANCH  21  22
ENDBRANCH  20  21
ENDBRANCH  19  20
ENDBRANCH  18  19
ENDBRANCH  17  18
ENDBRANCH  16  17
ENDBRANCH  15  16
ENDBRANCH   1  15
TORSDOF 22
ENDMDL
MODEL 5
REMARK VINA RESULT:    -4.189      1.477      2.220
REMARK INTER + INTRA:         -13.149
REMARK INTER:                 -10.295
REMARK INTRA:                  -2.854
REMARK UNBOUND:                -3.572
REMARK SMILES CCCCCCCCCCCCCCCCCCCCCCCC(=O)[O-]
REMARK SMILES IDX 13 1 14 2 15 3 16 4 17 5 18 6 19 7 20 8 21 9 22 10 23 11
REMARK SMILES IDX 24 12 25 13 26 14 12 15 11 16 10 17 9 18 8 19 7 20 6 21 5 22
REMARK SMILES IDX 4 23 3 24 2 25 1 26
REMARK H PARENT
REMARK Flexibility Score: inf
ROOT
ATOM      1  C   UNL     1      58.196  -4.109  30.254  1.00  0.00     0.000 C 
ENDROOT
BRANCH   1   2
ATOM      2  C   UNL     1      59.090  -3.325  29.275  1.00  0.00     0.000 C 
BRANCH   2   3
ATOM      3  C   UNL     1      60.515  -3.883  29.102  1.00  0.00     0.000 C 
BRANCH   3   4
ATOM      4  C   UNL     1      61.604  -2.917  29.598  1.00  0.00     0.000 C 
BRANCH   4   5
ATOM      5  C   UNL     1      62.450  -2.345  28.450  1.00  0.00     0.000 C 
BRANCH   5   6
ATOM      6  C   UNL     1      61.979  -2.837  27.069  1.00  0.00     0.000 C 
BRANCH   6   7
ATOM      7  C   UNL     1      63.121  -3.424  26.225  1.00  0.00     0.000 C 
BRANCH   7   8
ATOM      8  C   UNL     1      63.947  -4.472  26.995  1.00  0.00     0.000 C 
BRANCH   8   9
ATOM      9  C   UNL     1      63.401  -5.898  26.818  1.00  0.00     0.000 C 
BRANCH   9  10
ATOM     10  C   UNL     1      63.904  -6.864  27.905  1.00  0.00     0.006 C 
BRANCH  10  11
ATOM     11  C   UNL     1      63.345  -8.282  27.725  1.00  0.00     0.053 C 
BRANCH  11  12
ATOM     12  C   UNL     1      63.579  -8.799  26.338  1.00  0.00     0.041 C 
ATOM     13  O   UNL     1      64.751  -9.016  25.930  1.00  0.00    -0.550 OA
ATOM     14  O   UNL     1      62.499  -9.067  25.503  1.00  0.00    -0.550 OA
ENDBRANCH  11  12
ENDBRANCH  10  11
ENDBRANCH   9  10
ENDBRANCH   8   9
ENDBRANCH   7   8
ENDBRANCH   6   7
ENDBRANCH   5   6
ENDBRANCH   4   5
ENDBRANCH   3   4
ENDBRANCH   2   3
ENDBRANCH   1   2
BRANCH   1  15
ATOM     15  C   UNL     1      57.713  -3.316  31.483  1.00  0.00     0.000 C 
BRANCH  15  16
ATOM     16  C   UNL     1      58.655  -2.166  31.900  1.00  0.00     0.000 C 
BRANCH  16  17
ATOM     17  C   UNL     1      57.922  -0.823  32.056  1.00  0.00     0.000 C 
BRANCH  17  18
ATOM     18  C   UNL     1      58.330   0.208  30.990  1.00  0.00    -0.000 C 
BRANCH  18  19
ATOM     19  C   UNL     1      57.135   0.965  30.371  1.00  0.00    -0.000 C 
BRANCH  19  20
ATOM     20  C   UNL     1      57.211   1.024  28.837  1.00  0.00    -0.000 C 
BRANCH  20  21
ATOM     21  C   UNL     1      56.120   0.184  28.151  1.00  0.00    -0.000 C 
BRANCH  21  22
ATOM     22  C   UNL     1      55.775  -1.120  28.902  1.00  0.00    -0.000 C 
BRANCH  22  23
ATOM     23  C   UNL     1      54.293  -1.506  28.750  1.00  0.00    -0.000 C 
BRANCH  23  24
ATOM     24  C   UNL     1      53.501  -1.307  30.061  1.00  0.00    -0.000 C 
BRANCH  24  25
ATOM     25  C   UNL     1      54.330  -1.583  31.327  1.00  0.00    -0.003 C 
ATOM     26  C   UNL     1      54.044  -2.953  31.940  1.00  0.00     0.004 C 
ENDBRANCH  24  25
ENDBRANCH  23  24
ENDBRANCH  22  23
ENDBRANCH  21  22
ENDBRANCH  20  21
ENDBRANCH  19  20
ENDBRANCH  18  19
ENDBRANCH  17  18
ENDBRANCH  16  17
ENDBRANCH  15  16
ENDBRANCH   1  15
TORSDOF 22
ENDMDL
MODEL 6
REMARK VINA RESULT:    -4.141     13.190     17.781
REMARK INTER + INTRA:         -13.039
REMARK INTER:                  -8.241
REMARK INTRA:                  -4.798
REMARK UNBOUND:                -3.572
REMARK SMILES CCCCCCCCCCCCCCCCCCCCCCCC(=O)[O-]
REMARK SMILES IDX 13 1 14 2 15 3 16 4 17 5 18 6 19 7 20 8 21 9 22 10 23 11
REMARK SMILES IDX 24 12 25 13 26 14 12 15 11 16 10 17 9 18 8 19 7 20 6 21 5 22
REMARK SMILES IDX 4 23 3 24 2 25 1 26
REMARK H PARENT
REMARK Flexibility Score: inf
ROOT
ATOM      1  C   UNL     1      62.560 -11.371  14.561  1.00  0.00     0.000 C 
ENDROOT
BRANCH   1   2
ATOM      2  C   UNL     1      62.762 -12.361  13.399  1.00  0.00     0.000 C 
BRANCH   2   3
ATOM      3  C   UNL     1      64.216 -12.815  13.174  1.00  0.00     0.000 C 
BRANCH   3   4
ATOM      4  C   UNL     1      65.199 -12.218  14.196  1.00  0.00     0.000 C 
BRANCH   4   5
ATOM      5  C   UNL     1      65.696 -13.258  15.212  1.00  0.00     0.000 C 
BRANCH   5   6
ATOM      6  C   UNL     1      65.747 -12.703  16.647  1.00  0.00     0.000 C 
BRANCH   6   7
ATOM      7  C   UNL     1      65.594 -11.175  16.699  1.00  0.00     0.000 C 
BRANCH   7   8
ATOM      8  C   UNL     1      64.650 -10.713  17.825  1.00  0.00     0.000 C 
BRANCH   8   9
ATOM      9  C   UNL     1      64.209 -11.869  18.737  1.00  0.00     0.000 C 
BRANCH   9  10
ATOM     10  C   UNL     1      64.775 -11.748  20.163  1.00  0.00     0.006 C 
BRANCH  10  11
ATOM     11  C   UNL     1      64.233 -12.838  21.096  1.00  0.00     0.053 C 
BRANCH  11  12
ATOM     12  C   UNL     1      64.064 -12.334  22.498  1.00  0.00     0.041 C 
ATOM     13  O   UNL     1      63.772 -13.132  23.428  1.00  0.00    -0.550 OA
ATOM     14  O   UNL     1      64.255 -10.986  22.781  1.00  0.00    -0.550 OA
ENDBRANCH  11  12
ENDBRANCH  10  11
ENDBRANCH   9  10
ENDBRANCH   8   9
ENDBRANCH   7   8
ENDBRANCH   6   7
ENDBRANCH   5   6
ENDBRANCH   4   5
ENDBRANCH   3   4
ENDBRANCH   2   3
ENDBRANCH   1   2
BRANCH   1  15
ATOM     15  C   UNL     1      61.620 -11.855  15.682  1.00  0.00     0.000 C 
BRANCH  15  16
ATOM     16  C   UNL     1      62.009 -13.222  16.283  1.00  0.00     0.000 C 
BRANCH  16  17
ATOM     17  C   UNL     1      60.841 -14.223  16.292  1.00  0.00     0.000 C 
BRANCH  17  18
ATOM     18  C   UNL     1      60.495 -14.750  14.889  1.00  0.00    -0.000 C 
BRANCH  18  19
ATOM     19  C   UNL     1      61.106 -16.134  14.580  1.00  0.00    -0.000 C 
BRANCH  19  20
ATOM     20  C   UNL     1      62.421 -16.029  13.790  1.00  0.00    -0.000 C 
BRANCH  20  21
ATOM     21  C   UNL     1      63.648 -16.461  14.611  1.00  0.00    -0.000 C 
BRANCH  21  22
ATOM     22  C   UNL     1      63.409 -17.721  15.471  1.00  0.00    -0.000 C 
BRANCH  22  23
ATOM     23  C   UNL     1      63.826 -17.515  16.938  1.00  0.00    -0.000 C 
BRANCH  23  24
ATOM     24  C   UNL     1      64.219 -16.050  17.231  1.00  0.00    -0.000 C 
BRANCH  24  25
ATOM     25  C   UNL     1      63.768 -15.559  18.618  1.00  0.00    -0.003 C 
ATOM     26  C   UNL     1      62.451 -16.185  19.072  1.00  0.00     0.004 C 
ENDBRANCH  24  25
ENDBRANCH  23  24
ENDBRANCH  22  23
ENDBRANCH  21  22
ENDBRANCH  20  21
ENDBRANCH  19  20
ENDBRANCH  18  19
ENDBRANCH  17  18
ENDBRANCH  16  17
ENDBRANCH  15  16
ENDBRANCH   1  15
TORSDOF 22
ENDMDL
MODEL 7
REMARK VINA RESULT:    -4.019     15.351     18.130
REMARK INTER + INTRA:         -12.761
REMARK INTER:                  -7.990
REMARK INTRA:                  -4.771
REMARK UNBOUND:                -3.572
REMARK SMILES CCCCCCCCCCCCCCCCCCCCCCCC(=O)[O-]
REMARK SMILES IDX 13 1 14 2 15 3 16 4 17 5 18 6 19 7 20 8 21 9 22 10 23 11
REMARK SMILES IDX 24 12 25 13 26 14 12 15 11 16 10 17 9 18 8 19 7 20 6 21 5 22
REMARK SMILES IDX 4 23 3 24 2 25 1 26
REMARK H PARENT
REMARK Flexibility Score: inf
ROOT
ATOM      1  C   UNL     1      62.397 -11.455  14.768  1.00  0.00     0.000 C 
ENDROOT
BRANCH   1   2
ATOM      2  C   UNL     1      62.468 -12.674  13.829  1.00  0.00     0.000 C 
BRANCH   2   3
ATOM      3  C   UNL     1      63.842 -12.915  13.176  1.00  0.00     0.000 C 
BRANCH   3   4
ATOM      4  C   UNL     1      65.003 -12.284  13.965  1.00  0.00     0.000 C 
BRANCH   4   5
ATOM      5  C   UNL     1      65.991 -13.334  14.498  1.00  0.00     0.000 C 
BRANCH   5   6
ATOM      6  C   UNL     1      66.057 -13.355  16.036  1.00  0.00     0.000 C 
BRANCH   6   7
ATOM      7  C   UNL     1      65.602 -14.696  16.632  1.00  0.00     0.000 C 
BRANCH   7   8
ATOM      8  C   UNL     1      65.075 -15.671  15.562  1.00  0.00     0.000 C 
BRANCH   8   9
ATOM      9  C   UNL     1      64.092 -16.702  16.137  1.00  0.00     0.000 C 
BRANCH   9  10
ATOM     10  C   UNL     1      63.133 -17.265  15.073  1.00  0.00     0.006 C 
BRANCH  10  11
ATOM     11  C   UNL     1      62.148 -16.207  14.562  1.00  0.00     0.053 C 
BRANCH  11  12
ATOM     12  C   UNL     1      60.727 -16.585  14.853  1.00  0.00     0.041 C 
ATOM     13  O   UNL     1      60.466 -17.667  15.443  1.00  0.00    -0.550 OA
ATOM     14  O   UNL     1      59.692 -15.727  14.497  1.00  0.00    -0.550 OA
ENDBRANCH  11  12
ENDBRANCH  10  11
ENDBRANCH   9  10
ENDBRANCH   8   9
ENDBRANCH   7   8
ENDBRANCH   6   7
ENDBRANCH   5   6
ENDBRANCH   4   5
ENDBRANCH   3   4
ENDBRANCH   2   3
ENDBRANCH   1   2
BRANCH   1  15
ATOM     15  C   UNL     1      62.119 -11.780  16.248  1.00  0.00     0.000 C 
BRANCH  15  16
ATOM     16  C   UNL     1      61.563 -13.200  16.487  1.00  0.00     0.000 C 
BRANCH  16  17
ATOM     17  C   UNL     1      62.164 -13.873  17.733  1.00  0.00     0.000 C 
BRANCH  17  18
ATOM     18  C   UNL     1      61.389 -15.129  18.166  1.00  0.00    -0.000 C 
BRANCH  18  19
ATOM     19  C   UNL     1      61.925 -15.768  19.466  1.00  0.00    -0.000 C 
BRANCH  19  20
ATOM     20  C   UNL     1      63.417 -15.474  19.690  1.00  0.00    -0.000 C 
BRANCH  20  21
ATOM     21  C   UNL     1      63.692 -14.756  21.023  1.00  0.00    -0.000 C 
BRANCH  21  22
ATOM     22  C   UNL     1      64.226 -13.318  20.855  1.00  0.00    -0.000 C 
BRANCH  22  23
ATOM     23  C   UNL     1      65.679 -13.290  20.348  1.00  0.00    -0.000 C 
BRANCH  23  24
ATOM     24  C   UNL     1      65.980 -12.029  19.508  1.00  0.00    -0.000 C 
BRANCH  24  25
ATOM     25  C   UNL     1      64.733 -11.425  18.839  1.00  0.00    -0.003 C 
ATOM     26  C   UNL     1      65.073 -10.366  17.792  1.00  0.00     0.004 C 
ENDBRANCH  24  25
ENDBRANCH  23  24
ENDBRANCH  22  23
ENDBRANCH  21  22
ENDBRANCH  20  21
ENDBRANCH  19  20
ENDBRANCH  18  19
ENDBRANCH  17  18
ENDBRANCH  16  17
ENDBRANCH  15  16
ENDBRANCH   1  15
TORSDOF 22
ENDMDL
MODEL 8
REMARK VINA RESULT:    -3.986     14.611     18.225
REMARK INTER + INTRA:         -12.685
REMARK INTER:                  -7.889
REMARK INTRA:                  -4.796
REMARK UNBOUND:                -3.572
REMARK SMILES CCCCCCCCCCCCCCCCCCCCCCCC(=O)[O-]
REMARK SMILES IDX 13 1 14 2 15 3 16 4 17 5 18 6 19 7 20 8 21 9 22 10 23 11
REMARK SMILES IDX 24 12 25 13 26 14 12 15 11 16 10 17 9 18 8 19 7 20 6 21 5 22
REMARK SMILES IDX 4 23 3 24 2 25 1 26
REMARK H PARENT
REMARK Flexibility Score: inf
ROOT
ATOM      1  C   UNL     1      60.885 -12.541  16.738  1.00  0.00     0.000 C 
ENDROOT
BRANCH   1   2
ATOM      2  C   UNL     1      61.525 -11.667  15.643  1.00  0.00     0.000 C 
BRANCH   2   3
ATOM      3  C   UNL     1      61.950 -12.424  14.370  1.00  0.00     0.000 C 
BRANCH   3   4
ATOM      4  C   UNL     1      63.081 -11.720  13.600  1.00  0.00     0.000 C 
BRANCH   4   5
ATOM      5  C   UNL     1      64.154 -12.702  13.104  1.00  0.00     0.000 C 
BRANCH   5   6
ATOM      6  C   UNL     1      65.378 -12.757  14.037  1.00  0.00     0.000 C 
BRANCH   6   7
ATOM      7  C   UNL     1      65.514 -11.502  14.913  1.00  0.00     0.000 C 
BRANCH   7   8
ATOM      8  C   UNL     1      65.396 -11.814  16.417  1.00  0.00     0.000 C 
BRANCH   8   9
ATOM      9  C   UNL     1      64.880 -13.237  16.685  1.00  0.00     0.000 C 
BRANCH   9  10
ATOM     10  C   UNL     1      64.900 -13.604  18.179  1.00  0.00     0.006 C 
BRANCH  10  11
ATOM     11  C   UNL     1      63.981 -12.701  19.011  1.00  0.00     0.053 C 
BRANCH  11  12
ATOM     12  C   UNL     1      64.606 -12.330  20.322  1.00  0.00     0.041 C 
ATOM     13  O   UNL     1      65.733 -11.768  20.352  1.00  0.00    -0.550 OA
ATOM     14  O   UNL     1      63.929 -12.582  21.512  1.00  0.00    -0.550 OA
ENDBRANCH  11  12
ENDBRANCH  10  11
ENDBRANCH   9  10
ENDBRANCH   8   9
ENDBRANCH   7   8
ENDBRANCH   6   7
ENDBRANCH   5   6
ENDBRANCH   4   5
ENDBRANCH   3   4
ENDBRANCH   2   3
ENDBRANCH   1   2
BRANCH   1  15
ATOM     15  C   UNL     1      61.288 -14.028  16.713  1.00  0.00     0.000 C 
BRANCH  15  16
ATOM     16  C   UNL     1      60.130 -14.988  16.367  1.00  0.00     0.000 C 
BRANCH  16  17
ATOM     17  C   UNL     1      60.112 -15.388  14.881  1.00  0.00     0.000 C 
BRANCH  17  18
ATOM     18  C   UNL     1      61.053 -16.563  14.568  1.00  0.00    -0.000 C 
BRANCH  18  19
ATOM     19  C   UNL     1      62.362 -16.137  13.866  1.00  0.00    -0.000 C 
BRANCH  19  20
ATOM     20  C   UNL     1      63.550 -16.066  14.839  1.00  0.00    -0.000 C 
BRANCH  20  21
ATOM     21  C   UNL     1      64.225 -17.430  15.060  1.00  0.00    -0.000 C 
BRANCH  21  22
ATOM     22  C   UNL     1      63.956 -18.039  16.453  1.00  0.00    -0.000 C 
BRANCH  22  23
ATOM     23  C   UNL     1      63.397 -17.004  17.445  1.00  0.00    -0.000 C 
BRANCH  23  24
ATOM     24  C   UNL     1      62.071 -17.469  18.088  1.00  0.00    -0.000 C 
BRANCH  24  25
ATOM     25  C   UNL     1      61.680 -16.664  19.339  1.00  0.00    -0.003 C 
ATOM     26  C   UNL     1      62.887 -16.109  20.092  1.00  0.00     0.004 C 
ENDBRANCH  24  25
ENDBRANCH  23  24
ENDBRANCH  22  23
ENDBRANCH  21  22
ENDBRANCH  20  21
ENDBRANCH  19  20
ENDBRANCH  18  19
ENDBRANCH  17  18
ENDBRANCH  16  17
ENDBRANCH  15  16
ENDBRANCH   1  15
TORSDOF 22
ENDMDL
MODEL 9
REMARK VINA RESULT:    -3.982      1.814      3.012
REMARK INTER + INTRA:         -12.676
REMARK INTER:                  -9.079
REMARK INTRA:                  -3.597
REMARK UNBOUND:                -3.572
REMARK SMILES CCCCCCCCCCCCCCCCCCCCCCCC(=O)[O-]
REMARK SMILES IDX 13 1 14 2 15 3 16 4 17 5 18 6 19 7 20 8 21 9 22 10 23 11
REMARK SMILES IDX 24 12 25 13 26 14 12 15 11 16 10 17 9 18 8 19 7 20 6 21 5 22
REMARK SMILES IDX 4 23 3 24 2 25 1 26
REMARK H PARENT
REMARK Flexibility Score: inf
ROOT
ATOM      1  C   UNL     1      59.216  -3.429  28.823  1.00  0.00     0.000 C 
ENDROOT
BRANCH   1   2
ATOM      2  C   UNL     1      60.747  -3.278  28.879  1.00  0.00     0.000 C 
BRANCH   2   3
ATOM      3  C   UNL     1      61.277  -1.871  28.547  1.00  0.00     0.000 C 
BRANCH   3   4
ATOM      4  C   UNL     1      62.703  -1.625  29.070  1.00  0.00     0.000 C 
BRANCH   4   5
ATOM      5  C   UNL     1      63.117  -2.639  30.148  1.00  0.00     0.000 C 
BRANCH   5   6
ATOM      6  C   UNL     1      64.629  -2.933  30.132  1.00  0.00     0.000 C 
BRANCH   6   7
ATOM      7  C   UNL     1      64.951  -4.407  30.419  1.00  0.00     0.000 C 
BRANCH   7   8
ATOM      8  C   UNL     1      65.233  -5.212  29.137  1.00  0.00     0.000 C 
BRANCH   8   9
ATOM      9  C   UNL     1      64.115  -6.217  28.814  1.00  0.00     0.000 C 
BRANCH   9  10
ATOM     10  C   UNL     1      63.125  -5.686  27.762  1.00  0.00     0.006 C 
BRANCH  10  11
ATOM     11  C   UNL     1      63.830  -5.236  26.477  1.00  0.00     0.053 C 
BRANCH  11  12
ATOM     12  C   UNL     1      63.517  -3.809  26.142  1.00  0.00     0.041 C 
ATOM     13  O   UNL     1      64.298  -2.887  26.500  1.00  0.00    -0.550 OA
ATOM     14  O   UNL     1      62.375  -3.500  25.410  1.00  0.00    -0.550 OA
ENDBRANCH  11  12
ENDBRANCH  10  11
ENDBRANCH   9  10
ENDBRANCH   8   9
ENDBRANCH   7   8
ENDBRANCH   6   7
ENDBRANCH   5   6
ENDBRANCH   4   5
ENDBRANCH   3   4
ENDBRANCH   2   3
ENDBRANCH   1   2
BRANCH   1  15
ATOM     15  C   UNL     1      58.602  -4.330  29.913  1.00  0.00     0.000 C 
BRANCH  15  16
ATOM     16  C   UNL     1      57.510  -3.640  30.757  1.00  0.00     0.000 C 
BRANCH  16  17
ATOM     17  C   UNL     1      58.085  -2.863  31.954  1.00  0.00     0.000 C 
BRANCH  17  18
ATOM     18  C   UNL     1      57.835  -1.348  31.859  1.00  0.00    -0.000 C 
BRANCH  18  19
ATOM     19  C   UNL     1      58.954  -0.581  31.123  1.00  0.00    -0.000 C 
BRANCH  19  20
ATOM     20  C   UNL     1      58.458   0.071  29.822  1.00  0.00    -0.000 C 
BRANCH  20  21
ATOM     21  C   UNL     1      56.931   0.252  29.789  1.00  0.00    -0.000 C 
BRANCH  21  22
ATOM     22  C   UNL     1      56.364   0.500  28.374  1.00  0.00    -0.000 C 
BRANCH  22  23
ATOM     23  C   UNL     1      55.252  -0.499  28.008  1.00  0.00    -0.000 C 
BRANCH  23  24
ATOM     24  C   UNL     1      55.140  -1.649  29.034  1.00  0.00    -0.000 C 
BRANCH  24  25
ATOM     25  C   UNL     1      53.888  -1.559  29.922  1.00  0.00    -0.003 C 
ATOM     26  C   UNL     1      54.145  -2.000  31.362  1.00  0.00     0.004 C 
ENDBRANCH  24  25
ENDBRANCH  23  24
ENDBRANCH  22  23
ENDBRANCH  21  22
ENDBRANCH  20  21
ENDBRANCH  19  20
ENDBRANCH  18  19
ENDBRANCH  17  18
ENDBRANCH  16  17
ENDBRANCH  15  16
ENDBRANCH   1  15
TORSDOF 22
ENDMDL
