MODEL 1
REMARK VINA RESULT:    -6.303      0.000      0.000
REMARK INTER + INTRA:          -7.515
REMARK INTER:                  -7.409
REMARK INTRA:                  -0.107
REMARK UNBOUND:                -0.107
REMARK SMILES O=c1c(O)c(-c2ccc(O)cc2)oc2cc(O)cc(O)c12
REMARK SMILES IDX 5 1 3 2 2 3 1 4 21 5 19 6 18 7 16 8 15 9 14 10 13 11 6 12
REMARK SMILES IDX 7 13 8 14 9 15 12 16 11 17 10 18 4 20 20 22 17 24
REMARK H PARENT 10 19 4 21 20 23 17 25
REMARK Flexibility Score: inf
ROOT
ATOM      1  C   UNL     1      30.537 -92.180  37.264  1.00  0.00     0.180 A 
ATOM      2  C   UNL     1      29.281 -92.727  36.948  1.00  0.00     0.208 A 
ATOM      3  C   UNL     1      29.092 -94.113  37.072  1.00  0.00     0.238 A 
ATOM      4  O   UNL     1      27.950 -94.590  36.840  1.00  0.00    -0.285 OA
ATOM      5  C   UNL     1      30.163 -94.935  37.495  1.00  0.00     0.111 A 
ATOM      6  C   UNL     1      30.095 -96.356  37.617  1.00  0.00     0.134 A 
ATOM      7  C   UNL     1      31.176 -97.054  38.170  1.00  0.00     0.093 A 
ATOM      8  C   UNL     1      32.346 -96.390  38.543  1.00  0.00     0.123 A 
ATOM      9  C   UNL     1      32.445 -95.012  38.373  1.00  0.00     0.094 A 
ATOM     10  C   UNL     1      31.370 -94.283  37.858  1.00  0.00     0.146 A 
ATOM     11  O   UNL     1      31.502 -92.969  37.721  1.00  0.00    -0.452 OA
ENDROOT
BRANCH   1  12
ATOM     12  C   UNL     1      30.821 -90.733  37.134  1.00  0.00     0.021 A 
ATOM     13  C   UNL     1      31.759 -90.295  36.184  1.00  0.00     0.016 A 
ATOM     14  C   UNL     1      32.026 -88.931  36.028  1.00  0.00     0.047 A 
ATOM     15  C   UNL     1      31.348 -87.987  36.810  1.00  0.00     0.115 A 
ATOM     16  C   UNL     1      30.129 -89.777  37.901  1.00  0.00     0.016 A 
ATOM     17  C   UNL     1      30.398 -88.414  37.743  1.00  0.00     0.047 A 
BRANCH  15  18
ATOM     18  O   UNL     1      31.605 -86.627  36.664  1.00  0.00    -0.508 OA
ATOM     19  H   UNL     1      31.156 -86.077  35.941  1.00  0.00     0.293 HD
ENDBRANCH  15  18
ENDBRANCH   1  12
BRANCH   2  20
ATOM     20  O   UNL     1      28.231 -91.894  36.553  1.00  0.00    -0.502 OA
ATOM     21  H   UNL     1      27.271 -92.056  36.837  1.00  0.00     0.293 HD
ENDBRANCH   2  20
BRANCH   6  22
ATOM     22  O   UNL     1      29.009 -97.125  37.189  1.00  0.00    -0.507 OA
ATOM     23  H   UNL     1      28.631 -97.916  37.688  1.00  0.00     0.293 HD
ENDBRANCH   6  22
BRANCH   8  24
ATOM     24  O   UNL     1      33.423 -97.095  39.078  1.00  0.00    -0.508 OA
ATOM     25  H   UNL     1      33.887 -96.792  39.927  1.00  0.00     0.293 HD
ENDBRANCH   8  24
TORSDOF 5
ENDMDL
MODEL 2
REMARK VINA RESULT:    -5.746      9.687     10.960
REMARK INTER + INTRA:          -6.861
REMARK INTER:                  -6.560
REMARK INTRA:                  -0.301
REMARK UNBOUND:                -0.107
REMARK SMILES O=c1c(O)c(-c2ccc(O)cc2)oc2cc(O)cc(O)c12
REMARK SMILES IDX 5 1 3 2 2 3 1 4 21 5 19 6 18 7 16 8 15 9 14 10 13 11 6 12
REMARK SMILES IDX 7 13 8 14 9 15 12 16 11 17 10 18 4 20 20 22 17 24
REMARK H PARENT 10 19 4 21 20 23 17 25
REMARK Flexibility Score: inf
ROOT
ATOM      1  C   UNL     1      35.879 -95.602  29.465  1.00  0.00     0.180 A 
ATOM      2  C   UNL     1      36.974 -96.020  28.690  1.00  0.00     0.208 A 
ATOM      3  C   UNL     1      38.258 -96.003  29.259  1.00  0.00     0.238 A 
ATOM      4  O   UNL     1      39.226 -96.430  28.578  1.00  0.00    -0.285 OA
ATOM      5  C   UNL     1      38.432 -95.554  30.590  1.00  0.00     0.111 A 
ATOM      6  C   UNL     1      39.692 -95.458  31.255  1.00  0.00     0.134 A 
ATOM      7  C   UNL     1      39.731 -95.125  32.614  1.00  0.00     0.093 A 
ATOM      8  C   UNL     1      38.563 -94.821  33.316  1.00  0.00     0.123 A 
ATOM      9  C   UNL     1      37.334 -94.855  32.661  1.00  0.00     0.094 A 
ATOM     10  C   UNL     1      37.258 -95.219  31.314  1.00  0.00     0.146 A 
ATOM     11  O   UNL     1      36.066 -95.249  30.731  1.00  0.00    -0.452 OA
ENDROOT
BRANCH   1  12
ATOM     12  C   UNL     1      34.500 -95.567  28.927  1.00  0.00     0.021 A 
ATOM     13  C   UNL     1      33.653 -96.670  29.123  1.00  0.00     0.016 A 
ATOM     14  C   UNL     1      32.340 -96.650  28.642  1.00  0.00     0.047 A 
ATOM     15  C   UNL     1      31.853 -95.520  27.972  1.00  0.00     0.115 A 
ATOM     16  C   UNL     1      33.997 -94.428  28.270  1.00  0.00     0.016 A 
ATOM     17  C   UNL     1      32.684 -94.411  27.791  1.00  0.00     0.047 A 
BRANCH  15  18
ATOM     18  O   UNL     1      30.548 -95.488  27.489  1.00  0.00    -0.508 OA
ATOM     19  H   UNL     1      30.318 -95.823  26.560  1.00  0.00     0.293 HD
ENDBRANCH  15  18
ENDBRANCH   1  12
BRANCH   2  20
ATOM     20  O   UNL     1      36.777 -96.480  27.385  1.00  0.00    -0.502 OA
ATOM     21  H   UNL     1      37.290 -97.266  27.001  1.00  0.00     0.293 HD
ENDBRANCH   2  20
BRANCH   6  22
ATOM     22  O   UNL     1      40.924 -95.650  30.622  1.00  0.00    -0.507 OA
ATOM     23  H   UNL     1      41.577 -94.914  30.400  1.00  0.00     0.293 HD
ENDBRANCH   6  22
BRANCH   8  24
ATOM     24  O   UNL     1      38.613 -94.476  34.664  1.00  0.00    -0.508 OA
ATOM     25  H   UNL     1      38.089 -93.690  35.031  1.00  0.00     0.293 HD
ENDBRANCH   8  24
TORSDOF 5
ENDMDL
MODEL 3
REMARK VINA RESULT:    -5.616      9.558     10.995
REMARK INTER + INTRA:          -6.708
REMARK INTER:                  -6.600
REMARK INTRA:                  -0.107
REMARK UNBOUND:                -0.107
REMARK SMILES O=c1c(O)c(-c2ccc(O)cc2)oc2cc(O)cc(O)c12
REMARK SMILES IDX 5 1 3 2 2 3 1 4 21 5 19 6 18 7 16 8 15 9 14 10 13 11 6 12
REMARK SMILES IDX 7 13 8 14 9 15 12 16 11 17 10 18 4 20 20 22 17 24
REMARK H PARENT 10 19 4 21 20 23 17 25
REMARK Flexibility Score: inf
ROOT
ATOM      1  C   UNL     1      37.251 -95.567  30.851  1.00  0.00     0.180 A 
ATOM      2  C   UNL     1      37.929 -96.191  29.789  1.00  0.00     0.208 A 
ATOM      3  C   UNL     1      37.270 -96.347  28.559  1.00  0.00     0.238 A 
ATOM      4  O   UNL     1      37.901 -96.856  27.596  1.00  0.00    -0.285 OA
ATOM      5  C   UNL     1      35.938 -95.892  28.410  1.00  0.00     0.111 A 
ATOM      6  C   UNL     1      35.161 -96.033  27.221  1.00  0.00     0.134 A 
ATOM      7  C   UNL     1      33.900 -95.429  27.144  1.00  0.00     0.093 A 
ATOM      8  C   UNL     1      33.362 -94.745  28.236  1.00  0.00     0.123 A 
ATOM      9  C   UNL     1      34.088 -94.652  29.421  1.00  0.00     0.094 A 
ATOM     10  C   UNL     1      35.364 -95.213  29.516  1.00  0.00     0.146 A 
ATOM     11  O   UNL     1      36.026 -95.093  30.661  1.00  0.00    -0.452 OA
ENDROOT
BRANCH   1  12
ATOM     12  C   UNL     1      37.869 -95.391  32.185  1.00  0.00     0.021 A 
ATOM     13  C   UNL     1      38.989 -94.554  32.322  1.00  0.00     0.016 A 
ATOM     14  C   UNL     1      39.576 -94.354  33.576  1.00  0.00     0.047 A 
ATOM     15  C   UNL     1      39.041 -94.978  34.710  1.00  0.00     0.115 A 
ATOM     16  C   UNL     1      37.326 -95.998  33.332  1.00  0.00     0.016 A 
ATOM     17  C   UNL     1      37.914 -95.796  34.584  1.00  0.00     0.047 A 
BRANCH  15  18
ATOM     18  O   UNL     1      39.616 -94.788  35.964  1.00  0.00    -0.508 OA
ATOM     19  H   UNL     1      40.448 -95.294  36.247  1.00  0.00     0.293 HD
ENDBRANCH  15  18
ENDBRANCH   1  12
BRANCH   2  20
ATOM     20  O   UNL     1      39.252 -96.613  29.951  1.00  0.00    -0.502 OA
ATOM     21  H   UNL     1      39.912 -96.121  30.542  1.00  0.00     0.293 HD
ENDBRANCH   2  20
BRANCH   6  22
ATOM     22  O   UNL     1      35.568 -96.775  26.107  1.00  0.00    -0.507 OA
ATOM     23  H   UNL     1      36.470 -96.698  25.664  1.00  0.00     0.293 HD
ENDBRANCH   6  22
BRANCH   8  24
ATOM     24  O   UNL     1      32.100 -94.160  28.156  1.00  0.00    -0.508 OA
ATOM     25  H   UNL     1      31.966 -93.165  28.291  1.00  0.00     0.293 HD
ENDBRANCH   8  24
TORSDOF 5
ENDMDL
MODEL 4
REMARK VINA RESULT:    -5.521      8.071     10.446
REMARK INTER + INTRA:          -6.596
REMARK INTER:                  -6.375
REMARK INTRA:                  -0.221
REMARK UNBOUND:                -0.107
REMARK SMILES O=c1c(O)c(-c2ccc(O)cc2)oc2cc(O)cc(O)c12
REMARK SMILES IDX 5 1 3 2 2 3 1 4 21 5 19 6 18 7 16 8 15 9 14 10 13 11 6 12
REMARK SMILES IDX 7 13 8 14 9 15 12 16 11 17 10 18 4 20 20 22 17 24
REMARK H PARENT 10 19 4 21 20 23 17 25
REMARK Flexibility Score: inf
ROOT
ATOM      1  C   UNL     1      39.641 -95.491  35.088  1.00  0.00     0.180 A 
ATOM      2  C   UNL     1      40.729 -95.148  35.909  1.00  0.00     0.208 A 
ATOM      3  C   UNL     1      40.571 -95.195  37.304  1.00  0.00     0.238 A 
ATOM      4  O   UNL     1      41.565 -94.941  38.033  1.00  0.00    -0.285 OA
ATOM      5  C   UNL     1      39.324 -95.569  37.859  1.00  0.00     0.111 A 
ATOM      6  C   UNL     1      39.040 -95.613  39.258  1.00  0.00     0.134 A 
ATOM      7  C   UNL     1      37.812 -96.123  39.697  1.00  0.00     0.093 A 
ATOM      8  C   UNL     1      36.834 -96.529  38.787  1.00  0.00     0.123 A 
ATOM      9  C   UNL     1      37.079 -96.434  37.419  1.00  0.00     0.094 A 
ATOM     10  C   UNL     1      38.308 -95.964  36.950  1.00  0.00     0.146 A 
ATOM     11  O   UNL     1      38.505 -95.900  35.639  1.00  0.00    -0.452 OA
ENDROOT
BRANCH   1  12
ATOM     12  C   UNL     1      39.722 -95.440  33.611  1.00  0.00     0.021 A 
ATOM     13  C   UNL     1      40.405 -96.456  32.921  1.00  0.00     0.016 A 
ATOM     14  C   UNL     1      40.476 -96.440  31.524  1.00  0.00     0.047 A 
ATOM     15  C   UNL     1      39.852 -95.416  30.800  1.00  0.00     0.115 A 
ATOM     16  C   UNL     1      39.082 -94.426  32.874  1.00  0.00     0.016 A 
ATOM     17  C   UNL     1      39.154 -94.413  31.478  1.00  0.00     0.047 A 
BRANCH  15  18
ATOM     18  O   UNL     1      39.916 -95.390  29.409  1.00  0.00    -0.508 OA
ATOM     19  H   UNL     1      39.116 -95.121  28.847  1.00  0.00     0.293 HD
ENDBRANCH  15  18
ENDBRANCH   1  12
BRANCH   2  20
ATOM     20  O   UNL     1      41.958 -94.803  35.340  1.00  0.00    -0.502 OA
ATOM     21  H   UNL     1      42.064 -94.606  34.351  1.00  0.00     0.293 HD
ENDBRANCH   2  20
BRANCH   6  22
ATOM     22  O   UNL     1      39.912 -95.145  40.246  1.00  0.00    -0.507 OA
ATOM     23  H   UNL     1      40.500 -94.331  40.155  1.00  0.00     0.293 HD
ENDBRANCH   6  22
BRANCH   8  24
ATOM     24  O   UNL     1      35.609 -97.020  39.233  1.00  0.00    -0.508 OA
ATOM     25  H   UNL     1      34.947 -96.430  39.724  1.00  0.00     0.293 HD
ENDBRANCH   8  24
TORSDOF 5
ENDMDL
MODEL 5
REMARK VINA RESULT:    -5.382     15.259     16.770
REMARK INTER + INTRA:          -6.432
REMARK INTER:                  -6.150
REMARK INTRA:                  -0.282
REMARK UNBOUND:                -0.107
REMARK SMILES O=c1c(O)c(-c2ccc(O)cc2)oc2cc(O)cc(O)c12
REMARK SMILES IDX 5 1 3 2 2 3 1 4 21 5 19 6 18 7 16 8 15 9 14 10 13 11 6 12
REMARK SMILES IDX 7 13 8 14 9 15 12 16 11 17 10 18 4 20 20 22 17 24
REMARK H PARENT 10 19 4 21 20 23 17 25
REMARK Flexibility Score: inf
ROOT
ATOM      1  C   UNL     1      36.913 -77.970  37.307  1.00  0.00     0.180 A 
ATOM      2  C   UNL     1      37.457 -77.816  36.020  1.00  0.00     0.208 A 
ATOM      3  C   UNL     1      36.595 -77.807  34.912  1.00  0.00     0.238 A 
ATOM      4  O   UNL     1      37.084 -77.613  33.769  1.00  0.00    -0.285 OA
ATOM      5  C   UNL     1      35.202 -77.967  35.103  1.00  0.00     0.111 A 
ATOM      6  C   UNL     1      34.240 -78.012  34.049  1.00  0.00     0.134 A 
ATOM      7  C   UNL     1      32.875 -78.043  34.362  1.00  0.00     0.093 A 
ATOM      8  C   UNL     1      32.441 -78.096  35.688  1.00  0.00     0.123 A 
ATOM      9  C   UNL     1      33.374 -78.112  36.721  1.00  0.00     0.094 A 
ATOM     10  C   UNL     1      34.741 -78.045  36.443  1.00  0.00     0.146 A 
ATOM     11  O   UNL     1      35.597 -78.052  37.458  1.00  0.00    -0.452 OA
ENDROOT
BRANCH   1  12
ATOM     12  C   UNL     1      37.760 -78.016  38.520  1.00  0.00     0.021 A 
ATOM     13  C   UNL     1      37.865 -76.875  39.333  1.00  0.00     0.016 A 
ATOM     14  C   UNL     1      38.642 -76.903  40.496  1.00  0.00     0.047 A 
ATOM     15  C   UNL     1      39.310 -78.076  40.868  1.00  0.00     0.115 A 
ATOM     16  C   UNL     1      38.418 -79.197  38.912  1.00  0.00     0.016 A 
ATOM     17  C   UNL     1      39.193 -79.221  40.075  1.00  0.00     0.047 A 
BRANCH  15  18
ATOM     18  O   UNL     1      40.086 -78.116  42.024  1.00  0.00    -0.508 OA
ATOM     19  H   UNL     1      40.599 -77.303  42.346  1.00  0.00     0.293 HD
ENDBRANCH  15  18
ENDBRANCH   1  12
BRANCH   2  20
ATOM     20  O   UNL     1      38.834 -77.638  35.857  1.00  0.00    -0.502 OA
ATOM     21  H   UNL     1      39.257 -77.466  34.952  1.00  0.00     0.293 HD
ENDBRANCH   2  20
BRANCH   6  22
ATOM     22  O   UNL     1      34.571 -78.057  32.692  1.00  0.00    -0.507 OA
ATOM     23  H   UNL     1      33.964 -78.399  31.963  1.00  0.00     0.293 HD
ENDBRANCH   6  22
BRANCH   8  24
ATOM     24  O   UNL     1      31.081 -78.142  35.989  1.00  0.00    -0.508 OA
ATOM     25  H   UNL     1      30.751 -78.218  36.944  1.00  0.00     0.293 HD
ENDBRANCH   8  24
TORSDOF 5
ENDMDL
MODEL 6
REMARK VINA RESULT:    -5.215     15.219     18.089
REMARK INTER + INTRA:          -6.237
REMARK INTER:                  -6.185
REMARK INTRA:                  -0.052
REMARK UNBOUND:                -0.107
REMARK SMILES O=c1c(O)c(-c2ccc(O)cc2)oc2cc(O)cc(O)c12
REMARK SMILES IDX 5 1 3 2 2 3 1 4 21 5 19 6 18 7 16 8 15 9 14 10 13 11 6 12
REMARK SMILES IDX 7 13 8 14 9 15 12 16 11 17 10 18 4 20 20 22 17 24
REMARK H PARENT 10 19 4 21 20 23 17 25
REMARK Flexibility Score: inf
ROOT
ATOM      1  C   UNL     1      37.583 -77.557  34.958  1.00  0.00     0.180 A 
ATOM      2  C   UNL     1      38.831 -77.343  35.568  1.00  0.00     0.208 A 
ATOM      3  C   UNL     1      39.979 -77.265  34.763  1.00  0.00     0.238 A 
ATOM      4  O   UNL     1      41.085 -77.019  35.310  1.00  0.00    -0.285 OA
ATOM      5  C   UNL     1      39.866 -77.417  33.360  1.00  0.00     0.111 A 
ATOM      6  C   UNL     1      40.967 -77.396  32.452  1.00  0.00     0.134 A 
ATOM      7  C   UNL     1      40.725 -77.425  31.073  1.00  0.00     0.093 A 
ATOM      8  C   UNL     1      39.427 -77.541  30.572  1.00  0.00     0.123 A 
ATOM      9  C   UNL     1      38.350 -77.623  31.452  1.00  0.00     0.094 A 
ATOM     10  C   UNL     1      38.557 -77.559  32.832  1.00  0.00     0.146 A 
ATOM     11  O   UNL     1      37.502 -77.630  33.636  1.00  0.00    -0.452 OA
ENDROOT
BRANCH   1  12
ATOM     12  C   UNL     1      36.333 -77.676  35.743  1.00  0.00     0.021 A 
ATOM     13  C   UNL     1      35.228 -76.876  35.408  1.00  0.00     0.016 A 
ATOM     14  C   UNL     1      34.029 -76.988  36.121  1.00  0.00     0.047 A 
ATOM     15  C   UNL     1      33.918 -77.913  37.168  1.00  0.00     0.115 A 
ATOM     16  C   UNL     1      36.206 -78.616  36.783  1.00  0.00     0.016 A 
ATOM     17  C   UNL     1      35.007 -78.726  37.493  1.00  0.00     0.047 A 
BRANCH  15  18
ATOM     18  O   UNL     1      32.730 -78.033  37.885  1.00  0.00    -0.508 OA
ATOM     19  H   UNL     1      31.995 -78.665  37.590  1.00  0.00     0.293 HD
ENDBRANCH  15  18
ENDBRANCH   1  12
BRANCH   2  20
ATOM     20  O   UNL     1      38.917 -77.174  36.954  1.00  0.00    -0.502 OA
ATOM     21  H   UNL     1      38.421 -76.438  37.444  1.00  0.00     0.293 HD
ENDBRANCH   2  20
BRANCH   6  22
ATOM     22  O   UNL     1      42.307 -77.374  32.850  1.00  0.00    -0.507 OA
ATOM     23  H   UNL     1      42.924 -78.172  32.837  1.00  0.00     0.293 HD
ENDBRANCH   6  22
BRANCH   8  24
ATOM     24  O   UNL     1      39.196 -77.586  29.199  1.00  0.00    -0.508 OA
ATOM     25  H   UNL     1      38.680 -76.855  28.723  1.00  0.00     0.293 HD
ENDBRANCH   8  24
TORSDOF 5
ENDMDL
MODEL 7
REMARK VINA RESULT:    -4.976     10.789     11.968
REMARK INTER + INTRA:          -5.955
REMARK INTER:                  -5.665
REMARK INTRA:                  -0.290
REMARK UNBOUND:                -0.107
REMARK SMILES O=c1c(O)c(-c2ccc(O)cc2)oc2cc(O)cc(O)c12
REMARK SMILES IDX 5 1 3 2 2 3 1 4 21 5 19 6 18 7 16 8 15 9 14 10 13 11 6 12
REMARK SMILES IDX 7 13 8 14 9 15 12 16 11 17 10 18 4 20 20 22 17 24
REMARK H PARENT 10 19 4 21 20 23 17 25
REMARK Flexibility Score: inf
ROOT
ATOM      1  C   UNL     1      36.303 -95.717  29.129  1.00  0.00     0.180 A 
ATOM      2  C   UNL     1      36.630 -95.694  30.496  1.00  0.00     0.208 A 
ATOM      3  C   UNL     1      37.981 -95.759  30.875  1.00  0.00     0.238 A 
ATOM      4  O   UNL     1      38.270 -95.684  32.097  1.00  0.00    -0.285 OA
ATOM      5  C   UNL     1      38.986 -95.862  29.883  1.00  0.00     0.111 A 
ATOM      6  C   UNL     1      40.383 -95.974  30.154  1.00  0.00     0.134 A 
ATOM      7  C   UNL     1      41.297 -95.937  29.094  1.00  0.00     0.093 A 
ATOM      8  C   UNL     1      40.861 -95.858  27.770  1.00  0.00     0.123 A 
ATOM      9  C   UNL     1      39.497 -95.808  27.492  1.00  0.00     0.094 A 
ATOM     10  C   UNL     1      38.562 -95.806  28.530  1.00  0.00     0.146 A 
ATOM     11  O   UNL     1      37.272 -95.747  28.222  1.00  0.00    -0.452 OA
ENDROOT
BRANCH   1  12
ATOM     12  C   UNL     1      34.902 -95.678  28.654  1.00  0.00     0.021 A 
ATOM     13  C   UNL     1      34.286 -94.438  28.417  1.00  0.00     0.016 A 
ATOM     14  C   UNL     1      32.970 -94.378  27.946  1.00  0.00     0.047 A 
ATOM     15  C   UNL     1      32.259 -95.557  27.693  1.00  0.00     0.115 A 
ATOM     16  C   UNL     1      34.187 -96.859  28.379  1.00  0.00     0.016 A 
ATOM     17  C   UNL     1      32.872 -96.795  27.908  1.00  0.00     0.047 A 
BRANCH  15  18
ATOM     18  O   UNL     1      30.949 -95.511  27.225  1.00  0.00    -0.508 OA
ATOM     19  H   UNL     1      30.640 -96.094  26.456  1.00  0.00     0.293 HD
ENDBRANCH  15  18
ENDBRANCH   1  12
BRANCH   2  20
ATOM     20  O   UNL     1      35.623 -95.571  31.458  1.00  0.00    -0.502 OA
ATOM     21  H   UNL     1      35.451 -94.706  31.958  1.00  0.00     0.293 HD
ENDBRANCH   2  20
BRANCH   6  22
ATOM     22  O   UNL     1      40.918 -96.150  31.434  1.00  0.00    -0.507 OA
ATOM     23  H   UNL     1      41.772 -95.726  31.763  1.00  0.00     0.293 HD
ENDBRANCH   6  22
BRANCH   8  24
ATOM     24  O   UNL     1      41.776 -95.838  26.720  1.00  0.00    -0.508 OA
ATOM     25  H   UNL     1      41.675 -95.201  25.939  1.00  0.00     0.293 HD
ENDBRANCH   8  24
TORSDOF 5
ENDMDL
MODEL 8
REMARK VINA RESULT:    -4.969     15.585     17.094
REMARK INTER + INTRA:          -5.947
REMARK INTER:                  -5.891
REMARK INTRA:                  -0.057
REMARK UNBOUND:                -0.107
REMARK SMILES O=c1c(O)c(-c2ccc(O)cc2)oc2cc(O)cc(O)c12
REMARK SMILES IDX 5 1 3 2 2 3 1 4 21 5 19 6 18 7 16 8 15 9 14 10 13 11 6 12
REMARK SMILES IDX 7 13 8 14 9 15 12 16 11 17 10 18 4 20 20 22 17 24
REMARK H PARENT 10 19 4 21 20 23 17 25
REMARK Flexibility Score: inf
ROOT
ATOM      1  C   UNL     1      37.732 -78.302  37.901  1.00  0.00     0.180 A 
ATOM      2  C   UNL     1      38.091 -79.054  39.033  1.00  0.00     0.208 A 
ATOM      3  C   UNL     1      39.441 -79.386  39.232  1.00  0.00     0.238 A 
ATOM      4  O   UNL     1      39.761 -80.012  40.275  1.00  0.00    -0.285 OA
ATOM      5  C   UNL     1      40.412 -78.976  38.288  1.00  0.00     0.111 A 
ATOM      6  C   UNL     1      41.802 -79.290  38.367  1.00  0.00     0.134 A 
ATOM      7  C   UNL     1      42.693 -78.721  37.448  1.00  0.00     0.093 A 
ATOM      8  C   UNL     1      42.234 -77.903  36.413  1.00  0.00     0.123 A 
ATOM      9  C   UNL     1      40.872 -77.639  36.292  1.00  0.00     0.094 A 
ATOM     10  C   UNL     1      39.963 -78.162  37.216  1.00  0.00     0.146 A 
ATOM     11  O   UNL     1      38.675 -77.877  37.070  1.00  0.00    -0.452 OA
ENDROOT
BRANCH   1  12
ATOM     12  C   UNL     1      36.327 -77.936  37.611  1.00  0.00     0.021 A 
ATOM     13  C   UNL     1      35.725 -78.392  36.427  1.00  0.00     0.016 A 
ATOM     14  C   UNL     1      34.392 -78.077  36.143  1.00  0.00     0.047 A 
ATOM     15  C   UNL     1      33.641 -77.315  37.047  1.00  0.00     0.115 A 
ATOM     16  C   UNL     1      35.560 -77.188  38.523  1.00  0.00     0.016 A 
ATOM     17  C   UNL     1      34.228 -76.875  38.237  1.00  0.00     0.047 A 
BRANCH  15  18
ATOM     18  O   UNL     1      32.313 -76.995  36.775  1.00  0.00    -0.508 OA
ATOM     19  H   UNL     1      31.651 -77.697  36.467  1.00  0.00     0.293 HD
ENDBRANCH  15  18
ENDBRANCH   1  12
BRANCH   2  20
ATOM     20  O   UNL     1      37.118 -79.430  39.964  1.00  0.00    -0.502 OA
ATOM     21  H   UNL     1      37.008 -80.387  40.281  1.00  0.00     0.293 HD
ENDBRANCH   2  20
BRANCH   6  22
ATOM     22  O   UNL     1      42.351 -80.170  39.306  1.00  0.00    -0.507 OA
ATOM     23  H   UNL     1      42.658 -81.109  39.103  1.00  0.00     0.293 HD
ENDBRANCH   6  22
BRANCH   8  24
ATOM     24  O   UNL     1      43.125 -77.355  35.494  1.00  0.00    -0.508 OA
ATOM     25  H   UNL     1      43.765 -77.934  34.963  1.00  0.00     0.293 HD
ENDBRANCH   8  24
TORSDOF 5
ENDMDL
MODEL 9
REMARK VINA RESULT:    -4.957     15.610     17.055
REMARK INTER + INTRA:          -5.933
REMARK INTER:                  -5.648
REMARK INTRA:                  -0.286
REMARK UNBOUND:                -0.107
REMARK SMILES O=c1c(O)c(-c2ccc(O)cc2)oc2cc(O)cc(O)c12
REMARK SMILES IDX 5 1 3 2 2 3 1 4 21 5 19 6 18 7 16 8 15 9 14 10 13 11 6 12
REMARK SMILES IDX 7 13 8 14 9 15 12 16 11 17 10 18 4 20 20 22 17 24
REMARK H PARENT 10 19 4 21 20 23 17 25
REMARK Flexibility Score: inf
ROOT
ATOM      1  C   UNL     1      36.921 -77.916  37.310  1.00  0.00     0.180 A 
ATOM      2  C   UNL     1      35.529 -78.106  37.361  1.00  0.00     0.208 A 
ATOM      3  C   UNL     1      34.781 -77.982  36.179  1.00  0.00     0.238 A 
ATOM      4  O   UNL     1      33.543 -78.207  36.222  1.00  0.00    -0.285 OA
ATOM      5  C   UNL     1      35.431 -77.654  34.966  1.00  0.00     0.111 A 
ATOM      6  C   UNL     1      34.766 -77.463  33.716  1.00  0.00     0.134 A 
ATOM      7  C   UNL     1      35.524 -77.270  32.554  1.00  0.00     0.093 A 
ATOM      8  C   UNL     1      36.917 -77.195  32.607  1.00  0.00     0.123 A 
ATOM      9  C   UNL     1      37.571 -77.321  33.830  1.00  0.00     0.094 A 
ATOM     10  C   UNL     1      36.846 -77.551  35.001  1.00  0.00     0.146 A 
ATOM     11  O   UNL     1      37.509 -77.674  36.145  1.00  0.00    -0.452 OA
ENDROOT
BRANCH   1  12
ATOM     12  C   UNL     1      37.773 -78.005  38.517  1.00  0.00     0.021 A 
ATOM     13  C   UNL     1      37.926 -76.876  39.340  1.00  0.00     0.016 A 
ATOM     14  C   UNL     1      38.708 -76.943  40.498  1.00  0.00     0.047 A 
ATOM     15  C   UNL     1      39.334 -78.145  40.855  1.00  0.00     0.115 A 
ATOM     16  C   UNL     1      38.389 -79.213  38.894  1.00  0.00     0.016 A 
ATOM     17  C   UNL     1      39.170 -79.277  40.052  1.00  0.00     0.047 A 
BRANCH  15  18
ATOM     18  O   UNL     1      40.115 -78.224  42.005  1.00  0.00    -0.508 OA
ATOM     19  H   UNL     1      40.249 -77.423  42.611  1.00  0.00     0.293 HD
ENDBRANCH  15  18
ENDBRANCH   1  12
BRANCH   2  20
ATOM     20  O   UNL     1      34.911 -78.451  38.566  1.00  0.00    -0.502 OA
ATOM     21  H   UNL     1      34.014 -78.069  38.847  1.00  0.00     0.293 HD
ENDBRANCH   2  20
BRANCH   6  22
ATOM     22  O   UNL     1      33.376 -77.428  33.569  1.00  0.00    -0.507 OA
ATOM     23  H   UNL     1      32.890 -77.473  32.687  1.00  0.00     0.293 HD
ENDBRANCH   6  22
BRANCH   8  24
ATOM     24  O   UNL     1      37.661 -76.987  31.448  1.00  0.00    -0.508 OA
ATOM     25  H   UNL     1      37.666 -77.662  30.691  1.00  0.00     0.293 HD
ENDBRANCH   8  24
TORSDOF 5
ENDMDL
