MODEL 1
REMARK VINA RESULT:    -5.320      0.000      0.000
REMARK INTER + INTRA:          -6.735
REMARK INTER:                  -6.409
REMARK INTRA:                  -0.327
REMARK UNBOUND:                -0.327
REMARK SMILES O=c1c(O)c(-c2ccc(O)c(O)c2)oc2cc(O)cc(O)c12
REMARK SMILES IDX 5 1 3 2 2 3 1 4 22 5 20 6 19 7 17 8 16 9 15 10 14 11 6 12
REMARK SMILES IDX 7 13 8 14 9 15 13 16 11 17 10 18 12 20 4 22 21 24 18 26
REMARK H PARENT 10 19 12 21 4 23 21 25 18 27
REMARK Flexibility Score: inf
ROOT
ATOM      1  C   UNL     1     -10.577  -3.564 -38.027  1.00  0.00     0.180 A 
ATOM      2  C   UNL     1     -10.068  -2.276 -38.266  1.00  0.00     0.208 A 
ATOM      3  C   UNL     1     -10.781  -1.407 -39.106  1.00  0.00     0.238 A 
ATOM      4  O   UNL     1     -10.348  -0.237 -39.274  1.00  0.00    -0.285 OA
ATOM      5  C   UNL     1     -11.986  -1.841 -39.709  1.00  0.00     0.111 A 
ATOM      6  C   UNL     1     -12.771  -1.058 -40.609  1.00  0.00     0.134 A 
ATOM      7  C   UNL     1     -14.011  -1.539 -41.043  1.00  0.00     0.093 A 
ATOM      8  C   UNL     1     -14.466  -2.801 -40.662  1.00  0.00     0.123 A 
ATOM      9  C   UNL     1     -13.681  -3.600 -39.830  1.00  0.00     0.094 A 
ATOM     10  C   UNL     1     -12.456  -3.132 -39.352  1.00  0.00     0.146 A 
ATOM     11  O   UNL     1     -11.743  -3.919 -38.554  1.00  0.00    -0.452 OA
ENDROOT
BRANCH   1  12
ATOM     12  C   UNL     1      -9.870  -4.546 -37.174  1.00  0.00     0.025 A 
ATOM     13  C   UNL     1      -8.843  -5.357 -37.688  1.00  0.00     0.016 A 
ATOM     14  C   UNL     1      -8.205  -6.293 -36.870  1.00  0.00     0.051 A 
ATOM     15  C   UNL     1      -8.592  -6.443 -35.532  1.00  0.00     0.157 A 
ATOM     16  C   UNL     1     -10.267  -4.716 -35.837  1.00  0.00     0.062 A 
ATOM     17  C   UNL     1      -9.630  -5.651 -35.015  1.00  0.00     0.158 A 
BRANCH  15  18
ATOM     18  O   UNL     1      -7.952  -7.376 -34.718  1.00  0.00    -0.504 OA
ATOM     19  H   UNL     1      -7.027  -7.729 -34.940  1.00  0.00     0.293 HD
ENDBRANCH  15  18
BRANCH  17  20
ATOM     20  O   UNL     1     -10.044  -5.781 -33.689  1.00  0.00    -0.504 OA
ATOM     21  H   UNL     1     -10.453  -6.638 -33.335  1.00  0.00     0.293 HD
ENDBRANCH  17  20
ENDBRANCH   1  12
BRANCH   2  22
ATOM     22  O   UNL     1      -8.887  -1.861 -37.644  1.00  0.00    -0.502 OA
ATOM     23  H   UNL     1      -8.633  -0.884 -37.556  1.00  0.00     0.293 HD
ENDBRANCH   2  22
BRANCH   6  24
ATOM     24  O   UNL     1     -12.365   0.178 -41.125  1.00  0.00    -0.507 OA
ATOM     25  H   UNL     1     -11.986   0.934 -40.576  1.00  0.00     0.293 HD
ENDBRANCH   6  24
BRANCH   8  26
ATOM     26  O   UNL     1     -15.700  -3.255 -41.125  1.00  0.00    -0.508 OA
ATOM     27  H   UNL     1     -16.185  -2.791 -41.884  1.00  0.00     0.293 HD
ENDBRANCH   8  26
TORSDOF 6
ENDMDL
MODEL 2
REMARK VINA RESULT:    -5.307     14.438     16.304
REMARK INTER + INTRA:          -6.720
REMARK INTER:                  -6.394
REMARK INTRA:                  -0.326
REMARK UNBOUND:                -0.327
REMARK SMILES O=c1c(O)c(-c2ccc(O)c(O)c2)oc2cc(O)cc(O)c12
REMARK SMILES IDX 5 1 3 2 2 3 1 4 22 5 20 6 19 7 17 8 16 9 15 10 14 11 6 12
REMARK SMILES IDX 7 13 8 14 9 15 13 16 11 17 10 18 12 20 4 22 21 24 18 26
REMARK H PARENT 10 19 12 21 4 23 21 25 18 27
REMARK Flexibility Score: inf
ROOT
ATOM      1  C   UNL     1      -7.081   5.489 -26.464  1.00  0.00     0.180 A 
ATOM      2  C   UNL     1      -6.806   4.726 -27.612  1.00  0.00     0.208 A 
ATOM      3  C   UNL     1      -5.868   5.206 -28.540  1.00  0.00     0.238 A 
ATOM      4  O   UNL     1      -5.586   4.493 -29.538  1.00  0.00    -0.285 OA
ATOM      5  C   UNL     1      -5.229   6.449 -28.316  1.00  0.00     0.111 A 
ATOM      6  C   UNL     1      -4.292   7.051 -29.209  1.00  0.00     0.134 A 
ATOM      7  C   UNL     1      -3.625   8.220 -28.825  1.00  0.00     0.093 A 
ATOM      8  C   UNL     1      -3.907   8.844 -27.611  1.00  0.00     0.123 A 
ATOM      9  C   UNL     1      -4.865   8.297 -26.756  1.00  0.00     0.094 A 
ATOM     10  C   UNL     1      -5.521   7.113 -27.096  1.00  0.00     0.146 A 
ATOM     11  O   UNL     1      -6.418   6.619 -26.250  1.00  0.00    -0.452 OA
ENDROOT
BRANCH   1  12
ATOM     12  C   UNL     1      -8.076   5.061 -25.453  1.00  0.00     0.025 A 
ATOM     13  C   UNL     1      -9.415   5.487 -25.519  1.00  0.00     0.016 A 
ATOM     14  C   UNL     1     -10.330   5.090 -24.541  1.00  0.00     0.051 A 
ATOM     15  C   UNL     1      -9.921   4.275 -23.478  1.00  0.00     0.157 A 
ATOM     16  C   UNL     1      -7.667   4.262 -24.374  1.00  0.00     0.062 A 
ATOM     17  C   UNL     1      -8.581   3.861 -23.394  1.00  0.00     0.158 A 
BRANCH  15  18
ATOM     18  O   UNL     1     -10.838   3.879 -22.505  1.00  0.00    -0.504 OA
ATOM     19  H   UNL     1     -11.792   3.633 -22.744  1.00  0.00     0.293 HD
ENDBRANCH  15  18
BRANCH  17  20
ATOM     20  O   UNL     1      -8.140   3.055 -22.344  1.00  0.00    -0.504 OA
ATOM     21  H   UNL     1      -7.640   3.434 -21.549  1.00  0.00     0.293 HD
ENDBRANCH  17  20
ENDBRANCH   1  12
BRANCH   2  22
ATOM     22  O   UNL     1      -7.432   3.491 -27.802  1.00  0.00    -0.502 OA
ATOM     23  H   UNL     1      -6.958   2.610 -27.644  1.00  0.00     0.293 HD
ENDBRANCH   2  22
BRANCH   6  24
ATOM     24  O   UNL     1      -4.004   6.559 -30.487  1.00  0.00    -0.507 OA
ATOM     25  H   UNL     1      -3.733   5.609 -30.689  1.00  0.00     0.293 HD
ENDBRANCH   6  24
BRANCH   8  26
ATOM     26  O   UNL     1      -3.234  10.016 -27.267  1.00  0.00    -0.508 OA
ATOM     27  H   UNL     1      -2.363  10.277 -27.712  1.00  0.00     0.293 HD
ENDBRANCH   8  26
TORSDOF 6
ENDMDL
MODEL 3
REMARK VINA RESULT:    -5.245     11.202     13.367
REMARK INTER + INTRA:          -6.645
REMARK INTER:                  -6.348
REMARK INTRA:                  -0.297
REMARK UNBOUND:                -0.327
REMARK SMILES O=c1c(O)c(-c2ccc(O)c(O)c2)oc2cc(O)cc(O)c12
REMARK SMILES IDX 5 1 3 2 2 3 1 4 22 5 20 6 19 7 17 8 16 9 15 10 14 11 6 12
REMARK SMILES IDX 7 13 8 14 9 15 13 16 11 17 10 18 12 20 4 22 21 24 18 26
REMARK H PARENT 10 19 12 21 4 23 21 25 18 27
REMARK Flexibility Score: inf
ROOT
ATOM      1  C   UNL     1     -17.910   5.718 -34.906  1.00  0.00     0.180 A 
ATOM      2  C   UNL     1     -18.149   4.917 -33.777  1.00  0.00     0.208 A 
ATOM      3  C   UNL     1     -19.090   5.342 -32.826  1.00  0.00     0.238 A 
ATOM      4  O   UNL     1     -19.339   4.595 -31.845  1.00  0.00    -0.285 OA
ATOM      5  C   UNL     1     -19.769   6.571 -33.009  1.00  0.00     0.111 A 
ATOM      6  C   UNL     1     -20.715   7.119 -32.090  1.00  0.00     0.134 A 
ATOM      7  C   UNL     1     -21.422   8.276 -32.435  1.00  0.00     0.093 A 
ATOM      8  C   UNL     1     -21.173   8.942 -33.635  1.00  0.00     0.123 A 
ATOM      9  C   UNL     1     -20.208   8.448 -34.514  1.00  0.00     0.094 A 
ATOM     10  C   UNL     1     -19.513   7.275 -34.214  1.00  0.00     0.146 A 
ATOM     11  O   UNL     1     -18.610   6.833 -35.082  1.00  0.00    -0.452 OA
ENDROOT
BRANCH   1  12
ATOM     12  C   UNL     1     -16.914   5.350 -35.938  1.00  0.00     0.025 A 
ATOM     13  C   UNL     1     -15.639   5.942 -35.969  1.00  0.00     0.016 A 
ATOM     14  C   UNL     1     -14.723   5.595 -36.967  1.00  0.00     0.051 A 
ATOM     15  C   UNL     1     -15.072   4.665 -37.954  1.00  0.00     0.157 A 
ATOM     16  C   UNL     1     -17.265   4.433 -36.943  1.00  0.00     0.062 A 
ATOM     17  C   UNL     1     -16.351   4.083 -37.942  1.00  0.00     0.158 A 
BRANCH  15  18
ATOM     18  O   UNL     1     -14.155   4.320 -38.946  1.00  0.00    -0.504 OA
ATOM     19  H   UNL     1     -13.725   3.403 -38.976  1.00  0.00     0.293 HD
ENDBRANCH  15  18
BRANCH  17  20
ATOM     20  O   UNL     1     -16.731   3.159 -38.915  1.00  0.00    -0.504 OA
ATOM     21  H   UNL     1     -17.555   2.579 -38.813  1.00  0.00     0.293 HD
ENDBRANCH  17  20
ENDBRANCH   1  12
BRANCH   2  22
ATOM     22  O   UNL     1     -17.482   3.697 -33.627  1.00  0.00    -0.502 OA
ATOM     23  H   UNL     1     -16.601   3.498 -34.086  1.00  0.00     0.293 HD
ENDBRANCH   2  22
BRANCH   6  24
ATOM     24  O   UNL     1     -20.973   6.584 -30.824  1.00  0.00    -0.507 OA
ATOM     25  H   UNL     1     -21.493   5.737 -30.653  1.00  0.00     0.293 HD
ENDBRANCH   6  24
BRANCH   8  26
ATOM     26  O   UNL     1     -21.885  10.100 -33.940  1.00  0.00    -0.508 OA
ATOM     27  H   UNL     1     -21.693  10.979 -33.473  1.00  0.00     0.293 HD
ENDBRANCH   8  26
TORSDOF 6
ENDMDL
MODEL 4
REMARK VINA RESULT:    -5.240      1.313      1.774
REMARK INTER + INTRA:          -6.639
REMARK INTER:                  -6.361
REMARK INTRA:                  -0.279
REMARK UNBOUND:                -0.327
REMARK SMILES O=c1c(O)c(-c2ccc(O)c(O)c2)oc2cc(O)cc(O)c12
REMARK SMILES IDX 5 1 3 2 2 3 1 4 22 5 20 6 19 7 17 8 16 9 15 10 14 11 6 12
REMARK SMILES IDX 7 13 8 14 9 15 13 16 11 17 10 18 12 20 4 22 21 24 18 26
REMARK H PARENT 10 19 12 21 4 23 21 25 18 27
REMARK Flexibility Score: inf
ROOT
ATOM      1  C   UNL     1      -9.987  -4.160 -36.590  1.00  0.00     0.180 A 
ATOM      2  C   UNL     1      -9.548  -2.825 -36.569  1.00  0.00     0.208 A 
ATOM      3  C   UNL     1     -10.050  -1.927 -37.524  1.00  0.00     0.238 A 
ATOM      4  O   UNL     1      -9.695  -0.721 -37.466  1.00  0.00    -0.285 OA
ATOM      5  C   UNL     1     -10.973  -2.379 -38.498  1.00  0.00     0.111 A 
ATOM      6  C   UNL     1     -11.518  -1.565 -39.537  1.00  0.00     0.134 A 
ATOM      7  C   UNL     1     -12.521  -2.082 -40.365  1.00  0.00     0.093 A 
ATOM      8  C   UNL     1     -12.954  -3.402 -40.234  1.00  0.00     0.123 A 
ATOM      9  C   UNL     1     -12.387  -4.224 -39.260  1.00  0.00     0.094 A 
ATOM     10  C   UNL     1     -11.410  -3.725 -38.396  1.00  0.00     0.146 A 
ATOM     11  O   UNL     1     -10.903  -4.537 -37.475  1.00  0.00    -0.452 OA
ENDROOT
BRANCH   1  12
ATOM     12  C   UNL     1      -9.483  -5.171 -35.633  1.00  0.00     0.025 A 
ATOM     13  C   UNL     1      -8.536  -6.136 -36.018  1.00  0.00     0.016 A 
ATOM     14  C   UNL     1      -8.093  -7.095 -35.104  1.00  0.00     0.051 A 
ATOM     15  C   UNL     1      -8.598  -7.114 -33.797  1.00  0.00     0.157 A 
ATOM     16  C   UNL     1     -10.002  -5.208 -34.328  1.00  0.00     0.062 A 
ATOM     17  C   UNL     1      -9.559  -6.165 -33.410  1.00  0.00     0.158 A 
BRANCH  15  18
ATOM     18  O   UNL     1      -8.152  -8.070 -32.887  1.00  0.00    -0.504 OA
ATOM     19  H   UNL     1      -8.583  -8.985 -32.824  1.00  0.00     0.293 HD
ENDBRANCH  15  18
BRANCH  17  20
ATOM     20  O   UNL     1     -10.088  -6.161 -32.118  1.00  0.00    -0.504 OA
ATOM     21  H   UNL     1     -10.362  -7.015 -31.647  1.00  0.00     0.293 HD
ENDBRANCH  17  20
ENDBRANCH   1  12
BRANCH   2  22
ATOM     22  O   UNL     1      -8.652  -2.396 -35.585  1.00  0.00    -0.502 OA
ATOM     23  H   UNL     1      -8.959  -2.048 -34.685  1.00  0.00     0.293 HD
ENDBRANCH   2  22
BRANCH   6  24
ATOM     24  O   UNL     1     -11.089  -0.263 -39.814  1.00  0.00    -0.507 OA
ATOM     25  H   UNL     1     -11.653   0.446 -40.257  1.00  0.00     0.293 HD
ENDBRANCH   6  24
BRANCH   8  26
ATOM     26  O   UNL     1     -13.945  -3.888 -41.085  1.00  0.00    -0.508 OA
ATOM     27  H   UNL     1     -13.902  -4.825 -41.468  1.00  0.00     0.293 HD
ENDBRANCH   8  26
TORSDOF 6
ENDMDL
MODEL 5
REMARK VINA RESULT:    -5.212      9.586     11.559
REMARK INTER + INTRA:          -6.605
REMARK INTER:                  -6.399
REMARK INTRA:                  -0.206
REMARK UNBOUND:                -0.327
REMARK SMILES O=c1c(O)c(-c2ccc(O)c(O)c2)oc2cc(O)cc(O)c12
REMARK SMILES IDX 5 1 3 2 2 3 1 4 22 5 20 6 19 7 17 8 16 9 15 10 14 11 6 12
REMARK SMILES IDX 7 13 8 14 9 15 13 16 11 17 10 18 12 20 4 22 21 24 18 26
REMARK H PARENT 10 19 12 21 4 23 21 25 18 27
REMARK Flexibility Score: inf
ROOT
ATOM      1  C   UNL     1     -13.981   6.182 -37.523  1.00  0.00     0.180 A 
ATOM      2  C   UNL     1     -12.901   5.906 -36.668  1.00  0.00     0.208 A 
ATOM      3  C   UNL     1     -11.688   6.586 -36.861  1.00  0.00     0.238 A 
ATOM      4  O   UNL     1     -10.742   6.375 -36.058  1.00  0.00    -0.285 OA
ATOM      5  C   UNL     1     -11.565   7.521 -37.917  1.00  0.00     0.111 A 
ATOM      6  C   UNL     1     -10.371   8.239 -38.230  1.00  0.00     0.134 A 
ATOM      7  C   UNL     1     -10.401   9.233 -39.214  1.00  0.00     0.093 A 
ATOM      8  C   UNL     1     -11.563   9.492 -39.941  1.00  0.00     0.123 A 
ATOM      9  C   UNL     1     -12.720   8.756 -39.684  1.00  0.00     0.094 A 
ATOM     10  C   UNL     1     -12.731   7.782 -38.684  1.00  0.00     0.146 A 
ATOM     11  O   UNL     1     -13.855   7.111 -38.464  1.00  0.00    -0.452 OA
ENDROOT
BRANCH   1  12
ATOM     12  C   UNL     1     -15.283   5.486 -37.399  1.00  0.00     0.025 A 
ATOM     13  C   UNL     1     -16.130   5.712 -36.300  1.00  0.00     0.016 A 
ATOM     14  C   UNL     1     -17.344   5.027 -36.192  1.00  0.00     0.051 A 
ATOM     15  C   UNL     1     -17.722   4.099 -37.171  1.00  0.00     0.157 A 
ATOM     16  C   UNL     1     -15.657   4.540 -38.366  1.00  0.00     0.062 A 
ATOM     17  C   UNL     1     -16.872   3.854 -38.262  1.00  0.00     0.158 A 
BRANCH  15  18
ATOM     18  O   UNL     1     -18.934   3.420 -37.062  1.00  0.00    -0.504 OA
ATOM     19  H   UNL     1     -19.788   3.789 -37.465  1.00  0.00     0.293 HD
ENDBRANCH  15  18
BRANCH  17  20
ATOM     20  O   UNL     1     -17.215   2.930 -39.250  1.00  0.00    -0.504 OA
ATOM     21  H   UNL     1     -16.525   2.524 -39.870  1.00  0.00     0.293 HD
ENDBRANCH  17  20
ENDBRANCH   1  12
BRANCH   2  22
ATOM     22  O   UNL     1     -13.050   4.995 -35.618  1.00  0.00    -0.502 OA
ATOM     23  H   UNL     1     -13.684   5.155 -34.844  1.00  0.00     0.293 HD
ENDBRANCH   2  22
BRANCH   6  24
ATOM     24  O   UNL     1      -9.133   7.993 -37.628  1.00  0.00    -0.507 OA
ATOM     25  H   UNL     1      -8.937   8.116 -36.646  1.00  0.00     0.293 HD
ENDBRANCH   6  24
BRANCH   8  26
ATOM     26  O   UNL     1     -11.553  10.480 -40.924  1.00  0.00    -0.508 OA
ATOM     27  H   UNL     1     -11.696  10.257 -41.901  1.00  0.00     0.293 HD
ENDBRANCH   8  26
TORSDOF 6
ENDMDL
MODEL 6
REMARK VINA RESULT:    -5.188      1.316      3.076
REMARK INTER + INTRA:          -6.576
REMARK INTER:                  -6.258
REMARK INTRA:                  -0.318
REMARK UNBOUND:                -0.327
REMARK SMILES O=c1c(O)c(-c2ccc(O)c(O)c2)oc2cc(O)cc(O)c12
REMARK SMILES IDX 5 1 3 2 2 3 1 4 22 5 20 6 19 7 17 8 16 9 15 10 14 11 6 12
REMARK SMILES IDX 7 13 8 14 9 15 13 16 11 17 10 18 12 20 4 22 21 24 18 26
REMARK H PARENT 10 19 12 21 4 23 21 25 18 27
REMARK Flexibility Score: inf
ROOT
ATOM      1  C   UNL     1     -10.569  -3.355 -37.833  1.00  0.00     0.180 A 
ATOM      2  C   UNL     1     -11.613  -3.737 -38.692  1.00  0.00     0.208 A 
ATOM      3  C   UNL     1     -12.171  -2.779 -39.553  1.00  0.00     0.238 A 
ATOM      4  O   UNL     1     -13.069  -3.139 -40.358  1.00  0.00    -0.285 OA
ATOM      5  C   UNL     1     -11.689  -1.448 -39.532  1.00  0.00     0.111 A 
ATOM      6  C   UNL     1     -12.207  -0.385 -40.334  1.00  0.00     0.134 A 
ATOM      7  C   UNL     1     -11.569   0.860 -40.327  1.00  0.00     0.093 A 
ATOM      8  C   UNL     1     -10.471   1.101 -39.501  1.00  0.00     0.123 A 
ATOM      9  C   UNL     1      -9.993   0.088 -38.669  1.00  0.00     0.094 A 
ATOM     10  C   UNL     1     -10.586  -1.175 -38.681  1.00  0.00     0.146 A 
ATOM     11  O   UNL     1     -10.095  -2.116 -37.883  1.00  0.00    -0.452 OA
ENDROOT
BRANCH   1  12
ATOM     12  C   UNL     1      -9.947  -4.302 -36.878  1.00  0.00     0.025 A 
ATOM     13  C   UNL     1      -8.799  -5.037 -37.220  1.00  0.00     0.016 A 
ATOM     14  C   UNL     1      -8.243  -5.942 -36.311  1.00  0.00     0.051 A 
ATOM     15  C   UNL     1      -8.833  -6.135 -35.055  1.00  0.00     0.157 A 
ATOM     16  C   UNL     1     -10.545  -4.515 -35.626  1.00  0.00     0.062 A 
ATOM     17  C   UNL     1      -9.991  -5.418 -34.713  1.00  0.00     0.158 A 
BRANCH  15  18
ATOM     18  O   UNL     1      -8.274  -7.036 -34.150  1.00  0.00    -0.504 OA
ATOM     19  H   UNL     1      -8.851  -7.658 -33.596  1.00  0.00     0.293 HD
ENDBRANCH  15  18
BRANCH  17  20
ATOM     20  O   UNL     1     -10.607  -5.593 -33.473  1.00  0.00    -0.504 OA
ATOM     21  H   UNL     1     -10.221  -6.203 -32.763  1.00  0.00     0.293 HD
ENDBRANCH  17  20
ENDBRANCH   1  12
BRANCH   2  22
ATOM     22  O   UNL     1     -12.059  -5.061 -38.711  1.00  0.00    -0.502 OA
ATOM     23  H   UNL     1     -12.563  -5.477 -37.937  1.00  0.00     0.293 HD
ENDBRANCH   2  22
BRANCH   6  24
ATOM     24  O   UNL     1     -13.355  -0.494 -41.125  1.00  0.00    -0.507 OA
ATOM     25  H   UNL     1     -14.285  -0.657 -40.770  1.00  0.00     0.293 HD
ENDBRANCH   6  24
BRANCH   8  26
ATOM     26  O   UNL     1      -9.869   2.358 -39.508  1.00  0.00    -0.508 OA
ATOM     27  H   UNL     1     -10.083   3.045 -40.222  1.00  0.00     0.293 HD
ENDBRANCH   8  26
TORSDOF 6
ENDMDL
MODEL 7
REMARK VINA RESULT:    -5.172     10.034     11.434
REMARK INTER + INTRA:          -6.557
REMARK INTER:                  -6.270
REMARK INTRA:                  -0.288
REMARK UNBOUND:                -0.327
REMARK SMILES O=c1c(O)c(-c2ccc(O)c(O)c2)oc2cc(O)cc(O)c12
REMARK SMILES IDX 5 1 3 2 2 3 1 4 22 5 20 6 19 7 17 8 16 9 15 10 14 11 6 12
REMARK SMILES IDX 7 13 8 14 9 15 13 16 11 17 10 18 12 20 4 22 21 24 18 26
REMARK H PARENT 10 19 12 21 4 23 21 25 18 27
REMARK Flexibility Score: inf
ROOT
ATOM      1  C   UNL     1     -14.742   5.748 -37.473  1.00  0.00     0.180 A 
ATOM      2  C   UNL     1     -14.808   5.883 -38.870  1.00  0.00     0.208 A 
ATOM      3  C   UNL     1     -13.664   6.301 -39.568  1.00  0.00     0.238 A 
ATOM      4  O   UNL     1     -13.713   6.369 -40.824  1.00  0.00    -0.285 OA
ATOM      5  C   UNL     1     -12.474   6.594 -38.859  1.00  0.00     0.111 A 
ATOM      6  C   UNL     1     -11.267   7.063 -39.460  1.00  0.00     0.134 A 
ATOM      7  C   UNL     1     -10.113   7.195 -38.680  1.00  0.00     0.093 A 
ATOM      8  C   UNL     1     -10.137   6.938 -37.310  1.00  0.00     0.123 A 
ATOM      9  C   UNL     1     -11.326   6.536 -36.700  1.00  0.00     0.094 A 
ATOM     10  C   UNL     1     -12.485   6.361 -37.459  1.00  0.00     0.146 A 
ATOM     11  O   UNL     1     -13.593   5.967 -36.843  1.00  0.00    -0.452 OA
ENDROOT
BRANCH   1  12
ATOM     12  C   UNL     1     -15.913   5.337 -36.664  1.00  0.00     0.025 A 
ATOM     13  C   UNL     1     -16.312   3.991 -36.585  1.00  0.00     0.016 A 
ATOM     14  C   UNL     1     -17.434   3.630 -35.835  1.00  0.00     0.051 A 
ATOM     15  C   UNL     1     -18.181   4.608 -35.164  1.00  0.00     0.157 A 
ATOM     16  C   UNL     1     -16.678   6.315 -36.007  1.00  0.00     0.062 A 
ATOM     17  C   UNL     1     -17.801   5.957 -35.254  1.00  0.00     0.158 A 
BRANCH  15  18
ATOM     18  O   UNL     1     -19.299   4.243 -34.415  1.00  0.00    -0.504 OA
ATOM     19  H   UNL     1     -20.164   3.955 -34.857  1.00  0.00     0.293 HD
ENDBRANCH  15  18
BRANCH  17  20
ATOM     20  O   UNL     1     -18.528   6.955 -34.605  1.00  0.00    -0.504 OA
ATOM     21  H   UNL     1     -18.178   7.901 -34.512  1.00  0.00     0.293 HD
ENDBRANCH  17  20
ENDBRANCH   1  12
BRANCH   2  22
ATOM     22  O   UNL     1     -15.987   5.569 -39.552  1.00  0.00    -0.502 OA
ATOM     23  H   UNL     1     -16.618   4.840 -39.241  1.00  0.00     0.293 HD
ENDBRANCH   2  22
BRANCH   6  24
ATOM     24  O   UNL     1     -11.158   7.437 -40.804  1.00  0.00    -0.507 OA
ATOM     25  H   UNL     1     -11.782   7.135 -41.537  1.00  0.00     0.293 HD
ENDBRANCH   6  24
BRANCH   8  26
ATOM     26  O   UNL     1      -8.972   7.095 -36.560  1.00  0.00    -0.508 OA
ATOM     27  H   UNL     1      -8.711   7.991 -36.167  1.00  0.00     0.293 HD
ENDBRANCH   8  26
TORSDOF 6
ENDMDL
MODEL 8
REMARK VINA RESULT:    -5.166      1.684      7.098
REMARK INTER + INTRA:          -6.550
REMARK INTER:                  -6.580
REMARK INTRA:                   0.030
REMARK UNBOUND:                -0.327
REMARK SMILES O=c1c(O)c(-c2ccc(O)c(O)c2)oc2cc(O)cc(O)c12
REMARK SMILES IDX 5 1 3 2 2 3 1 4 22 5 20 6 19 7 17 8 16 9 15 10 14 11 6 12
REMARK SMILES IDX 7 13 8 14 9 15 13 16 11 17 10 18 12 20 4 22 21 24 18 26
REMARK H PARENT 10 19 12 21 4 23 21 25 18 27
REMARK Flexibility Score: inf
ROOT
ATOM      1  C   UNL     1     -10.642  -4.069 -37.052  1.00  0.00     0.180 A 
ATOM      2  C   UNL     1     -10.621  -3.639 -35.715  1.00  0.00     0.208 A 
ATOM      3  C   UNL     1      -9.990  -4.441 -34.751  1.00  0.00     0.238 A 
ATOM      4  O   UNL     1      -9.927  -4.026 -33.565  1.00  0.00    -0.285 OA
ATOM      5  C   UNL     1      -9.402  -5.671 -35.134  1.00  0.00     0.111 A 
ATOM      6  C   UNL     1      -8.770  -6.583 -34.235  1.00  0.00     0.134 A 
ATOM      7  C   UNL     1      -8.108  -7.706 -34.742  1.00  0.00     0.093 A 
ATOM      8  C   UNL     1      -8.110  -7.987 -36.108  1.00  0.00     0.123 A 
ATOM      9  C   UNL     1      -8.775  -7.134 -36.991  1.00  0.00     0.094 A 
ATOM     10  C   UNL     1      -9.413  -5.986 -36.518  1.00  0.00     0.146 A 
ATOM     11  O   UNL     1     -10.025  -5.195 -37.391  1.00  0.00    -0.452 OA
ENDROOT
BRANCH   1  12
ATOM     12  C   UNL     1     -11.311  -3.291 -38.120  1.00  0.00     0.025 A 
ATOM     13  C   UNL     1     -11.079  -1.913 -38.276  1.00  0.00     0.016 A 
ATOM     14  C   UNL     1     -11.739  -1.195 -39.277  1.00  0.00     0.051 A 
ATOM     15  C   UNL     1     -12.649  -1.838 -40.126  1.00  0.00     0.157 A 
ATOM     16  C   UNL     1     -12.239  -3.926 -38.962  1.00  0.00     0.062 A 
ATOM     17  C   UNL     1     -12.900  -3.210 -39.965  1.00  0.00     0.158 A 
BRANCH  15  18
ATOM     18  O   UNL     1     -13.303  -1.118 -41.125  1.00  0.00    -0.504 OA
ATOM     19  H   UNL     1     -13.447  -0.118 -41.051  1.00  0.00     0.293 HD
ENDBRANCH  15  18
BRANCH  17  20
ATOM     20  O   UNL     1     -13.805  -3.879 -40.790  1.00  0.00    -0.504 OA
ATOM     21  H   UNL     1     -14.713  -4.182 -40.458  1.00  0.00     0.293 HD
ENDBRANCH  17  20
ENDBRANCH   1  12
BRANCH   2  22
ATOM     22  O   UNL     1     -11.189  -2.412 -35.362  1.00  0.00    -0.502 OA
ATOM     23  H   UNL     1     -10.657  -1.550 -35.346  1.00  0.00     0.293 HD
ENDBRANCH   2  22
BRANCH   6  24
ATOM     24  O   UNL     1      -8.790  -6.445 -32.843  1.00  0.00    -0.507 OA
ATOM     25  H   UNL     1      -8.937  -7.201 -32.193  1.00  0.00     0.293 HD
ENDBRANCH   6  24
BRANCH   8  26
ATOM     26  O   UNL     1      -7.453  -9.123 -36.578  1.00  0.00    -0.508 OA
ATOM     27  H   UNL     1      -6.645  -9.056 -37.185  1.00  0.00     0.293 HD
ENDBRANCH   8  26
TORSDOF 6
ENDMDL
MODEL 9
REMARK VINA RESULT:    -5.121      1.667      7.222
REMARK INTER + INTRA:          -6.495
REMARK INTER:                  -6.238
REMARK INTRA:                  -0.257
REMARK UNBOUND:                -0.327
REMARK SMILES O=c1c(O)c(-c2ccc(O)c(O)c2)oc2cc(O)cc(O)c12
REMARK SMILES IDX 5 1 3 2 2 3 1 4 22 5 20 6 19 7 17 8 16 9 15 10 14 11 6 12
REMARK SMILES IDX 7 13 8 14 9 15 13 16 11 17 10 18 12 20 4 22 21 24 18 26
REMARK H PARENT 10 19 12 21 4 23 21 25 18 27
REMARK Flexibility Score: inf
ROOT
ATOM      1  C   UNL     1     -10.329  -4.473 -37.150  1.00  0.00     0.180 A 
ATOM      2  C   UNL     1      -9.310  -5.358 -37.542  1.00  0.00     0.208 A 
ATOM      3  C   UNL     1      -8.677  -6.142 -36.565  1.00  0.00     0.238 A 
ATOM      4  O   UNL     1      -7.803  -6.972 -36.928  1.00  0.00    -0.285 OA
ATOM      5  C   UNL     1      -9.059  -6.020 -35.207  1.00  0.00     0.111 A 
ATOM      6  C   UNL     1      -8.459  -6.737 -34.128  1.00  0.00     0.134 A 
ATOM      7  C   UNL     1      -9.004  -6.635 -32.843  1.00  0.00     0.093 A 
ATOM      8  C   UNL     1     -10.086  -5.794 -32.585  1.00  0.00     0.123 A 
ATOM      9  C   UNL     1     -10.644  -5.044 -33.620  1.00  0.00     0.094 A 
ATOM     10  C   UNL     1     -10.145  -5.152 -34.920  1.00  0.00     0.146 A 
ATOM     11  O   UNL     1     -10.710  -4.429 -35.879  1.00  0.00    -0.452 OA
ENDROOT
BRANCH   1  12
ATOM     12  C   UNL     1     -11.025  -3.594 -38.119  1.00  0.00     0.025 A 
ATOM     13  C   UNL     1     -10.776  -2.211 -38.162  1.00  0.00     0.016 A 
ATOM     14  C   UNL     1     -11.462  -1.398 -39.068  1.00  0.00     0.051 A 
ATOM     15  C   UNL     1     -12.415  -1.951 -39.934  1.00  0.00     0.157 A 
ATOM     16  C   UNL     1     -11.996  -4.139 -38.974  1.00  0.00     0.062 A 
ATOM     17  C   UNL     1     -12.684  -3.329 -39.883  1.00  0.00     0.158 A 
BRANCH  15  18
ATOM     18  O   UNL     1     -13.096  -1.138 -40.838  1.00  0.00    -0.504 OA
ATOM     19  H   UNL     1     -12.640  -0.358 -41.298  1.00  0.00     0.293 HD
ENDBRANCH  15  18
BRANCH  17  20
ATOM     20  O   UNL     1     -13.632  -3.910 -40.726  1.00  0.00    -0.504 OA
ATOM     21  H   UNL     1     -13.376  -4.575 -41.446  1.00  0.00     0.293 HD
ENDBRANCH  17  20
ENDBRANCH   1  12
BRANCH   2  22
ATOM     22  O   UNL     1      -8.962  -5.478 -38.890  1.00  0.00    -0.502 OA
ATOM     23  H   UNL     1      -9.535  -5.099 -39.636  1.00  0.00     0.293 HD
ENDBRANCH   2  22
BRANCH   6  24
ATOM     24  O   UNL     1      -7.316  -7.533 -34.260  1.00  0.00    -0.507 OA
ATOM     25  H   UNL     1      -7.148  -8.386 -33.750  1.00  0.00     0.293 HD
ENDBRANCH   6  24
BRANCH   8  26
ATOM     26  O   UNL     1     -10.594  -5.706 -31.290  1.00  0.00    -0.508 OA
ATOM     27  H   UNL     1     -10.360  -4.932 -30.680  1.00  0.00     0.293 HD
ENDBRANCH   8  26
TORSDOF 6
ENDMDL
