MODEL 1
REMARK VINA RESULT:    -3.659      0.000      0.000
REMARK INTER + INTRA:          -8.413
REMARK INTER:                  -7.082
REMARK INTRA:                  -1.331
REMARK UNBOUND:                -1.331
REMARK SMILES CCCCCCCCCCCCCCCCCC(=O)[O-]
REMARK SMILES IDX 10 1 11 2 12 3 13 4 14 5 15 6 16 7 17 8 18 9 19 10 20 11
REMARK SMILES IDX 9 12 8 13 7 14 6 15 5 16 4 17 3 18 2 19 1 20
REMARK H PARENT
REMARK Flexibility Score: inf
ROOT
ATOM      1  C   UNL     1      12.837  -8.317   5.701  1.00  0.00     0.000 C 
ENDROOT
BRANCH   1   2
ATOM      2  C   UNL     1      11.498  -7.789   6.241  1.00  0.00     0.000 C 
BRANCH   2   3
ATOM      3  C   UNL     1      10.326  -8.041   5.277  1.00  0.00     0.000 C 
BRANCH   3   4
ATOM      4  C   UNL     1       9.395  -9.191   5.718  1.00  0.00     0.000 C 
BRANCH   4   5
ATOM      5  C   UNL     1       8.864  -8.990   7.149  1.00  0.00     0.000 C 
BRANCH   5   6
ATOM      6  C   UNL     1       7.358  -9.272   7.267  1.00  0.00     0.000 C 
BRANCH   6   7
ATOM      7  C   UNL     1       6.694  -9.521   5.901  1.00  0.00     0.006 C 
BRANCH   7   8
ATOM      8  C   UNL     1       5.667  -8.437   5.550  1.00  0.00     0.053 C 
BRANCH   8   9
ATOM      9  C   UNL     1       6.262  -7.062   5.604  1.00  0.00     0.041 C 
ATOM     10  O   UNL     1       7.074  -6.688   4.717  1.00  0.00    -0.550 OA
ATOM     11  O   UNL     1       5.884  -6.179   6.607  1.00  0.00    -0.550 OA
ENDBRANCH   8   9
ENDBRANCH   7   8
ENDBRANCH   6   7
ENDBRANCH   5   6
ENDBRANCH   4   5
ENDBRANCH   3   4
ENDBRANCH   2   3
ENDBRANCH   1   2
BRANCH   1  12
ATOM     12  C   UNL     1      13.918  -8.421   6.789  1.00  0.00     0.000 C 
BRANCH  12  13
ATOM     13  C   UNL     1      15.177  -7.607   6.457  1.00  0.00    -0.000 C 
BRANCH  13  14
ATOM     14  C   UNL     1      15.240  -7.282   4.959  1.00  0.00    -0.000 C 
BRANCH  14  15
ATOM     15  C   UNL     1      16.499  -6.468   4.622  1.00  0.00    -0.000 C 
BRANCH  15  16
ATOM     16  C   UNL     1      17.753  -7.359   4.505  1.00  0.00    -0.000 C 
BRANCH  16  17
ATOM     17  C   UNL     1      18.764  -7.153   5.647  1.00  0.00    -0.000 C 
BRANCH  17  18
ATOM     18  C   UNL     1      19.032  -8.439   6.447  1.00  0.00    -0.000 C 
BRANCH  18  19
ATOM     19  C   UNL     1      19.211  -8.169   7.949  1.00  0.00    -0.003 C 
ATOM     20  C   UNL     1      18.608  -6.835   8.387  1.00  0.00     0.004 C 
ENDBRANCH  18  19
ENDBRANCH  17  18
ENDBRANCH  16  17
ENDBRANCH  15  16
ENDBRANCH  14  15
ENDBRANCH  13  14
ENDBRANCH  12  13
ENDBRANCH   1  12
TORSDOF 16
ENDMDL
MODEL 2
REMARK VINA RESULT:    -3.480      4.253      9.821
REMARK INTER + INTRA:          -8.067
REMARK INTER:                  -6.796
REMARK INTRA:                  -1.271
REMARK UNBOUND:                -1.331
REMARK SMILES CCCCCCCCCCCCCCCCCC(=O)[O-]
REMARK SMILES IDX 10 1 11 2 12 3 13 4 14 5 15 6 16 7 17 8 18 9 19 10 20 11
REMARK SMILES IDX 9 12 8 13 7 14 6 15 5 16 4 17 3 18 2 19 1 20
REMARK H PARENT
REMARK Flexibility Score: inf
ROOT
ATOM      1  C   UNL     1      13.442  -9.063   4.923  1.00  0.00     0.000 C 
ENDROOT
BRANCH   1   2
ATOM      2  C   UNL     1      14.756  -9.076   5.719  1.00  0.00     0.000 C 
BRANCH   2   3
ATOM      3  C   UNL     1      14.814  -7.975   6.791  1.00  0.00     0.000 C 
BRANCH   3   4
ATOM      4  C   UNL     1      16.032  -7.037   6.653  1.00  0.00     0.000 C 
BRANCH   4   5
ATOM      5  C   UNL     1      16.382  -6.753   5.182  1.00  0.00     0.000 C 
BRANCH   5   6
ATOM      6  C   UNL     1      17.747  -7.331   4.775  1.00  0.00     0.000 C 
BRANCH   6   7
ATOM      7  C   UNL     1      18.830  -7.095   5.842  1.00  0.00     0.006 C 
BRANCH   7   8
ATOM      8  C   UNL     1      19.312  -8.406   6.478  1.00  0.00     0.053 C 
BRANCH   8   9
ATOM      9  C   UNL     1      19.388  -8.310   7.972  1.00  0.00     0.041 C 
ATOM     10  O   UNL     1      19.901  -9.244   8.641  1.00  0.00    -0.550 OA
ATOM     11  O   UNL     1      18.935  -7.167   8.620  1.00  0.00    -0.550 OA
ENDBRANCH   8   9
ENDBRANCH   7   8
ENDBRANCH   6   7
ENDBRANCH   5   6
ENDBRANCH   4   5
ENDBRANCH   3   4
ENDBRANCH   2   3
ENDBRANCH   1   2
BRANCH   1  12
ATOM     12  C   UNL     1      12.704  -7.718   5.015  1.00  0.00     0.000 C 
BRANCH  12  13
ATOM     13  C   UNL     1      11.268  -7.863   5.540  1.00  0.00    -0.000 C 
BRANCH  13  14
ATOM     14  C   UNL     1      10.312  -6.926   4.792  1.00  0.00    -0.000 C 
BRANCH  14  15
ATOM     15  C   UNL     1       9.196  -7.718   4.092  1.00  0.00    -0.000 C 
BRANCH  15  16
ATOM     16  C   UNL     1       7.798  -7.351   4.631  1.00  0.00    -0.000 C 
BRANCH  16  17
ATOM     17  C   UNL     1       6.773  -8.493   4.513  1.00  0.00    -0.000 C 
BRANCH  17  18
ATOM     18  C   UNL     1       6.365  -9.074   5.877  1.00  0.00    -0.000 C 
BRANCH  18  19
ATOM     19  C   UNL     1       7.089  -8.389   7.046  1.00  0.00    -0.003 C 
ATOM     20  C   UNL     1       7.862  -9.374   7.924  1.00  0.00     0.004 C 
ENDBRANCH  18  19
ENDBRANCH  17  18
ENDBRANCH  16  17
ENDBRANCH  15  16
ENDBRANCH  14  15
ENDBRANCH  13  14
ENDBRANCH  12  13
ENDBRANCH   1  12
TORSDOF 16
ENDMDL
MODEL 3
REMARK VINA RESULT:    -3.439      3.864      9.971
REMARK INTER + INTRA:          -7.987
REMARK INTER:                  -6.669
REMARK INTRA:                  -1.319
REMARK UNBOUND:                -1.331
REMARK SMILES CCCCCCCCCCCCCCCCCC(=O)[O-]
REMARK SMILES IDX 10 1 11 2 12 3 13 4 14 5 15 6 16 7 17 8 18 9 19 10 20 11
REMARK SMILES IDX 9 12 8 13 7 14 6 15 5 16 4 17 3 18 2 19 1 20
REMARK H PARENT
REMARK Flexibility Score: inf
ROOT
ATOM      1  C   UNL     1      12.732  -8.230   6.708  1.00  0.00     0.000 C 
ENDROOT
BRANCH   1   2
ATOM      2  C   UNL     1      14.257  -8.348   6.559  1.00  0.00     0.000 C 
BRANCH   2   3
ATOM      3  C   UNL     1      14.786  -7.666   5.287  1.00  0.00     0.000 C 
BRANCH   3   4
ATOM      4  C   UNL     1      15.928  -6.660   5.550  1.00  0.00     0.000 C 
BRANCH   4   5
ATOM      5  C   UNL     1      17.079  -6.813   4.540  1.00  0.00     0.000 C 
BRANCH   5   6
ATOM      6  C   UNL     1      18.422  -7.131   5.217  1.00  0.00     0.000 C 
BRANCH   6   7
ATOM      7  C   UNL     1      18.324  -8.312   6.198  1.00  0.00     0.006 C 
BRANCH   7   8
ATOM      8  C   UNL     1      19.089  -8.047   7.501  1.00  0.00     0.053 C 
BRANCH   8   9
ATOM      9  C   UNL     1      18.595  -6.817   8.201  1.00  0.00     0.041 C 
ATOM     10  O   UNL     1      17.388  -6.726   8.545  1.00  0.00    -0.550 OA
ATOM     11  O   UNL     1      19.480  -5.792   8.514  1.00  0.00    -0.550 OA
ENDBRANCH   8   9
ENDBRANCH   7   8
ENDBRANCH   6   7
ENDBRANCH   5   6
ENDBRANCH   4   5
ENDBRANCH   3   4
ENDBRANCH   2   3
ENDBRANCH   1   2
BRANCH   1  12
ATOM     12  C   UNL     1      12.020  -7.993   5.366  1.00  0.00     0.000 C 
BRANCH  12  13
ATOM     13  C   UNL     1      10.547  -7.594   5.537  1.00  0.00    -0.000 C 
BRANCH  13  14
ATOM     14  C   UNL     1       9.642  -8.832   5.561  1.00  0.00    -0.000 C 
BRANCH  14  15
ATOM     15  C   UNL     1       9.021  -9.038   6.951  1.00  0.00    -0.000 C 
BRANCH  15  16
ATOM     16  C   UNL     1       7.669  -9.778   6.880  1.00  0.00    -0.000 C 
BRANCH  16  17
ATOM     17  C   UNL     1       7.042  -9.781   5.475  1.00  0.00    -0.000 C 
BRANCH  17  18
ATOM     18  C   UNL     1       5.780  -8.906   5.382  1.00  0.00    -0.000 C 
BRANCH  18  19
ATOM     19  C   UNL     1       6.103  -7.450   5.013  1.00  0.00    -0.003 C 
ATOM     20  C   UNL     1       5.962  -6.492   6.196  1.00  0.00     0.004 C 
ENDBRANCH  18  19
ENDBRANCH  17  18
ENDBRANCH  16  17
ENDBRANCH  15  16
ENDBRANCH  14  15
ENDBRANCH  13  14
ENDBRANCH  12  13
ENDBRANCH   1  12
TORSDOF 16
ENDMDL
MODEL 4
REMARK VINA RESULT:    -3.346      4.810     10.694
REMARK INTER + INTRA:          -7.806
REMARK INTER:                  -7.028
REMARK INTRA:                  -0.778
REMARK UNBOUND:                -1.331
REMARK SMILES CCCCCCCCCCCCCCCCCC(=O)[O-]
REMARK SMILES IDX 10 1 11 2 12 3 13 4 14 5 15 6 16 7 17 8 18 9 19 10 20 11
REMARK SMILES IDX 9 12 8 13 7 14 6 15 5 16 4 17 3 18 2 19 1 20
REMARK H PARENT
REMARK Flexibility Score: inf
ROOT
ATOM      1  C   UNL     1      13.675  -8.349   6.791  1.00  0.00     0.000 C 
ENDROOT
BRANCH   1   2
ATOM      2  C   UNL     1      15.100  -8.623   6.285  1.00  0.00     0.000 C 
BRANCH   2   3
ATOM      3  C   UNL     1      15.894  -7.335   6.014  1.00  0.00     0.000 C 
BRANCH   3   4
ATOM      4  C   UNL     1      16.668  -6.811   7.243  1.00  0.00     0.000 C 
BRANCH   4   5
ATOM      5  C   UNL     1      18.141  -7.257   7.234  1.00  0.00     0.000 C 
BRANCH   5   6
ATOM      6  C   UNL     1      18.588  -7.797   5.866  1.00  0.00     0.000 C 
BRANCH   6   7
ATOM      7  C   UNL     1      19.953  -7.236   5.428  1.00  0.00     0.006 C 
BRANCH   7   8
ATOM      8  C   UNL     1      19.810  -6.075   4.435  1.00  0.00     0.053 C 
BRANCH   8   9
ATOM      9  C   UNL     1      21.056  -5.244   4.362  1.00  0.00     0.041 C 
ATOM     10  O   UNL     1      20.977  -3.996   4.217  1.00  0.00    -0.550 OA
ATOM     11  O   UNL     1      22.302  -5.844   4.502  1.00  0.00    -0.550 OA
ENDBRANCH   8   9
ENDBRANCH   7   8
ENDBRANCH   6   7
ENDBRANCH   5   6
ENDBRANCH   4   5
ENDBRANCH   3   4
ENDBRANCH   2   3
ENDBRANCH   1   2
BRANCH   1  12
ATOM     12  C   UNL     1      12.646  -8.261   5.651  1.00  0.00     0.000 C 
BRANCH  12  13
ATOM     13  C   UNL     1      11.357  -7.540   6.070  1.00  0.00    -0.000 C 
BRANCH  13  14
ATOM     14  C   UNL     1      10.124  -8.229   5.471  1.00  0.00    -0.000 C 
BRANCH  14  15
ATOM     15  C   UNL     1       9.286  -8.912   6.564  1.00  0.00    -0.000 C 
BRANCH  15  16
ATOM     16  C   UNL     1       8.361 -10.003   5.989  1.00  0.00    -0.000 C 
BRANCH  16  17
ATOM     17  C   UNL     1       7.179  -9.445   5.176  1.00  0.00    -0.000 C 
BRANCH  17  18
ATOM     18  C   UNL     1       6.238  -8.566   6.016  1.00  0.00    -0.000 C 
BRANCH  18  19
ATOM     19  C   UNL     1       6.367  -7.074   5.674  1.00  0.00    -0.003 C 
ATOM     20  C   UNL     1       5.112  -6.507   5.011  1.00  0.00     0.004 C 
ENDBRANCH  18  19
ENDBRANCH  17  18
ENDBRANCH  16  17
ENDBRANCH  15  16
ENDBRANCH  14  15
ENDBRANCH  13  14
ENDBRANCH  12  13
ENDBRANCH   1  12
TORSDOF 16
ENDMDL
MODEL 5
REMARK VINA RESULT:    -3.273      1.211      2.198
REMARK INTER + INTRA:          -7.666
REMARK INTER:                  -6.717
REMARK INTRA:                  -0.949
REMARK UNBOUND:                -1.331
REMARK SMILES CCCCCCCCCCCCCCCCCC(=O)[O-]
REMARK SMILES IDX 10 1 11 2 12 3 13 4 14 5 15 6 16 7 17 8 18 9 19 10 20 11
REMARK SMILES IDX 9 12 8 13 7 14 6 15 5 16 4 17 3 18 2 19 1 20
REMARK H PARENT
REMARK Flexibility Score: inf
ROOT
ATOM      1  C   UNL     1      10.534  -7.365   4.977  1.00  0.00     0.000 C 
ENDROOT
BRANCH   1   2
ATOM      2  C   UNL     1      10.318  -8.205   6.246  1.00  0.00     0.000 C 
BRANCH   2   3
ATOM      3  C   UNL     1       9.094  -9.130   6.148  1.00  0.00     0.000 C 
BRANCH   3   4
ATOM      4  C   UNL     1       8.301  -9.253   7.468  1.00  0.00     0.000 C 
BRANCH   4   5
ATOM      5  C   UNL     1       6.879  -9.795   7.241  1.00  0.00     0.000 C 
BRANCH   5   6
ATOM      6  C   UNL     1       6.560 -10.018   5.754  1.00  0.00     0.000 C 
BRANCH   6   7
ATOM      7  C   UNL     1       5.397  -9.138   5.261  1.00  0.00     0.006 C 
BRANCH   7   8
ATOM      8  C   UNL     1       5.890  -7.854   4.582  1.00  0.00     0.053 C 
BRANCH   8   9
ATOM      9  C   UNL     1       5.473  -6.626   5.336  1.00  0.00     0.041 C 
ATOM     10  O   UNL     1       6.010  -6.349   6.440  1.00  0.00    -0.550 OA
ATOM     11  O   UNL     1       4.527  -5.765   4.794  1.00  0.00    -0.550 OA
ENDBRANCH   8   9
ENDBRANCH   7   8
ENDBRANCH   6   7
ENDBRANCH   5   6
ENDBRANCH   4   5
ENDBRANCH   3   4
ENDBRANCH   2   3
ENDBRANCH   1   2
BRANCH   1  12
ATOM     12  C   UNL     1      11.973  -7.453   4.443  1.00  0.00     0.000 C 
BRANCH  12  13
ATOM     13  C   UNL     1      12.934  -8.125   5.434  1.00  0.00    -0.000 C 
BRANCH  13  14
ATOM     14  C   UNL     1      14.354  -7.563   5.287  1.00  0.00    -0.000 C 
BRANCH  14  15
ATOM     15  C   UNL     1      15.215  -7.908   6.512  1.00  0.00    -0.000 C 
BRANCH  15  16
ATOM     16  C   UNL     1      16.534  -7.108   6.539  1.00  0.00    -0.000 C 
BRANCH  16  17
ATOM     17  C   UNL     1      17.783  -7.970   6.282  1.00  0.00    -0.000 C 
BRANCH  17  18
ATOM     18  C   UNL     1      19.095  -7.222   6.570  1.00  0.00    -0.000 C 
BRANCH  18  19
ATOM     19  C   UNL     1      20.008  -7.144   5.337  1.00  0.00    -0.003 C 
ATOM     20  C   UNL     1      20.473  -5.720   5.033  1.00  0.00     0.004 C 
ENDBRANCH  18  19
ENDBRANCH  17  18
ENDBRANCH  16  17
ENDBRANCH  15  16
ENDBRANCH  14  15
ENDBRANCH  13  14
ENDBRANCH  12  13
ENDBRANCH   1  12
TORSDOF 16
ENDMDL
MODEL 6
REMARK VINA RESULT:    -3.240      4.042     10.342
REMARK INTER + INTRA:          -7.601
REMARK INTER:                  -6.467
REMARK INTRA:                  -1.134
REMARK UNBOUND:                -1.331
REMARK SMILES CCCCCCCCCCCCCCCCCC(=O)[O-]
REMARK SMILES IDX 10 1 11 2 12 3 13 4 14 5 15 6 16 7 17 8 18 9 19 10 20 11
REMARK SMILES IDX 9 12 8 13 7 14 6 15 5 16 4 17 3 18 2 19 1 20
REMARK H PARENT
REMARK Flexibility Score: inf
ROOT
ATOM      1  C   UNL     1      11.394  -7.544   5.494  1.00  0.00     0.000 C 
ENDROOT
BRANCH   1   2
ATOM      2  C   UNL     1      12.653  -8.421   5.415  1.00  0.00     0.000 C 
BRANCH   2   3
ATOM      3  C   UNL     1      13.576  -8.251   6.634  1.00  0.00     0.000 C 
BRANCH   3   4
ATOM      4  C   UNL     1      15.076  -8.197   6.274  1.00  0.00     0.000 C 
BRANCH   4   5
ATOM      5  C   UNL     1      15.339  -7.361   5.009  1.00  0.00     0.000 C 
BRANCH   5   6
ATOM      6  C   UNL     1      16.687  -6.624   5.054  1.00  0.00     0.000 C 
BRANCH   6   7
ATOM      7  C   UNL     1      17.887  -7.587   5.052  1.00  0.00     0.006 C 
BRANCH   7   8
ATOM      8  C   UNL     1      19.031  -7.090   5.945  1.00  0.00     0.053 C 
BRANCH   8   9
ATOM      9  C   UNL     1      18.910  -7.602   7.348  1.00  0.00     0.041 C 
ATOM     10  O   UNL     1      19.351  -8.743   7.646  1.00  0.00    -0.550 OA
ATOM     11  O   UNL     1      18.352  -6.801   8.336  1.00  0.00    -0.550 OA
ENDBRANCH   8   9
ENDBRANCH   7   8
ENDBRANCH   6   7
ENDBRANCH   5   6
ENDBRANCH   4   5
ENDBRANCH   3   4
ENDBRANCH   2   3
ENDBRANCH   1   2
BRANCH   1  12
ATOM     12  C   UNL     1      10.204  -8.269   6.144  1.00  0.00     0.000 C 
BRANCH  12  13
ATOM     13  C   UNL     1       9.606  -9.358   5.240  1.00  0.00    -0.000 C 
BRANCH  13  14
ATOM     14  C   UNL     1       8.151  -9.654   5.626  1.00  0.00    -0.000 C 
BRANCH  14  15
ATOM     15  C   UNL     1       7.711  -8.799   6.825  1.00  0.00    -0.000 C 
BRANCH  15  16
ATOM     16  C   UNL     1       6.504  -7.901   6.486  1.00  0.00    -0.000 C 
BRANCH  16  17
ATOM     17  C   UNL     1       6.766  -6.930   5.321  1.00  0.00    -0.000 C 
BRANCH  17  18
ATOM     18  C   UNL     1       5.596  -6.861   4.325  1.00  0.00    -0.000 C 
BRANCH  18  19
ATOM     19  C   UNL     1       4.410  -7.739   4.753  1.00  0.00    -0.003 C 
ATOM     20  C   UNL     1       3.063  -7.176   4.301  1.00  0.00     0.004 C 
ENDBRANCH  18  19
ENDBRANCH  17  18
ENDBRANCH  16  17
ENDBRANCH  15  16
ENDBRANCH  14  15
ENDBRANCH  13  14
ENDBRANCH  12  13
ENDBRANCH   1  12
TORSDOF 16
ENDMDL
MODEL 7
REMARK VINA RESULT:    -3.185      1.511      2.155
REMARK INTER + INTRA:          -7.494
REMARK INTER:                  -6.419
REMARK INTRA:                  -1.075
REMARK UNBOUND:                -1.331
REMARK SMILES CCCCCCCCCCCCCCCCCC(=O)[O-]
REMARK SMILES IDX 10 1 11 2 12 3 13 4 14 5 15 6 16 7 17 8 18 9 19 10 20 11
REMARK SMILES IDX 9 12 8 13 7 14 6 15 5 16 4 17 3 18 2 19 1 20
REMARK H PARENT
REMARK Flexibility Score: inf
ROOT
ATOM      1  C   UNL     1      11.824  -7.502   5.160  1.00  0.00     0.000 C 
ENDROOT
BRANCH   1   2
ATOM      2  C   UNL     1      10.740  -7.778   6.213  1.00  0.00     0.000 C 
BRANCH   2   3
ATOM      3  C   UNL     1       9.701  -8.810   5.743  1.00  0.00     0.000 C 
BRANCH   3   4
ATOM      4  C   UNL     1       8.952  -9.509   6.898  1.00  0.00     0.000 C 
BRANCH   4   5
ATOM      5  C   UNL     1       7.430  -9.299   6.812  1.00  0.00     0.000 C 
BRANCH   5   6
ATOM      6  C   UNL     1       7.001  -7.885   7.237  1.00  0.00     0.000 C 
BRANCH   6   7
ATOM      7  C   UNL     1       6.215  -7.150   6.137  1.00  0.00     0.006 C 
BRANCH   7   8
ATOM      8  C   UNL     1       5.478  -8.121   5.205  1.00  0.00     0.053 C 
BRANCH   8   9
ATOM      9  C   UNL     1       4.165  -7.566   4.742  1.00  0.00     0.041 C 
ATOM     10  O   UNL     1       3.168  -8.323   4.614  1.00  0.00    -0.550 OA
ATOM     11  O   UNL     1       4.032  -6.205   4.498  1.00  0.00    -0.550 OA
ENDBRANCH   8   9
ENDBRANCH   7   8
ENDBRANCH   6   7
ENDBRANCH   5   6
ENDBRANCH   4   5
ENDBRANCH   3   4
ENDBRANCH   2   3
ENDBRANCH   1   2
BRANCH   1  12
ATOM     12  C   UNL     1      12.509  -8.785   4.661  1.00  0.00     0.000 C 
BRANCH  12  13
ATOM     13  C   UNL     1      14.042  -8.691   4.694  1.00  0.00    -0.000 C 
BRANCH  13  14
ATOM     14  C   UNL     1      14.589  -9.136   6.056  1.00  0.00    -0.000 C 
BRANCH  14  15
ATOM     15  C   UNL     1      14.969  -7.925   6.922  1.00  0.00    -0.000 C 
BRANCH  15  16
ATOM     16  C   UNL     1      16.094  -7.084   6.284  1.00  0.00    -0.000 C 
BRANCH  16  17
ATOM     17  C   UNL     1      17.457  -7.799   6.256  1.00  0.00    -0.000 C 
BRANCH  17  18
ATOM     18  C   UNL     1      18.520  -7.092   7.115  1.00  0.00    -0.000 C 
BRANCH  18  19
ATOM     19  C   UNL     1      19.044  -7.984   8.250  1.00  0.00    -0.003 C 
ATOM     20  C   UNL     1      19.737  -9.248   7.740  1.00  0.00     0.004 C 
ENDBRANCH  18  19
ENDBRANCH  17  18
ENDBRANCH  16  17
ENDBRANCH  15  16
ENDBRANCH  14  15
ENDBRANCH  13  14
ENDBRANCH  12  13
ENDBRANCH   1  12
TORSDOF 16
ENDMDL
MODEL 8
REMARK VINA RESULT:    -3.119      1.966      2.477
REMARK INTER + INTRA:          -7.367
REMARK INTER:                  -6.018
REMARK INTRA:                  -1.350
REMARK UNBOUND:                -1.331
REMARK SMILES CCCCCCCCCCCCCCCCCC(=O)[O-]
REMARK SMILES IDX 10 1 11 2 12 3 13 4 14 5 15 6 16 7 17 8 18 9 19 10 20 11
REMARK SMILES IDX 9 12 8 13 7 14 6 15 5 16 4 17 3 18 2 19 1 20
REMARK H PARENT
REMARK Flexibility Score: inf
ROOT
ATOM      1  C   UNL     1      12.676  -7.875   5.786  1.00  0.00     0.000 C 
ENDROOT
BRANCH   1   2
ATOM      2  C   UNL     1      11.168  -7.795   6.070  1.00  0.00     0.000 C 
BRANCH   2   3
ATOM      3  C   UNL     1      10.314  -7.936   4.798  1.00  0.00     0.000 C 
BRANCH   3   4
ATOM      4  C   UNL     1      10.079  -9.399   4.366  1.00  0.00     0.000 C 
BRANCH   4   5
ATOM      5  C   UNL     1       8.582  -9.749   4.296  1.00  0.00     0.000 C 
BRANCH   5   6
ATOM      6  C   UNL     1       7.678  -8.568   4.684  1.00  0.00     0.000 C 
BRANCH   6   7
ATOM      7  C   UNL     1       6.667  -8.936   5.785  1.00  0.00     0.006 C 
BRANCH   7   8
ATOM      8  C   UNL     1       7.135  -8.485   7.175  1.00  0.00     0.053 C 
BRANCH   8   9
ATOM      9  C   UNL     1       7.676  -9.627   7.981  1.00  0.00     0.041 C 
ATOM     10  O   UNL     1       8.798 -10.125   7.701  1.00  0.00    -0.550 OA
ATOM     11  O   UNL     1       6.962 -10.110   9.071  1.00  0.00    -0.550 OA
ENDBRANCH   8   9
ENDBRANCH   7   8
ENDBRANCH   6   7
ENDBRANCH   5   6
ENDBRANCH   4   5
ENDBRANCH   3   4
ENDBRANCH   2   3
ENDBRANCH   1   2
BRANCH   1  12
ATOM     12  C   UNL     1      13.032  -7.479   4.344  1.00  0.00     0.000 C 
BRANCH  12  13
ATOM     13  C   UNL     1      14.418  -7.982   3.915  1.00  0.00    -0.000 C 
BRANCH  13  14
ATOM     14  C   UNL     1      14.882  -9.141   4.806  1.00  0.00    -0.000 C 
BRANCH  14  15
ATOM     15  C   UNL     1      16.415  -9.185   4.904  1.00  0.00    -0.000 C 
BRANCH  15  16
ATOM     16  C   UNL     1      17.034  -7.774   4.970  1.00  0.00    -0.000 C 
BRANCH  16  17
ATOM     17  C   UNL     1      17.359  -7.312   6.402  1.00  0.00    -0.000 C 
BRANCH  17  18
ATOM     18  C   UNL     1      18.838  -7.513   6.773  1.00  0.00    -0.000 C 
BRANCH  18  19
ATOM     19  C   UNL     1      19.021  -7.969   8.229  1.00  0.00    -0.003 C 
ATOM     20  C   UNL     1      19.822  -9.265   8.348  1.00  0.00     0.004 C 
ENDBRANCH  18  19
ENDBRANCH  17  18
ENDBRANCH  16  17
ENDBRANCH  15  16
ENDBRANCH  14  15
ENDBRANCH  13  14
ENDBRANCH  12  13
ENDBRANCH   1  12
TORSDOF 16
ENDMDL
MODEL 9
REMARK VINA RESULT:    -1.228      3.030      5.485
REMARK INTER + INTRA:          -3.707
REMARK INTER:                  -1.400
REMARK INTRA:                  -2.306
REMARK UNBOUND:                -1.331
REMARK SMILES CCCCCCCCCCCCCCCCCC(=O)[O-]
REMARK SMILES IDX 10 1 11 2 12 3 13 4 14 5 15 6 16 7 17 8 18 9 19 10 20 11
REMARK SMILES IDX 9 12 8 13 7 14 6 15 5 16 4 17 3 18 2 19 1 20
REMARK H PARENT
REMARK Flexibility Score: inf
ROOT
ATOM      1  C   UNL     1      19.002  -7.415   7.798  1.00  0.00     0.000 C 
ENDROOT
BRANCH   1   2
ATOM      2  C   UNL     1      17.534  -7.045   8.061  1.00  0.00     0.000 C 
BRANCH   2   3
ATOM      3  C   UNL     1      16.793  -6.602   6.788  1.00  0.00     0.000 C 
BRANCH   3   4
ATOM      4  C   UNL     1      15.705  -7.595   6.325  1.00  0.00     0.000 C 
BRANCH   4   5
ATOM      5  C   UNL     1      15.255  -7.327   4.878  1.00  0.00     0.000 C 
BRANCH   5   6
ATOM      6  C   UNL     1      14.620  -8.562   4.217  1.00  0.00     0.000 C 
BRANCH   6   7
ATOM      7  C   UNL     1      13.266  -8.937   4.844  1.00  0.00     0.006 C 
BRANCH   7   8
ATOM      8  C   UNL     1      12.088  -8.269   4.123  1.00  0.00     0.053 C 
BRANCH   8   9
ATOM      9  C   UNL     1      11.263  -7.433   5.053  1.00  0.00     0.041 C 
ATOM     10  O   UNL     1      10.461  -6.578   4.593  1.00  0.00    -0.550 OA
ATOM     11  O   UNL     1      11.345  -7.631   6.426  1.00  0.00    -0.550 OA
ENDBRANCH   8   9
ENDBRANCH   7   8
ENDBRANCH   6   7
ENDBRANCH   5   6
ENDBRANCH   4   5
ENDBRANCH   3   4
ENDBRANCH   2   3
ENDBRANCH   1   2
BRANCH   1  12
ATOM     12  C   UNL     1      19.426  -8.710   8.510  1.00  0.00     0.000 C 
BRANCH  12  13
ATOM     13  C   UNL     1      19.724  -9.855   7.532  1.00  0.00    -0.000 C 
BRANCH  13  14
ATOM     14  C   UNL     1      19.883  -9.327   6.100  1.00  0.00    -0.000 C 
BRANCH  14  15
ATOM     15  C   UNL     1      18.629  -9.618   5.261  1.00  0.00    -0.000 C 
BRANCH  15  16
ATOM     16  C   UNL     1      18.546  -8.720   4.010  1.00  0.00    -0.000 C 
BRANCH  16  17
ATOM     17  C   UNL     1      19.726  -7.741   3.875  1.00  0.00    -0.000 C 
BRANCH  17  18
ATOM     18  C   UNL     1      19.352  -6.298   4.251  1.00  0.00    -0.000 C 
BRANCH  18  19
ATOM     19  C   UNL     1      20.522  -5.538   4.895  1.00  0.00    -0.003 C 
ATOM     20  C   UNL     1      21.862  -6.249   4.716  1.00  0.00     0.004 C 
ENDBRANCH  18  19
ENDBRANCH  17  18
ENDBRANCH  16  17
ENDBRANCH  15  16
ENDBRANCH  14  15
ENDBRANCH  13  14
ENDBRANCH  12  13
ENDBRANCH   1  12
TORSDOF 16
ENDMDL
