MODEL 1
REMARK VINA RESULT:    -3.778      0.000      0.000
REMARK INTER + INTRA:          -4.707
REMARK INTER:                  -4.441
REMARK INTRA:                  -0.266
REMARK UNBOUND:                -0.266
REMARK SMILES O=c1cc(-c2ccc(O)c(O)c2)oc2cc(O)cc(O)c12
REMARK SMILES IDX 4 1 3 2 2 3 1 4 21 5 19 6 18 7 16 8 15 9 14 10 13 11 5 12
REMARK SMILES IDX 6 13 7 14 8 15 12 16 10 17 9 18 11 20 20 22 17 24
REMARK H PARENT 9 19 11 21 20 23 17 25
REMARK Flexibility Score: inf
ROOT
ATOM      1  C   UNL     1      18.138  35.012  43.936  1.00  0.00     0.138 A 
ATOM      2  C   UNL     1      17.077  34.705  44.798  1.00  0.00     0.100 A 
ATOM      3  C   UNL     1      15.775  34.655  44.299  1.00  0.00     0.197 A 
ATOM      4  O   UNL     1      14.838  34.430  45.108  1.00  0.00    -0.289 OA
ATOM      5  C   UNL     1      15.540  34.879  42.922  1.00  0.00     0.107 A 
ATOM      6  C   UNL     1      14.258  34.821  42.293  1.00  0.00     0.134 A 
ATOM      7  C   UNL     1      14.138  35.159  40.940  1.00  0.00     0.093 A 
ATOM      8  C   UNL     1      15.259  35.498  40.178  1.00  0.00     0.123 A 
ATOM      9  C   UNL     1      16.519  35.510  40.770  1.00  0.00     0.094 A 
ATOM     10  C   UNL     1      16.669  35.211  42.125  1.00  0.00     0.146 A 
ATOM     11  O   UNL     1      17.887  35.251  42.654  1.00  0.00    -0.456 OA
ENDROOT
BRANCH   1  12
ATOM     12  C   UNL     1      19.543  35.077  44.412  1.00  0.00     0.021 A 
ATOM     13  C   UNL     1      20.388  33.970  44.222  1.00  0.00     0.016 A 
ATOM     14  C   UNL     1      21.716  34.007  44.655  1.00  0.00     0.051 A 
ATOM     15  C   UNL     1      22.227  35.150  45.275  1.00  0.00     0.157 A 
ATOM     16  C   UNL     1      20.067  36.232  45.026  1.00  0.00     0.062 A 
ATOM     17  C   UNL     1      21.400  36.271  45.459  1.00  0.00     0.158 A 
BRANCH  15  18
ATOM     18  O   UNL     1      23.555  35.156  45.697  1.00  0.00    -0.504 OA
ATOM     19  H   UNL     1      23.969  35.956  46.162  1.00  0.00     0.293 HD
ENDBRANCH  15  18
BRANCH  17  20
ATOM     20  O   UNL     1      21.906  37.418  46.066  1.00  0.00    -0.504 OA
ATOM     21  H   UNL     1      22.895  37.525  46.259  1.00  0.00     0.293 HD
ENDBRANCH  17  20
ENDBRANCH   1  12
BRANCH   6  22
ATOM     22  O   UNL     1      13.086  34.418  42.940  1.00  0.00    -0.507 OA
ATOM     23  H   UNL     1      12.177  34.830  42.802  1.00  0.00     0.293 HD
ENDBRANCH   6  22
BRANCH   8  24
ATOM     24  O   UNL     1      15.130  35.818  38.828  1.00  0.00    -0.508 OA
ATOM     25  H   UNL     1      14.427  36.471  38.503  1.00  0.00     0.293 HD
ENDBRANCH   8  24
TORSDOF 5
ENDMDL
MODEL 2
REMARK VINA RESULT:    -3.717      1.363      7.260
REMARK INTER + INTRA:          -4.636
REMARK INTER:                  -4.370
REMARK INTRA:                  -0.266
REMARK UNBOUND:                -0.266
REMARK SMILES O=c1cc(-c2ccc(O)c(O)c2)oc2cc(O)cc(O)c12
REMARK SMILES IDX 4 1 3 2 2 3 1 4 21 5 19 6 18 7 16 8 15 9 14 10 13 11 5 12
REMARK SMILES IDX 6 13 7 14 8 15 12 16 10 17 9 18 11 20 20 22 17 24
REMARK H PARENT 9 19 11 21 20 23 17 25
REMARK Flexibility Score: inf
ROOT
ATOM      1  C   UNL     1      18.791  35.101  44.145  1.00  0.00     0.138 A 
ATOM      2  C   UNL     1      19.251  36.274  44.759  1.00  0.00     0.100 A 
ATOM      3  C   UNL     1      20.549  36.322  45.270  1.00  0.00     0.197 A 
ATOM      4  O   UNL     1      20.914  37.369  45.864  1.00  0.00    -0.289 OA
ATOM      5  C   UNL     1      21.402  35.201  45.132  1.00  0.00     0.107 A 
ATOM      6  C   UNL     1      22.756  35.146  45.584  1.00  0.00     0.134 A 
ATOM      7  C   UNL     1      23.470  33.947  45.480  1.00  0.00     0.093 A 
ATOM      8  C   UNL     1      22.899  32.816  44.889  1.00  0.00     0.123 A 
ATOM      9  C   UNL     1      21.596  32.874  44.401  1.00  0.00     0.094 A 
ATOM     10  C   UNL     1      20.845  34.045  44.520  1.00  0.00     0.146 A 
ATOM     11  O   UNL     1      19.601  34.052  44.057  1.00  0.00    -0.456 OA
ENDROOT
BRANCH   1  12
ATOM     12  C   UNL     1      17.421  34.995  43.583  1.00  0.00     0.021 A 
ATOM     13  C   UNL     1      16.346  34.692  44.436  1.00  0.00     0.016 A 
ATOM     14  C   UNL     1      15.047  34.592  43.933  1.00  0.00     0.051 A 
ATOM     15  C   UNL     1      14.795  34.802  42.574  1.00  0.00     0.157 A 
ATOM     16  C   UNL     1      17.161  35.220  42.216  1.00  0.00     0.062 A 
ATOM     17  C   UNL     1      15.856  35.122  41.711  1.00  0.00     0.158 A 
BRANCH  15  18
ATOM     18  O   UNL     1      13.488  34.694  42.102  1.00  0.00    -0.504 OA
ATOM     19  H   UNL     1      13.256  34.153  41.277  1.00  0.00     0.293 HD
ENDBRANCH  15  18
BRANCH  17  20
ATOM     20  O   UNL     1      15.610  35.344  40.357  1.00  0.00    -0.504 OA
ATOM     21  H   UNL     1      16.357  35.331  39.673  1.00  0.00     0.293 HD
ENDBRANCH  17  20
ENDBRANCH   1  12
BRANCH   6  22
ATOM     22  O   UNL     1      23.449  36.238  46.115  1.00  0.00    -0.507 OA
ATOM     23  H   UNL     1      24.416  36.228  46.400  1.00  0.00     0.293 HD
ENDBRANCH   6  22
BRANCH   8  24
ATOM     24  O   UNL     1      23.623  31.632  44.776  1.00  0.00    -0.508 OA
ATOM     25  H   UNL     1      23.443  30.968  44.032  1.00  0.00     0.293 HD
ENDBRANCH   8  24
TORSDOF 5
ENDMDL
MODEL 3
REMARK VINA RESULT:    -3.674      0.890      1.593
REMARK INTER + INTRA:          -4.584
REMARK INTER:                  -4.317
REMARK INTRA:                  -0.268
REMARK UNBOUND:                -0.266
REMARK SMILES O=c1cc(-c2ccc(O)c(O)c2)oc2cc(O)cc(O)c12
REMARK SMILES IDX 4 1 3 2 2 3 1 4 21 5 19 6 18 7 16 8 15 9 14 10 13 11 5 12
REMARK SMILES IDX 6 13 7 14 8 15 12 16 10 17 9 18 11 20 20 22 17 24
REMARK H PARENT 9 19 11 21 20 23 17 25
REMARK Flexibility Score: inf
ROOT
ATOM      1  C   UNL     1      17.774  35.166  43.834  1.00  0.00     0.138 A 
ATOM      2  C   UNL     1      16.853  34.420  44.583  1.00  0.00     0.100 A 
ATOM      3  C   UNL     1      15.660  34.003  43.992  1.00  0.00     0.197 A 
ATOM      4  O   UNL     1      14.831  33.383  44.706  1.00  0.00    -0.289 OA
ATOM      5  C   UNL     1      15.404  34.305  42.634  1.00  0.00     0.107 A 
ATOM      6  C   UNL     1      14.236  33.903  41.915  1.00  0.00     0.134 A 
ATOM      7  C   UNL     1      14.049  34.346  40.601  1.00  0.00     0.093 A 
ATOM      8  C   UNL     1      15.012  35.129  39.958  1.00  0.00     0.123 A 
ATOM      9  C   UNL     1      16.176  35.485  40.634  1.00  0.00     0.094 A 
ATOM     10  C   UNL     1      16.378  35.088  41.957  1.00  0.00     0.146 A 
ATOM     11  O   UNL     1      17.495  35.464  42.570  1.00  0.00    -0.456 OA
ENDROOT
BRANCH   1  12
ATOM     12  C   UNL     1      19.060  35.633  44.410  1.00  0.00     0.021 A 
ATOM     13  C   UNL     1      19.068  36.746  45.269  1.00  0.00     0.016 A 
ATOM     14  C   UNL     1      20.263  37.202  45.829  1.00  0.00     0.051 A 
ATOM     15  C   UNL     1      21.469  36.552  45.552  1.00  0.00     0.157 A 
ATOM     16  C   UNL     1      20.276  34.973  44.144  1.00  0.00     0.062 A 
ATOM     17  C   UNL     1      21.476  35.429  44.708  1.00  0.00     0.158 A 
BRANCH  15  18
ATOM     18  O   UNL     1      22.646  37.032  46.125  1.00  0.00    -0.504 OA
ATOM     19  H   UNL     1      22.746  37.154  47.126  1.00  0.00     0.293 HD
ENDBRANCH  15  18
BRANCH  17  20
ATOM     20  O   UNL     1      22.673  34.769  44.436  1.00  0.00    -0.504 OA
ATOM     21  H   UNL     1      22.792  33.782  44.630  1.00  0.00     0.293 HD
ENDBRANCH  17  20
ENDBRANCH   1  12
BRANCH   6  22
ATOM     22  O   UNL     1      13.250  33.058  42.433  1.00  0.00    -0.507 OA
ATOM     23  H   UNL     1      13.416  32.300  43.077  1.00  0.00     0.293 HD
ENDBRANCH   6  22
BRANCH   8  24
ATOM     24  O   UNL     1      14.822  35.552  38.645  1.00  0.00    -0.508 OA
ATOM     25  H   UNL     1      14.737  36.535  38.411  1.00  0.00     0.293 HD
ENDBRANCH   8  24
TORSDOF 5
ENDMDL
MODEL 4
REMARK VINA RESULT:    -3.584      1.406      7.223
REMARK INTER + INTRA:          -4.479
REMARK INTER:                  -4.215
REMARK INTRA:                  -0.264
REMARK UNBOUND:                -0.266
REMARK SMILES O=c1cc(-c2ccc(O)c(O)c2)oc2cc(O)cc(O)c12
REMARK SMILES IDX 4 1 3 2 2 3 1 4 21 5 19 6 18 7 16 8 15 9 14 10 13 11 5 12
REMARK SMILES IDX 6 13 7 14 8 15 12 16 10 17 9 18 11 20 20 22 17 24
REMARK H PARENT 9 19 11 21 20 23 17 25
REMARK Flexibility Score: inf
ROOT
ATOM      1  C   UNL     1      18.836  35.035  43.996  1.00  0.00     0.138 A 
ATOM      2  C   UNL     1      19.294  36.175  44.671  1.00  0.00     0.100 A 
ATOM      3  C   UNL     1      20.580  36.184  45.214  1.00  0.00     0.197 A 
ATOM      4  O   UNL     1      20.942  37.201  45.860  1.00  0.00    -0.289 OA
ATOM      5  C   UNL     1      21.423  35.060  45.048  1.00  0.00     0.107 A 
ATOM      6  C   UNL     1      22.765  34.969  45.529  1.00  0.00     0.134 A 
ATOM      7  C   UNL     1      23.467  33.766  45.390  1.00  0.00     0.093 A 
ATOM      8  C   UNL     1      22.898  32.669  44.738  1.00  0.00     0.123 A 
ATOM      9  C   UNL     1      21.608  32.764  44.222  1.00  0.00     0.094 A 
ATOM     10  C   UNL     1      20.868  33.938  44.374  1.00  0.00     0.146 A 
ATOM     11  O   UNL     1      19.635  33.980  43.882  1.00  0.00    -0.456 OA
ENDROOT
BRANCH   1  12
ATOM     12  C   UNL     1      17.479  34.971  43.397  1.00  0.00     0.021 A 
ATOM     13  C   UNL     1      17.339  35.011  41.998  1.00  0.00     0.016 A 
ATOM     14  C   UNL     1      16.074  34.946  41.409  1.00  0.00     0.051 A 
ATOM     15  C   UNL     1      14.929  34.828  42.201  1.00  0.00     0.157 A 
ATOM     16  C   UNL     1      16.322  34.838  44.191  1.00  0.00     0.062 A 
ATOM     17  C   UNL     1      15.053  34.770  43.599  1.00  0.00     0.158 A 
BRANCH  15  18
ATOM     18  O   UNL     1      13.681  34.767  41.584  1.00  0.00    -0.504 OA
ATOM     19  H   UNL     1      13.512  35.168  40.668  1.00  0.00     0.293 HD
ENDBRANCH  15  18
BRANCH  17  20
ATOM     20  O   UNL     1      13.916  34.642  44.395  1.00  0.00    -0.504 OA
ATOM     21  H   UNL     1      13.932  34.859  45.384  1.00  0.00     0.293 HD
ENDBRANCH  17  20
ENDBRANCH   1  12
BRANCH   6  22
ATOM     22  O   UNL     1      23.457  36.028  46.124  1.00  0.00    -0.507 OA
ATOM     23  H   UNL     1      24.004  36.714  45.628  1.00  0.00     0.293 HD
ENDBRANCH   6  22
BRANCH   8  24
ATOM     24  O   UNL     1      23.611  31.481  44.592  1.00  0.00    -0.508 OA
ATOM     25  H   UNL     1      24.624  31.468  44.586  1.00  0.00     0.293 HD
ENDBRANCH   8  24
TORSDOF 5
ENDMDL
MODEL 5
REMARK VINA RESULT:    -3.557      3.714      4.500
REMARK INTER + INTRA:          -4.448
REMARK INTER:                  -4.156
REMARK INTRA:                  -0.292
REMARK UNBOUND:                -0.266
REMARK SMILES O=c1cc(-c2ccc(O)c(O)c2)oc2cc(O)cc(O)c12
REMARK SMILES IDX 4 1 3 2 2 3 1 4 21 5 19 6 18 7 16 8 15 9 14 10 13 11 5 12
REMARK SMILES IDX 6 13 7 14 8 15 12 16 10 17 9 18 11 20 20 22 17 24
REMARK H PARENT 9 19 11 21 20 23 17 25
REMARK Flexibility Score: inf
ROOT
ATOM      1  C   UNL     1      18.890  34.738  40.075  1.00  0.00     0.138 A 
ATOM      2  C   UNL     1      18.385  34.285  41.302  1.00  0.00     0.100 A 
ATOM      3  C   UNL     1      17.110  34.677  41.709  1.00  0.00     0.197 A 
ATOM      4  O   UNL     1      16.706  34.299  42.839  1.00  0.00    -0.289 OA
ATOM      5  C   UNL     1      16.322  35.497  40.866  1.00  0.00     0.107 A 
ATOM      6  C   UNL     1      14.993  35.931  41.162  1.00  0.00     0.134 A 
ATOM      7  C   UNL     1      14.350  36.822  40.295  1.00  0.00     0.093 A 
ATOM      8  C   UNL     1      14.963  37.250  39.114  1.00  0.00     0.123 A 
ATOM      9  C   UNL     1      16.239  36.793  38.792  1.00  0.00     0.094 A 
ATOM     10  C   UNL     1      16.921  35.931  39.653  1.00  0.00     0.146 A 
ATOM     11  O   UNL     1      18.143  35.533  39.317  1.00  0.00    -0.456 OA
ENDROOT
BRANCH   1  12
ATOM     12  C   UNL     1      20.239  34.351  39.590  1.00  0.00     0.021 A 
ATOM     13  C   UNL     1      20.525  34.419  38.215  1.00  0.00     0.016 A 
ATOM     14  C   UNL     1      21.788  34.066  37.734  1.00  0.00     0.051 A 
ATOM     15  C   UNL     1      22.791  33.651  38.614  1.00  0.00     0.157 A 
ATOM     16  C   UNL     1      21.257  33.944  40.475  1.00  0.00     0.062 A 
ATOM     17  C   UNL     1      22.526  33.593  39.993  1.00  0.00     0.158 A 
BRANCH  15  18
ATOM     18  O   UNL     1      24.040  33.305  38.103  1.00  0.00    -0.504 OA
ATOM     19  H   UNL     1      24.851  33.181  38.700  1.00  0.00     0.293 HD
ENDBRANCH  15  18
BRANCH  17  20
ATOM     20  O   UNL     1      23.525  33.190  40.877  1.00  0.00    -0.504 OA
ATOM     21  H   UNL     1      23.495  32.289  41.339  1.00  0.00     0.293 HD
ENDBRANCH  17  20
ENDBRANCH   1  12
BRANCH   6  22
ATOM     22  O   UNL     1      14.258  35.503  42.271  1.00  0.00    -0.507 OA
ATOM     23  H   UNL     1      13.893  34.573  42.402  1.00  0.00     0.293 HD
ENDBRANCH   6  22
BRANCH   8  24
ATOM     24  O   UNL     1      14.309  38.124  38.250  1.00  0.00    -0.508 OA
ATOM     25  H   UNL     1      14.693  38.360  37.342  1.00  0.00     0.293 HD
ENDBRANCH   8  24
TORSDOF 5
ENDMDL
MODEL 6
REMARK VINA RESULT:    -3.526      3.936      7.903
REMARK INTER + INTRA:          -4.411
REMARK INTER:                  -4.118
REMARK INTRA:                  -0.293
REMARK UNBOUND:                -0.266
REMARK SMILES O=c1cc(-c2ccc(O)c(O)c2)oc2cc(O)cc(O)c12
REMARK SMILES IDX 4 1 3 2 2 3 1 4 21 5 19 6 18 7 16 8 15 9 14 10 13 11 5 12
REMARK SMILES IDX 6 13 7 14 8 15 12 16 10 17 9 18 11 20 20 22 17 24
REMARK H PARENT 9 19 11 21 20 23 17 25
REMARK Flexibility Score: inf
ROOT
ATOM      1  C   UNL     1      18.209  35.148  39.372  1.00  0.00     0.138 A 
ATOM      2  C   UNL     1      18.444  35.180  37.991  1.00  0.00     0.100 A 
ATOM      3  C   UNL     1      19.690  34.794  37.495  1.00  0.00     0.197 A 
ATOM      4  O   UNL     1      19.888  34.885  36.256  1.00  0.00    -0.289 OA
ATOM      5  C   UNL     1      20.693  34.340  38.384  1.00  0.00     0.107 A 
ATOM      6  C   UNL     1      21.990  33.889  37.990  1.00  0.00     0.134 A 
ATOM      7  C   UNL     1      22.932  33.557  38.970  1.00  0.00     0.093 A 
ATOM      8  C   UNL     1      22.608  33.604  40.328  1.00  0.00     0.123 A 
ATOM      9  C   UNL     1      21.331  33.995  40.721  1.00  0.00     0.094 A 
ATOM     10  C   UNL     1      20.378  34.366  39.770  1.00  0.00     0.146 A 
ATOM     11  O   UNL     1      19.178  34.749  40.189  1.00  0.00    -0.456 OA
ENDROOT
BRANCH   1  12
ATOM     12  C   UNL     1      16.903  35.546  39.955  1.00  0.00     0.021 A 
ATOM     13  C   UNL     1      16.579  35.144  41.263  1.00  0.00     0.016 A 
ATOM     14  C   UNL     1      15.360  35.509  41.837  1.00  0.00     0.051 A 
ATOM     15  C   UNL     1      14.446  36.289  41.123  1.00  0.00     0.157 A 
ATOM     16  C   UNL     1      15.984  36.343  39.244  1.00  0.00     0.062 A 
ATOM     17  C   UNL     1      14.760  36.712  39.821  1.00  0.00     0.158 A 
BRANCH  15  18
ATOM     18  O   UNL     1      13.236  36.636  41.723  1.00  0.00    -0.504 OA
ATOM     19  H   UNL     1      13.118  37.503  42.235  1.00  0.00     0.293 HD
ENDBRANCH  15  18
BRANCH  17  20
ATOM     20  O   UNL     1      13.858  37.499  39.107  1.00  0.00    -0.504 OA
ATOM     21  H   UNL     1      13.998  37.710  38.126  1.00  0.00     0.293 HD
ENDBRANCH  17  20
ENDBRANCH   1  12
BRANCH   6  22
ATOM     22  O   UNL     1      22.392  33.728  36.660  1.00  0.00    -0.507 OA
ATOM     23  H   UNL     1      21.794  33.429  35.906  1.00  0.00     0.293 HD
ENDBRANCH   6  22
BRANCH   8  24
ATOM     24  O   UNL     1      23.549  33.257  41.295  1.00  0.00    -0.508 OA
ATOM     25  H   UNL     1      24.389  33.805  41.440  1.00  0.00     0.293 HD
ENDBRANCH   8  24
TORSDOF 5
ENDMDL
MODEL 7
REMARK VINA RESULT:    -3.502      1.469      7.064
REMARK INTER + INTRA:          -4.383
REMARK INTER:                  -4.119
REMARK INTRA:                  -0.264
REMARK UNBOUND:                -0.266
REMARK SMILES O=c1cc(-c2ccc(O)c(O)c2)oc2cc(O)cc(O)c12
REMARK SMILES IDX 4 1 3 2 2 3 1 4 21 5 19 6 18 7 16 8 15 9 14 10 13 11 5 12
REMARK SMILES IDX 6 13 7 14 8 15 12 16 10 17 9 18 11 20 20 22 17 24
REMARK H PARENT 9 19 11 21 20 23 17 25
REMARK Flexibility Score: inf
ROOT
ATOM      1  C   UNL     1      17.732  34.699  43.135  1.00  0.00     0.138 A 
ATOM      2  C   UNL     1      18.175  33.369  43.177  1.00  0.00     0.100 A 
ATOM      3  C   UNL     1      19.366  33.060  43.835  1.00  0.00     0.197 A 
ATOM      4  O   UNL     1      19.765  31.867  43.809  1.00  0.00    -0.289 OA
ATOM      5  C   UNL     1      20.098  34.082  44.485  1.00  0.00     0.107 A 
ATOM      6  C   UNL     1      21.308  33.880  45.216  1.00  0.00     0.134 A 
ATOM      7  C   UNL     1      21.995  34.985  45.732  1.00  0.00     0.093 A 
ATOM      8  C   UNL     1      21.488  36.279  45.594  1.00  0.00     0.123 A 
ATOM      9  C   UNL     1      20.283  36.482  44.926  1.00  0.00     0.094 A 
ATOM     10  C   UNL     1      19.591  35.405  44.369  1.00  0.00     0.146 A 
ATOM     11  O   UNL     1      18.455  35.645  43.725  1.00  0.00    -0.456 OA
ENDROOT
BRANCH   1  12
ATOM     12  C   UNL     1      16.472  35.085  42.451  1.00  0.00     0.021 A 
ATOM     13  C   UNL     1      15.262  35.059  43.166  1.00  0.00     0.016 A 
ATOM     14  C   UNL     1      14.064  35.423  42.549  1.00  0.00     0.051 A 
ATOM     15  C   UNL     1      14.051  35.830  41.211  1.00  0.00     0.157 A 
ATOM     16  C   UNL     1      16.457  35.508  41.107  1.00  0.00     0.062 A 
ATOM     17  C   UNL     1      15.254  35.877  40.487  1.00  0.00     0.158 A 
BRANCH  15  18
ATOM     18  O   UNL     1      12.839  36.186  40.622  1.00  0.00    -0.504 OA
ATOM     19  H   UNL     1      11.988  35.660  40.782  1.00  0.00     0.293 HD
ENDBRANCH  15  18
BRANCH  17  20
ATOM     20  O   UNL     1      15.250  36.292  39.157  1.00  0.00    -0.504 OA
ATOM     21  H   UNL     1      16.097  36.298  38.600  1.00  0.00     0.293 HD
ENDBRANCH  17  20
ENDBRANCH   1  12
BRANCH   6  22
ATOM     22  O   UNL     1      21.862  32.624  45.482  1.00  0.00    -0.507 OA
ATOM     23  H   UNL     1      21.420  31.899  46.027  1.00  0.00     0.293 HD
ENDBRANCH   6  22
BRANCH   8  24
ATOM     24  O   UNL     1      22.172  37.371  46.125  1.00  0.00    -0.508 OA
ATOM     25  H   UNL     1      22.233  37.523  47.125  1.00  0.00     0.293 HD
ENDBRANCH   8  24
TORSDOF 5
ENDMDL
MODEL 8
REMARK VINA RESULT:    -3.482      3.392      5.061
REMARK INTER + INTRA:          -4.360
REMARK INTER:                  -4.046
REMARK INTRA:                  -0.314
REMARK UNBOUND:                -0.266
REMARK SMILES O=c1cc(-c2ccc(O)c(O)c2)oc2cc(O)cc(O)c12
REMARK SMILES IDX 4 1 3 2 2 3 1 4 21 5 19 6 18 7 16 8 15 9 14 10 13 11 5 12
REMARK SMILES IDX 6 13 7 14 8 15 12 16 10 17 9 18 11 20 20 22 17 24
REMARK H PARENT 9 19 11 21 20 23 17 25
REMARK Flexibility Score: inf
ROOT
ATOM      1  C   UNL     1      18.129  35.125  39.668  1.00  0.00     0.138 A 
ATOM      2  C   UNL     1      17.313  35.808  38.756  1.00  0.00     0.100 A 
ATOM      3  C   UNL     1      16.029  36.197  39.137  1.00  0.00     0.197 A 
ATOM      4  O   UNL     1      15.301  36.760  38.278  1.00  0.00    -0.289 OA
ATOM      5  C   UNL     1      15.573  35.933  40.450  1.00  0.00     0.107 A 
ATOM      6  C   UNL     1      14.294  36.314  40.961  1.00  0.00     0.134 A 
ATOM      7  C   UNL     1      13.918  35.909  42.247  1.00  0.00     0.093 A 
ATOM      8  C   UNL     1      14.793  35.188  43.063  1.00  0.00     0.123 A 
ATOM      9  C   UNL     1      16.061  34.855  42.592  1.00  0.00     0.094 A 
ATOM     10  C   UNL     1      16.454  35.213  41.301  1.00  0.00     0.146 A 
ATOM     11  O   UNL     1      17.665  34.860  40.885  1.00  0.00    -0.456 OA
ENDROOT
BRANCH   1  12
ATOM     12  C   UNL     1      19.504  34.689  39.319  1.00  0.00     0.021 A 
ATOM     13  C   UNL     1      19.888  34.631  37.967  1.00  0.00     0.016 A 
ATOM     14  C   UNL     1      21.177  34.229  37.611  1.00  0.00     0.051 A 
ATOM     15  C   UNL     1      22.110  33.889  38.595  1.00  0.00     0.157 A 
ATOM     16  C   UNL     1      20.452  34.358  40.308  1.00  0.00     0.062 A 
ATOM     17  C   UNL     1      21.748  33.957  39.951  1.00  0.00     0.158 A 
BRANCH  15  18
ATOM     18  O   UNL     1      23.389  33.491  38.208  1.00  0.00    -0.504 OA
ATOM     19  H   UNL     1      23.600  33.207  37.259  1.00  0.00     0.293 HD
ENDBRANCH  15  18
BRANCH  17  20
ATOM     20  O   UNL     1      22.677  33.630  40.937  1.00  0.00    -0.504 OA
ATOM     21  H   UNL     1      22.499  33.818  41.917  1.00  0.00     0.293 HD
ENDBRANCH  17  20
ENDBRANCH   1  12
BRANCH   6  22
ATOM     22  O   UNL     1      13.374  37.101  40.262  1.00  0.00    -0.507 OA
ATOM     23  H   UNL     1      13.583  37.645  39.440  1.00  0.00     0.293 HD
ENDBRANCH   6  22
BRANCH   8  24
ATOM     24  O   UNL     1      14.415  34.804  44.347  1.00  0.00    -0.508 OA
ATOM     25  H   UNL     1      13.734  35.332  44.880  1.00  0.00     0.293 HD
ENDBRANCH   8  24
TORSDOF 5
ENDMDL
MODEL 9
REMARK VINA RESULT:    -3.396      3.585      5.233
REMARK INTER + INTRA:          -4.258
REMARK INTER:                  -3.946
REMARK INTRA:                  -0.312
REMARK UNBOUND:                -0.266
REMARK SMILES O=c1cc(-c2ccc(O)c(O)c2)oc2cc(O)cc(O)c12
REMARK SMILES IDX 4 1 3 2 2 3 1 4 21 5 19 6 18 7 16 8 15 9 14 10 13 11 5 12
REMARK SMILES IDX 6 13 7 14 8 15 12 16 10 17 9 18 11 20 20 22 17 24
REMARK H PARENT 9 19 11 21 20 23 17 25
REMARK Flexibility Score: inf
ROOT
ATOM      1  C   UNL     1      20.679  34.350  39.573  1.00  0.00     0.138 A 
ATOM      2  C   UNL     1      20.816  34.276  38.180  1.00  0.00     0.100 A 
ATOM      3  C   UNL     1      19.742  34.632  37.363  1.00  0.00     0.197 A 
ATOM      4  O   UNL     1      19.877  34.503  36.119  1.00  0.00    -0.289 OA
ATOM      5  C   UNL     1      18.539  35.098  37.943  1.00  0.00     0.107 A 
ATOM      6  C   UNL     1      17.389  35.521  37.208  1.00  0.00     0.134 A 
ATOM      7  C   UNL     1      16.221  35.869  37.895  1.00  0.00     0.093 A 
ATOM      8  C   UNL     1      16.176  35.866  39.292  1.00  0.00     0.123 A 
ATOM      9  C   UNL     1      17.307  35.502  40.019  1.00  0.00     0.094 A 
ATOM     10  C   UNL     1      18.478  35.116  39.363  1.00  0.00     0.146 A 
ATOM     11  O   UNL     1      19.528  34.760  40.094  1.00  0.00    -0.456 OA
ENDROOT
BRANCH   1  12
ATOM     12  C   UNL     1      21.788  33.987  40.491  1.00  0.00     0.021 A 
ATOM     13  C   UNL     1      22.841  33.185  40.018  1.00  0.00     0.016 A 
ATOM     14  C   UNL     1      23.900  32.833  40.860  1.00  0.00     0.051 A 
ATOM     15  C   UNL     1      23.932  33.283  42.182  1.00  0.00     0.157 A 
ATOM     16  C   UNL     1      21.832  34.449  41.822  1.00  0.00     0.062 A 
ATOM     17  C   UNL     1      22.896  34.098  42.666  1.00  0.00     0.158 A 
BRANCH  15  18
ATOM     18  O   UNL     1      25.001  32.914  42.998  1.00  0.00    -0.504 OA
ATOM     19  H   UNL     1      25.804  32.410  42.638  1.00  0.00     0.293 HD
ENDBRANCH  15  18
BRANCH  17  20
ATOM     20  O   UNL     1      22.928  34.560  43.981  1.00  0.00    -0.504 OA
ATOM     21  H   UNL     1      22.888  33.924  44.768  1.00  0.00     0.293 HD
ENDBRANCH  17  20
ENDBRANCH   1  12
BRANCH   6  22
ATOM     22  O   UNL     1      17.350  35.639  35.815  1.00  0.00    -0.507 OA
ATOM     23  H   UNL     1      18.048  36.101  35.253  1.00  0.00     0.293 HD
ENDBRANCH   6  22
BRANCH   8  24
ATOM     24  O   UNL     1      15.013  36.229  39.967  1.00  0.00    -0.508 OA
ATOM     25  H   UNL     1      14.558  35.598  40.617  1.00  0.00     0.293 HD
ENDBRANCH   8  24
TORSDOF 5
ENDMDL
