MODEL 1
REMARK VINA RESULT:    -6.992      0.000      0.000
REMARK INTER + INTRA:          -8.489
REMARK INTER:                  -8.219
REMARK INTRA:                  -0.270
REMARK UNBOUND:                -0.270
REMARK SMILES O=c1cc(-c2ccc(O)c(O)c2)oc2cc(O)cc(O)c12
REMARK SMILES IDX 4 1 3 2 2 3 1 4 21 5 19 6 18 7 16 8 15 9 14 10 13 11 5 12
REMARK SMILES IDX 6 13 7 14 8 15 12 16 10 17 9 18 11 20 20 22 17 24
REMARK H PARENT 9 19 11 21 20 23 17 25
REMARK Flexibility Score: inf
ROOT
ATOM      1  C   UNL     1     -10.607   7.098   5.612  1.00  0.00     0.138 A 
ATOM      2  C   UNL     1     -11.474   8.165   5.340  1.00  0.00     0.100 A 
ATOM      3  C   UNL     1     -10.983   9.471   5.339  1.00  0.00     0.197 A 
ATOM      4  O   UNL     1     -11.771  10.402   5.030  1.00  0.00    -0.289 OA
ATOM      5  C   UNL     1      -9.622   9.710   5.644  1.00  0.00     0.107 A 
ATOM      6  C   UNL     1      -9.021  11.003   5.713  1.00  0.00     0.134 A 
ATOM      7  C   UNL     1      -7.638  11.110   5.909  1.00  0.00     0.093 A 
ATOM      8  C   UNL     1      -6.846   9.975   6.099  1.00  0.00     0.123 A 
ATOM      9  C   UNL     1      -7.433   8.712   6.087  1.00  0.00     0.094 A 
ATOM     10  C   UNL     1      -8.804   8.570   5.860  1.00  0.00     0.146 A 
ATOM     11  O   UNL     1      -9.322   7.346   5.842  1.00  0.00    -0.456 OA
ENDROOT
BRANCH   1  12
ATOM     12  C   UNL     1     -11.077   5.689   5.627  1.00  0.00     0.021 A 
ATOM     13  C   UNL     1     -11.868   5.185   6.676  1.00  0.00     0.016 A 
ATOM     14  C   UNL     1     -12.288   3.852   6.669  1.00  0.00     0.051 A 
ATOM     15  C   UNL     1     -11.919   2.999   5.622  1.00  0.00     0.157 A 
ATOM     16  C   UNL     1     -10.699   4.823   4.586  1.00  0.00     0.062 A 
ATOM     17  C   UNL     1     -11.119   3.488   4.576  1.00  0.00     0.158 A 
BRANCH  15  18
ATOM     18  O   UNL     1     -12.341   1.670   5.618  1.00  0.00    -0.504 OA
ATOM     19  H   UNL     1     -11.849   0.959   5.090  1.00  0.00     0.293 HD
ENDBRANCH  15  18
BRANCH  17  20
ATOM     20  O   UNL     1     -10.731   2.663   3.520  1.00  0.00    -0.504 OA
ATOM     21  H   UNL     1     -10.050   1.923   3.638  1.00  0.00     0.293 HD
ENDBRANCH  17  20
ENDBRANCH   1  12
BRANCH   6  22
ATOM     22  O   UNL     1      -9.733  12.203   5.621  1.00  0.00    -0.507 OA
ATOM     23  H   UNL     1      -9.596  13.001   6.221  1.00  0.00     0.293 HD
ENDBRANCH   6  22
BRANCH   8  24
ATOM     24  O   UNL     1      -5.474  10.092   6.309  1.00  0.00    -0.508 OA
ATOM     25  H   UNL     1      -4.886  10.633   5.684  1.00  0.00     0.293 HD
ENDBRANCH   8  24
TORSDOF 5
ENDMDL
MODEL 2
REMARK VINA RESULT:    -6.763      1.288      2.871
REMARK INTER + INTRA:          -8.219
REMARK INTER:                  -7.944
REMARK INTRA:                  -0.276
REMARK UNBOUND:                -0.270
REMARK SMILES O=c1cc(-c2ccc(O)c(O)c2)oc2cc(O)cc(O)c12
REMARK SMILES IDX 4 1 3 2 2 3 1 4 21 5 19 6 18 7 16 8 15 9 14 10 13 11 5 12
REMARK SMILES IDX 6 13 7 14 8 15 12 16 10 17 9 18 11 20 20 22 17 24
REMARK H PARENT 9 19 11 21 20 23 17 25
REMARK Flexibility Score: inf
ROOT
ATOM      1  C   UNL     1     -10.371   6.950   5.695  1.00  0.00     0.138 A 
ATOM      2  C   UNL     1      -9.064   7.314   6.048  1.00  0.00     0.100 A 
ATOM      3  C   UNL     1      -8.693   8.659   6.030  1.00  0.00     0.197 A 
ATOM      4  O   UNL     1      -7.533   8.961   6.411  1.00  0.00    -0.289 OA
ATOM      5  C   UNL     1      -9.629   9.641   5.626  1.00  0.00     0.107 A 
ATOM      6  C   UNL     1      -9.351  11.037   5.530  1.00  0.00     0.134 A 
ATOM      7  C   UNL     1     -10.390  11.928   5.231  1.00  0.00     0.093 A 
ATOM      8  C   UNL     1     -11.681  11.467   4.964  1.00  0.00     0.123 A 
ATOM      9  C   UNL     1     -11.950  10.101   5.003  1.00  0.00     0.094 A 
ATOM     10  C   UNL     1     -10.943   9.190   5.332  1.00  0.00     0.146 A 
ATOM     11  O   UNL     1     -11.246   7.896   5.372  1.00  0.00    -0.456 OA
ENDROOT
BRANCH   1  12
ATOM     12  C   UNL     1     -10.817   5.534   5.696  1.00  0.00     0.021 A 
ATOM     13  C   UNL     1     -10.808   4.756   6.870  1.00  0.00     0.016 A 
ATOM     14  C   UNL     1     -11.224   3.422   6.839  1.00  0.00     0.051 A 
ATOM     15  C   UNL     1     -11.648   2.841   5.639  1.00  0.00     0.157 A 
ATOM     16  C   UNL     1     -11.231   4.938   4.492  1.00  0.00     0.062 A 
ATOM     17  C   UNL     1     -11.650   3.603   4.459  1.00  0.00     0.158 A 
BRANCH  15  18
ATOM     18  O   UNL     1     -12.064   1.510   5.613  1.00  0.00    -0.504 OA
ATOM     19  H   UNL     1     -12.872   1.218   5.076  1.00  0.00     0.293 HD
ENDBRANCH  15  18
BRANCH  17  20
ATOM     20  O   UNL     1     -12.062   3.051   3.246  1.00  0.00    -0.504 OA
ATOM     21  H   UNL     1     -13.026   2.792   3.073  1.00  0.00     0.293 HD
ENDBRANCH  17  20
ENDBRANCH   1  12
BRANCH   6  22
ATOM     22  O   UNL     1      -8.078  11.594   5.692  1.00  0.00    -0.507 OA
ATOM     23  H   UNL     1      -7.368  11.236   6.310  1.00  0.00     0.293 HD
ENDBRANCH   6  22
BRANCH   8  24
ATOM     24  O   UNL     1     -12.704  12.360   4.652  1.00  0.00    -0.508 OA
ATOM     25  H   UNL     1     -12.642  12.978   3.851  1.00  0.00     0.293 HD
ENDBRANCH   8  24
TORSDOF 5
ENDMDL
MODEL 3
REMARK VINA RESULT:    -6.642      1.639      7.171
REMARK INTER + INTRA:          -8.078
REMARK INTER:                  -7.811
REMARK INTRA:                  -0.267
REMARK UNBOUND:                -0.270
REMARK SMILES O=c1cc(-c2ccc(O)c(O)c2)oc2cc(O)cc(O)c12
REMARK SMILES IDX 4 1 3 2 2 3 1 4 21 5 19 6 18 7 16 8 15 9 14 10 13 11 5 12
REMARK SMILES IDX 6 13 7 14 8 15 12 16 10 17 9 18 11 20 20 22 17 24
REMARK H PARENT 9 19 11 21 20 23 17 25
REMARK Flexibility Score: inf
ROOT
ATOM      1  C   UNL     1     -10.201   6.441   5.947  1.00  0.00     0.138 A 
ATOM      2  C   UNL     1     -10.401   5.661   4.799  1.00  0.00     0.100 A 
ATOM      3  C   UNL     1     -10.917   4.371   4.922  1.00  0.00     0.197 A 
ATOM      4  O   UNL     1     -11.145   3.719   3.871  1.00  0.00    -0.289 OA
ATOM      5  C   UNL     1     -11.205   3.848   6.206  1.00  0.00     0.107 A 
ATOM      6  C   UNL     1     -11.696   2.531   6.455  1.00  0.00     0.134 A 
ATOM      7  C   UNL     1     -12.054   2.165   7.758  1.00  0.00     0.093 A 
ATOM      8  C   UNL     1     -11.882   3.045   8.829  1.00  0.00     0.123 A 
ATOM      9  C   UNL     1     -11.353   4.314   8.603  1.00  0.00     0.094 A 
ATOM     10  C   UNL     1     -11.018   4.722   7.310  1.00  0.00     0.146 A 
ATOM     11  O   UNL     1     -10.529   5.946   7.136  1.00  0.00    -0.456 OA
ENDROOT
BRANCH   1  12
ATOM     12  C   UNL     1      -9.653   7.819   5.873  1.00  0.00     0.021 A 
ATOM     13  C   UNL     1     -10.452   8.912   5.486  1.00  0.00     0.016 A 
ATOM     14  C   UNL     1      -9.907  10.197   5.416  1.00  0.00     0.051 A 
ATOM     15  C   UNL     1      -8.558  10.412   5.721  1.00  0.00     0.157 A 
ATOM     16  C   UNL     1      -8.296   8.041   6.165  1.00  0.00     0.062 A 
ATOM     17  C   UNL     1      -7.749   9.327   6.096  1.00  0.00     0.158 A 
BRANCH  15  18
ATOM     18  O   UNL     1      -8.018  11.696   5.651  1.00  0.00    -0.504 OA
ATOM     19  H   UNL     1      -7.488  12.090   6.419  1.00  0.00     0.293 HD
ENDBRANCH  15  18
BRANCH  17  20
ATOM     20  O   UNL     1      -6.400   9.507   6.403  1.00  0.00    -0.504 OA
ATOM     21  H   UNL     1      -5.661   9.205   5.779  1.00  0.00     0.293 HD
ENDBRANCH  17  20
ENDBRANCH   1  12
BRANCH   6  22
ATOM     22  O   UNL     1     -11.825   1.546   5.471  1.00  0.00    -0.507 OA
ATOM     23  H   UNL     1     -12.681   1.325   4.986  1.00  0.00     0.293 HD
ENDBRANCH   6  22
BRANCH   8  24
ATOM     24  O   UNL     1     -12.227   2.666  10.124  1.00  0.00    -0.508 OA
ATOM     25  H   UNL     1     -11.529   2.578  10.854  1.00  0.00     0.293 HD
ENDBRANCH   8  24
TORSDOF 5
ENDMDL
MODEL 4
REMARK VINA RESULT:    -6.417      1.274      1.934
REMARK INTER + INTRA:          -7.813
REMARK INTER:                  -7.535
REMARK INTRA:                  -0.278
REMARK UNBOUND:                -0.270
REMARK SMILES O=c1cc(-c2ccc(O)c(O)c2)oc2cc(O)cc(O)c12
REMARK SMILES IDX 4 1 3 2 2 3 1 4 21 5 19 6 18 7 16 8 15 9 14 10 13 11 5 12
REMARK SMILES IDX 6 13 7 14 8 15 12 16 10 17 9 18 11 20 20 22 17 24
REMARK H PARENT 9 19 11 21 20 23 17 25
REMARK Flexibility Score: inf
ROOT
ATOM      1  C   UNL     1     -11.393   6.767   5.517  1.00  0.00     0.138 A 
ATOM      2  C   UNL     1     -12.496   7.607   5.723  1.00  0.00     0.100 A 
ATOM      3  C   UNL     1     -12.308   8.987   5.804  1.00  0.00     0.197 A 
ATOM      4  O   UNL     1     -13.323   9.720   5.927  1.00  0.00    -0.289 OA
ATOM      5  C   UNL     1     -11.001   9.525   5.710  1.00  0.00     0.107 A 
ATOM      6  C   UNL     1     -10.685  10.912   5.820  1.00  0.00     0.134 A 
ATOM      7  C   UNL     1      -9.370  11.338   5.594  1.00  0.00     0.093 A 
ATOM      8  C   UNL     1      -8.351  10.422   5.323  1.00  0.00     0.123 A 
ATOM      9  C   UNL     1      -8.641   9.061   5.267  1.00  0.00     0.094 A 
ATOM     10  C   UNL     1      -9.949   8.607   5.454  1.00  0.00     0.146 A 
ATOM     11  O   UNL     1     -10.185   7.301   5.378  1.00  0.00    -0.456 OA
ENDROOT
BRANCH   1  12
ATOM     12  C   UNL     1     -11.538   5.291   5.424  1.00  0.00     0.021 A 
ATOM     13  C   UNL     1     -10.860   4.543   4.444  1.00  0.00     0.016 A 
ATOM     14  C   UNL     1     -11.022   3.156   4.373  1.00  0.00     0.051 A 
ATOM     15  C   UNL     1     -11.869   2.497   5.272  1.00  0.00     0.157 A 
ATOM     16  C   UNL     1     -12.396   4.623   6.314  1.00  0.00     0.062 A 
ATOM     17  C   UNL     1     -12.560   3.235   6.246  1.00  0.00     0.158 A 
BRANCH  15  18
ATOM     18  O   UNL     1     -12.027   1.113   5.199  1.00  0.00    -0.504 OA
ATOM     19  H   UNL     1     -11.252   0.502   4.972  1.00  0.00     0.293 HD
ENDBRANCH  15  18
BRANCH  17  20
ATOM     20  O   UNL     1     -13.414   2.607   7.154  1.00  0.00    -0.504 OA
ATOM     21  H   UNL     1     -13.452   2.875   8.130  1.00  0.00     0.293 HD
ENDBRANCH  17  20
ENDBRANCH   1  12
BRANCH   6  22
ATOM     22  O   UNL     1     -11.610  11.900   6.170  1.00  0.00    -0.507 OA
ATOM     23  H   UNL     1     -11.836  12.703   5.605  1.00  0.00     0.293 HD
ENDBRANCH   6  22
BRANCH   8  24
ATOM     24  O   UNL     1      -7.043  10.854   5.115  1.00  0.00    -0.508 OA
ATOM     25  H   UNL     1      -6.758  11.803   5.329  1.00  0.00     0.293 HD
ENDBRANCH   8  24
TORSDOF 5
ENDMDL
MODEL 5
REMARK VINA RESULT:    -6.245      1.361      3.158
REMARK INTER + INTRA:          -7.610
REMARK INTER:                  -7.345
REMARK INTRA:                  -0.265
REMARK UNBOUND:                -0.270
REMARK SMILES O=c1cc(-c2ccc(O)c(O)c2)oc2cc(O)cc(O)c12
REMARK SMILES IDX 4 1 3 2 2 3 1 4 21 5 19 6 18 7 16 8 15 9 14 10 13 11 5 12
REMARK SMILES IDX 6 13 7 14 8 15 12 16 10 17 9 18 11 20 20 22 17 24
REMARK H PARENT 9 19 11 21 20 23 17 25
REMARK Flexibility Score: inf
ROOT
ATOM      1  C   UNL     1     -10.339   6.904   5.655  1.00  0.00     0.138 A 
ATOM      2  C   UNL     1      -9.032   7.256   6.020  1.00  0.00     0.100 A 
ATOM      3  C   UNL     1      -8.657   8.600   6.036  1.00  0.00     0.197 A 
ATOM      4  O   UNL     1      -7.497   8.889   6.428  1.00  0.00    -0.289 OA
ATOM      5  C   UNL     1      -9.590   9.594   5.654  1.00  0.00     0.107 A 
ATOM      6  C   UNL     1      -9.307  10.991   5.594  1.00  0.00     0.134 A 
ATOM      7  C   UNL     1     -10.343  11.892   5.315  1.00  0.00     0.093 A 
ATOM      8  C   UNL     1     -11.635  11.442   5.034  1.00  0.00     0.123 A 
ATOM      9  C   UNL     1     -11.908  10.076   5.038  1.00  0.00     0.094 A 
ATOM     10  C   UNL     1     -10.905   9.154   5.347  1.00  0.00     0.146 A 
ATOM     11  O   UNL     1     -11.210   7.861   5.353  1.00  0.00    -0.456 OA
ENDROOT
BRANCH   1  12
ATOM     12  C   UNL     1     -10.789   5.489   5.620  1.00  0.00     0.021 A 
ATOM     13  C   UNL     1     -11.039   4.823   4.405  1.00  0.00     0.016 A 
ATOM     14  C   UNL     1     -11.472   3.494   4.402  1.00  0.00     0.051 A 
ATOM     15  C   UNL     1     -11.671   2.812   5.608  1.00  0.00     0.157 A 
ATOM     16  C   UNL     1     -11.004   4.801   6.827  1.00  0.00     0.062 A 
ATOM     17  C   UNL     1     -11.437   3.470   6.826  1.00  0.00     0.158 A 
BRANCH  15  18
ATOM     18  O   UNL     1     -12.101   1.486   5.601  1.00  0.00    -0.504 OA
ATOM     19  H   UNL     1     -11.744   0.809   6.265  1.00  0.00     0.293 HD
ENDBRANCH  15  18
BRANCH  17  20
ATOM     20  O   UNL     1     -11.629   2.819   8.045  1.00  0.00    -0.504 OA
ATOM     21  H   UNL     1     -11.014   2.966   8.836  1.00  0.00     0.293 HD
ENDBRANCH  17  20
ENDBRANCH   1  12
BRANCH   6  22
ATOM     22  O   UNL     1      -8.034  11.540   5.774  1.00  0.00    -0.507 OA
ATOM     23  H   UNL     1      -7.406  11.305   6.526  1.00  0.00     0.293 HD
ENDBRANCH   6  22
BRANCH   8  24
ATOM     24  O   UNL     1     -12.655  12.344   4.742  1.00  0.00    -0.508 OA
ATOM     25  H   UNL     1     -13.192  12.794   5.475  1.00  0.00     0.293 HD
ENDBRANCH   8  24
TORSDOF 5
ENDMDL
MODEL 6
REMARK VINA RESULT:    -6.140      1.432      7.243
REMARK INTER + INTRA:          -7.487
REMARK INTER:                  -7.221
REMARK INTRA:                  -0.266
REMARK UNBOUND:                -0.270
REMARK SMILES O=c1cc(-c2ccc(O)c(O)c2)oc2cc(O)cc(O)c12
REMARK SMILES IDX 4 1 3 2 2 3 1 4 21 5 19 6 18 7 16 8 15 9 14 10 13 11 5 12
REMARK SMILES IDX 6 13 7 14 8 15 12 16 10 17 9 18 11 20 20 22 17 24
REMARK H PARENT 9 19 11 21 20 23 17 25
REMARK Flexibility Score: inf
ROOT
ATOM      1  C   UNL     1      -9.914   6.987   5.337  1.00  0.00     0.138 A 
ATOM      2  C   UNL     1      -9.282   6.265   4.315  1.00  0.00     0.100 A 
ATOM      3  C   UNL     1      -9.700   4.965   4.028  1.00  0.00     0.197 A 
ATOM      4  O   UNL     1      -9.156   4.365   3.065  1.00  0.00    -0.289 OA
ATOM      5  C   UNL     1     -10.736   4.375   4.791  1.00  0.00     0.107 A 
ATOM      6  C   UNL     1     -11.217   3.043   4.614  1.00  0.00     0.134 A 
ATOM      7  C   UNL     1     -12.326   2.608   5.350  1.00  0.00     0.093 A 
ATOM      8  C   UNL     1     -12.933   3.435   6.298  1.00  0.00     0.123 A 
ATOM      9  C   UNL     1     -12.437   4.718   6.516  1.00  0.00     0.094 A 
ATOM     10  C   UNL     1     -11.353   5.194   5.773  1.00  0.00     0.146 A 
ATOM     11  O   UNL     1     -10.920   6.430   6.002  1.00  0.00    -0.456 OA
ENDROOT
BRANCH   1  12
ATOM     12  C   UNL     1      -9.507   8.373   5.685  1.00  0.00     0.021 A 
ATOM     13  C   UNL     1     -10.401   9.455   5.574  1.00  0.00     0.016 A 
ATOM     14  C   UNL     1      -9.988  10.750   5.899  1.00  0.00     0.051 A 
ATOM     15  C   UNL     1      -8.678  10.988   6.330  1.00  0.00     0.157 A 
ATOM     16  C   UNL     1      -8.189   8.622   6.106  1.00  0.00     0.062 A 
ATOM     17  C   UNL     1      -7.774   9.918   6.432  1.00  0.00     0.158 A 
BRANCH  15  18
ATOM     18  O   UNL     1      -8.271  12.282   6.655  1.00  0.00    -0.504 OA
ATOM     19  H   UNL     1      -8.515  12.708   7.541  1.00  0.00     0.293 HD
ENDBRANCH  15  18
BRANCH  17  20
ATOM     20  O   UNL     1      -6.461  10.123   6.855  1.00  0.00    -0.504 OA
ATOM     21  H   UNL     1      -5.793  10.646   6.302  1.00  0.00     0.293 HD
ENDBRANCH  17  20
ENDBRANCH   1  12
BRANCH   6  22
ATOM     22  O   UNL     1     -10.631   2.108   3.756  1.00  0.00    -0.507 OA
ATOM     23  H   UNL     1     -10.866   1.129   3.724  1.00  0.00     0.293 HD
ENDBRANCH   6  22
BRANCH   8  24
ATOM     24  O   UNL     1     -14.026   2.987   7.037  1.00  0.00    -0.508 OA
ATOM     25  H   UNL     1     -14.210   3.332   7.972  1.00  0.00     0.293 HD
ENDBRANCH   8  24
TORSDOF 5
ENDMDL
MODEL 7
REMARK VINA RESULT:    -6.098      2.868      3.804
REMARK INTER + INTRA:          -7.438
REMARK INTER:                  -7.134
REMARK INTRA:                  -0.304
REMARK UNBOUND:                -0.270
REMARK SMILES O=c1cc(-c2ccc(O)c(O)c2)oc2cc(O)cc(O)c12
REMARK SMILES IDX 4 1 3 2 2 3 1 4 21 5 19 6 18 7 16 8 15 9 14 10 13 11 5 12
REMARK SMILES IDX 6 13 7 14 8 15 12 16 10 17 9 18 11 20 20 22 17 24
REMARK H PARENT 9 19 11 21 20 23 17 25
REMARK Flexibility Score: inf
ROOT
ATOM      1  C   UNL     1     -13.040   7.201   5.715  1.00  0.00     0.138 A 
ATOM      2  C   UNL     1     -14.320   7.553   5.264  1.00  0.00     0.100 A 
ATOM      3  C   UNL     1     -14.532   8.812   4.702  1.00  0.00     0.197 A 
ATOM      4  O   UNL     1     -15.676   9.077   4.249  1.00  0.00    -0.289 OA
ATOM      5  C   UNL     1     -13.461   9.735   4.621  1.00  0.00     0.107 A 
ATOM      6  C   UNL     1     -13.570  11.061   4.105  1.00  0.00     0.134 A 
ATOM      7  C   UNL     1     -12.416  11.843   3.967  1.00  0.00     0.093 A 
ATOM      8  C   UNL     1     -11.169  11.370   4.382  1.00  0.00     0.123 A 
ATOM      9  C   UNL     1     -11.063  10.097   4.937  1.00  0.00     0.094 A 
ATOM     10  C   UNL     1     -12.189   9.279   5.056  1.00  0.00     0.146 A 
ATOM     11  O   UNL     1     -12.041   8.065   5.578  1.00  0.00    -0.456 OA
ENDROOT
BRANCH   1  12
ATOM     12  C   UNL     1     -12.760   5.874   6.322  1.00  0.00     0.021 A 
ATOM     13  C   UNL     1     -13.457   4.718   5.923  1.00  0.00     0.016 A 
ATOM     14  C   UNL     1     -13.179   3.484   6.519  1.00  0.00     0.051 A 
ATOM     15  C   UNL     1     -12.211   3.386   7.525  1.00  0.00     0.157 A 
ATOM     16  C   UNL     1     -11.800   5.770   7.343  1.00  0.00     0.062 A 
ATOM     17  C   UNL     1     -11.520   4.536   7.940  1.00  0.00     0.158 A 
BRANCH  15  18
ATOM     18  O   UNL     1     -11.937   2.153   8.116  1.00  0.00    -0.504 OA
ATOM     19  H   UNL     1     -11.792   1.319   7.560  1.00  0.00     0.293 HD
ENDBRANCH  15  18
BRANCH  17  20
ATOM     20  O   UNL     1     -10.552   4.472   8.943  1.00  0.00    -0.504 OA
ATOM     21  H   UNL     1     -10.713   3.982   9.815  1.00  0.00     0.293 HD
ENDBRANCH  17  20
ENDBRANCH   1  12
BRANCH   6  22
ATOM     22  O   UNL     1     -14.779  11.662   3.740  1.00  0.00    -0.507 OA
ATOM     23  H   UNL     1     -15.315  12.280   4.329  1.00  0.00     0.293 HD
ENDBRANCH   6  22
BRANCH   8  24
ATOM     24  O   UNL     1     -10.030  12.161   4.256  1.00  0.00    -0.508 OA
ATOM     25  H   UNL     1      -9.374  12.028   3.494  1.00  0.00     0.293 HD
ENDBRANCH   8  24
TORSDOF 5
ENDMDL
MODEL 8
REMARK VINA RESULT:    -6.001      1.745      6.865
REMARK INTER + INTRA:          -7.323
REMARK INTER:                  -7.061
REMARK INTRA:                  -0.262
REMARK UNBOUND:                -0.270
REMARK SMILES O=c1cc(-c2ccc(O)c(O)c2)oc2cc(O)cc(O)c12
REMARK SMILES IDX 4 1 3 2 2 3 1 4 21 5 19 6 18 7 16 8 15 9 14 10 13 11 5 12
REMARK SMILES IDX 6 13 7 14 8 15 12 16 10 17 9 18 11 20 20 22 17 24
REMARK H PARENT 9 19 11 21 20 23 17 25
REMARK Flexibility Score: inf
ROOT
ATOM      1  C   UNL     1      -9.916   8.293   5.861  1.00  0.00     0.138 A 
ATOM      2  C   UNL     1     -11.197   8.809   5.622  1.00  0.00     0.100 A 
ATOM      3  C   UNL     1     -12.288   7.943   5.546  1.00  0.00     0.197 A 
ATOM      4  O   UNL     1     -13.433   8.440   5.392  1.00  0.00    -0.289 OA
ATOM      5  C   UNL     1     -12.088   6.547   5.679  1.00  0.00     0.107 A 
ATOM      6  C   UNL     1     -13.119   5.567   5.578  1.00  0.00     0.134 A 
ATOM      7  C   UNL     1     -12.821   4.224   5.843  1.00  0.00     0.093 A 
ATOM      8  C   UNL     1     -11.519   3.820   6.146  1.00  0.00     0.123 A 
ATOM      9  C   UNL     1     -10.495   4.763   6.193  1.00  0.00     0.094 A 
ATOM     10  C   UNL     1     -10.766   6.115   5.967  1.00  0.00     0.146 A 
ATOM     11  O   UNL     1      -9.763   6.985   6.036  1.00  0.00    -0.456 OA
ENDROOT
BRANCH   1  12
ATOM     12  C   UNL     1      -8.721   9.170   5.951  1.00  0.00     0.021 A 
ATOM     13  C   UNL     1      -7.862   9.363   4.852  1.00  0.00     0.016 A 
ATOM     14  C   UNL     1      -6.738  10.187   4.968  1.00  0.00     0.051 A 
ATOM     15  C   UNL     1      -6.449  10.823   6.181  1.00  0.00     0.157 A 
ATOM     16  C   UNL     1      -8.416   9.802   7.169  1.00  0.00     0.062 A 
ATOM     17  C   UNL     1      -7.292  10.627   7.287  1.00  0.00     0.158 A 
BRANCH  15  18
ATOM     18  O   UNL     1      -5.328  11.645   6.292  1.00  0.00    -0.504 OA
ATOM     19  H   UNL     1      -5.389  12.572   6.694  1.00  0.00     0.293 HD
ENDBRANCH  15  18
BRANCH  17  20
ATOM     20  O   UNL     1      -7.029  11.244   8.510  1.00  0.00    -0.504 OA
ATOM     21  H   UNL     1      -7.502  12.092   8.798  1.00  0.00     0.293 HD
ENDBRANCH  17  20
ENDBRANCH   1  12
BRANCH   6  22
ATOM     22  O   UNL     1     -14.435   5.851   5.200  1.00  0.00    -0.507 OA
ATOM     23  H   UNL     1     -14.752   6.737   4.839  1.00  0.00     0.293 HD
ENDBRANCH   6  22
BRANCH   8  24
ATOM     24  O   UNL     1     -11.229   2.480   6.393  1.00  0.00    -0.508 OA
ATOM     25  H   UNL     1     -11.534   1.747   5.763  1.00  0.00     0.293 HD
ENDBRANCH   8  24
TORSDOF 5
ENDMDL
MODEL 9
REMARK VINA RESULT:    -5.631      3.438      7.231
REMARK INTER + INTRA:          -6.888
REMARK INTER:                  -6.620
REMARK INTRA:                  -0.268
REMARK UNBOUND:                -0.270
REMARK SMILES O=c1cc(-c2ccc(O)c(O)c2)oc2cc(O)cc(O)c12
REMARK SMILES IDX 4 1 3 2 2 3 1 4 21 5 19 6 18 7 16 8 15 9 14 10 13 11 5 12
REMARK SMILES IDX 6 13 7 14 8 15 12 16 10 17 9 18 11 20 20 22 17 24
REMARK H PARENT 9 19 11 21 20 23 17 25
REMARK Flexibility Score: inf
ROOT
ATOM      1  C   UNL     1     -11.208   9.838   5.187  1.00  0.00     0.138 A 
ATOM      2  C   UNL     1     -11.947   8.827   5.818  1.00  0.00     0.100 A 
ATOM      3  C   UNL     1     -13.256   8.570   5.407  1.00  0.00     0.197 A 
ATOM      4  O   UNL     1     -13.872   7.616   5.948  1.00  0.00    -0.289 OA
ATOM      5  C   UNL     1     -13.836   9.352   4.379  1.00  0.00     0.107 A 
ATOM      6  C   UNL     1     -15.175   9.206   3.907  1.00  0.00     0.134 A 
ATOM      7  C   UNL     1     -15.602   9.959   2.805  1.00  0.00     0.093 A 
ATOM      8  C   UNL     1     -14.760  10.894   2.199  1.00  0.00     0.123 A 
ATOM      9  C   UNL     1     -13.469  11.081   2.688  1.00  0.00     0.094 A 
ATOM     10  C   UNL     1     -13.001  10.321   3.763  1.00  0.00     0.146 A 
ATOM     11  O   UNL     1     -11.758  10.521   4.189  1.00  0.00    -0.456 OA
ENDROOT
BRANCH   1  12
ATOM     12  C   UNL     1      -9.813  10.153   5.586  1.00  0.00     0.021 A 
ATOM     13  C   UNL     1      -8.736   9.319   5.232  1.00  0.00     0.016 A 
ATOM     14  C   UNL     1      -7.434   9.636   5.629  1.00  0.00     0.051 A 
ATOM     15  C   UNL     1      -7.186  10.782   6.393  1.00  0.00     0.157 A 
ATOM     16  C   UNL     1      -9.557  11.296   6.365  1.00  0.00     0.062 A 
ATOM     17  C   UNL     1      -8.254  11.615   6.763  1.00  0.00     0.158 A 
BRANCH  15  18
ATOM     18  O   UNL     1      -5.886  11.095   6.787  1.00  0.00    -0.504 OA
ATOM     19  H   UNL     1      -5.536  12.046   6.752  1.00  0.00     0.293 HD
ENDBRANCH  15  18
BRANCH  17  20
ATOM     20  O   UNL     1      -8.041  12.763   7.527  1.00  0.00    -0.504 OA
ATOM     21  H   UNL     1      -7.636  13.604   7.134  1.00  0.00     0.293 HD
ENDBRANCH  17  20
ENDBRANCH   1  12
BRANCH   6  22
ATOM     22  O   UNL     1     -16.124   8.364   4.494  1.00  0.00    -0.507 OA
ATOM     23  H   UNL     1     -16.018   7.911   5.388  1.00  0.00     0.293 HD
ENDBRANCH   6  22
BRANCH   8  24
ATOM     24  O   UNL     1     -15.199  11.649   1.114  1.00  0.00    -0.508 OA
ATOM     25  H   UNL     1     -15.944  12.330   1.209  1.00  0.00     0.293 HD
ENDBRANCH   8  24
TORSDOF 5
ENDMDL
