MODEL 1
REMARK VINA RESULT:    -6.109      0.000      0.000
REMARK INTER + INTRA:         -16.391
REMARK INTER:                 -13.251
REMARK INTRA:                  -3.140
REMARK UNBOUND:                -3.140
REMARK SMILES CCCCCCCCCCCCCCCCCCCCCC(=O)[O-]
REMARK SMILES IDX 12 1 11 2 10 3 9 4 8 5 7 6 6 7 5 8 4 9 3 10 2 11 1 12 13 13
REMARK SMILES IDX 14 14 15 15 16 16 17 17 18 18 19 19 20 20 21 21 22 22 23 23
REMARK SMILES IDX 24 24
REMARK H PARENT
REMARK Flexibility Score: inf
ROOT
ATOM      1  C   UNL     1      13.231   2.228  15.691  1.00  0.00     0.000 C 
ENDROOT
BRANCH   1   2
ATOM      2  C   UNL     1      13.475   3.394  16.667  1.00  0.00     0.000 C 
BRANCH   2   3
ATOM      3  C   UNL     1      13.438   3.013  18.158  1.00  0.00     0.000 C 
BRANCH   3   4
ATOM      4  C   UNL     1      14.614   2.118  18.579  1.00  0.00    -0.000 C 
BRANCH   4   5
ATOM      5  C   UNL     1      14.372   1.511  19.970  1.00  0.00    -0.000 C 
BRANCH   5   6
ATOM      6  C   UNL     1      14.002   0.021  19.912  1.00  0.00    -0.000 C 
BRANCH   6   7
ATOM      7  C   UNL     1      13.760  -0.474  18.475  1.00  0.00    -0.000 C 
BRANCH   7   8
ATOM      8  C   UNL     1      14.664  -1.662  18.093  1.00  0.00    -0.000 C 
BRANCH   8   9
ATOM      9  C   UNL     1      16.008  -1.283  17.439  1.00  0.00    -0.000 C 
BRANCH   9  10
ATOM     10  C   UNL     1      17.236  -1.394  18.359  1.00  0.00    -0.000 C 
BRANCH  10  11
ATOM     11  C   UNL     1      17.661  -0.043  18.951  1.00  0.00    -0.003 C 
ATOM     12  C   UNL     1      17.804   1.014  17.861  1.00  0.00     0.004 C 
ENDBRANCH  10  11
ENDBRANCH   9  10
ENDBRANCH   8   9
ENDBRANCH   7   8
ENDBRANCH   6   7
ENDBRANCH   5   6
ENDBRANCH   4   5
ENDBRANCH   3   4
ENDBRANCH   2   3
ENDBRANCH   1   2
BRANCH   1  13
ATOM     13  C   UNL     1      14.533   1.610  15.159  1.00  0.00     0.000 C 
BRANCH  13  14
ATOM     14  C   UNL     1      15.484   2.700  14.644  1.00  0.00     0.000 C 
BRANCH  14  15
ATOM     15  C   UNL     1      15.196   3.114  13.189  1.00  0.00     0.000 C 
BRANCH  15  16
ATOM     16  C   UNL     1      15.476   2.029  12.130  1.00  0.00     0.000 C 
BRANCH  16  17
ATOM     17  C   UNL     1      16.899   2.110  11.552  1.00  0.00     0.000 C 
BRANCH  17  18
ATOM     18  C   UNL     1      17.681   0.790  11.694  1.00  0.00     0.000 C 
BRANCH  18  19
ATOM     19  C   UNL     1      17.210  -0.130  12.836  1.00  0.00     0.000 C 
BRANCH  19  20
ATOM     20  C   UNL     1      18.364  -0.895  13.506  1.00  0.00     0.006 C 
BRANCH  20  21
ATOM     21  C   UNL     1      18.946  -0.134  14.705  1.00  0.00     0.053 C 
BRANCH  21  22
ATOM     22  C   UNL     1      19.888  -0.988  15.498  1.00  0.00     0.041 C 
ATOM     23  O   UNL     1      20.985  -0.520  15.899  1.00  0.00    -0.550 OA
ATOM     24  O   UNL     1      19.567  -2.313  15.764  1.00  0.00    -0.550 OA
ENDBRANCH  21  22
ENDBRANCH  20  21
ENDBRANCH  19  20
ENDBRANCH  18  19
ENDBRANCH  17  18
ENDBRANCH  16  17
ENDBRANCH  15  16
ENDBRANCH  14  15
ENDBRANCH  13  14
ENDBRANCH   1  13
TORSDOF 20
ENDMDL
MODEL 2
REMARK VINA RESULT:    -5.962      0.922      2.014
REMARK INTER + INTRA:         -16.073
REMARK INTER:                 -12.628
REMARK INTRA:                  -3.445
REMARK UNBOUND:                -3.140
REMARK SMILES CCCCCCCCCCCCCCCCCCCCCC(=O)[O-]
REMARK SMILES IDX 12 1 11 2 10 3 9 4 8 5 7 6 6 7 5 8 4 9 3 10 2 11 1 12 13 13
REMARK SMILES IDX 14 14 15 15 16 16 17 17 18 18 19 19 20 20 21 21 22 22 23 23
REMARK SMILES IDX 24 24
REMARK H PARENT
REMARK Flexibility Score: inf
ROOT
ATOM      1  C   UNL     1      13.946   3.626  18.532  1.00  0.00     0.000 C 
ENDROOT
BRANCH   1   2
ATOM      2  C   UNL     1      13.620   2.307  19.257  1.00  0.00     0.000 C 
BRANCH   2   3
ATOM      3  C   UNL     1      14.725   1.790  20.196  1.00  0.00     0.000 C 
BRANCH   3   4
ATOM      4  C   UNL     1      14.647   0.274  20.438  1.00  0.00    -0.000 C 
BRANCH   4   5
ATOM      5  C   UNL     1      13.484  -0.349  19.650  1.00  0.00    -0.000 C 
BRANCH   5   6
ATOM      6  C   UNL     1      13.954  -1.382  18.615  1.00  0.00    -0.000 C 
BRANCH   6   7
ATOM      7  C   UNL     1      15.086  -0.851  17.720  1.00  0.00    -0.000 C 
BRANCH   7   8
ATOM      8  C   UNL     1      16.231  -1.866  17.540  1.00  0.00    -0.000 C 
BRANCH   8   9
ATOM      9  C   UNL     1      17.537  -1.525  18.286  1.00  0.00    -0.000 C 
BRANCH   9  10
ATOM     10  C   UNL     1      17.616  -0.092  18.841  1.00  0.00    -0.000 C 
BRANCH  10  11
ATOM     11  C   UNL     1      18.150   0.915  17.814  1.00  0.00    -0.003 C 
ATOM     12  C   UNL     1      17.045   1.850  17.335  1.00  0.00     0.004 C 
ENDBRANCH  10  11
ENDBRANCH   9  10
ENDBRANCH   8   9
ENDBRANCH   7   8
ENDBRANCH   6   7
ENDBRANCH   5   6
ENDBRANCH   4   5
ENDBRANCH   3   4
ENDBRANCH   2   3
ENDBRANCH   1   2
BRANCH   1  13
ATOM     13  C   UNL     1      13.239   3.754  17.174  1.00  0.00     0.000 C 
BRANCH  13  14
ATOM     14  C   UNL     1      13.283   2.423  16.408  1.00  0.00     0.000 C 
BRANCH  14  15
ATOM     15  C   UNL     1      13.598   2.599  14.911  1.00  0.00     0.000 C 
BRANCH  15  16
ATOM     16  C   UNL     1      15.096   2.676  14.560  1.00  0.00     0.000 C 
BRANCH  16  17
ATOM     17  C   UNL     1      15.400   2.204  13.129  1.00  0.00     0.000 C 
BRANCH  17  18
ATOM     18  C   UNL     1      16.505   1.131  13.072  1.00  0.00     0.000 C 
BRANCH  18  19
ATOM     19  C   UNL     1      16.384   0.012  14.123  1.00  0.00     0.000 C 
BRANCH  19  20
ATOM     20  C   UNL     1      17.614  -0.911  14.163  1.00  0.00     0.006 C 
BRANCH  20  21
ATOM     21  C   UNL     1      18.892  -0.156  14.552  1.00  0.00     0.053 C 
BRANCH  21  22
ATOM     22  C   UNL     1      19.846  -1.033  15.305  1.00  0.00     0.041 C 
ATOM     23  O   UNL     1      20.901  -0.553  15.793  1.00  0.00    -0.550 OA
ATOM     24  O   UNL     1      19.583  -2.391  15.437  1.00  0.00    -0.550 OA
ENDBRANCH  21  22
ENDBRANCH  20  21
ENDBRANCH  19  20
ENDBRANCH  18  19
ENDBRANCH  17  18
ENDBRANCH  16  17
ENDBRANCH  15  16
ENDBRANCH  14  15
ENDBRANCH  13  14
ENDBRANCH   1  13
TORSDOF 20
ENDMDL
MODEL 3
REMARK VINA RESULT:    -5.861      0.840      4.934
REMARK INTER + INTRA:         -15.853
REMARK INTER:                 -12.697
REMARK INTRA:                  -3.156
REMARK UNBOUND:                -3.140
REMARK SMILES CCCCCCCCCCCCCCCCCCCCCC(=O)[O-]
REMARK SMILES IDX 12 1 11 2 10 3 9 4 8 5 7 6 6 7 5 8 4 9 3 10 2 11 1 12 13 13
REMARK SMILES IDX 14 14 15 15 16 16 17 17 18 18 19 19 20 20 21 21 22 22 23 23
REMARK SMILES IDX 24 24
REMARK H PARENT
REMARK Flexibility Score: inf
ROOT
ATOM      1  C   UNL     1      13.563   0.562  19.554  1.00  0.00     0.000 C 
ENDROOT
BRANCH   1   2
ATOM      2  C   UNL     1      14.407   1.773  19.993  1.00  0.00     0.000 C 
BRANCH   2   3
ATOM      3  C   UNL     1      14.169   3.061  19.184  1.00  0.00     0.000 C 
BRANCH   3   4
ATOM      4  C   UNL     1      13.056   2.913  18.134  1.00  0.00    -0.000 C 
BRANCH   4   5
ATOM      5  C   UNL     1      13.569   3.289  16.735  1.00  0.00    -0.000 C 
BRANCH   5   6
ATOM      6  C   UNL     1      15.075   3.036  16.565  1.00  0.00    -0.000 C 
BRANCH   6   7
ATOM      7  C   UNL     1      15.468   2.759  15.104  1.00  0.00    -0.000 C 
BRANCH   7   8
ATOM      8  C   UNL     1      14.674   1.594  14.483  1.00  0.00    -0.000 C 
BRANCH   8   9
ATOM      9  C   UNL     1      15.017   1.274  13.013  1.00  0.00    -0.000 C 
BRANCH   9  10
ATOM     10  C   UNL     1      15.503   2.473  12.181  1.00  0.00    -0.000 C 
BRANCH  10  11
ATOM     11  C   UNL     1      16.729   2.141  11.319  1.00  0.00    -0.003 C 
ATOM     12  C   UNL     1      17.339   0.803  11.722  1.00  0.00     0.004 C 
ENDBRANCH  10  11
ENDBRANCH   9  10
ENDBRANCH   8   9
ENDBRANCH   7   8
ENDBRANCH   6   7
ENDBRANCH   5   6
ENDBRANCH   4   5
ENDBRANCH   3   4
ENDBRANCH   2   3
ENDBRANCH   1   2
BRANCH   1  13
ATOM     13  C   UNL     1      14.355  -0.755  19.562  1.00  0.00     0.000 C 
BRANCH  13  14
ATOM     14  C   UNL     1      14.530  -1.295  18.135  1.00  0.00     0.000 C 
BRANCH  14  15
ATOM     15  C   UNL     1      16.006  -1.420  17.714  1.00  0.00     0.000 C 
BRANCH  15  16
ATOM     16  C   UNL     1      17.024  -1.374  18.870  1.00  0.00     0.000 C 
BRANCH  16  17
ATOM     17  C   UNL     1      17.737  -0.016  18.986  1.00  0.00     0.000 C 
BRANCH  17  18
ATOM     18  C   UNL     1      17.520   0.883  17.754  1.00  0.00     0.000 C 
BRANCH  18  19
ATOM     19  C   UNL     1      18.597   0.766  16.660  1.00  0.00     0.000 C 
BRANCH  19  20
ATOM     20  C   UNL     1      18.070   0.125  15.364  1.00  0.00     0.006 C 
BRANCH  20  21
ATOM     21  C   UNL     1      19.142  -0.716  14.656  1.00  0.00     0.053 C 
BRANCH  21  22
ATOM     22  C   UNL     1      19.721  -1.754  15.568  1.00  0.00     0.041 C 
ATOM     23  O   UNL     1      20.965  -1.828  15.738  1.00  0.00    -0.550 OA
ATOM     24  O   UNL     1      18.885  -2.663  16.204  1.00  0.00    -0.550 OA
ENDBRANCH  21  22
ENDBRANCH  20  21
ENDBRANCH  19  20
ENDBRANCH  18  19
ENDBRANCH  17  18
ENDBRANCH  16  17
ENDBRANCH  15  16
ENDBRANCH  14  15
ENDBRANCH  13  14
ENDBRANCH   1  13
TORSDOF 20
ENDMDL
MODEL 4
REMARK VINA RESULT:    -5.803      1.671      5.786
REMARK INTER + INTRA:         -15.727
REMARK INTER:                 -13.337
REMARK INTRA:                  -2.390
REMARK UNBOUND:                -3.140
REMARK SMILES CCCCCCCCCCCCCCCCCCCCCC(=O)[O-]
REMARK SMILES IDX 12 1 11 2 10 3 9 4 8 5 7 6 6 7 5 8 4 9 3 10 2 11 1 12 13 13
REMARK SMILES IDX 14 14 15 15 16 16 17 17 18 18 19 19 20 20 21 21 22 22 23 23
REMARK SMILES IDX 24 24
REMARK H PARENT
REMARK Flexibility Score: inf
ROOT
ATOM      1  C   UNL     1      15.485   2.819  16.890  1.00  0.00     0.000 C 
ENDROOT
BRANCH   1   2
ATOM      2  C   UNL     1      15.470   2.940  15.355  1.00  0.00     0.000 C 
BRANCH   2   3
ATOM      3  C   UNL     1      14.375   2.120  14.648  1.00  0.00     0.000 C 
BRANCH   3   4
ATOM      4  C   UNL     1      14.784   1.657  13.241  1.00  0.00    -0.000 C 
BRANCH   4   5
ATOM      5  C   UNL     1      15.510   2.779  12.484  1.00  0.00    -0.000 C 
BRANCH   5   6
ATOM      6  C   UNL     1      16.447   2.248  11.388  1.00  0.00    -0.000 C 
BRANCH   6   7
ATOM      7  C   UNL     1      16.661   0.727  11.478  1.00  0.00    -0.000 C 
BRANCH   7   8
ATOM      8  C   UNL     1      17.910   0.348  12.295  1.00  0.00    -0.000 C 
BRANCH   8   9
ATOM      9  C   UNL     1      17.629  -0.334  13.650  1.00  0.00    -0.000 C 
BRANCH   9  10
ATOM     10  C   UNL     1      18.689  -0.087  14.738  1.00  0.00    -0.000 C 
BRANCH  10  11
ATOM     11  C   UNL     1      19.575  -1.313  14.995  1.00  0.00    -0.003 C 
ATOM     12  C   UNL     1      20.724  -0.973  15.939  1.00  0.00     0.004 C 
ENDBRANCH  10  11
ENDBRANCH   9  10
ENDBRANCH   8   9
ENDBRANCH   7   8
ENDBRANCH   6   7
ENDBRANCH   5   6
ENDBRANCH   4   5
ENDBRANCH   3   4
ENDBRANCH   2   3
ENDBRANCH   1   2
BRANCH   1  13
ATOM     13  C   UNL     1      14.485   3.763  17.575  1.00  0.00     0.000 C 
BRANCH  13  14
ATOM     14  C   UNL     1      13.548   2.981  18.508  1.00  0.00     0.000 C 
BRANCH  14  15
ATOM     15  C   UNL     1      13.582   1.461  18.262  1.00  0.00     0.000 C 
BRANCH  15  16
ATOM     16  C   UNL     1      13.836   0.599  19.514  1.00  0.00     0.000 C 
BRANCH  16  17
ATOM     17  C   UNL     1      15.039   1.083  20.340  1.00  0.00     0.000 C 
BRANCH  17  18
ATOM     18  C   UNL     1      16.301   0.225  20.123  1.00  0.00     0.000 C 
BRANCH  18  19
ATOM     19  C   UNL     1      16.938   0.341  18.726  1.00  0.00     0.000 C 
BRANCH  19  20
ATOM     20  C   UNL     1      17.900  -0.817  18.406  1.00  0.00     0.006 C 
BRANCH  20  21
ATOM     21  C   UNL     1      17.156  -2.076  17.941  1.00  0.00     0.053 C 
BRANCH  21  22
ATOM     22  C   UNL     1      15.851  -1.738  17.288  1.00  0.00     0.041 C 
ATOM     23  O   UNL     1      15.822  -0.998  16.271  1.00  0.00    -0.550 OA
ATOM     24  O   UNL     1      14.662  -2.215  17.826  1.00  0.00    -0.550 OA
ENDBRANCH  21  22
ENDBRANCH  20  21
ENDBRANCH  19  20
ENDBRANCH  18  19
ENDBRANCH  17  18
ENDBRANCH  16  17
ENDBRANCH  15  16
ENDBRANCH  14  15
ENDBRANCH  13  14
ENDBRANCH   1  13
TORSDOF 20
ENDMDL
MODEL 5
REMARK VINA RESULT:    -5.755      2.899      6.846
REMARK INTER + INTRA:         -15.624
REMARK INTER:                 -12.833
REMARK INTRA:                  -2.791
REMARK UNBOUND:                -3.140
REMARK SMILES CCCCCCCCCCCCCCCCCCCCCC(=O)[O-]
REMARK SMILES IDX 12 1 11 2 10 3 9 4 8 5 7 6 6 7 5 8 4 9 3 10 2 11 1 12 13 13
REMARK SMILES IDX 14 14 15 15 16 16 17 17 18 18 19 19 20 20 21 21 22 22 23 23
REMARK SMILES IDX 24 24
REMARK H PARENT
REMARK Flexibility Score: inf
ROOT
ATOM      1  C   UNL     1      16.404   1.212  16.375  1.00  0.00     0.000 C 
ENDROOT
BRANCH   1   2
ATOM      2  C   UNL     1      15.694   2.385  15.673  1.00  0.00     0.000 C 
BRANCH   2   3
ATOM      3  C   UNL     1      14.327   2.042  15.053  1.00  0.00     0.000 C 
BRANCH   3   4
ATOM      4  C   UNL     1      14.418   1.683  13.561  1.00  0.00    -0.000 C 
BRANCH   4   5
ATOM      5  C   UNL     1      15.511   2.507  12.863  1.00  0.00    -0.000 C 
BRANCH   5   6
ATOM      6  C   UNL     1      15.618   2.202  11.361  1.00  0.00    -0.000 C 
BRANCH   6   7
ATOM      7  C   UNL     1      17.065   1.936  10.913  1.00  0.00    -0.000 C 
BRANCH   7   8
ATOM      8  C   UNL     1      17.575   0.546  11.335  1.00  0.00    -0.000 C 
BRANCH   8   9
ATOM      9  C   UNL     1      18.445   0.522  12.608  1.00  0.00    -0.000 C 
BRANCH   9  10
ATOM     10  C   UNL     1      17.988  -0.470  13.692  1.00  0.00    -0.000 C 
BRANCH  10  11
ATOM     11  C   UNL     1      19.158  -1.215  14.349  1.00  0.00    -0.003 C 
ATOM     12  C   UNL     1      19.666  -0.467  15.577  1.00  0.00     0.004 C 
ENDBRANCH  10  11
ENDBRANCH   9  10
ENDBRANCH   8   9
ENDBRANCH   7   8
ENDBRANCH   6   7
ENDBRANCH   5   6
ENDBRANCH   4   5
ENDBRANCH   3   4
ENDBRANCH   2   3
ENDBRANCH   1   2
BRANCH   1  13
ATOM     13  C   UNL     1      15.488  -0.003  16.584  1.00  0.00     0.000 C 
BRANCH  13  14
ATOM     14  C   UNL     1      16.298  -1.308  16.563  1.00  0.00     0.000 C 
BRANCH  14  15
ATOM     15  C   UNL     1      16.593  -1.857  17.971  1.00  0.00     0.000 C 
BRANCH  15  16
ATOM     16  C   UNL     1      17.553  -1.003  18.821  1.00  0.00     0.000 C 
BRANCH  16  17
ATOM     17  C   UNL     1      16.819  -0.026  19.754  1.00  0.00     0.000 C 
BRANCH  17  18
ATOM     18  C   UNL     1      15.508  -0.606  20.319  1.00  0.00     0.000 C 
BRANCH  18  19
ATOM     19  C   UNL     1      14.429   0.435  20.670  1.00  0.00     0.000 C 
BRANCH  19  20
ATOM     20  C   UNL     1      14.633   1.779  19.949  1.00  0.00     0.006 C 
BRANCH  20  21
ATOM     21  C   UNL     1      13.635   1.978  18.801  1.00  0.00     0.053 C 
BRANCH  21  22
ATOM     22  C   UNL     1      13.413   3.430  18.507  1.00  0.00     0.041 C 
ATOM     23  O   UNL     1      13.683   4.302  19.373  1.00  0.00    -0.550 OA
ATOM     24  O   UNL     1      12.875   3.817  17.286  1.00  0.00    -0.550 OA
ENDBRANCH  21  22
ENDBRANCH  20  21
ENDBRANCH  19  20
ENDBRANCH  18  19
ENDBRANCH  17  18
ENDBRANCH  16  17
ENDBRANCH  15  16
ENDBRANCH  14  15
ENDBRANCH  13  14
ENDBRANCH   1  13
TORSDOF 20
ENDMDL
MODEL 6
REMARK VINA RESULT:    -5.726      1.458      5.727
REMARK INTER + INTRA:         -15.561
REMARK INTER:                 -12.744
REMARK INTRA:                  -2.817
REMARK UNBOUND:                -3.140
REMARK SMILES CCCCCCCCCCCCCCCCCCCCCC(=O)[O-]
REMARK SMILES IDX 12 1 11 2 10 3 9 4 8 5 7 6 6 7 5 8 4 9 3 10 2 11 1 12 13 13
REMARK SMILES IDX 14 14 15 15 16 16 17 17 18 18 19 19 20 20 21 21 22 22 23 23
REMARK SMILES IDX 24 24
REMARK H PARENT
REMARK Flexibility Score: inf
ROOT
ATOM      1  C   UNL     1      12.904   2.910  17.084  1.00  0.00     0.000 C 
ENDROOT
BRANCH   1   2
ATOM      2  C   UNL     1      13.550   2.887  15.686  1.00  0.00     0.000 C 
BRANCH   2   3
ATOM      3  C   UNL     1      14.405   1.643  15.384  1.00  0.00     0.000 C 
BRANCH   3   4
ATOM      4  C   UNL     1      15.577   1.936  14.435  1.00  0.00    -0.000 C 
BRANCH   4   5
ATOM      5  C   UNL     1      15.198   3.017  13.411  1.00  0.00    -0.000 C 
BRANCH   5   6
ATOM      6  C   UNL     1      15.768   2.737  12.012  1.00  0.00    -0.000 C 
BRANCH   6   7
ATOM      7  C   UNL     1      16.037   1.242  11.771  1.00  0.00    -0.000 C 
BRANCH   7   8
ATOM      8  C   UNL     1      17.537   0.921  11.630  1.00  0.00    -0.000 C 
BRANCH   8   9
ATOM      9  C   UNL     1      18.012  -0.342  12.376  1.00  0.00    -0.000 C 
BRANCH   9  10
ATOM     10  C   UNL     1      17.817  -0.311  13.902  1.00  0.00    -0.000 C 
BRANCH  10  11
ATOM     11  C   UNL     1      19.144  -0.342  14.673  1.00  0.00    -0.003 C 
ATOM     12  C   UNL     1      19.514  -1.766  15.075  1.00  0.00     0.004 C 
ENDBRANCH  10  11
ENDBRANCH   9  10
ENDBRANCH   8   9
ENDBRANCH   7   8
ENDBRANCH   6   7
ENDBRANCH   5   6
ENDBRANCH   4   5
ENDBRANCH   3   4
ENDBRANCH   2   3
ENDBRANCH   1   2
BRANCH   1  13
ATOM     13  C   UNL     1      13.355   4.108  17.933  1.00  0.00     0.000 C 
BRANCH  13  14
ATOM     14  C   UNL     1      13.954   3.638  19.267  1.00  0.00     0.000 C 
BRANCH  14  15
ATOM     15  C   UNL     1      14.693   2.293  19.155  1.00  0.00     0.000 C 
BRANCH  15  16
ATOM     16  C   UNL     1      14.723   1.451  20.445  1.00  0.00     0.000 C 
BRANCH  16  17
ATOM     17  C   UNL     1      14.229   0.011  20.232  1.00  0.00     0.000 C 
BRANCH  17  18
ATOM     18  C   UNL     1      13.887  -0.295  18.761  1.00  0.00     0.000 C 
BRANCH  18  19
ATOM     19  C   UNL     1      14.446  -1.625  18.222  1.00  0.00     0.000 C 
BRANCH  19  20
ATOM     20  C   UNL     1      15.984  -1.684  18.244  1.00  0.00     0.006 C 
BRANCH  20  21
ATOM     21  C   UNL     1      16.616  -0.670  17.281  1.00  0.00     0.053 C 
BRANCH  21  22
ATOM     22  C   UNL     1      17.431   0.353  18.012  1.00  0.00     0.041 C 
ATOM     23  O   UNL     1      17.789   0.149  19.201  1.00  0.00    -0.550 OA
ATOM     24  O   UNL     1      17.766   1.549  17.389  1.00  0.00    -0.550 OA
ENDBRANCH  21  22
ENDBRANCH  20  21
ENDBRANCH  19  20
ENDBRANCH  18  19
ENDBRANCH  17  18
ENDBRANCH  16  17
ENDBRANCH  15  16
ENDBRANCH  14  15
ENDBRANCH  13  14
ENDBRANCH   1  13
TORSDOF 20
ENDMDL
MODEL 7
REMARK VINA RESULT:    -5.709      2.837      7.136
REMARK INTER + INTRA:         -15.524
REMARK INTER:                 -12.812
REMARK INTRA:                  -2.712
REMARK UNBOUND:                -3.140
REMARK SMILES CCCCCCCCCCCCCCCCCCCCCC(=O)[O-]
REMARK SMILES IDX 12 1 11 2 10 3 9 4 8 5 7 6 6 7 5 8 4 9 3 10 2 11 1 12 13 13
REMARK SMILES IDX 14 14 15 15 16 16 17 17 18 18 19 19 20 20 21 21 22 22 23 23
REMARK SMILES IDX 24 24
REMARK H PARENT
REMARK Flexibility Score: inf
ROOT
ATOM      1  C   UNL     1      18.969  -1.664  15.658  1.00  0.00     0.000 C 
ENDROOT
BRANCH   1   2
ATOM      2  C   UNL     1      19.181  -0.148  15.491  1.00  0.00     0.000 C 
BRANCH   2   3
ATOM      3  C   UNL     1      18.574   0.721  16.608  1.00  0.00     0.000 C 
BRANCH   3   4
ATOM      4  C   UNL     1      17.173   1.250  16.264  1.00  0.00    -0.000 C 
BRANCH   4   5
ATOM      5  C   UNL     1      16.844   1.010  14.782  1.00  0.00    -0.000 C 
BRANCH   5   6
ATOM      6  C   UNL     1      15.413   0.492  14.567  1.00  0.00    -0.000 C 
BRANCH   6   7
ATOM      7  C   UNL     1      14.549   1.465  13.748  1.00  0.00    -0.000 C 
BRANCH   7   8
ATOM      8  C   UNL     1      15.377   2.570  13.065  1.00  0.00    -0.000 C 
BRANCH   8   9
ATOM      9  C   UNL     1      15.700   2.325  11.576  1.00  0.00    -0.000 C 
BRANCH   9  10
ATOM     10  C   UNL     1      17.177   2.019  11.271  1.00  0.00    -0.000 C 
BRANCH  10  11
ATOM     11  C   UNL     1      17.400   0.581  10.785  1.00  0.00    -0.003 C 
ATOM     12  C   UNL     1      17.775   0.552   9.307  1.00  0.00     0.004 C 
ENDBRANCH  10  11
ENDBRANCH   9  10
ENDBRANCH   8   9
ENDBRANCH   7   8
ENDBRANCH   6   7
ENDBRANCH   5   6
ENDBRANCH   4   5
ENDBRANCH   3   4
ENDBRANCH   2   3
ENDBRANCH   1   2
BRANCH   1  13
ATOM     13  C   UNL     1      18.334  -2.035  17.007  1.00  0.00     0.000 C 
BRANCH  13  14
ATOM     14  C   UNL     1      16.868  -2.455  16.823  1.00  0.00     0.000 C 
BRANCH  14  15
ATOM     15  C   UNL     1      15.909  -1.735  17.787  1.00  0.00     0.000 C 
BRANCH  15  16
ATOM     16  C   UNL     1      16.443  -1.537  19.219  1.00  0.00     0.000 C 
BRANCH  16  17
ATOM     17  C   UNL     1      16.808  -0.074  19.524  1.00  0.00     0.000 C 
BRANCH  17  18
ATOM     18  C   UNL     1      15.643   0.716  20.153  1.00  0.00     0.000 C 
BRANCH  18  19
ATOM     19  C   UNL     1      14.280   0.001  20.130  1.00  0.00     0.000 C 
BRANCH  19  20
ATOM     20  C   UNL     1      13.242   0.713  19.245  1.00  0.00     0.006 C 
BRANCH  20  21
ATOM     21  C   UNL     1      13.874   1.318  17.984  1.00  0.00     0.053 C 
BRANCH  21  22
ATOM     22  C   UNL     1      13.398   2.718  17.744  1.00  0.00     0.041 C 
ATOM     23  O   UNL     1      13.300   3.528  18.702  1.00  0.00    -0.550 OA
ATOM     24  O   UNL     1      13.032   3.118  16.465  1.00  0.00    -0.550 OA
ENDBRANCH  21  22
ENDBRANCH  20  21
ENDBRANCH  19  20
ENDBRANCH  18  19
ENDBRANCH  17  18
ENDBRANCH  16  17
ENDBRANCH  15  16
ENDBRANCH  14  15
ENDBRANCH  13  14
ENDBRANCH   1  13
TORSDOF 20
ENDMDL
MODEL 8
REMARK VINA RESULT:    -5.696      1.494      4.514
REMARK INTER + INTRA:         -15.496
REMARK INTER:                 -12.448
REMARK INTRA:                  -3.048
REMARK UNBOUND:                -3.140
REMARK SMILES CCCCCCCCCCCCCCCCCCCCCC(=O)[O-]
REMARK SMILES IDX 12 1 11 2 10 3 9 4 8 5 7 6 6 7 5 8 4 9 3 10 2 11 1 12 13 13
REMARK SMILES IDX 14 14 15 15 16 16 17 17 18 18 19 19 20 20 21 21 22 22 23 23
REMARK SMILES IDX 24 24
REMARK H PARENT
REMARK Flexibility Score: inf
ROOT
ATOM      1  C   UNL     1      16.550  -1.301  19.414  1.00  0.00     0.000 C 
ENDROOT
BRANCH   1   2
ATOM      2  C   UNL     1      16.720   0.214  19.634  1.00  0.00     0.000 C 
BRANCH   2   3
ATOM      3  C   UNL     1      15.412   0.986  19.890  1.00  0.00     0.000 C 
BRANCH   3   4
ATOM      4  C   UNL     1      14.170   0.258  19.353  1.00  0.00    -0.000 C 
BRANCH   4   5
ATOM      5  C   UNL     1      13.629   0.951  18.092  1.00  0.00    -0.000 C 
BRANCH   5   6
ATOM      6  C   UNL     1      13.913   2.461  18.076  1.00  0.00    -0.000 C 
BRANCH   6   7
ATOM      7  C   UNL     1      13.058   3.212  17.041  1.00  0.00    -0.000 C 
BRANCH   7   8
ATOM      8  C   UNL     1      13.375   2.797  15.592  1.00  0.00    -0.000 C 
BRANCH   8   9
ATOM      9  C   UNL     1      14.873   2.770  15.227  1.00  0.00    -0.000 C 
BRANCH   9  10
ATOM     10  C   UNL     1      15.184   2.955  13.732  1.00  0.00    -0.000 C 
BRANCH  10  11
ATOM     11  C   UNL     1      15.264   1.624  12.971  1.00  0.00    -0.003 C 
ATOM     12  C   UNL     1      15.844   1.823  11.575  1.00  0.00     0.004 C 
ENDBRANCH  10  11
ENDBRANCH   9  10
ENDBRANCH   8   9
ENDBRANCH   7   8
ENDBRANCH   6   7
ENDBRANCH   5   6
ENDBRANCH   4   5
ENDBRANCH   3   4
ENDBRANCH   2   3
ENDBRANCH   1   2
BRANCH   1  13
ATOM     13  C   UNL     1      17.108  -1.776  18.064  1.00  0.00     0.000 C 
BRANCH  13  14
ATOM     14  C   UNL     1      15.992  -1.869  17.013  1.00  0.00     0.000 C 
BRANCH  14  15
ATOM     15  C   UNL     1      16.161  -0.861  15.863  1.00  0.00     0.000 C 
BRANCH  15  16
ATOM     16  C   UNL     1      17.079   0.339  16.170  1.00  0.00     0.000 C 
BRANCH  16  17
ATOM     17  C   UNL     1      18.332   0.377  15.279  1.00  0.00     0.000 C 
BRANCH  17  18
ATOM     18  C   UNL     1      18.384  -0.782  14.266  1.00  0.00     0.000 C 
BRANCH  18  19
ATOM     19  C   UNL     1      19.562  -1.757  14.448  1.00  0.00     0.000 C 
BRANCH  19  20
ATOM     20  C   UNL     1      20.145  -1.737  15.871  1.00  0.00     0.006 C 
BRANCH  20  21
ATOM     21  C   UNL     1      21.520  -1.057  15.925  1.00  0.00     0.053 C 
BRANCH  21  22
ATOM     22  C   UNL     1      22.612  -2.039  16.218  1.00  0.00     0.041 C 
ATOM     23  O   UNL     1      22.617  -3.168  15.663  1.00  0.00    -0.550 OA
ATOM     24  O   UNL     1      23.607  -1.718  17.133  1.00  0.00    -0.550 OA
ENDBRANCH  21  22
ENDBRANCH  20  21
ENDBRANCH  19  20
ENDBRANCH  18  19
ENDBRANCH  17  18
ENDBRANCH  16  17
ENDBRANCH  15  16
ENDBRANCH  14  15
ENDBRANCH  13  14
ENDBRANCH   1  13
TORSDOF 20
ENDMDL
MODEL 9
REMARK VINA RESULT:    -5.642      2.064      6.690
REMARK INTER + INTRA:         -15.378
REMARK INTER:                 -12.924
REMARK INTRA:                  -2.454
REMARK UNBOUND:                -3.140
REMARK SMILES CCCCCCCCCCCCCCCCCCCCCC(=O)[O-]
REMARK SMILES IDX 12 1 11 2 10 3 9 4 8 5 7 6 6 7 5 8 4 9 3 10 2 11 1 12 13 13
REMARK SMILES IDX 14 14 15 15 16 16 17 17 18 18 19 19 20 20 21 21 22 22 23 23
REMARK SMILES IDX 24 24
REMARK H PARENT
REMARK Flexibility Score: inf
ROOT
ATOM      1  C   UNL     1      14.912   2.991  16.639  1.00  0.00     0.000 C 
ENDROOT
BRANCH   1   2
ATOM      2  C   UNL     1      13.783   2.696  15.634  1.00  0.00     0.000 C 
BRANCH   2   3
ATOM      3  C   UNL     1      14.165   1.744  14.486  1.00  0.00     0.000 C 
BRANCH   3   4
ATOM      4  C   UNL     1      15.538   2.061  13.875  1.00  0.00    -0.000 C 
BRANCH   4   5
ATOM      5  C   UNL     1      15.390   2.894  12.592  1.00  0.00    -0.000 C 
BRANCH   5   6
ATOM      6  C   UNL     1      16.101   2.262  11.386  1.00  0.00    -0.000 C 
BRANCH   6   7
ATOM      7  C   UNL     1      17.001   1.079  11.784  1.00  0.00    -0.000 C 
BRANCH   7   8
ATOM      8  C   UNL     1      17.466   0.249  10.572  1.00  0.00    -0.000 C 
BRANCH   8   9
ATOM      9  C   UNL     1      17.758   1.059   9.293  1.00  0.00    -0.000 C 
BRANCH   9  10
ATOM     10  C   UNL     1      18.353   0.248   8.129  1.00  0.00    -0.000 C 
BRANCH  10  11
ATOM     11  C   UNL     1      19.178   1.109   7.162  1.00  0.00    -0.003 C 
ATOM     12  C   UNL     1      20.526   0.463   6.865  1.00  0.00     0.004 C 
ENDBRANCH  10  11
ENDBRANCH   9  10
ENDBRANCH   8   9
ENDBRANCH   7   8
ENDBRANCH   6   7
ENDBRANCH   5   6
ENDBRANCH   4   5
ENDBRANCH   3   4
ENDBRANCH   2   3
ENDBRANCH   1   2
BRANCH   1  13
ATOM     13  C   UNL     1      14.519   2.676  18.091  1.00  0.00     0.000 C 
BRANCH  13  14
ATOM     14  C   UNL     1      13.721   1.366  18.169  1.00  0.00     0.000 C 
BRANCH  14  15
ATOM     15  C   UNL     1      14.240   0.407  19.255  1.00  0.00     0.000 C 
BRANCH  15  16
ATOM     16  C   UNL     1      15.606   0.780  19.862  1.00  0.00     0.000 C 
BRANCH  16  17
ATOM     17  C   UNL     1      16.686  -0.284  19.606  1.00  0.00     0.000 C 
BRANCH  17  18
ATOM     18  C   UNL     1      16.172  -1.471  18.767  1.00  0.00     0.000 C 
BRANCH  18  19
ATOM     19  C   UNL     1      16.865  -1.658  17.405  1.00  0.00     0.000 C 
BRANCH  19  20
ATOM     20  C   UNL     1      16.499  -0.563  16.388  1.00  0.00     0.006 C 
BRANCH  20  21
ATOM     21  C   UNL     1      17.650   0.426  16.162  1.00  0.00     0.053 C 
BRANCH  21  22
ATOM     22  C   UNL     1      18.783  -0.207  15.413  1.00  0.00     0.041 C 
ATOM     23  O   UNL     1      19.958  -0.135  15.857  1.00  0.00    -0.550 OA
ATOM     24  O   UNL     1      18.544  -0.848  14.204  1.00  0.00    -0.550 OA
ENDBRANCH  21  22
ENDBRANCH  20  21
ENDBRANCH  19  20
ENDBRANCH  18  19
ENDBRANCH  17  18
ENDBRANCH  16  17
ENDBRANCH  15  16
ENDBRANCH  14  15
ENDBRANCH  13  14
ENDBRANCH   1  13
TORSDOF 20
ENDMDL
