MODEL 1
REMARK VINA RESULT:    -5.415      0.000      0.000
REMARK INTER + INTRA:         -11.040
REMARK INTER:                  -9.847
REMARK INTRA:                  -1.192
REMARK UNBOUND:                -1.192
REMARK SMILES CCCCCCCCCCCCCCCC(=O)[O-]
REMARK SMILES IDX 9 1 10 2 11 3 12 4 13 5 14 6 15 7 16 8 17 9 18 10 8 11 7 12
REMARK SMILES IDX 6 13 5 14 4 15 3 16 2 17 1 18
REMARK H PARENT
REMARK Flexibility Score: inf
ROOT
ATOM      1  C   UNL     1       4.310  11.400  19.259  1.00  0.00     0.000 C 
ENDROOT
BRANCH   1   2
ATOM      2  C   UNL     1       3.601  10.072  18.942  1.00  0.00     0.000 C 
BRANCH   2   3
ATOM      3  C   UNL     1       2.557  10.213  17.821  1.00  0.00     0.000 C 
BRANCH   3   4
ATOM      4  C   UNL     1       2.039   8.856  17.312  1.00  0.00     0.000 C 
BRANCH   4   5
ATOM      5  C   UNL     1       0.757   8.346  17.996  1.00  0.00     0.000 C 
BRANCH   5   6
ATOM      6  C   UNL     1       0.525   6.839  17.789  1.00  0.00     0.006 C 
BRANCH   6   7
ATOM      7  C   UNL     1       0.222   6.113  19.108  1.00  0.00     0.053 C 
BRANCH   7   8
ATOM      8  C   UNL     1       1.045   4.871  19.261  1.00  0.00     0.041 C 
ATOM      9  O   UNL     1       1.292   4.412  20.409  1.00  0.00    -0.550 OA
ATOM     10  O   UNL     1       1.566   4.237  18.140  1.00  0.00    -0.550 OA
ENDBRANCH   7   8
ENDBRANCH   6   7
ENDBRANCH   5   6
ENDBRANCH   4   5
ENDBRANCH   3   4
ENDBRANCH   2   3
ENDBRANCH   1   2
BRANCH   1  11
ATOM     11  C   UNL     1       5.733  11.460  18.677  1.00  0.00     0.000 C 
BRANCH  11  12
ATOM     12  C   UNL     1       5.764  11.258  17.152  1.00  0.00    -0.000 C 
BRANCH  12  13
ATOM     13  C   UNL     1       5.494  12.527  16.316  1.00  0.00    -0.000 C 
BRANCH  13  14
ATOM     14  C   UNL     1       4.018  12.764  15.946  1.00  0.00    -0.000 C 
BRANCH  14  15
ATOM     15  C   UNL     1       3.754  12.649  14.437  1.00  0.00    -0.000 C 
BRANCH  15  16
ATOM     16  C   UNL     1       2.940  11.386  14.117  1.00  0.00    -0.000 C 
BRANCH  16  17
ATOM     17  C   UNL     1       3.751  10.095  14.314  1.00  0.00    -0.003 C 
ATOM     18  C   UNL     1       3.370   8.999  13.319  1.00  0.00     0.004 C 
ENDBRANCH  16  17
ENDBRANCH  15  16
ENDBRANCH  14  15
ENDBRANCH  13  14
ENDBRANCH  12  13
ENDBRANCH  11  12
ENDBRANCH   1  11
TORSDOF 14
ENDMDL
MODEL 2
REMARK VINA RESULT:    -5.299      3.297      6.624
REMARK INTER + INTRA:         -10.828
REMARK INTER:                  -9.500
REMARK INTRA:                  -1.328
REMARK UNBOUND:                -1.192
REMARK SMILES CCCCCCCCCCCCCCCC(=O)[O-]
REMARK SMILES IDX 9 1 10 2 11 3 12 4 13 5 14 6 15 7 16 8 17 9 18 10 8 11 7 12
REMARK SMILES IDX 6 13 5 14 4 15 3 16 2 17 1 18
REMARK H PARENT
REMARK Flexibility Score: inf
ROOT
ATOM      1  C   UNL     1       3.907  12.080  19.062  1.00  0.00     0.000 C 
ENDROOT
BRANCH   1   2
ATOM      2  C   UNL     1       5.038  11.107  19.437  1.00  0.00     0.000 C 
BRANCH   2   3
ATOM      3  C   UNL     1       6.313  11.334  18.607  1.00  0.00     0.000 C 
BRANCH   3   4
ATOM      4  C   UNL     1       6.021  11.586  17.117  1.00  0.00     0.000 C 
BRANCH   4   5
ATOM      5  C   UNL     1       5.489  10.368  16.339  1.00  0.00     0.000 C 
BRANCH   5   6
ATOM      6  C   UNL     1       4.422  10.742  15.296  1.00  0.00     0.006 C 
BRANCH   6   7
ATOM      7  C   UNL     1       4.195  12.258  15.219  1.00  0.00     0.053 C 
BRANCH   7   8
ATOM      8  C   UNL     1       2.869  12.592  14.605  1.00  0.00     0.041 C 
ATOM      9  O   UNL     1       2.348  11.813  13.762  1.00  0.00    -0.550 OA
ATOM     10  O   UNL     1       2.225  13.776  14.940  1.00  0.00    -0.550 OA
ENDBRANCH   7   8
ENDBRANCH   6   7
ENDBRANCH   5   6
ENDBRANCH   4   5
ENDBRANCH   3   4
ENDBRANCH   2   3
ENDBRANCH   1   2
BRANCH   1  11
ATOM     11  C   UNL     1       2.713  11.368  18.403  1.00  0.00     0.000 C 
BRANCH  11  12
ATOM     12  C   UNL     1       2.770   9.838  18.558  1.00  0.00    -0.000 C 
BRANCH  12  13
ATOM     13  C   UNL     1       2.031   9.039  17.464  1.00  0.00    -0.000 C 
BRANCH  13  14
ATOM     14  C   UNL     1       0.708   8.390  17.910  1.00  0.00    -0.000 C 
BRANCH  14  15
ATOM     15  C   UNL     1       0.699   6.865  17.731  1.00  0.00    -0.000 C 
BRANCH  15  16
ATOM     16  C   UNL     1       0.122   6.170  18.974  1.00  0.00    -0.000 C 
BRANCH  16  17
ATOM     17  C   UNL     1       0.471   4.674  19.030  1.00  0.00    -0.003 C 
ATOM     18  C   UNL     1       1.612   4.368  19.999  1.00  0.00     0.004 C 
ENDBRANCH  16  17
ENDBRANCH  15  16
ENDBRANCH  14  15
ENDBRANCH  13  14
ENDBRANCH  12  13
ENDBRANCH  11  12
ENDBRANCH   1  11
TORSDOF 14
ENDMDL
MODEL 3
REMARK VINA RESULT:    -5.293      2.584      6.220
REMARK INTER + INTRA:         -10.818
REMARK INTER:                  -9.870
REMARK INTRA:                  -0.947
REMARK UNBOUND:                -1.192
REMARK SMILES CCCCCCCCCCCCCCCC(=O)[O-]
REMARK SMILES IDX 9 1 10 2 11 3 12 4 13 5 14 6 15 7 16 8 17 9 18 10 8 11 7 12
REMARK SMILES IDX 6 13 5 14 4 15 3 16 2 17 1 18
REMARK H PARENT
REMARK Flexibility Score: inf
ROOT
ATOM      1  C   UNL     1       4.751  11.483  19.244  1.00  0.00     0.000 C 
ENDROOT
BRANCH   1   2
ATOM      2  C   UNL     1       6.000  11.170  18.402  1.00  0.00     0.000 C 
BRANCH   2   3
ATOM      3  C   UNL     1       5.716  11.198  16.890  1.00  0.00     0.000 C 
BRANCH   3   4
ATOM      4  C   UNL     1       5.432  12.614  16.360  1.00  0.00     0.000 C 
BRANCH   4   5
ATOM      5  C   UNL     1       4.054  12.801  15.695  1.00  0.00     0.000 C 
BRANCH   5   6
ATOM      6  C   UNL     1       3.980  12.183  14.288  1.00  0.00     0.006 C 
BRANCH   6   7
ATOM      7  C   UNL     1       3.067  10.949  14.245  1.00  0.00     0.053 C 
BRANCH   7   8
ATOM      8  C   UNL     1       3.750   9.773  13.616  1.00  0.00     0.041 C 
ATOM      9  O   UNL     1       4.981   9.822  13.353  1.00  0.00    -0.550 OA
ATOM     10  O   UNL     1       3.021   8.636  13.292  1.00  0.00    -0.550 OA
ENDBRANCH   7   8
ENDBRANCH   6   7
ENDBRANCH   5   6
ENDBRANCH   4   5
ENDBRANCH   3   4
ENDBRANCH   2   3
ENDBRANCH   1   2
BRANCH   1  11
ATOM     11  C   UNL     1       3.698  10.363  19.171  1.00  0.00     0.000 C 
BRANCH  11  12
ATOM     12  C   UNL     1       2.784  10.482  17.940  1.00  0.00    -0.000 C 
BRANCH  12  13
ATOM     13  C   UNL     1       2.294   9.141  17.353  1.00  0.00    -0.000 C 
BRANCH  13  14
ATOM     14  C   UNL     1       1.096   8.507  18.084  1.00  0.00    -0.000 C 
BRANCH  14  15
ATOM     15  C   UNL     1       0.866   7.039  17.693  1.00  0.00    -0.000 C 
BRANCH  15  16
ATOM     16  C   UNL     1       0.199   6.264  18.839  1.00  0.00    -0.000 C 
BRANCH  16  17
ATOM     17  C   UNL     1       0.587   4.777  18.852  1.00  0.00    -0.003 C 
ATOM     18  C   UNL     1       1.410   4.391  20.080  1.00  0.00     0.004 C 
ENDBRANCH  16  17
ENDBRANCH  15  16
ENDBRANCH  14  15
ENDBRANCH  13  14
ENDBRANCH  12  13
ENDBRANCH  11  12
ENDBRANCH   1  11
TORSDOF 14
ENDMDL
MODEL 4
REMARK VINA RESULT:    -5.111      0.946      1.514
REMARK INTER + INTRA:         -10.487
REMARK INTER:                  -9.176
REMARK INTRA:                  -1.311
REMARK UNBOUND:                -1.192
REMARK SMILES CCCCCCCCCCCCCCCC(=O)[O-]
REMARK SMILES IDX 9 1 10 2 11 3 12 4 13 5 14 6 15 7 16 8 17 9 18 10 8 11 7 12
REMARK SMILES IDX 6 13 5 14 4 15 3 16 2 17 1 18
REMARK H PARENT
REMARK Flexibility Score: inf
ROOT
ATOM      1  C   UNL     1       3.749  10.368  19.273  1.00  0.00     0.000 C 
ENDROOT
BRANCH   1   2
ATOM      2  C   UNL     1       2.730  10.433  18.124  1.00  0.00     0.000 C 
BRANCH   2   3
ATOM      3  C   UNL     1       3.141   9.568  16.919  1.00  0.00     0.000 C 
BRANCH   3   4
ATOM      4  C   UNL     1       2.306   8.282  16.793  1.00  0.00     0.000 C 
BRANCH   4   5
ATOM      5  C   UNL     1       1.127   8.168  17.777  1.00  0.00     0.000 C 
BRANCH   5   6
ATOM      6  C   UNL     1       0.445   6.789  17.739  1.00  0.00     0.006 C 
BRANCH   6   7
ATOM      7  C   UNL     1       0.274   6.189  19.142  1.00  0.00     0.053 C 
BRANCH   7   8
ATOM      8  C   UNL     1       1.009   4.890  19.286  1.00  0.00     0.041 C 
ATOM      9  O   UNL     1       1.183   4.384  20.426  1.00  0.00    -0.550 OA
ATOM     10  O   UNL     1       1.526   4.256  18.164  1.00  0.00    -0.550 OA
ENDBRANCH   7   8
ENDBRANCH   6   7
ENDBRANCH   5   6
ENDBRANCH   4   5
ENDBRANCH   3   4
ENDBRANCH   2   3
ENDBRANCH   1   2
BRANCH   1  11
ATOM     11  C   UNL     1       4.702  11.576  19.284  1.00  0.00     0.000 C 
BRANCH  11  12
ATOM     12  C   UNL     1       6.098  11.241  18.729  1.00  0.00    -0.000 C 
BRANCH  12  13
ATOM     13  C   UNL     1       6.478  11.971  17.424  1.00  0.00    -0.000 C 
BRANCH  13  14
ATOM     14  C   UNL     1       5.512  11.747  16.245  1.00  0.00    -0.000 C 
BRANCH  14  15
ATOM     15  C   UNL     1       4.977  13.059  15.652  1.00  0.00    -0.000 C 
BRANCH  15  16
ATOM     16  C   UNL     1       3.445  13.119  15.747  1.00  0.00    -0.000 C 
BRANCH  16  17
ATOM     17  C   UNL     1       2.763  13.002  14.374  1.00  0.00    -0.003 C 
ATOM     18  C   UNL     1       2.637  11.556  13.898  1.00  0.00     0.004 C 
ENDBRANCH  16  17
ENDBRANCH  15  16
ENDBRANCH  14  15
ENDBRANCH  13  14
ENDBRANCH  12  13
ENDBRANCH  11  12
ENDBRANCH   1  11
TORSDOF 14
ENDMDL
MODEL 5
REMARK VINA RESULT:    -4.996      2.762      6.593
REMARK INTER + INTRA:         -10.277
REMARK INTER:                  -9.076
REMARK INTRA:                  -1.201
REMARK UNBOUND:                -1.192
REMARK SMILES CCCCCCCCCCCCCCCC(=O)[O-]
REMARK SMILES IDX 9 1 10 2 11 3 12 4 13 5 14 6 15 7 16 8 17 9 18 10 8 11 7 12
REMARK SMILES IDX 6 13 5 14 4 15 3 16 2 17 1 18
REMARK H PARENT
REMARK Flexibility Score: inf
ROOT
ATOM      1  C   UNL     1       3.934  10.012  15.506  1.00  0.00     0.000 C 
ENDROOT
BRANCH   1   2
ATOM      2  C   UNL     1       3.484  10.781  14.253  1.00  0.00     0.000 C 
BRANCH   2   3
ATOM      3  C   UNL     1       3.256  12.278  14.529  1.00  0.00     0.000 C 
BRANCH   3   4
ATOM      4  C   UNL     1       3.968  12.767  15.802  1.00  0.00     0.000 C 
BRANCH   4   5
ATOM      5  C   UNL     1       3.034  13.173  16.959  1.00  0.00     0.000 C 
BRANCH   5   6
ATOM      6  C   UNL     1       3.362  12.449  18.276  1.00  0.00     0.006 C 
BRANCH   6   7
ATOM      7  C   UNL     1       4.804  11.921  18.303  1.00  0.00     0.053 C 
BRANCH   7   8
ATOM      8  C   UNL     1       5.110  11.203  19.582  1.00  0.00     0.041 C 
ATOM      9  O   UNL     1       4.209  10.549  20.172  1.00  0.00    -0.550 OA
ATOM     10  O   UNL     1       6.380  11.280  20.137  1.00  0.00    -0.550 OA
ENDBRANCH   7   8
ENDBRANCH   6   7
ENDBRANCH   5   6
ENDBRANCH   4   5
ENDBRANCH   3   4
ENDBRANCH   2   3
ENDBRANCH   1   2
BRANCH   1  11
ATOM     11  C   UNL     1       2.896   8.972  15.963  1.00  0.00     0.000 C 
BRANCH  11  12
ATOM     12  C   UNL     1       2.427   9.193  17.411  1.00  0.00    -0.000 C 
BRANCH  12  13
ATOM     13  C   UNL     1       1.030   8.628  17.743  1.00  0.00    -0.000 C 
BRANCH  13  14
ATOM     14  C   UNL     1       0.917   7.093  17.691  1.00  0.00    -0.000 C 
BRANCH  14  15
ATOM     15  C   UNL     1       0.205   6.504  18.918  1.00  0.00    -0.000 C 
BRANCH  15  16
ATOM     16  C   UNL     1       0.323   4.972  18.938  1.00  0.00    -0.000 C 
BRANCH  16  17
ATOM     17  C   UNL     1       1.144   4.458  20.132  1.00  0.00    -0.003 C 
ATOM     18  C   UNL     1       2.425   3.742  19.705  1.00  0.00     0.004 C 
ENDBRANCH  16  17
ENDBRANCH  15  16
ENDBRANCH  14  15
ENDBRANCH  13  14
ENDBRANCH  12  13
ENDBRANCH  11  12
ENDBRANCH   1  11
TORSDOF 14
ENDMDL
MODEL 6
REMARK VINA RESULT:    -4.875      1.106      3.374
REMARK INTER + INTRA:         -10.057
REMARK INTER:                  -9.065
REMARK INTRA:                  -0.993
REMARK UNBOUND:                -1.192
REMARK SMILES CCCCCCCCCCCCCCCC(=O)[O-]
REMARK SMILES IDX 9 1 10 2 11 3 12 4 13 5 14 6 15 7 16 8 17 9 18 10 8 11 7 12
REMARK SMILES IDX 6 13 5 14 4 15 3 16 2 17 1 18
REMARK H PARENT
REMARK Flexibility Score: inf
ROOT
ATOM      1  C   UNL     1       3.479   9.716  14.483  1.00  0.00     0.000 C 
ENDROOT
BRANCH   1   2
ATOM      2  C   UNL     1       3.416   9.636  16.018  1.00  0.00     0.000 C 
BRANCH   2   3
ATOM      3  C   UNL     1       2.567   8.452  16.513  1.00  0.00     0.000 C 
BRANCH   3   4
ATOM      4  C   UNL     1       1.671   8.818  17.709  1.00  0.00     0.000 C 
BRANCH   4   5
ATOM      5  C   UNL     1       0.369   8.002  17.825  1.00  0.00     0.000 C 
BRANCH   5   6
ATOM      6  C   UNL     1       0.484   6.828  18.814  1.00  0.00     0.006 C 
BRANCH   6   7
ATOM      7  C   UNL     1       0.674   5.484  18.096  1.00  0.00     0.053 C 
BRANCH   7   8
ATOM      8  C   UNL     1       1.221   4.434  19.015  1.00  0.00     0.041 C 
ATOM      9  O   UNL     1       1.216   4.620  20.261  1.00  0.00    -0.550 OA
ATOM     10  O   UNL     1       1.762   3.266  18.494  1.00  0.00    -0.550 OA
ENDBRANCH   7   8
ENDBRANCH   6   7
ENDBRANCH   5   6
ENDBRANCH   4   5
ENDBRANCH   3   4
ENDBRANCH   2   3
ENDBRANCH   1   2
BRANCH   1  11
ATOM     11  C   UNL     1       3.136  11.120  13.953  1.00  0.00     0.000 C 
BRANCH  11  12
ATOM     12  C   UNL     1       3.945  12.233  14.642  1.00  0.00    -0.000 C 
BRANCH  12  13
ATOM     13  C   UNL     1       3.103  13.372  15.256  1.00  0.00    -0.000 C 
BRANCH  13  14
ATOM     14  C   UNL     1       2.960  13.325  16.788  1.00  0.00    -0.000 C 
BRANCH  14  15
ATOM     15  C   UNL     1       3.883  12.288  17.444  1.00  0.00    -0.000 C 
BRANCH  15  16
ATOM     16  C   UNL     1       3.400  11.941  18.861  1.00  0.00    -0.000 C 
BRANCH  16  17
ATOM     17  C   UNL     1       4.291  10.896  19.550  1.00  0.00    -0.003 C 
ATOM     18  C   UNL     1       5.764  11.301  19.580  1.00  0.00     0.004 C 
ENDBRANCH  16  17
ENDBRANCH  15  16
ENDBRANCH  14  15
ENDBRANCH  13  14
ENDBRANCH  12  13
ENDBRANCH  11  12
ENDBRANCH   1  11
TORSDOF 14
ENDMDL
MODEL 7
REMARK VINA RESULT:    -4.423      1.168      3.948
REMARK INTER + INTRA:          -9.234
REMARK INTER:                  -7.877
REMARK INTRA:                  -1.357
REMARK UNBOUND:                -1.192
REMARK SMILES CCCCCCCCCCCCCCCC(=O)[O-]
REMARK SMILES IDX 9 1 10 2 11 3 12 4 13 5 14 6 15 7 16 8 17 9 18 10 8 11 7 12
REMARK SMILES IDX 6 13 5 14 4 15 3 16 2 17 1 18
REMARK H PARENT
REMARK Flexibility Score: inf
ROOT
ATOM      1  C   UNL     1       2.604  11.152  13.840  1.00  0.00     0.000 C 
ENDROOT
BRANCH   1   2
ATOM      2  C   UNL     1       3.477   9.887  13.875  1.00  0.00     0.000 C 
BRANCH   2   3
ATOM      3  C   UNL     1       3.948   9.533  15.296  1.00  0.00     0.000 C 
BRANCH   3   4
ATOM      4  C   UNL     1       2.952   8.637  16.052  1.00  0.00     0.000 C 
BRANCH   4   5
ATOM      5  C   UNL     1       2.275   9.293  17.270  1.00  0.00     0.000 C 
BRANCH   5   6
ATOM      6  C   UNL     1       1.075   8.486  17.797  1.00  0.00     0.006 C 
BRANCH   6   7
ATOM      7  C   UNL     1       1.127   7.017  17.353  1.00  0.00     0.053 C 
BRANCH   7   8
ATOM      8  C   UNL     1       0.540   6.103  18.385  1.00  0.00     0.041 C 
ATOM      9  O   UNL     1       0.927   4.907  18.466  1.00  0.00    -0.550 OA
ATOM     10  O   UNL     1      -0.455   6.563  19.237  1.00  0.00    -0.550 OA
ENDBRANCH   7   8
ENDBRANCH   6   7
ENDBRANCH   5   6
ENDBRANCH   4   5
ENDBRANCH   3   4
ENDBRANCH   2   3
ENDBRANCH   1   2
BRANCH   1  11
ATOM     11  C   UNL     1       3.424  12.438  14.047  1.00  0.00     0.000 C 
BRANCH  11  12
ATOM     12  C   UNL     1       3.002  13.218  15.305  1.00  0.00    -0.000 C 
BRANCH  12  13
ATOM     13  C   UNL     1       3.876  12.973  16.554  1.00  0.00    -0.000 C 
BRANCH  13  14
ATOM     14  C   UNL     1       5.268  12.381  16.271  1.00  0.00    -0.000 C 
BRANCH  14  15
ATOM     15  C   UNL     1       5.944  11.813  17.528  1.00  0.00    -0.000 C 
BRANCH  15  16
ATOM     16  C   UNL     1       4.941  11.017  18.377  1.00  0.00    -0.000 C 
BRANCH  16  17
ATOM     17  C   UNL     1       5.177  11.188  19.886  1.00  0.00    -0.003 C 
ATOM     18  C   UNL     1       6.653  11.088  20.269  1.00  0.00     0.004 C 
ENDBRANCH  16  17
ENDBRANCH  15  16
ENDBRANCH  14  15
ENDBRANCH  13  14
ENDBRANCH  12  13
ENDBRANCH  11  12
ENDBRANCH   1  11
TORSDOF 14
ENDMDL
MODEL 8
REMARK VINA RESULT:    -4.290      1.153      1.914
REMARK INTER + INTRA:          -8.994
REMARK INTER:                  -7.801
REMARK INTRA:                  -1.193
REMARK UNBOUND:                -1.192
REMARK SMILES CCCCCCCCCCCCCCCC(=O)[O-]
REMARK SMILES IDX 9 1 10 2 11 3 12 4 13 5 14 6 15 7 16 8 17 9 18 10 8 11 7 12
REMARK SMILES IDX 6 13 5 14 4 15 3 16 2 17 1 18
REMARK H PARENT
REMARK Flexibility Score: inf
ROOT
ATOM      1  C   UNL     1       5.979  11.108  18.504  1.00  0.00     0.000 C 
ENDROOT
BRANCH   1   2
ATOM      2  C   UNL     1       4.975  11.665  19.527  1.00  0.00     0.000 C 
BRANCH   2   3
ATOM      3  C   UNL     1       3.515  11.506  19.069  1.00  0.00     0.000 C 
BRANCH   3   4
ATOM      4  C   UNL     1       3.135  10.043  18.780  1.00  0.00     0.000 C 
BRANCH   4   5
ATOM      5  C   UNL     1       2.510   9.791  17.394  1.00  0.00     0.000 C 
BRANCH   5   6
ATOM      6  C   UNL     1       1.998   8.350  17.220  1.00  0.00     0.006 C 
BRANCH   6   7
ATOM      7  C   UNL     1       0.587   8.164  17.798  1.00  0.00     0.053 C 
BRANCH   7   8
ATOM      8  C   UNL     1       0.363   6.762  18.276  1.00  0.00     0.041 C 
ATOM      9  O   UNL     1      -0.334   6.547  19.304  1.00  0.00    -0.550 OA
ATOM     10  O   UNL     1       0.949   5.695  17.606  1.00  0.00    -0.550 OA
ENDBRANCH   7   8
ENDBRANCH   6   7
ENDBRANCH   5   6
ENDBRANCH   4   5
ENDBRANCH   3   4
ENDBRANCH   2   3
ENDBRANCH   1   2
BRANCH   1  11
ATOM     11  C   UNL     1       6.152  12.033  17.286  1.00  0.00     0.000 C 
BRANCH  11  12
ATOM     12  C   UNL     1       5.180  11.701  16.141  1.00  0.00    -0.000 C 
BRANCH  12  13
ATOM     13  C   UNL     1       4.657  12.918  15.349  1.00  0.00    -0.000 C 
BRANCH  13  14
ATOM     14  C   UNL     1       3.431  12.641  14.459  1.00  0.00    -0.000 C 
BRANCH  14  15
ATOM     15  C   UNL     1       3.012  11.163  14.461  1.00  0.00    -0.000 C 
BRANCH  15  16
ATOM     16  C   UNL     1       3.620  10.419  13.263  1.00  0.00    -0.000 C 
BRANCH  16  17
ATOM     17  C   UNL     1       4.124   9.015  13.633  1.00  0.00    -0.003 C 
ATOM     18  C   UNL     1       3.124   7.915  13.280  1.00  0.00     0.004 C 
ENDBRANCH  16  17
ENDBRANCH  15  16
ENDBRANCH  14  15
ENDBRANCH  13  14
ENDBRANCH  12  13
ENDBRANCH  11  12
ENDBRANCH   1  11
TORSDOF 14
ENDMDL
MODEL 9
REMARK VINA RESULT:    -4.057      2.612      5.474
REMARK INTER + INTRA:          -8.569
REMARK INTER:                  -7.091
REMARK INTRA:                  -1.478
REMARK UNBOUND:                -1.192
REMARK SMILES CCCCCCCCCCCCCCCC(=O)[O-]
REMARK SMILES IDX 9 1 10 2 11 3 12 4 13 5 14 6 15 7 16 8 17 9 18 10 8 11 7 12
REMARK SMILES IDX 6 13 5 14 4 15 3 16 2 17 1 18
REMARK H PARENT
REMARK Flexibility Score: inf
ROOT
ATOM      1  C   UNL     1       6.062  12.247  17.014  1.00  0.00     0.000 C 
ENDROOT
BRANCH   1   2
ATOM      2  C   UNL     1       5.205  12.775  15.851  1.00  0.00     0.000 C 
BRANCH   2   3
ATOM      3  C   UNL     1       3.857  13.349  16.323  1.00  0.00     0.000 C 
BRANCH   3   4
ATOM      4  C   UNL     1       2.789  13.356  15.215  1.00  0.00     0.000 C 
BRANCH   4   5
ATOM      5  C   UNL     1       3.153  12.555  13.950  1.00  0.00     0.000 C 
BRANCH   5   6
ATOM      6  C   UNL     1       2.543  11.143  13.938  1.00  0.00     0.006 C 
BRANCH   6   7
ATOM      7  C   UNL     1       3.497  10.096  14.531  1.00  0.00     0.053 C 
BRANCH   7   8
ATOM      8  C   UNL     1       3.918   9.085  13.508  1.00  0.00     0.041 C 
ATOM      9  O   UNL     1       3.148   8.137  13.200  1.00  0.00    -0.550 OA
ATOM     10  O   UNL     1       5.172   9.173  12.919  1.00  0.00    -0.550 OA
ENDBRANCH   7   8
ENDBRANCH   6   7
ENDBRANCH   5   6
ENDBRANCH   4   5
ENDBRANCH   3   4
ENDBRANCH   2   3
ENDBRANCH   1   2
BRANCH   1  11
ATOM     11  C   UNL     1       5.570  10.886  17.536  1.00  0.00     0.000 C 
BRANCH  11  12
ATOM     12  C   UNL     1       5.071  10.949  18.991  1.00  0.00    -0.000 C 
BRANCH  12  13
ATOM     13  C   UNL     1       3.663  10.363  19.228  1.00  0.00    -0.000 C 
BRANCH  13  14
ATOM     14  C   UNL     1       2.748  10.339  17.990  1.00  0.00    -0.000 C 
BRANCH  14  15
ATOM     15  C   UNL     1       2.361   8.916  17.560  1.00  0.00    -0.000 C 
BRANCH  15  16
ATOM     16  C   UNL     1       0.849   8.689  17.712  1.00  0.00    -0.000 C 
BRANCH  16  17
ATOM     17  C   UNL     1       0.519   7.437  18.539  1.00  0.00    -0.003 C 
ATOM     18  C   UNL     1       0.707   6.140  17.752  1.00  0.00     0.004 C 
ENDBRANCH  16  17
ENDBRANCH  15  16
ENDBRANCH  14  15
ENDBRANCH  13  14
ENDBRANCH  12  13
ENDBRANCH  11  12
ENDBRANCH   1  11
TORSDOF 14
ENDMDL
