MODEL 1
REMARK VINA RESULT:    -2.620      0.000      0.000
REMARK INTER + INTRA:         -13.344
REMARK INTER:                  -6.910
REMARK INTRA:                  -6.434
REMARK UNBOUND:                -6.434
REMARK SMILES CCCCCCCCCCCCCCCCCCCCCCCCCCCCCC(=O)[O-]
REMARK SMILES IDX 16 1 17 2 18 3 19 4 20 5 21 6 22 7 23 8 24 9 25 10 26 11
REMARK SMILES IDX 27 12 28 13 29 14 30 15 31 16 32 17 15 18 14 19 13 20 12 21
REMARK SMILES IDX 11 22 10 23 9 24 8 25 7 26 6 27 5 28 4 29 3 30 2 31 1 32
REMARK H PARENT
REMARK Flexibility Score: inf
ROOT
ATOM      1  C   UNL     1     149.565 165.952 152.522  1.00  0.00     0.000 C 
ENDROOT
BRANCH   1   2
ATOM      2  C   UNL     1     149.975 164.568 153.055  1.00  0.00     0.000 C 
BRANCH   2   3
ATOM      3  C   UNL     1     150.510 164.678 154.490  1.00  0.00     0.000 C 
BRANCH   3   4
ATOM      4  C   UNL     1     149.540 164.102 155.540  1.00  0.00     0.000 C 
BRANCH   4   5
ATOM      5  C   UNL     1     148.287 163.415 154.963  1.00  0.00     0.000 C 
BRANCH   5   6
ATOM      6  C   UNL     1     147.027 163.489 155.848  1.00  0.00     0.000 C 
BRANCH   6   7
ATOM      7  C   UNL     1     146.651 162.150 156.518  1.00  0.00     0.000 C 
BRANCH   7   8
ATOM      8  C   UNL     1     147.368 160.950 155.882  1.00  0.00     0.000 C 
BRANCH   8   9
ATOM      9  C   UNL     1     148.093 160.110 156.943  1.00  0.00     0.000 C 
BRANCH   9  10
ATOM     10  C   UNL     1     149.481 159.634 156.481  1.00  0.00     0.000 C 
BRANCH  10  11
ATOM     11  C   UNL     1     149.778 159.867 154.986  1.00  0.00     0.000 C 
BRANCH  11  12
ATOM     12  C   UNL     1     151.019 160.749 154.754  1.00  0.00     0.000 C 
BRANCH  12  13
ATOM     13  C   UNL     1     152.345 160.012 155.029  1.00  0.00     0.006 C 
BRANCH  13  14
ATOM     14  C   UNL     1     152.659 158.894 154.017  1.00  0.00     0.053 C 
BRANCH  14  15
ATOM     15  C   UNL     1     152.603 157.526 154.630  1.00  0.00     0.041 C 
ATOM     16  O   UNL     1     151.518 156.887 154.659  1.00  0.00    -0.550 OA
ATOM     17  O   UNL     1     153.746 156.962 155.186  1.00  0.00    -0.550 OA
ENDBRANCH  14  15
ENDBRANCH  13  14
ENDBRANCH  12  13
ENDBRANCH  11  12
ENDBRANCH  10  11
ENDBRANCH   9  10
ENDBRANCH   8   9
ENDBRANCH   7   8
ENDBRANCH   6   7
ENDBRANCH   5   6
ENDBRANCH   4   5
ENDBRANCH   3   4
ENDBRANCH   2   3
ENDBRANCH   1   2
BRANCH   1  18
ATOM     18  C   UNL     1     148.178 165.948 151.863  1.00  0.00     0.000 C 
BRANCH  18  19
ATOM     19  C   UNL     1     147.038 166.206 152.864  1.00  0.00     0.000 C 
BRANCH  19  20
ATOM     20  C   UNL     1     145.884 165.194 152.715  1.00  0.00     0.000 C 
BRANCH  20  21
ATOM     21  C   UNL     1     146.170 164.059 151.717  1.00  0.00     0.000 C 
BRANCH  21  22
ATOM     22  C   UNL     1     145.893 162.661 152.300  1.00  0.00     0.000 C 
BRANCH  22  23
ATOM     23  C   UNL     1     146.651 161.537 151.563  1.00  0.00     0.000 C 
BRANCH  23  24
ATOM     24  C   UNL     1     147.968 161.111 152.241  1.00  0.00    -0.000 C 
BRANCH  24  25
ATOM     25  C   UNL     1     149.254 161.606 151.555  1.00  0.00    -0.000 C 
BRANCH  25  26
ATOM     26  C   UNL     1     150.010 160.482 150.825  1.00  0.00    -0.000 C 
BRANCH  26  27
ATOM     27  C   UNL     1     151.533 160.577 151.017  1.00  0.00    -0.000 C 
BRANCH  27  28
ATOM     28  C   UNL     1     151.989 162.010 151.343  1.00  0.00    -0.000 C 
BRANCH  28  29
ATOM     29  C   UNL     1     152.356 162.825 150.088  1.00  0.00    -0.000 C 
BRANCH  29  30
ATOM     30  C   UNL     1     151.458 164.049 149.814  1.00  0.00    -0.000 C 
BRANCH  30  31
ATOM     31  C   UNL     1     150.533 163.917 148.589  1.00  0.00    -0.003 C 
ATOM     32  C   UNL     1     149.051 164.027 148.943  1.00  0.00     0.004 C 
ENDBRANCH  30  31
ENDBRANCH  29  30
ENDBRANCH  28  29
ENDBRANCH  27  28
ENDBRANCH  26  27
ENDBRANCH  25  26
ENDBRANCH  24  25
ENDBRANCH  23  24
ENDBRANCH  22  23
ENDBRANCH  21  22
ENDBRANCH  20  21
ENDBRANCH  19  20
ENDBRANCH  18  19
ENDBRANCH   1  18
TORSDOF 28
ENDMDL
MODEL 2
REMARK VINA RESULT:    -2.533      3.076      6.233
REMARK INTER + INTRA:         -13.112
REMARK INTER:                  -7.702
REMARK INTRA:                  -5.410
REMARK UNBOUND:                -6.434
REMARK SMILES CCCCCCCCCCCCCCCCCCCCCCCCCCCCCC(=O)[O-]
REMARK SMILES IDX 16 1 17 2 18 3 19 4 20 5 21 6 22 7 23 8 24 9 25 10 26 11
REMARK SMILES IDX 27 12 28 13 29 14 30 15 31 16 32 17 15 18 14 19 13 20 12 21
REMARK SMILES IDX 11 22 10 23 9 24 8 25 7 26 6 27 5 28 4 29 3 30 2 31 1 32
REMARK H PARENT
REMARK Flexibility Score: inf
ROOT
ATOM      1  C   UNL     1     148.462 164.689 154.716  1.00  0.00     0.000 C 
ENDROOT
BRANCH   1   2
ATOM      2  C   UNL     1     147.422 165.810 154.890  1.00  0.00     0.000 C 
BRANCH   2   3
ATOM      3  C   UNL     1     146.661 166.050 153.579  1.00  0.00     0.000 C 
BRANCH   3   4
ATOM      4  C   UNL     1     147.165 165.168 152.420  1.00  0.00     0.000 C 
BRANCH   4   5
ATOM      5  C   UNL     1     146.096 164.264 151.776  1.00  0.00     0.000 C 
BRANCH   5   6
ATOM      6  C   UNL     1     146.619 162.941 151.183  1.00  0.00     0.000 C 
BRANCH   6   7
ATOM      7  C   UNL     1     146.601 161.758 152.174  1.00  0.00     0.000 C 
BRANCH   7   8
ATOM      8  C   UNL     1     148.007 161.359 152.644  1.00  0.00     0.000 C 
BRANCH   8   9
ATOM      9  C   UNL     1     148.885 160.925 151.462  1.00  0.00     0.000 C 
BRANCH   9  10
ATOM     10  C   UNL     1     150.217 161.694 151.394  1.00  0.00     0.000 C 
BRANCH  10  11
ATOM     11  C   UNL     1     150.201 163.073 152.083  1.00  0.00     0.000 C 
BRANCH  11  12
ATOM     12  C   UNL     1     151.473 163.343 152.908  1.00  0.00     0.000 C 
BRANCH  12  13
ATOM     13  C   UNL     1     152.321 164.504 152.350  1.00  0.00     0.006 C 
BRANCH  13  14
ATOM     14  C   UNL     1     152.559 165.642 153.359  1.00  0.00     0.053 C 
BRANCH  14  15
ATOM     15  C   UNL     1     151.670 166.826 153.117  1.00  0.00     0.041 C 
ATOM     16  O   UNL     1     150.511 166.664 152.650  1.00  0.00    -0.550 OA
ATOM     17  O   UNL     1     152.125 168.111 153.389  1.00  0.00    -0.550 OA
ENDBRANCH  14  15
ENDBRANCH  13  14
ENDBRANCH  12  13
ENDBRANCH  11  12
ENDBRANCH  10  11
ENDBRANCH   9  10
ENDBRANCH   8   9
ENDBRANCH   7   8
ENDBRANCH   6   7
ENDBRANCH   5   6
ENDBRANCH   4   5
ENDBRANCH   3   4
ENDBRANCH   2   3
ENDBRANCH   1   2
BRANCH   1  18
ATOM     18  C   UNL     1     148.201 163.488 155.635  1.00  0.00     0.000 C 
BRANCH  18  19
ATOM     19  C   UNL     1     146.717 163.082 155.685  1.00  0.00     0.000 C 
BRANCH  19  20
ATOM     20  C   UNL     1     146.435 162.014 156.761  1.00  0.00     0.000 C 
BRANCH  20  21
ATOM     21  C   UNL     1     147.302 160.749 156.632  1.00  0.00     0.000 C 
BRANCH  21  22
ATOM     22  C   UNL     1     146.948 159.670 157.672  1.00  0.00     0.000 C 
BRANCH  22  23
ATOM     23  C   UNL     1     148.121 158.710 157.969  1.00  0.00     0.000 C 
BRANCH  23  24
ATOM     24  C   UNL     1     148.967 159.104 159.195  1.00  0.00    -0.000 C 
BRANCH  24  25
ATOM     25  C   UNL     1     150.454 159.377 158.910  1.00  0.00    -0.000 C 
BRANCH  25  26
ATOM     26  C   UNL     1     150.823 159.180 157.428  1.00  0.00    -0.000 C 
BRANCH  26  27
ATOM     27  C   UNL     1     151.247 160.493 156.749  1.00  0.00    -0.000 C 
BRANCH  27  28
ATOM     28  C   UNL     1     150.600 160.665 155.363  1.00  0.00    -0.000 C 
BRANCH  28  29
ATOM     29  C   UNL     1     150.141 159.330 154.744  1.00  0.00    -0.000 C 
BRANCH  29  30
ATOM     30  C   UNL     1     151.074 158.755 153.658  1.00  0.00    -0.000 C 
BRANCH  30  31
ATOM     31  C   UNL     1     151.572 157.320 153.920  1.00  0.00    -0.003 C 
ATOM     32  C   UNL     1     152.202 156.669 152.691  1.00  0.00     0.004 C 
ENDBRANCH  30  31
ENDBRANCH  29  30
ENDBRANCH  28  29
ENDBRANCH  27  28
ENDBRANCH  26  27
ENDBRANCH  25  26
ENDBRANCH  24  25
ENDBRANCH  23  24
ENDBRANCH  22  23
ENDBRANCH  21  22
ENDBRANCH  20  21
ENDBRANCH  19  20
ENDBRANCH  18  19
ENDBRANCH   1  18
TORSDOF 28
ENDMDL
MODEL 3
REMARK VINA RESULT:    -2.532      2.206      5.137
REMARK INTER + INTRA:         -13.111
REMARK INTER:                  -7.606
REMARK INTRA:                  -5.504
REMARK UNBOUND:                -6.434
REMARK SMILES CCCCCCCCCCCCCCCCCCCCCCCCCCCCCC(=O)[O-]
REMARK SMILES IDX 16 1 17 2 18 3 19 4 20 5 21 6 22 7 23 8 24 9 25 10 26 11
REMARK SMILES IDX 27 12 28 13 29 14 30 15 31 16 32 17 15 18 14 19 13 20 12 21
REMARK SMILES IDX 11 22 10 23 9 24 8 25 7 26 6 27 5 28 4 29 3 30 2 31 1 32
REMARK H PARENT
REMARK Flexibility Score: inf
ROOT
ATOM      1  C   UNL     1     150.514 162.500 149.659  1.00  0.00     0.000 C 
ENDROOT
BRANCH   1   2
ATOM      2  C   UNL     1     150.726 161.955 151.082  1.00  0.00     0.000 C 
BRANCH   2   3
ATOM      3  C   UNL     1     150.458 160.444 151.129  1.00  0.00     0.000 C 
BRANCH   3   4
ATOM      4  C   UNL     1     150.340 159.898 152.565  1.00  0.00     0.000 C 
BRANCH   4   5
ATOM      5  C   UNL     1     151.584 160.110 153.448  1.00  0.00     0.000 C 
BRANCH   5   6
ATOM      6  C   UNL     1     152.447 158.855 153.686  1.00  0.00     0.000 C 
BRANCH   6   7
ATOM      7  C   UNL     1     151.635 157.547 153.799  1.00  0.00     0.000 C 
BRANCH   7   8
ATOM      8  C   UNL     1     152.044 156.700 155.012  1.00  0.00     0.000 C 
BRANCH   8   9
ATOM      9  C   UNL     1     152.177 157.566 156.273  1.00  0.00     0.000 C 
BRANCH   9  10
ATOM     10  C   UNL     1     150.825 157.840 156.955  1.00  0.00     0.000 C 
BRANCH  10  11
ATOM     11  C   UNL     1     150.400 159.322 156.973  1.00  0.00     0.000 C 
BRANCH  11  12
ATOM     12  C   UNL     1     149.112 159.585 156.171  1.00  0.00     0.000 C 
BRANCH  12  13
ATOM     13  C   UNL     1     147.938 160.058 157.051  1.00  0.00     0.006 C 
BRANCH  13  14
ATOM     14  C   UNL     1     146.985 158.928 157.479  1.00  0.00     0.053 C 
BRANCH  14  15
ATOM     15  C   UNL     1     147.153 158.544 158.920  1.00  0.00     0.041 C 
ATOM     16  O   UNL     1     147.141 159.428 159.818  1.00  0.00    -0.550 OA
ATOM     17  O   UNL     1     147.340 157.213 159.273  1.00  0.00    -0.550 OA
ENDBRANCH  14  15
ENDBRANCH  13  14
ENDBRANCH  12  13
ENDBRANCH  11  12
ENDBRANCH  10  11
ENDBRANCH   9  10
ENDBRANCH   8   9
ENDBRANCH   7   8
ENDBRANCH   6   7
ENDBRANCH   5   6
ENDBRANCH   4   5
ENDBRANCH   3   4
ENDBRANCH   2   3
ENDBRANCH   1   2
BRANCH   1  18
ATOM     18  C   UNL     1     149.356 163.505 149.573  1.00  0.00     0.000 C 
BRANCH  18  19
ATOM     19  C   UNL     1     148.520 163.567 150.864  1.00  0.00     0.000 C 
BRANCH  19  20
ATOM     20  C   UNL     1     147.003 163.505 150.585  1.00  0.00     0.000 C 
BRANCH  20  21
ATOM     21  C   UNL     1     146.220 162.624 151.575  1.00  0.00     0.000 C 
BRANCH  21  22
ATOM     22  C   UNL     1     147.094 161.544 152.240  1.00  0.00     0.000 C 
BRANCH  22  23
ATOM     23  C   UNL     1     147.180 161.696 153.773  1.00  0.00     0.000 C 
BRANCH  23  24
ATOM     24  C   UNL     1     148.378 162.533 154.261  1.00  0.00    -0.000 C 
BRANCH  24  25
ATOM     25  C   UNL     1     148.021 163.770 155.103  1.00  0.00    -0.000 C 
BRANCH  25  26
ATOM     26  C   UNL     1     146.526 164.130 155.027  1.00  0.00    -0.000 C 
BRANCH  26  27
ATOM     27  C   UNL     1     146.262 165.361 154.143  1.00  0.00    -0.000 C 
BRANCH  27  28
ATOM     28  C   UNL     1     147.565 166.013 153.650  1.00  0.00    -0.000 C 
BRANCH  28  29
ATOM     29  C   UNL     1     147.416 166.691 152.274  1.00  0.00    -0.000 C 
BRANCH  29  30
ATOM     30  C   UNL     1     148.741 167.079 151.586  1.00  0.00    -0.000 C 
BRANCH  30  31
ATOM     31  C   UNL     1     150.015 166.610 152.314  1.00  0.00    -0.003 C 
ATOM     32  C   UNL     1     151.175 166.317 151.365  1.00  0.00     0.004 C 
ENDBRANCH  30  31
ENDBRANCH  29  30
ENDBRANCH  28  29
ENDBRANCH  27  28
ENDBRANCH  26  27
ENDBRANCH  25  26
ENDBRANCH  24  25
ENDBRANCH  23  24
ENDBRANCH  22  23
ENDBRANCH  21  22
ENDBRANCH  20  21
ENDBRANCH  19  20
ENDBRANCH  18  19
ENDBRANCH   1  18
TORSDOF 28
ENDMDL
MODEL 4
REMARK VINA RESULT:    -2.517      2.993      5.313
REMARK INTER + INTRA:         -13.072
REMARK INTER:                  -6.774
REMARK INTRA:                  -6.298
REMARK UNBOUND:                -6.434
REMARK SMILES CCCCCCCCCCCCCCCCCCCCCCCCCCCCCC(=O)[O-]
REMARK SMILES IDX 16 1 17 2 18 3 19 4 20 5 21 6 22 7 23 8 24 9 25 10 26 11
REMARK SMILES IDX 27 12 28 13 29 14 30 15 31 16 32 17 15 18 14 19 13 20 12 21
REMARK SMILES IDX 11 22 10 23 9 24 8 25 7 26 6 27 5 28 4 29 3 30 2 31 1 32
REMARK H PARENT
REMARK Flexibility Score: inf
ROOT
ATOM      1  C   UNL     1     146.458 165.030 155.924  1.00  0.00     0.000 C 
ENDROOT
BRANCH   1   2
ATOM      2  C   UNL     1     147.396 163.848 155.623  1.00  0.00     0.000 C 
BRANCH   2   3
ATOM      3  C   UNL     1     146.588 162.574 155.338  1.00  0.00     0.000 C 
BRANCH   3   4
ATOM      4  C   UNL     1     146.702 162.105 153.874  1.00  0.00     0.000 C 
BRANCH   4   5
ATOM      5  C   UNL     1     148.103 162.249 153.250  1.00  0.00     0.000 C 
BRANCH   5   6
ATOM      6  C   UNL     1     148.187 161.950 151.740  1.00  0.00     0.000 C 
BRANCH   6   7
ATOM      7  C   UNL     1     149.238 162.796 150.990  1.00  0.00     0.000 C 
BRANCH   7   8
ATOM      8  C   UNL     1     149.980 163.772 151.915  1.00  0.00     0.000 C 
BRANCH   8   9
ATOM      9  C   UNL     1     151.467 163.408 152.027  1.00  0.00     0.000 C 
BRANCH   9  10
ATOM     10  C   UNL     1     152.042 163.673 153.430  1.00  0.00     0.000 C 
BRANCH  10  11
ATOM     11  C   UNL     1     151.084 164.405 154.392  1.00  0.00     0.000 C 
BRANCH  11  12
ATOM     12  C   UNL     1     150.815 163.612 155.684  1.00  0.00     0.000 C 
BRANCH  12  13
ATOM     13  C   UNL     1     151.907 162.570 155.993  1.00  0.00     0.006 C 
BRANCH  13  14
ATOM     14  C   UNL     1     152.678 162.843 157.298  1.00  0.00     0.053 C 
BRANCH  14  15
ATOM     15  C   UNL     1     153.814 163.804 157.108  1.00  0.00     0.041 C 
ATOM     16  O   UNL     1     154.100 164.635 158.010  1.00  0.00    -0.550 OA
ATOM     17  O   UNL     1     154.547 163.797 155.927  1.00  0.00    -0.550 OA
ENDBRANCH  14  15
ENDBRANCH  13  14
ENDBRANCH  12  13
ENDBRANCH  11  12
ENDBRANCH  10  11
ENDBRANCH   9  10
ENDBRANCH   8   9
ENDBRANCH   7   8
ENDBRANCH   6   7
ENDBRANCH   5   6
ENDBRANCH   4   5
ENDBRANCH   3   4
ENDBRANCH   2   3
ENDBRANCH   1   2
BRANCH   1  18
ATOM     18  C   UNL     1     146.633 166.194 154.939  1.00  0.00     0.000 C 
BRANCH  18  19
ATOM     19  C   UNL     1     147.715 165.924 153.878  1.00  0.00     0.000 C 
BRANCH  19  20
ATOM     20  C   UNL     1     147.230 166.241 152.448  1.00  0.00     0.000 C 
BRANCH  20  21
ATOM     21  C   UNL     1     146.222 165.223 151.888  1.00  0.00     0.000 C 
BRANCH  21  22
ATOM     22  C   UNL     1     146.283 165.099 150.354  1.00  0.00     0.000 C 
BRANCH  22  23
ATOM     23  C   UNL     1     146.231 166.464 149.635  1.00  0.00     0.000 C 
BRANCH  23  24
ATOM     24  C   UNL     1     147.463 166.766 148.760  1.00  0.00    -0.000 C 
BRANCH  24  25
ATOM     25  C   UNL     1     148.661 165.822 148.959  1.00  0.00    -0.000 C 
BRANCH  25  26
ATOM     26  C   UNL     1     149.873 166.524 149.599  1.00  0.00    -0.000 C 
BRANCH  26  27
ATOM     27  C   UNL     1     149.625 168.022 149.841  1.00  0.00    -0.000 C 
BRANCH  27  28
ATOM     28  C   UNL     1     150.019 168.453 151.264  1.00  0.00    -0.000 C 
BRANCH  28  29
ATOM     29  C   UNL     1     150.797 167.364 152.029  1.00  0.00    -0.000 C 
BRANCH  29  30
ATOM     30  C   UNL     1     151.900 167.885 152.972  1.00  0.00    -0.000 C 
BRANCH  30  31
ATOM     31  C   UNL     1     153.227 167.103 152.919  1.00  0.00    -0.003 C 
ATOM     32  C   UNL     1     154.300 167.678 153.840  1.00  0.00     0.004 C 
ENDBRANCH  30  31
ENDBRANCH  29  30
ENDBRANCH  28  29
ENDBRANCH  27  28
ENDBRANCH  26  27
ENDBRANCH  25  26
ENDBRANCH  24  25
ENDBRANCH  23  24
ENDBRANCH  22  23
ENDBRANCH  21  22
ENDBRANCH  20  21
ENDBRANCH  19  20
ENDBRANCH  18  19
ENDBRANCH   1  18
TORSDOF 28
ENDMDL
MODEL 5
REMARK VINA RESULT:    -2.516      2.022      4.804
REMARK INTER + INTRA:         -13.069
REMARK INTER:                  -7.088
REMARK INTRA:                  -5.982
REMARK UNBOUND:                -6.434
REMARK SMILES CCCCCCCCCCCCCCCCCCCCCCCCCCCCCC(=O)[O-]
REMARK SMILES IDX 16 1 17 2 18 3 19 4 20 5 21 6 22 7 23 8 24 9 25 10 26 11
REMARK SMILES IDX 27 12 28 13 29 14 30 15 31 16 32 17 15 18 14 19 13 20 12 21
REMARK SMILES IDX 11 22 10 23 9 24 8 25 7 26 6 27 5 28 4 29 3 30 2 31 1 32
REMARK H PARENT
REMARK Flexibility Score: inf
ROOT
ATOM      1  C   UNL     1     149.218 165.265 154.123  1.00  0.00     0.000 C 
ENDROOT
BRANCH   1   2
ATOM      2  C   UNL     1     147.680 165.219 154.083  1.00  0.00     0.000 C 
BRANCH   2   3
ATOM      3  C   UNL     1     147.154 164.020 154.884  1.00  0.00     0.000 C 
BRANCH   3   4
ATOM      4  C   UNL     1     146.202 163.123 154.069  1.00  0.00     0.000 C 
BRANCH   4   5
ATOM      5  C   UNL     1     145.876 163.634 152.653  1.00  0.00     0.000 C 
BRANCH   5   6
ATOM      6  C   UNL     1     146.272 162.689 151.502  1.00  0.00     0.000 C 
BRANCH   6   7
ATOM      7  C   UNL     1     146.941 161.378 151.968  1.00  0.00     0.000 C 
BRANCH   7   8
ATOM      8  C   UNL     1     148.413 161.282 151.542  1.00  0.00     0.000 C 
BRANCH   8   9
ATOM      9  C   UNL     1     149.273 160.667 152.656  1.00  0.00     0.000 C 
BRANCH   9  10
ATOM     10  C   UNL     1     149.862 161.724 153.607  1.00  0.00     0.000 C 
BRANCH  10  11
ATOM     11  C   UNL     1     149.597 161.464 155.103  1.00  0.00     0.000 C 
BRANCH  11  12
ATOM     12  C   UNL     1     148.583 160.330 155.342  1.00  0.00     0.000 C 
BRANCH  12  13
ATOM     13  C   UNL     1     147.797 160.489 156.659  1.00  0.00     0.006 C 
BRANCH  13  14
ATOM     14  C   UNL     1     146.980 159.245 157.051  1.00  0.00     0.053 C 
BRANCH  14  15
ATOM     15  C   UNL     1     147.610 158.466 158.167  1.00  0.00     0.041 C 
ATOM     16  O   UNL     1     148.835 158.171 158.124  1.00  0.00    -0.550 OA
ATOM     17  O   UNL     1     146.844 158.047 159.249  1.00  0.00    -0.550 OA
ENDBRANCH  14  15
ENDBRANCH  13  14
ENDBRANCH  12  13
ENDBRANCH  11  12
ENDBRANCH  10  11
ENDBRANCH   9  10
ENDBRANCH   8   9
ENDBRANCH   7   8
ENDBRANCH   6   7
ENDBRANCH   5   6
ENDBRANCH   4   5
ENDBRANCH   3   4
ENDBRANCH   2   3
ENDBRANCH   1   2
BRANCH   1  18
ATOM     18  C   UNL     1     149.834 165.728 152.795  1.00  0.00     0.000 C 
BRANCH  18  19
ATOM     19  C   UNL     1     149.190 165.056 151.569  1.00  0.00     0.000 C 
BRANCH  19  20
ATOM     20  C   UNL     1     150.235 164.406 150.638  1.00  0.00     0.000 C 
BRANCH  20  21
ATOM     21  C   UNL     1     149.662 163.923 149.294  1.00  0.00     0.000 C 
BRANCH  21  22
ATOM     22  C   UNL     1     150.466 162.760 148.683  1.00  0.00     0.000 C 
BRANCH  22  23
ATOM     23  C   UNL     1     151.311 161.996 149.724  1.00  0.00     0.000 C 
BRANCH  23  24
ATOM     24  C   UNL     1     151.870 160.650 149.223  1.00  0.00    -0.000 C 
BRANCH  24  25
ATOM     25  C   UNL     1     151.154 159.398 149.758  1.00  0.00    -0.000 C 
BRANCH  25  26
ATOM     26  C   UNL     1     151.949 158.684 150.866  1.00  0.00    -0.000 C 
BRANCH  26  27
ATOM     27  C   UNL     1     153.461 158.941 150.763  1.00  0.00    -0.000 C 
BRANCH  27  28
ATOM     28  C   UNL     1     154.021 159.623 152.023  1.00  0.00    -0.000 C 
BRANCH  28  29
ATOM     29  C   UNL     1     152.944 159.885 153.095  1.00  0.00    -0.000 C 
BRANCH  29  30
ATOM     30  C   UNL     1     153.120 159.098 154.409  1.00  0.00    -0.000 C 
BRANCH  30  31
ATOM     31  C   UNL     1     151.826 158.492 154.984  1.00  0.00    -0.003 C 
ATOM     32  C   UNL     1     151.616 157.033 154.584  1.00  0.00     0.004 C 
ENDBRANCH  30  31
ENDBRANCH  29  30
ENDBRANCH  28  29
ENDBRANCH  27  28
ENDBRANCH  26  27
ENDBRANCH  25  26
ENDBRANCH  24  25
ENDBRANCH  23  24
ENDBRANCH  22  23
ENDBRANCH  21  22
ENDBRANCH  20  21
ENDBRANCH  19  20
ENDBRANCH  18  19
ENDBRANCH   1  18
TORSDOF 28
ENDMDL
MODEL 6
REMARK VINA RESULT:    -2.508      5.210      9.979
REMARK INTER + INTRA:         -13.048
REMARK INTER:                  -6.892
REMARK INTRA:                  -6.156
REMARK UNBOUND:                -6.434
REMARK SMILES CCCCCCCCCCCCCCCCCCCCCCCCCCCCCC(=O)[O-]
REMARK SMILES IDX 16 1 17 2 18 3 19 4 20 5 21 6 22 7 23 8 24 9 25 10 26 11
REMARK SMILES IDX 27 12 28 13 29 14 30 15 31 16 32 17 15 18 14 19 13 20 12 21
REMARK SMILES IDX 11 22 10 23 9 24 8 25 7 26 6 27 5 28 4 29 3 30 2 31 1 32
REMARK H PARENT
REMARK Flexibility Score: inf
ROOT
ATOM      1  C   UNL     1     150.030 157.151 158.692  1.00  0.00     0.000 C 
ENDROOT
BRANCH   1   2
ATOM      2  C   UNL     1     148.801 156.227 158.649  1.00  0.00     0.000 C 
BRANCH   2   3
ATOM      3  C   UNL     1     148.073 156.230 160.000  1.00  0.00     0.000 C 
BRANCH   3   4
ATOM      4  C   UNL     1     146.545 156.372 159.860  1.00  0.00     0.000 C 
BRANCH   4   5
ATOM      5  C   UNL     1     145.881 157.316 160.881  1.00  0.00     0.000 C 
BRANCH   5   6
ATOM      6  C   UNL     1     146.835 157.948 161.914  1.00  0.00     0.000 C 
BRANCH   6   7
ATOM      7  C   UNL     1     146.651 159.470 162.090  1.00  0.00     0.000 C 
BRANCH   7   8
ATOM      8  C   UNL     1     147.210 160.273 160.907  1.00  0.00     0.000 C 
BRANCH   8   9
ATOM      9  C   UNL     1     146.091 161.015 160.162  1.00  0.00     0.000 C 
BRANCH   9  10
ATOM     10  C   UNL     1     146.068 160.701 158.655  1.00  0.00     0.000 C 
BRANCH  10  11
ATOM     11  C   UNL     1     147.086 159.636 158.203  1.00  0.00     0.000 C 
BRANCH  11  12
ATOM     12  C   UNL     1     147.678 159.929 156.812  1.00  0.00     0.000 C 
BRANCH  12  13
ATOM     13  C   UNL     1     147.234 161.289 156.239  1.00  0.00     0.006 C 
BRANCH  13  14
ATOM     14  C   UNL     1     148.056 161.752 155.022  1.00  0.00     0.053 C 
BRANCH  14  15
ATOM     15  C   UNL     1     149.204 162.639 155.404  1.00  0.00     0.041 C 
ATOM     16  O   UNL     1     150.352 162.152 155.581  1.00  0.00    -0.550 OA
ATOM     17  O   UNL     1     149.005 164.004 155.581  1.00  0.00    -0.550 OA
ENDBRANCH  14  15
ENDBRANCH  13  14
ENDBRANCH  12  13
ENDBRANCH  11  12
ENDBRANCH  10  11
ENDBRANCH   9  10
ENDBRANCH   8   9
ENDBRANCH   7   8
ENDBRANCH   6   7
ENDBRANCH   5   6
ENDBRANCH   4   5
ENDBRANCH   3   4
ENDBRANCH   2   3
ENDBRANCH   1   2
BRANCH   1  18
ATOM     18  C   UNL     1     149.990 158.138 159.867  1.00  0.00     0.000 C 
BRANCH  18  19
ATOM     19  C   UNL     1     150.630 159.497 159.529  1.00  0.00     0.000 C 
BRANCH  19  20
ATOM     20  C   UNL     1     151.928 159.750 160.324  1.00  0.00     0.000 C 
BRANCH  20  21
ATOM     21  C   UNL     1     151.875 160.990 161.234  1.00  0.00     0.000 C 
BRANCH  21  22
ATOM     22  C   UNL     1     150.614 161.032 162.117  1.00  0.00     0.000 C 
BRANCH  22  23
ATOM     23  C   UNL     1     150.795 160.298 163.463  1.00  0.00     0.000 C 
BRANCH  23  24
ATOM     24  C   UNL     1     150.028 158.965 163.566  1.00  0.00    -0.000 C 
BRANCH  24  25
ATOM     25  C   UNL     1     150.876 157.698 163.365  1.00  0.00    -0.000 C 
BRANCH  25  26
ATOM     26  C   UNL     1     150.021 156.438 163.138  1.00  0.00    -0.000 C 
BRANCH  26  27
ATOM     27  C   UNL     1     150.775 155.346 162.363  1.00  0.00    -0.000 C 
BRANCH  27  28
ATOM     28  C   UNL     1     152.298 155.436 162.568  1.00  0.00    -0.000 C 
BRANCH  28  29
ATOM     29  C   UNL     1     153.092 154.592 161.551  1.00  0.00    -0.000 C 
BRANCH  29  30
ATOM     30  C   UNL     1     152.954 155.035 160.080  1.00  0.00    -0.000 C 
BRANCH  30  31
ATOM     31  C   UNL     1     153.411 156.477 159.788  1.00  0.00    -0.003 C 
ATOM     32  C   UNL     1     153.703 156.727 158.310  1.00  0.00     0.004 C 
ENDBRANCH  30  31
ENDBRANCH  29  30
ENDBRANCH  28  29
ENDBRANCH  27  28
ENDBRANCH  26  27
ENDBRANCH  25  26
ENDBRANCH  24  25
ENDBRANCH  23  24
ENDBRANCH  22  23
ENDBRANCH  21  22
ENDBRANCH  20  21
ENDBRANCH  19  20
ENDBRANCH  18  19
ENDBRANCH   1  18
TORSDOF 28
ENDMDL
MODEL 7
REMARK VINA RESULT:    -2.471      2.208      5.320
REMARK INTER + INTRA:         -12.949
REMARK INTER:                  -6.777
REMARK INTRA:                  -6.172
REMARK UNBOUND:                -6.434
REMARK SMILES CCCCCCCCCCCCCCCCCCCCCCCCCCCCCC(=O)[O-]
REMARK SMILES IDX 16 1 17 2 18 3 19 4 20 5 21 6 22 7 23 8 24 9 25 10 26 11
REMARK SMILES IDX 27 12 28 13 29 14 30 15 31 16 32 17 15 18 14 19 13 20 12 21
REMARK SMILES IDX 11 22 10 23 9 24 8 25 7 26 6 27 5 28 4 29 3 30 2 31 1 32
REMARK H PARENT
REMARK Flexibility Score: inf
ROOT
ATOM      1  C   UNL     1     146.165 165.683 153.492  1.00  0.00     0.000 C 
ENDROOT
BRANCH   1   2
ATOM      2  C   UNL     1     146.717 166.012 154.890  1.00  0.00     0.000 C 
BRANCH   2   3
ATOM      3  C   UNL     1     146.511 164.827 155.845  1.00  0.00     0.000 C 
BRANCH   3   4
ATOM      4  C   UNL     1     147.169 163.528 155.342  1.00  0.00     0.000 C 
BRANCH   4   5
ATOM      5  C   UNL     1     148.689 163.433 155.576  1.00  0.00     0.000 C 
BRANCH   5   6
ATOM      6  C   UNL     1     149.564 163.646 154.325  1.00  0.00     0.000 C 
BRANCH   6   7
ATOM      7  C   UNL     1     150.162 165.064 154.210  1.00  0.00     0.000 C 
BRANCH   7   8
ATOM      8  C   UNL     1     151.053 165.231 152.971  1.00  0.00     0.000 C 
BRANCH   8   9
ATOM      9  C   UNL     1     151.527 163.870 152.442  1.00  0.00     0.000 C 
BRANCH   9  10
ATOM     10  C   UNL     1     151.907 163.909 150.951  1.00  0.00     0.000 C 
BRANCH  10  11
ATOM     11  C   UNL     1     150.918 164.679 150.053  1.00  0.00     0.000 C 
BRANCH  11  12
ATOM     12  C   UNL     1     150.297 163.798 148.955  1.00  0.00     0.000 C 
BRANCH  12  13
ATOM     13  C   UNL     1     150.611 162.299 149.132  1.00  0.00     0.006 C 
BRANCH  13  14
ATOM     14  C   UNL     1     151.497 161.711 148.019  1.00  0.00     0.053 C 
BRANCH  14  15
ATOM     15  C   UNL     1     152.396 160.617 148.512  1.00  0.00     0.041 C 
ATOM     16  O   UNL     1     152.147 159.414 148.231  1.00  0.00    -0.550 OA
ATOM     17  O   UNL     1     153.503 160.921 149.297  1.00  0.00    -0.550 OA
ENDBRANCH  14  15
ENDBRANCH  13  14
ENDBRANCH  12  13
ENDBRANCH  11  12
ENDBRANCH  10  11
ENDBRANCH   9  10
ENDBRANCH   8   9
ENDBRANCH   7   8
ENDBRANCH   6   7
ENDBRANCH   5   6
ENDBRANCH   4   5
ENDBRANCH   3   4
ENDBRANCH   2   3
ENDBRANCH   1   2
BRANCH   1  18
ATOM     18  C   UNL     1     147.201 165.895 152.379  1.00  0.00     0.000 C 
BRANCH  18  19
ATOM     19  C   UNL     1     146.914 165.050 151.125  1.00  0.00     0.000 C 
BRANCH  19  20
ATOM     20  C   UNL     1     147.568 163.654 151.193  1.00  0.00     0.000 C 
BRANCH  20  21
ATOM     21  C   UNL     1     146.613 162.536 151.648  1.00  0.00     0.000 C 
BRANCH  21  22
ATOM     22  C   UNL     1     147.338 161.382 152.365  1.00  0.00     0.000 C 
BRANCH  22  23
ATOM     23  C   UNL     1     148.687 161.017 151.710  1.00  0.00     0.000 C 
BRANCH  23  24
ATOM     24  C   UNL     1     149.673 160.295 152.650  1.00  0.00    -0.000 C 
BRANCH  24  25
ATOM     25  C   UNL     1     151.157 160.409 152.263  1.00  0.00    -0.000 C 
BRANCH  25  26
ATOM     26  C   UNL     1     151.988 159.198 152.723  1.00  0.00    -0.000 C 
BRANCH  26  27
ATOM     27  C   UNL     1     151.133 158.132 153.429  1.00  0.00    -0.000 C 
BRANCH  27  28
ATOM     28  C   UNL     1     151.886 157.456 154.587  1.00  0.00    -0.000 C 
BRANCH  28  29
ATOM     29  C   UNL     1     151.541 158.059 155.963  1.00  0.00    -0.000 C 
BRANCH  29  30
ATOM     30  C   UNL     1     150.246 158.897 156.007  1.00  0.00    -0.000 C 
BRANCH  30  31
ATOM     31  C   UNL     1     150.424 160.344 156.504  1.00  0.00    -0.003 C 
ATOM     32  C   UNL     1     151.677 161.019 155.951  1.00  0.00     0.004 C 
ENDBRANCH  30  31
ENDBRANCH  29  30
ENDBRANCH  28  29
ENDBRANCH  27  28
ENDBRANCH  26  27
ENDBRANCH  25  26
ENDBRANCH  24  25
ENDBRANCH  23  24
ENDBRANCH  22  23
ENDBRANCH  21  22
ENDBRANCH  20  21
ENDBRANCH  19  20
ENDBRANCH  18  19
ENDBRANCH   1  18
TORSDOF 28
ENDMDL
MODEL 8
REMARK VINA RESULT:    -2.450      3.127      7.420
REMARK INTER + INTRA:         -12.895
REMARK INTER:                  -7.630
REMARK INTRA:                  -5.265
REMARK UNBOUND:                -6.434
REMARK SMILES CCCCCCCCCCCCCCCCCCCCCCCCCCCCCC(=O)[O-]
REMARK SMILES IDX 16 1 17 2 18 3 19 4 20 5 21 6 22 7 23 8 24 9 25 10 26 11
REMARK SMILES IDX 27 12 28 13 29 14 30 15 31 16 32 17 15 18 14 19 13 20 12 21
REMARK SMILES IDX 11 22 10 23 9 24 8 25 7 26 6 27 5 28 4 29 3 30 2 31 1 32
REMARK H PARENT
REMARK Flexibility Score: inf
ROOT
ATOM      1  C   UNL     1     150.675 159.946 150.387  1.00  0.00     0.000 C 
ENDROOT
BRANCH   1   2
ATOM      2  C   UNL     1     150.717 161.478 150.253  1.00  0.00     0.000 C 
BRANCH   2   3
ATOM      3  C   UNL     1     149.751 162.135 151.249  1.00  0.00     0.000 C 
BRANCH   3   4
ATOM      4  C   UNL     1     148.546 161.240 151.598  1.00  0.00     0.000 C 
BRANCH   4   5
ATOM      5  C   UNL     1     147.173 161.933 151.510  1.00  0.00     0.000 C 
BRANCH   5   6
ATOM      6  C   UNL     1     146.427 162.094 152.850  1.00  0.00     0.000 C 
BRANCH   6   7
ATOM      7  C   UNL     1     147.295 161.800 154.091  1.00  0.00     0.000 C 
BRANCH   7   8
ATOM      8  C   UNL     1     146.805 162.540 155.344  1.00  0.00     0.000 C 
BRANCH   8   9
ATOM      9  C   UNL     1     147.746 163.697 155.709  1.00  0.00     0.000 C 
BRANCH   9  10
ATOM     10  C   UNL     1     148.847 163.924 154.657  1.00  0.00     0.000 C 
BRANCH  10  11
ATOM     11  C   UNL     1     148.824 165.313 153.990  1.00  0.00     0.000 C 
BRANCH  11  12
ATOM     12  C   UNL     1     147.397 165.837 153.748  1.00  0.00     0.000 C 
BRANCH  12  13
ATOM     13  C   UNL     1     147.106 166.139 152.265  1.00  0.00     0.006 C 
BRANCH  13  14
ATOM     14  C   UNL     1     148.105 165.490 151.289  1.00  0.00     0.053 C 
BRANCH  14  15
ATOM     15  C   UNL     1     147.498 165.196 149.949  1.00  0.00     0.041 C 
ATOM     16  O   UNL     1     146.247 165.228 149.798  1.00  0.00    -0.550 OA
ATOM     17  O   UNL     1     148.310 164.870 148.869  1.00  0.00    -0.550 OA
ENDBRANCH  14  15
ENDBRANCH  13  14
ENDBRANCH  12  13
ENDBRANCH  11  12
ENDBRANCH  10  11
ENDBRANCH   9  10
ENDBRANCH   8   9
ENDBRANCH   7   8
ENDBRANCH   6   7
ENDBRANCH   5   6
ENDBRANCH   4   5
ENDBRANCH   3   4
ENDBRANCH   2   3
ENDBRANCH   1   2
BRANCH   1  18
ATOM     18  C   UNL     1     152.048 159.340 150.711  1.00  0.00     0.000 C 
BRANCH  18  19
ATOM     19  C   UNL     1     152.003 158.351 151.890  1.00  0.00     0.000 C 
BRANCH  19  20
ATOM     20  C   UNL     1     151.131 158.865 153.056  1.00  0.00     0.000 C 
BRANCH  20  21
ATOM     21  C   UNL     1     151.854 159.848 153.993  1.00  0.00     0.000 C 
BRANCH  21  22
ATOM     22  C   UNL     1     150.917 160.923 154.574  1.00  0.00     0.000 C 
BRANCH  22  23
ATOM     23  C   UNL     1     150.469 160.616 156.019  1.00  0.00     0.000 C 
BRANCH  23  24
ATOM     24  C   UNL     1     149.244 159.686 156.119  1.00  0.00    -0.000 C 
BRANCH  24  25
ATOM     25  C   UNL     1     148.981 159.088 157.512  1.00  0.00    -0.000 C 
BRANCH  25  26
ATOM     26  C   UNL     1     150.278 158.781 158.282  1.00  0.00    -0.000 C 
BRANCH  26  27
ATOM     27  C   UNL     1     150.513 157.272 158.460  1.00  0.00    -0.000 C 
BRANCH  27  28
ATOM     28  C   UNL     1     151.896 156.835 157.944  1.00  0.00    -0.000 C 
BRANCH  28  29
ATOM     29  C   UNL     1     152.090 157.109 156.440  1.00  0.00    -0.000 C 
BRANCH  29  30
ATOM     30  C   UNL     1     153.288 156.387 155.790  1.00  0.00    -0.000 C 
BRANCH  30  31
ATOM     31  C   UNL     1     153.033 155.852 154.368  1.00  0.00    -0.003 C 
ATOM     32  C   UNL     1     153.411 154.382 154.203  1.00  0.00     0.004 C 
ENDBRANCH  30  31
ENDBRANCH  29  30
ENDBRANCH  28  29
ENDBRANCH  27  28
ENDBRANCH  26  27
ENDBRANCH  25  26
ENDBRANCH  24  25
ENDBRANCH  23  24
ENDBRANCH  22  23
ENDBRANCH  21  22
ENDBRANCH  20  21
ENDBRANCH  19  20
ENDBRANCH  18  19
ENDBRANCH   1  18
TORSDOF 28
ENDMDL
MODEL 9
REMARK VINA RESULT:    -2.446      3.217      6.672
REMARK INTER + INTRA:         -12.885
REMARK INTER:                  -7.377
REMARK INTRA:                  -5.508
REMARK UNBOUND:                -6.434
REMARK SMILES CCCCCCCCCCCCCCCCCCCCCCCCCCCCCC(=O)[O-]
REMARK SMILES IDX 16 1 17 2 18 3 19 4 20 5 21 6 22 7 23 8 24 9 25 10 26 11
REMARK SMILES IDX 27 12 28 13 29 14 30 15 31 16 32 17 15 18 14 19 13 20 12 21
REMARK SMILES IDX 11 22 10 23 9 24 8 25 7 26 6 27 5 28 4 29 3 30 2 31 1 32
REMARK H PARENT
REMARK Flexibility Score: inf
ROOT
ATOM      1  C   UNL     1     150.746 159.874 150.889  1.00  0.00     0.000 C 
ENDROOT
BRANCH   1   2
ATOM      2  C   UNL     1     149.893 161.154 150.908  1.00  0.00     0.000 C 
BRANCH   2   3
ATOM      3  C   UNL     1     148.786 161.050 151.967  1.00  0.00     0.000 C 
BRANCH   3   4
ATOM      4  C   UNL     1     147.936 162.331 152.076  1.00  0.00     0.000 C 
BRANCH   4   5
ATOM      5  C   UNL     1     146.539 162.135 152.697  1.00  0.00     0.000 C 
BRANCH   5   6
ATOM      6  C   UNL     1     146.466 162.305 154.227  1.00  0.00     0.000 C 
BRANCH   6   7
ATOM      7  C   UNL     1     145.968 163.694 154.682  1.00  0.00     0.000 C 
BRANCH   7   8
ATOM      8  C   UNL     1     147.014 164.454 155.511  1.00  0.00     0.000 C 
BRANCH   8   9
ATOM      9  C   UNL     1     147.771 165.473 154.649  1.00  0.00     0.000 C 
BRANCH   9  10
ATOM     10  C   UNL     1     146.857 166.207 153.651  1.00  0.00     0.000 C 
BRANCH  10  11
ATOM     11  C   UNL     1     147.212 165.987 152.168  1.00  0.00     0.000 C 
BRANCH  11  12
ATOM     12  C   UNL     1     146.021 165.473 151.338  1.00  0.00     0.000 C 
BRANCH  12  13
ATOM     13  C   UNL     1     146.434 164.943 149.950  1.00  0.00     0.006 C 
BRANCH  13  14
ATOM     14  C   UNL     1     147.745 165.550 149.417  1.00  0.00     0.053 C 
BRANCH  14  15
ATOM     15  C   UNL     1     148.497 164.608 148.524  1.00  0.00     0.041 C 
ATOM     16  O   UNL     1     148.066 164.347 147.369  1.00  0.00    -0.550 OA
ATOM     17  O   UNL     1     149.666 164.002 148.971  1.00  0.00    -0.550 OA
ENDBRANCH  14  15
ENDBRANCH  13  14
ENDBRANCH  12  13
ENDBRANCH  11  12
ENDBRANCH  10  11
ENDBRANCH   9  10
ENDBRANCH   8   9
ENDBRANCH   7   8
ENDBRANCH   6   7
ENDBRANCH   5   6
ENDBRANCH   4   5
ENDBRANCH   3   4
ENDBRANCH   2   3
ENDBRANCH   1   2
BRANCH   1  18
ATOM     18  C   UNL     1     151.731 159.798 152.065  1.00  0.00     0.000 C 
BRANCH  18  19
ATOM     19  C   UNL     1     151.496 158.572 152.964  1.00  0.00     0.000 C 
BRANCH  19  20
ATOM     20  C   UNL     1     150.832 158.945 154.307  1.00  0.00     0.000 C 
BRANCH  20  21
ATOM     21  C   UNL     1     151.303 160.291 154.885  1.00  0.00     0.000 C 
BRANCH  21  22
ATOM     22  C   UNL     1     150.209 161.011 155.695  1.00  0.00     0.000 C 
BRANCH  22  23
ATOM     23  C   UNL     1     149.953 162.455 155.214  1.00  0.00     0.000 C 
BRANCH  23  24
ATOM     24  C   UNL     1     151.039 163.465 155.634  1.00  0.00    -0.000 C 
BRANCH  24  25
ATOM     25  C   UNL     1     151.891 164.034 154.486  1.00  0.00    -0.000 C 
BRANCH  25  26
ATOM     26  C   UNL     1     151.368 163.624 153.097  1.00  0.00    -0.000 C 
BRANCH  26  27
ATOM     27  C   UNL     1     150.751 164.805 152.329  1.00  0.00    -0.000 C 
BRANCH  27  28
ATOM     28  C   UNL     1     150.957 166.143 153.060  1.00  0.00    -0.000 C 
BRANCH  28  29
ATOM     29  C   UNL     1     151.932 167.085 152.327  1.00  0.00    -0.000 C 
BRANCH  29  30
ATOM     30  C   UNL     1     152.239 168.410 153.055  1.00  0.00    -0.000 C 
BRANCH  30  31
ATOM     31  C   UNL     1     151.779 169.682 152.317  1.00  0.00    -0.003 C 
ATOM     32  C   UNL     1     152.415 170.957 152.864  1.00  0.00     0.004 C 
ENDBRANCH  30  31
ENDBRANCH  29  30
ENDBRANCH  28  29
ENDBRANCH  27  28
ENDBRANCH  26  27
ENDBRANCH  25  26
ENDBRANCH  24  25
ENDBRANCH  23  24
ENDBRANCH  22  23
ENDBRANCH  21  22
ENDBRANCH  20  21
ENDBRANCH  19  20
ENDBRANCH  18  19
ENDBRANCH   1  18
TORSDOF 28
ENDMDL
