MODEL 1
REMARK VINA RESULT:    -4.225      0.000      0.000
REMARK INTER + INTRA:          -5.063
REMARK INTER:                  -4.842
REMARK INTRA:                  -0.221
REMARK UNBOUND:                -0.221
REMARK SMILES O=C([O-])C=Cc1ccc(O)cc1
REMARK SMILES IDX 6 1 7 2 12 3 8 4 11 5 9 6 5 7 4 8 2 9 1 10 3 11 10 12
REMARK H PARENT 10 13
REMARK Flexibility Score: inf
ROOT
ATOM      1  C   UNL     1      -0.957 -14.936  -5.490  1.00  0.00    -0.025 A 
ATOM      2  C   UNL     1      -1.802 -14.864  -6.608  1.00  0.00     0.012 A 
ATOM      3  C   UNL     1       0.403 -15.246  -5.674  1.00  0.00     0.012 A 
ATOM      4  C   UNL     1      -1.286 -15.046  -7.895  1.00  0.00     0.047 A 
ATOM      5  C   UNL     1       0.915 -15.428  -6.962  1.00  0.00     0.047 A 
ATOM      6  C   UNL     1       0.076 -15.326  -8.075  1.00  0.00     0.115 A 
ENDROOT
BRANCH   1   7
ATOM      7  C   UNL     1      -1.534 -14.792  -4.137  1.00  0.00     0.010 C 
ATOM      8  C   UNL     1      -1.613 -13.646  -3.444  1.00  0.00     0.025 C 
BRANCH   8   9
ATOM      9  C   UNL     1      -1.318 -12.302  -3.977  1.00  0.00     0.064 C 
ATOM     10  O   UNL     1      -2.264 -11.490  -4.154  1.00  0.00    -0.545 OA
ATOM     11  O   UNL     1      -0.033 -11.937  -4.355  1.00  0.00    -0.545 OA
ENDBRANCH   8   9
ENDBRANCH   1   7
BRANCH   6  12
ATOM     12  O   UNL     1       0.601 -15.508  -9.352  1.00  0.00    -0.508 OA
ATOM     13  H   UNL     1       0.107 -16.044 -10.056  1.00  0.00     0.293 HD
ENDBRANCH   6  12
TORSDOF 3
ENDMDL
MODEL 2
REMARK VINA RESULT:    -4.009      2.953      4.462
REMARK INTER + INTRA:          -4.816
REMARK INTER:                  -4.539
REMARK INTRA:                  -0.277
REMARK UNBOUND:                -0.221
REMARK SMILES O=C([O-])C=Cc1ccc(O)cc1
REMARK SMILES IDX 6 1 7 2 12 3 8 4 11 5 9 6 5 7 4 8 2 9 1 10 3 11 10 12
REMARK H PARENT 10 13
REMARK Flexibility Score: inf
ROOT
ATOM      1  C   UNL     1       0.911 -15.502  -6.316  1.00  0.00    -0.025 A 
ATOM      2  C   UNL     1       0.504 -15.881  -7.604  1.00  0.00     0.012 A 
ATOM      3  C   UNL     1       0.121 -14.596  -5.584  1.00  0.00     0.012 A 
ATOM      4  C   UNL     1      -0.699 -15.403  -8.133  1.00  0.00     0.047 A 
ATOM      5  C   UNL     1      -1.081 -14.121  -6.115  1.00  0.00     0.047 A 
ATOM      6  C   UNL     1      -1.497 -14.524  -7.388  1.00  0.00     0.115 A 
ENDROOT
BRANCH   1   7
ATOM      7  C   UNL     1       2.211 -15.976  -5.798  1.00  0.00     0.010 C 
ATOM      8  C   UNL     1       2.401 -17.095  -5.083  1.00  0.00     0.025 C 
BRANCH   8   9
ATOM      9  C   UNL     1       1.389 -18.144  -4.851  1.00  0.00     0.064 C 
ATOM     10  O   UNL     1       0.857 -18.243  -3.714  1.00  0.00    -0.545 OA
ATOM     11  O   UNL     1       1.062 -19.069  -5.834  1.00  0.00    -0.545 OA
ENDBRANCH   8   9
ENDBRANCH   1   7
BRANCH   6  12
ATOM     12  O   UNL     1      -2.698 -14.044  -7.904  1.00  0.00    -0.508 OA
ATOM     13  H   UNL     1      -2.843 -13.944  -8.902  1.00  0.00     0.293 HD
ENDBRANCH   6  12
TORSDOF 3
ENDMDL
MODEL 3
REMARK VINA RESULT:    -3.977      1.451      4.794
REMARK INTER + INTRA:          -4.779
REMARK INTER:                  -4.512
REMARK INTRA:                  -0.267
REMARK UNBOUND:                -0.221
REMARK SMILES O=C([O-])C=Cc1ccc(O)cc1
REMARK SMILES IDX 6 1 7 2 12 3 8 4 11 5 9 6 5 7 4 8 2 9 1 10 3 11 10 12
REMARK H PARENT 10 13
REMARK Flexibility Score: inf
ROOT
ATOM      1  C   UNL     1      -1.358 -14.616  -5.014  1.00  0.00    -0.025 A 
ATOM      2  C   UNL     1      -0.262 -13.745  -4.926  1.00  0.00     0.012 A 
ATOM      3  C   UNL     1      -2.628 -14.167  -4.607  1.00  0.00     0.012 A 
ATOM      4  C   UNL     1      -0.440 -12.429  -4.488  1.00  0.00     0.047 A 
ATOM      5  C   UNL     1      -2.802 -12.851  -4.169  1.00  0.00     0.047 A 
ATOM      6  C   UNL     1      -1.712 -11.977  -4.111  1.00  0.00     0.115 A 
ENDROOT
BRANCH   1   7
ATOM      7  C   UNL     1      -1.139 -16.017  -5.430  1.00  0.00     0.010 C 
ATOM      8  C   UNL     1      -1.147 -16.463  -6.695  1.00  0.00     0.025 C 
BRANCH   8   9
ATOM      9  C   UNL     1      -1.185 -15.613  -7.900  1.00  0.00     0.064 C 
ATOM     10  O   UNL     1      -0.111 -15.349  -8.501  1.00  0.00    -0.545 OA
ATOM     11  O   UNL     1      -2.368 -15.039  -8.348  1.00  0.00    -0.545 OA
ENDBRANCH   8   9
ENDBRANCH   1   7
BRANCH   6  12
ATOM     12  O   UNL     1      -1.901 -10.669  -3.675  1.00  0.00    -0.508 OA
ATOM     13  H   UNL     1      -1.821  -9.882  -4.310  1.00  0.00     0.293 HD
ENDBRANCH   6  12
TORSDOF 3
ENDMDL
MODEL 4
REMARK VINA RESULT:    -3.962      2.754      4.189
REMARK INTER + INTRA:          -4.762
REMARK INTER:                  -4.483
REMARK INTRA:                  -0.279
REMARK UNBOUND:                -0.221
REMARK SMILES O=C([O-])C=Cc1ccc(O)cc1
REMARK SMILES IDX 6 1 7 2 12 3 8 4 11 5 9 6 5 7 4 8 2 9 1 10 3 11 10 12
REMARK H PARENT 10 13
REMARK Flexibility Score: inf
ROOT
ATOM      1  C   UNL     1      -0.168 -15.839  -4.856  1.00  0.00    -0.025 A 
ATOM      2  C   UNL     1      -1.132 -16.632  -5.496  1.00  0.00     0.012 A 
ATOM      3  C   UNL     1       0.004 -14.503  -5.262  1.00  0.00     0.012 A 
ATOM      4  C   UNL     1      -1.948 -16.085  -6.491  1.00  0.00     0.047 A 
ATOM      5  C   UNL     1      -0.813 -13.959  -6.258  1.00  0.00     0.047 A 
ATOM      6  C   UNL     1      -1.793 -14.745  -6.873  1.00  0.00     0.115 A 
ENDROOT
BRANCH   1   7
ATOM      7  C   UNL     1       0.717 -16.451  -3.844  1.00  0.00     0.010 C 
ATOM      8  C   UNL     1       1.888 -17.054  -4.099  1.00  0.00     0.025 C 
BRANCH   8   9
ATOM      9  C   UNL     1       2.589 -17.046  -5.398  1.00  0.00     0.064 C 
ATOM     10  O   UNL     1       3.511 -16.212  -5.594  1.00  0.00    -0.545 OA
ATOM     11  O   UNL     1       2.208 -17.890  -6.434  1.00  0.00    -0.545 OA
ENDBRANCH   8   9
ENDBRANCH   1   7
BRANCH   6  12
ATOM     12  O   UNL     1      -2.600 -14.189  -7.861  1.00  0.00    -0.508 OA
ATOM     13  H   UNL     1      -3.610 -14.182  -7.778  1.00  0.00     0.293 HD
ENDBRANCH   6  12
TORSDOF 3
ENDMDL
MODEL 5
REMARK VINA RESULT:    -3.955      3.241      5.025
REMARK INTER + INTRA:          -4.754
REMARK INTER:                  -4.472
REMARK INTRA:                  -0.283
REMARK UNBOUND:                -0.221
REMARK SMILES O=C([O-])C=Cc1ccc(O)cc1
REMARK SMILES IDX 6 1 7 2 12 3 8 4 11 5 9 6 5 7 4 8 2 9 1 10 3 11 10 12
REMARK H PARENT 10 13
REMARK Flexibility Score: inf
ROOT
ATOM      1  C   UNL     1       0.121 -17.091  -7.976  1.00  0.00    -0.025 A 
ATOM      2  C   UNL     1      -1.186 -17.328  -8.426  1.00  0.00     0.012 A 
ATOM      3  C   UNL     1       0.469 -15.806  -7.521  1.00  0.00     0.012 A 
ATOM      4  C   UNL     1      -2.146 -16.312  -8.375  1.00  0.00     0.047 A 
ATOM      5  C   UNL     1      -0.492 -14.792  -7.472  1.00  0.00     0.047 A 
ATOM      6  C   UNL     1      -1.802 -15.041  -7.894  1.00  0.00     0.115 A 
ENDROOT
BRANCH   1   7
ATOM      7  C   UNL     1       1.131 -18.163  -8.088  1.00  0.00     0.010 C 
ATOM      8  C   UNL     1       1.581 -18.917  -7.074  1.00  0.00     0.025 C 
BRANCH   8   9
ATOM      9  C   UNL     1       1.015 -18.943  -5.712  1.00  0.00     0.064 C 
ATOM     10  O   UNL     1       0.114 -19.777  -5.436  1.00  0.00    -0.545 OA
ATOM     11  O   UNL     1       1.401 -18.021  -4.746  1.00  0.00    -0.545 OA
ENDBRANCH   8   9
ENDBRANCH   1   7
BRANCH   6  12
ATOM     12  O   UNL     1      -2.749 -14.022  -7.836  1.00  0.00    -0.508 OA
ATOM     13  H   UNL     1      -3.623 -14.140  -7.337  1.00  0.00     0.293 HD
ENDBRANCH   6  12
TORSDOF 3
ENDMDL
MODEL 6
REMARK VINA RESULT:    -3.929      3.401      4.316
REMARK INTER + INTRA:          -4.724
REMARK INTER:                  -4.642
REMARK INTRA:                  -0.082
REMARK UNBOUND:                -0.221
REMARK SMILES O=C([O-])C=Cc1ccc(O)cc1
REMARK SMILES IDX 6 1 7 2 12 3 8 4 11 5 9 6 5 7 4 8 2 9 1 10 3 11 10 12
REMARK H PARENT 10 13
REMARK Flexibility Score: inf
ROOT
ATOM      1  C   UNL     1       0.104 -15.923  -7.312  1.00  0.00    -0.025 A 
ATOM      2  C   UNL     1       0.933 -16.090  -6.193  1.00  0.00     0.012 A 
ATOM      3  C   UNL     1       0.109 -16.900  -8.324  1.00  0.00     0.012 A 
ATOM      4  C   UNL     1       1.716 -17.241  -6.061  1.00  0.00     0.047 A 
ATOM      5  C   UNL     1       0.894 -18.049  -8.190  1.00  0.00     0.047 A 
ATOM      6  C   UNL     1       1.696 -18.226  -7.058  1.00  0.00     0.115 A 
ENDROOT
BRANCH   1   7
ATOM      7  C   UNL     1      -0.675 -14.676  -7.456  1.00  0.00     0.010 C 
ATOM      8  C   UNL     1      -1.995 -14.606  -7.687  1.00  0.00     0.025 C 
BRANCH   8   9
ATOM      9  C   UNL     1      -2.931 -15.746  -7.649  1.00  0.00     0.064 C 
ATOM     10  O   UNL     1      -3.456 -16.146  -8.720  1.00  0.00    -0.545 OA
ATOM     11  O   UNL     1      -3.302 -16.341  -6.450  1.00  0.00    -0.545 OA
ENDBRANCH   8   9
ENDBRANCH   1   7
BRANCH   6  12
ATOM     12  O   UNL     1       2.471 -19.376  -6.937  1.00  0.00    -0.508 OA
ATOM     13  H   UNL     1       2.605 -19.832  -6.041  1.00  0.00     0.293 HD
ENDBRANCH   6  12
TORSDOF 3
ENDMDL
MODEL 7
REMARK VINA RESULT:    -3.925      3.208      5.142
REMARK INTER + INTRA:          -4.719
REMARK INTER:                  -4.436
REMARK INTRA:                  -0.283
REMARK UNBOUND:                -0.221
REMARK SMILES O=C([O-])C=Cc1ccc(O)cc1
REMARK SMILES IDX 6 1 7 2 12 3 8 4 11 5 9 6 5 7 4 8 2 9 1 10 3 11 10 12
REMARK H PARENT 10 13
REMARK Flexibility Score: inf
ROOT
ATOM      1  C   UNL     1       0.158 -17.045  -8.079  1.00  0.00    -0.025 A 
ATOM      2  C   UNL     1       0.505 -15.786  -7.566  1.00  0.00     0.012 A 
ATOM      3  C   UNL     1      -1.178 -17.296  -8.441  1.00  0.00     0.012 A 
ATOM      4  C   UNL     1      -0.457 -14.776  -7.466  1.00  0.00     0.047 A 
ATOM      5  C   UNL     1      -2.137 -16.285  -8.339  1.00  0.00     0.047 A 
ATOM      6  C   UNL     1      -1.781 -15.022  -7.855  1.00  0.00     0.115 A 
ENDROOT
BRANCH   1   7
ATOM      7  C   UNL     1       1.178 -18.113  -8.127  1.00  0.00     0.010 C 
ATOM      8  C   UNL     1       1.551 -18.879  -7.091  1.00  0.00     0.025 C 
BRANCH   8   9
ATOM      9  C   UNL     1       0.882 -18.924  -5.776  1.00  0.00     0.064 C 
ATOM     10  O   UNL     1      -0.026 -19.773  -5.577  1.00  0.00    -0.545 OA
ATOM     11  O   UNL     1       1.179 -18.006  -4.777  1.00  0.00    -0.545 OA
ENDBRANCH   8   9
ENDBRANCH   1   7
BRANCH   6  12
ATOM     12  O   UNL     1      -2.747 -14.023  -7.761  1.00  0.00    -0.508 OA
ATOM     13  H   UNL     1      -2.553 -13.141  -7.302  1.00  0.00     0.293 HD
ENDBRANCH   6  12
TORSDOF 3
ENDMDL
MODEL 8
REMARK VINA RESULT:    -3.897      2.933      5.172
REMARK INTER + INTRA:          -4.687
REMARK INTER:                  -4.400
REMARK INTRA:                  -0.287
REMARK UNBOUND:                -0.221
REMARK SMILES O=C([O-])C=Cc1ccc(O)cc1
REMARK SMILES IDX 6 1 7 2 12 3 8 4 11 5 9 6 5 7 4 8 2 9 1 10 3 11 10 12
REMARK H PARENT 10 13
REMARK Flexibility Score: inf
ROOT
ATOM      1  C   UNL     1      -0.632 -16.974  -7.896  1.00  0.00    -0.025 A 
ATOM      2  C   UNL     1      -0.237 -15.683  -8.275  1.00  0.00     0.012 A 
ATOM      3  C   UNL     1      -0.581 -17.338  -6.538  1.00  0.00     0.012 A 
ATOM      4  C   UNL     1       0.154 -14.751  -7.308  1.00  0.00     0.047 A 
ATOM      5  C   UNL     1      -0.189 -16.405  -5.573  1.00  0.00     0.047 A 
ATOM      6  C   UNL     1       0.176 -15.110  -5.953  1.00  0.00     0.115 A 
ENDROOT
BRANCH   1   7
ATOM      7  C   UNL     1      -0.991 -17.957  -8.938  1.00  0.00     0.010 C 
ATOM      8  C   UNL     1      -2.239 -18.249  -9.336  1.00  0.00     0.025 C 
BRANCH   8   9
ATOM      9  C   UNL     1      -3.455 -17.511  -8.944  1.00  0.00     0.064 C 
ATOM     10  O   UNL     1      -3.921 -16.637  -9.720  1.00  0.00    -0.545 OA
ATOM     11  O   UNL     1      -4.057 -17.707  -7.707  1.00  0.00    -0.545 OA
ENDBRANCH   8   9
ENDBRANCH   1   7
BRANCH   6  12
ATOM     12  O   UNL     1       0.562 -14.191  -4.980  1.00  0.00    -0.508 OA
ATOM     13  H   UNL     1       0.188 -14.227  -4.039  1.00  0.00     0.293 HD
ENDBRANCH   6  12
TORSDOF 3
ENDMDL
MODEL 9
REMARK VINA RESULT:    -3.888      2.646      5.277
REMARK INTER + INTRA:          -4.677
REMARK INTER:                  -4.384
REMARK INTRA:                  -0.293
REMARK UNBOUND:                -0.221
REMARK SMILES O=C([O-])C=Cc1ccc(O)cc1
REMARK SMILES IDX 6 1 7 2 12 3 8 4 11 5 9 6 5 7 4 8 2 9 1 10 3 11 10 12
REMARK H PARENT 10 13
REMARK Flexibility Score: inf
ROOT
ATOM      1  C   UNL     1      -0.338 -16.060  -7.838  1.00  0.00    -0.025 A 
ATOM      2  C   UNL     1       0.330 -15.286  -6.877  1.00  0.00     0.012 A 
ATOM      3  C   UNL     1      -1.731 -15.921  -7.986  1.00  0.00     0.012 A 
ATOM      4  C   UNL     1      -0.373 -14.350  -6.111  1.00  0.00     0.047 A 
ATOM      5  C   UNL     1      -2.431 -14.986  -7.219  1.00  0.00     0.047 A 
ATOM      6  C   UNL     1      -1.756 -14.195  -6.282  1.00  0.00     0.115 A 
ENDROOT
BRANCH   1   7
ATOM      7  C   UNL     1       0.415 -17.078  -8.598  1.00  0.00     0.010 C 
ATOM      8  C   UNL     1       0.682 -18.323  -8.176  1.00  0.00     0.025 C 
BRANCH   8   9
ATOM      9  C   UNL     1       0.114 -18.958  -6.971  1.00  0.00     0.064 C 
ATOM     10  O   UNL     1      -1.010 -19.518  -7.043  1.00  0.00    -0.545 OA
ATOM     11  O   UNL     1       0.758 -18.889  -5.742  1.00  0.00    -0.545 OA
ENDBRANCH   8   9
ENDBRANCH   1   7
BRANCH   6  12
ATOM     12  O   UNL     1      -2.466 -13.266  -5.527  1.00  0.00    -0.508 OA
ATOM     13  H   UNL     1      -2.891 -13.517  -4.642  1.00  0.00     0.293 HD
ENDBRANCH   6  12
TORSDOF 3
ENDMDL
