MODEL 1
REMARK VINA RESULT:    -8.152      0.000      0.000
REMARK INTER + INTRA:          -9.881
REMARK INTER:                  -9.582
REMARK INTRA:                  -0.299
REMARK UNBOUND:                -0.299
REMARK SMILES O=c1cc(-c2ccc(O)c(O)c2)oc2cc(O)cc(O)c12
REMARK SMILES IDX 4 1 3 2 2 3 1 4 21 5 19 6 18 7 16 8 15 9 14 10 13 11 5 12
REMARK SMILES IDX 6 13 7 14 8 15 12 16 10 17 9 18 11 20 20 22 17 24
REMARK H PARENT 9 19 11 21 20 23 17 25
REMARK Flexibility Score: inf
ROOT
ATOM      1  C   UNL     1      39.715 -12.417   9.106  1.00  0.00     0.138 A 
ATOM      2  C   UNL     1      40.052 -11.080   9.376  1.00  0.00     0.100 A 
ATOM      3  C   UNL     1      41.135 -10.799  10.210  1.00  0.00     0.197 A 
ATOM      4  O   UNL     1      41.431  -9.597  10.444  1.00  0.00    -0.289 OA
ATOM      5  C   UNL     1      41.877 -11.860  10.767  1.00  0.00     0.107 A 
ATOM      6  C   UNL     1      42.986 -11.664  11.623  1.00  0.00     0.134 A 
ATOM      7  C   UNL     1      43.675 -12.774  12.132  1.00  0.00     0.093 A 
ATOM      8  C   UNL     1      43.278 -14.072  11.804  1.00  0.00     0.123 A 
ATOM      9  C   UNL     1      42.182 -14.272  10.959  1.00  0.00     0.094 A 
ATOM     10  C   UNL     1      41.481 -13.180  10.441  1.00  0.00     0.146 A 
ATOM     11  O   UNL     1      40.440 -13.395   9.641  1.00  0.00    -0.456 OA
ENDROOT
BRANCH   1  12
ATOM     12  C   UNL     1      38.574 -12.774   8.225  1.00  0.00     0.021 A 
ATOM     13  C   UNL     1      37.400 -12.007   8.271  1.00  0.00     0.016 A 
ATOM     14  C   UNL     1      36.316 -12.318   7.449  1.00  0.00     0.051 A 
ATOM     15  C   UNL     1      36.383 -13.393   6.556  1.00  0.00     0.157 A 
ATOM     16  C   UNL     1      38.648 -13.847   7.317  1.00  0.00     0.062 A 
ATOM     17  C   UNL     1      37.566 -14.164   6.486  1.00  0.00     0.158 A 
BRANCH  15  18
ATOM     18  O   UNL     1      35.262 -13.654   5.765  1.00  0.00    -0.504 OA
ATOM     19  H   UNL     1      34.604 -14.399   5.947  1.00  0.00     0.293 HD
ENDBRANCH  15  18
BRANCH  17  20
ATOM     20  O   UNL     1      37.712 -15.242   5.609  1.00  0.00    -0.504 OA
ATOM     21  H   UNL     1      38.250 -15.206   4.755  1.00  0.00     0.293 HD
ENDBRANCH  17  20
ENDBRANCH   1  12
BRANCH   6  22
ATOM     22  O   UNL     1      43.407 -10.379  11.969  1.00  0.00    -0.507 OA
ATOM     23  H   UNL     1      42.778  -9.708  12.395  1.00  0.00     0.293 HD
ENDBRANCH   6  22
BRANCH   8  24
ATOM     24  O   UNL     1      43.979 -15.157  12.324  1.00  0.00    -0.508 OA
ATOM     25  H   UNL     1      43.515 -15.883  12.857  1.00  0.00     0.293 HD
ENDBRANCH   8  24
TORSDOF 5
ENDMDL
MODEL 2
REMARK VINA RESULT:    -7.715      0.910      1.453
REMARK INTER + INTRA:          -9.367
REMARK INTER:                  -9.070
REMARK INTRA:                  -0.297
REMARK UNBOUND:                -0.299
REMARK SMILES O=c1cc(-c2ccc(O)c(O)c2)oc2cc(O)cc(O)c12
REMARK SMILES IDX 4 1 3 2 2 3 1 4 21 5 19 6 18 7 16 8 15 9 14 10 13 11 5 12
REMARK SMILES IDX 6 13 7 14 8 15 12 16 10 17 9 18 11 20 20 22 17 24
REMARK H PARENT 9 19 11 21 20 23 17 25
REMARK Flexibility Score: inf
ROOT
ATOM      1  C   UNL     1      40.022 -12.456   8.707  1.00  0.00     0.138 A 
ATOM      2  C   UNL     1      40.315 -11.114   9.003  1.00  0.00     0.100 A 
ATOM      3  C   UNL     1      41.292 -10.818   9.954  1.00  0.00     0.197 A 
ATOM      4  O   UNL     1      41.549  -9.611  10.210  1.00  0.00    -0.289 OA
ATOM      5  C   UNL     1      41.974 -11.868  10.600  1.00  0.00     0.107 A 
ATOM      6  C   UNL     1      42.976 -11.656  11.575  1.00  0.00     0.134 A 
ATOM      7  C   UNL     1      43.612 -12.757  12.169  1.00  0.00     0.093 A 
ATOM      8  C   UNL     1      43.265 -14.060  11.807  1.00  0.00     0.123 A 
ATOM      9  C   UNL     1      42.275 -14.276  10.844  1.00  0.00     0.094 A 
ATOM     10  C   UNL     1      41.629 -13.193  10.240  1.00  0.00     0.146 A 
ATOM     11  O   UNL     1      40.689 -13.424   9.328  1.00  0.00    -0.456 OA
ENDROOT
BRANCH   1  12
ATOM     12  C   UNL     1      38.992 -12.829   7.703  1.00  0.00     0.021 A 
ATOM     13  C   UNL     1      38.683 -14.183   7.504  1.00  0.00     0.016 A 
ATOM     14  C   UNL     1      37.715 -14.560   6.571  1.00  0.00     0.051 A 
ATOM     15  C   UNL     1      37.027 -13.596   5.826  1.00  0.00     0.157 A 
ATOM     16  C   UNL     1      38.291 -11.857   6.965  1.00  0.00     0.062 A 
ATOM     17  C   UNL     1      37.316 -12.227   6.030  1.00  0.00     0.158 A 
BRANCH  15  18
ATOM     18  O   UNL     1      36.076 -14.040   4.906  1.00  0.00    -0.504 OA
ATOM     19  H   UNL     1      35.413 -14.781   5.091  1.00  0.00     0.293 HD
ENDBRANCH  15  18
BRANCH  17  20
ATOM     20  O   UNL     1      36.660 -11.208   5.335  1.00  0.00    -0.504 OA
ATOM     21  H   UNL     1      35.690 -10.962   5.474  1.00  0.00     0.293 HD
ENDBRANCH  17  20
ENDBRANCH   1  12
BRANCH   6  22
ATOM     22  O   UNL     1      43.344 -10.365  11.958  1.00  0.00    -0.507 OA
ATOM     23  H   UNL     1      44.273 -10.001  11.783  1.00  0.00     0.293 HD
ENDBRANCH   6  22
BRANCH   8  24
ATOM     24  O   UNL     1      43.912 -15.136  12.412  1.00  0.00    -0.508 OA
ATOM     25  H   UNL     1      43.583 -16.087  12.295  1.00  0.00     0.293 HD
ENDBRANCH   8  24
TORSDOF 5
ENDMDL
MODEL 3
REMARK VINA RESULT:    -7.705      3.715      4.731
REMARK INTER + INTRA:          -9.356
REMARK INTER:                  -9.090
REMARK INTRA:                  -0.266
REMARK UNBOUND:                -0.299
REMARK SMILES O=c1cc(-c2ccc(O)c(O)c2)oc2cc(O)cc(O)c12
REMARK SMILES IDX 4 1 3 2 2 3 1 4 21 5 19 6 18 7 16 8 15 9 14 10 13 11 5 12
REMARK SMILES IDX 6 13 7 14 8 15 12 16 10 17 9 18 11 20 20 22 17 24
REMARK H PARENT 9 19 11 21 20 23 17 25
REMARK Flexibility Score: inf
ROOT
ATOM      1  C   UNL     1      42.453 -11.427   8.715  1.00  0.00     0.138 A 
ATOM      2  C   UNL     1      42.172 -12.803   8.688  1.00  0.00     0.100 A 
ATOM      3  C   UNL     1      42.527 -13.598   9.779  1.00  0.00     0.197 A 
ATOM      4  O   UNL     1      42.268 -14.830   9.746  1.00  0.00    -0.289 OA
ATOM      5  C   UNL     1      43.160 -13.009  10.892  1.00  0.00     0.107 A 
ATOM      6  C   UNL     1      43.554 -13.742  12.036  1.00  0.00     0.134 A 
ATOM      7  C   UNL     1      44.175 -13.079  13.105  1.00  0.00     0.093 A 
ATOM      8  C   UNL     1      44.408 -11.704  13.052  1.00  0.00     0.123 A 
ATOM      9  C   UNL     1      44.021 -10.974  11.924  1.00  0.00     0.094 A 
ATOM     10  C   UNL     1      43.401 -11.615  10.847  1.00  0.00     0.146 A 
ATOM     11  O   UNL     1      43.044 -10.900   9.784  1.00  0.00    -0.456 OA
ENDROOT
BRANCH   1  12
ATOM     12  C   UNL     1      42.097 -10.532   7.584  1.00  0.00     0.021 A 
ATOM     13  C   UNL     1      41.090  -9.571   7.756  1.00  0.00     0.016 A 
ATOM     14  C   UNL     1      40.740  -8.715   6.710  1.00  0.00     0.051 A 
ATOM     15  C   UNL     1      41.394  -8.790   5.476  1.00  0.00     0.157 A 
ATOM     16  C   UNL     1      42.766 -10.600   6.347  1.00  0.00     0.062 A 
ATOM     17  C   UNL     1      42.424  -9.742   5.294  1.00  0.00     0.158 A 
BRANCH  15  18
ATOM     18  O   UNL     1      40.993  -7.908   4.471  1.00  0.00    -0.504 OA
ATOM     19  H   UNL     1      41.598  -7.216   4.052  1.00  0.00     0.293 HD
ENDBRANCH  15  18
BRANCH  17  20
ATOM     20  O   UNL     1      43.132  -9.866   4.096  1.00  0.00    -0.504 OA
ATOM     21  H   UNL     1      43.295  -9.103   3.455  1.00  0.00     0.293 HD
ENDBRANCH  17  20
ENDBRANCH   1  12
BRANCH   6  22
ATOM     22  O   UNL     1      43.335 -15.117  12.118  1.00  0.00    -0.507 OA
ATOM     23  H   UNL     1      44.009 -15.787  11.766  1.00  0.00     0.293 HD
ENDBRANCH   6  22
BRANCH   8  24
ATOM     24  O   UNL     1      45.026 -11.070  14.128  1.00  0.00    -0.508 OA
ATOM     25  H   UNL     1      45.108 -11.519  15.033  1.00  0.00     0.293 HD
ENDBRANCH   8  24
TORSDOF 5
ENDMDL
MODEL 4
REMARK VINA RESULT:    -7.615      5.792     11.974
REMARK INTER + INTRA:          -9.250
REMARK INTER:                  -8.937
REMARK INTRA:                  -0.313
REMARK UNBOUND:                -0.299
REMARK SMILES O=c1cc(-c2ccc(O)c(O)c2)oc2cc(O)cc(O)c12
REMARK SMILES IDX 4 1 3 2 2 3 1 4 21 5 19 6 18 7 16 8 15 9 14 10 13 11 5 12
REMARK SMILES IDX 6 13 7 14 8 15 12 16 10 17 9 18 11 20 20 22 17 24
REMARK H PARENT 9 19 11 21 20 23 17 25
REMARK Flexibility Score: inf
ROOT
ATOM      1  C   UNL     1      33.825 -14.621   3.039  1.00  0.00     0.138 A 
ATOM      2  C   UNL     1      34.143 -15.039   1.736  1.00  0.00     0.100 A 
ATOM      3  C   UNL     1      33.122 -15.213   0.801  1.00  0.00     0.197 A 
ATOM      4  O   UNL     1      33.417 -15.586  -0.365  1.00  0.00    -0.289 OA
ATOM      5  C   UNL     1      31.787 -14.962   1.176  1.00  0.00     0.107 A 
ATOM      6  C   UNL     1      30.692 -15.114   0.293  1.00  0.00     0.134 A 
ATOM      7  C   UNL     1      29.393 -14.839   0.743  1.00  0.00     0.093 A 
ATOM      8  C   UNL     1      29.167 -14.417   2.054  1.00  0.00     0.123 A 
ATOM      9  C   UNL     1      30.245 -14.264   2.933  1.00  0.00     0.094 A 
ATOM     10  C   UNL     1      31.548 -14.534   2.505  1.00  0.00     0.146 A 
ATOM     11  O   UNL     1      32.556 -14.384   3.358  1.00  0.00    -0.456 OA
ENDROOT
BRANCH   1  12
ATOM     12  C   UNL     1      34.871 -14.419   4.074  1.00  0.00     0.021 A 
ATOM     13  C   UNL     1      36.129 -15.019   3.909  1.00  0.00     0.016 A 
ATOM     14  C   UNL     1      37.131 -14.839   4.864  1.00  0.00     0.051 A 
ATOM     15  C   UNL     1      36.906 -14.050   5.997  1.00  0.00     0.157 A 
ATOM     16  C   UNL     1      34.648 -13.612   5.205  1.00  0.00     0.062 A 
ATOM     17  C   UNL     1      35.649 -13.425   6.167  1.00  0.00     0.158 A 
BRANCH  15  18
ATOM     18  O   UNL     1      37.948 -13.916   6.916  1.00  0.00    -0.504 OA
ATOM     19  H   UNL     1      38.904 -13.714   6.660  1.00  0.00     0.293 HD
ENDBRANCH  15  18
BRANCH  17  20
ATOM     20  O   UNL     1      35.355 -12.610   7.263  1.00  0.00    -0.504 OA
ATOM     21  H   UNL     1      34.577 -11.967   7.296  1.00  0.00     0.293 HD
ENDBRANCH  17  20
ENDBRANCH   1  12
BRANCH   6  22
ATOM     22  O   UNL     1      30.886 -15.535  -1.024  1.00  0.00    -0.507 OA
ATOM     23  H   UNL     1      30.129 -15.920  -1.577  1.00  0.00     0.293 HD
ENDBRANCH   6  22
BRANCH   8  24
ATOM     24  O   UNL     1      27.866 -14.150   2.476  1.00  0.00    -0.508 OA
ATOM     25  H   UNL     1      27.429 -13.251   2.313  1.00  0.00     0.293 HD
ENDBRANCH   8  24
TORSDOF 5
ENDMDL
MODEL 5
REMARK VINA RESULT:    -7.480      1.598      6.764
REMARK INTER + INTRA:          -9.091
REMARK INTER:                  -8.773
REMARK INTRA:                  -0.319
REMARK UNBOUND:                -0.299
REMARK SMILES O=c1cc(-c2ccc(O)c(O)c2)oc2cc(O)cc(O)c12
REMARK SMILES IDX 4 1 3 2 2 3 1 4 21 5 19 6 18 7 16 8 15 9 14 10 13 11 5 12
REMARK SMILES IDX 6 13 7 14 8 15 12 16 10 17 9 18 11 20 20 22 17 24
REMARK H PARENT 9 19 11 21 20 23 17 25
REMARK Flexibility Score: inf
ROOT
ATOM      1  C   UNL     1      40.908 -11.883   9.560  1.00  0.00     0.138 A 
ATOM      2  C   UNL     1      40.548 -10.587   9.155  1.00  0.00     0.100 A 
ATOM      3  C   UNL     1      39.562 -10.420   8.182  1.00  0.00     0.197 A 
ATOM      4  O   UNL     1      39.244  -9.254   7.827  1.00  0.00    -0.289 OA
ATOM      5  C   UNL     1      38.939 -11.554   7.622  1.00  0.00     0.107 A 
ATOM      6  C   UNL     1      37.933 -11.475   6.631  1.00  0.00     0.134 A 
ATOM      7  C   UNL     1      37.359 -12.652   6.127  1.00  0.00     0.093 A 
ATOM      8  C   UNL     1      37.770 -13.901   6.595  1.00  0.00     0.123 A 
ATOM      9  C   UNL     1      38.765 -13.986   7.575  1.00  0.00     0.094 A 
ATOM     10  C   UNL     1      39.350 -12.826   8.089  1.00  0.00     0.146 A 
ATOM     11  O   UNL     1      40.295 -12.932   9.018  1.00  0.00    -0.456 OA
ENDROOT
BRANCH   1  12
ATOM     12  C   UNL     1      41.949 -12.120  10.592  1.00  0.00     0.021 A 
ATOM     13  C   UNL     1      42.621 -11.026  11.158  1.00  0.00     0.016 A 
ATOM     14  C   UNL     1      43.599 -11.221  12.134  1.00  0.00     0.051 A 
ATOM     15  C   UNL     1      43.921 -12.508  12.576  1.00  0.00     0.157 A 
ATOM     16  C   UNL     1      42.261 -13.415  11.046  1.00  0.00     0.062 A 
ATOM     17  C   UNL     1      43.239 -13.620  12.028  1.00  0.00     0.158 A 
BRANCH  15  18
ATOM     18  O   UNL     1      44.912 -12.635  13.551  1.00  0.00    -0.504 OA
ATOM     19  H   UNL     1      45.900 -12.702  13.347  1.00  0.00     0.293 HD
ENDBRANCH  15  18
BRANCH  17  20
ATOM     20  O   UNL     1      43.495 -14.933  12.429  1.00  0.00    -0.504 OA
ATOM     21  H   UNL     1      44.294 -15.471  12.125  1.00  0.00     0.293 HD
ENDBRANCH  17  20
ENDBRANCH   1  12
BRANCH   6  22
ATOM     22  O   UNL     1      37.501 -10.240   6.143  1.00  0.00    -0.507 OA
ATOM     23  H   UNL     1      36.735 -10.165   5.484  1.00  0.00     0.293 HD
ENDBRANCH   6  22
BRANCH   8  24
ATOM     24  O   UNL     1      37.184 -15.055   6.079  1.00  0.00    -0.508 OA
ATOM     25  H   UNL     1      36.825 -15.090   5.132  1.00  0.00     0.293 HD
ENDBRANCH   8  24
TORSDOF 5
ENDMDL
MODEL 6
REMARK VINA RESULT:    -7.454      1.481      2.863
REMARK INTER + INTRA:          -9.061
REMARK INTER:                  -8.769
REMARK INTRA:                  -0.292
REMARK UNBOUND:                -0.299
REMARK SMILES O=c1cc(-c2ccc(O)c(O)c2)oc2cc(O)cc(O)c12
REMARK SMILES IDX 4 1 3 2 2 3 1 4 21 5 19 6 18 7 16 8 15 9 14 10 13 11 5 12
REMARK SMILES IDX 6 13 7 14 8 15 12 16 10 17 9 18 11 20 20 22 17 24
REMARK H PARENT 9 19 11 21 20 23 17 25
REMARK Flexibility Score: inf
ROOT
ATOM      1  C   UNL     1      39.066 -12.986   8.376  1.00  0.00     0.138 A 
ATOM      2  C   UNL     1      40.057 -13.965   8.563  1.00  0.00     0.100 A 
ATOM      3  C   UNL     1      41.152 -13.687   9.380  1.00  0.00     0.197 A 
ATOM      4  O   UNL     1      42.034 -14.572   9.543  1.00  0.00    -0.289 OA
ATOM      5  C   UNL     1      41.248 -12.430  10.010  1.00  0.00     0.107 A 
ATOM      6  C   UNL     1      42.324 -12.066  10.853  1.00  0.00     0.134 A 
ATOM      7  C   UNL     1      42.342 -10.795  11.447  1.00  0.00     0.093 A 
ATOM      8  C   UNL     1      41.309  -9.885  11.215  1.00  0.00     0.123 A 
ATOM      9  C   UNL     1      40.242 -10.239  10.383  1.00  0.00     0.094 A 
ATOM     10  C   UNL     1      40.205 -11.500   9.781  1.00  0.00     0.146 A 
ATOM     11  O   UNL     1      39.182 -11.813   8.992  1.00  0.00    -0.456 OA
ENDROOT
BRANCH   1  12
ATOM     12  C   UNL     1      37.878 -13.228   7.518  1.00  0.00     0.021 A 
ATOM     13  C   UNL     1      36.711 -12.478   7.728  1.00  0.00     0.016 A 
ATOM     14  C   UNL     1      35.583 -12.682   6.932  1.00  0.00     0.051 A 
ATOM     15  C   UNL     1      35.598 -13.628   5.902  1.00  0.00     0.157 A 
ATOM     16  C   UNL     1      37.899 -14.171   6.473  1.00  0.00     0.062 A 
ATOM     17  C   UNL     1      36.773 -14.379   5.667  1.00  0.00     0.158 A 
BRANCH  15  18
ATOM     18  O   UNL     1      34.435 -13.787   5.146  1.00  0.00    -0.504 OA
ATOM     19  H   UNL     1      33.520 -13.946   5.543  1.00  0.00     0.293 HD
ENDBRANCH  15  18
BRANCH  17  20
ATOM     20  O   UNL     1      36.867 -15.331   4.648  1.00  0.00    -0.504 OA
ATOM     21  H   UNL     1      37.408 -15.203   3.805  1.00  0.00     0.293 HD
ENDBRANCH  17  20
ENDBRANCH   1  12
BRANCH   6  22
ATOM     22  O   UNL     1      43.372 -12.953  11.103  1.00  0.00    -0.507 OA
ATOM     23  H   UNL     1      44.329 -12.731  10.857  1.00  0.00     0.293 HD
ENDBRANCH   6  22
BRANCH   8  24
ATOM     24  O   UNL     1      41.351  -8.629  11.818  1.00  0.00    -0.508 OA
ATOM     25  H   UNL     1      40.776  -8.407  12.621  1.00  0.00     0.293 HD
ENDBRANCH   8  24
TORSDOF 5
ENDMDL
MODEL 7
REMARK VINA RESULT:    -7.450      2.445      7.126
REMARK INTER + INTRA:          -9.056
REMARK INTER:                  -8.771
REMARK INTRA:                  -0.285
REMARK UNBOUND:                -0.299
REMARK SMILES O=c1cc(-c2ccc(O)c(O)c2)oc2cc(O)cc(O)c12
REMARK SMILES IDX 4 1 3 2 2 3 1 4 21 5 19 6 18 7 16 8 15 9 14 10 13 11 5 12
REMARK SMILES IDX 6 13 7 14 8 15 12 16 10 17 9 18 11 20 20 22 17 24
REMARK H PARENT 9 19 11 21 20 23 17 25
REMARK Flexibility Score: inf
ROOT
ATOM      1  C   UNL     1      41.008 -12.411   9.178  1.00  0.00     0.138 A 
ATOM      2  C   UNL     1      39.901 -13.262   9.023  1.00  0.00     0.100 A 
ATOM      3  C   UNL     1      39.034 -13.072   7.947  1.00  0.00     0.197 A 
ATOM      4  O   UNL     1      38.045 -13.842   7.815  1.00  0.00    -0.289 OA
ATOM      5  C   UNL     1      39.281 -12.031   7.030  1.00  0.00     0.107 A 
ATOM      6  C   UNL     1      38.452 -11.768   5.914  1.00  0.00     0.134 A 
ATOM      7  C   UNL     1      38.771 -10.714   5.045  1.00  0.00     0.093 A 
ATOM      8  C   UNL     1      39.898  -9.922   5.269  1.00  0.00     0.123 A 
ATOM      9  C   UNL     1      40.722 -10.176   6.370  1.00  0.00     0.094 A 
ATOM     10  C   UNL     1      40.422 -11.221   7.249  1.00  0.00     0.146 A 
ATOM     11  O   UNL     1      41.218 -11.443   8.290  1.00  0.00    -0.456 OA
ENDROOT
BRANCH   1  12
ATOM     12  C   UNL     1      41.965 -12.568  10.303  1.00  0.00     0.021 A 
ATOM     13  C   UNL     1      42.531 -11.427  10.892  1.00  0.00     0.016 A 
ATOM     14  C   UNL     1      43.428 -11.547  11.954  1.00  0.00     0.051 A 
ATOM     15  C   UNL     1      43.771 -12.805  12.460  1.00  0.00     0.157 A 
ATOM     16  C   UNL     1      42.298 -13.834  10.821  1.00  0.00     0.062 A 
ATOM     17  C   UNL     1      43.194 -13.963  11.889  1.00  0.00     0.158 A 
BRANCH  15  18
ATOM     18  O   UNL     1      44.678 -12.856  13.521  1.00  0.00    -0.504 OA
ATOM     19  H   UNL     1      45.227 -13.671  13.756  1.00  0.00     0.293 HD
ENDBRANCH  15  18
BRANCH  17  20
ATOM     20  O   UNL     1      43.477 -15.251  12.350  1.00  0.00    -0.504 OA
ATOM     21  H   UNL     1      43.989 -15.941  11.820  1.00  0.00     0.293 HD
ENDBRANCH  17  20
ENDBRANCH   1  12
BRANCH   6  22
ATOM     22  O   UNL     1      37.318 -12.542   5.664  1.00  0.00    -0.507 OA
ATOM     23  H   UNL     1      37.131 -12.933   4.748  1.00  0.00     0.293 HD
ENDBRANCH   6  22
BRANCH   8  24
ATOM     24  O   UNL     1      40.193  -8.881   4.390  1.00  0.00    -0.508 OA
ATOM     25  H   UNL     1      40.967  -8.939   3.739  1.00  0.00     0.293 HD
ENDBRANCH   8  24
TORSDOF 5
ENDMDL
MODEL 8
REMARK VINA RESULT:    -7.439      1.882      6.942
REMARK INTER + INTRA:          -9.043
REMARK INTER:                  -8.764
REMARK INTRA:                  -0.278
REMARK UNBOUND:                -0.299
REMARK SMILES O=c1cc(-c2ccc(O)c(O)c2)oc2cc(O)cc(O)c12
REMARK SMILES IDX 4 1 3 2 2 3 1 4 21 5 19 6 18 7 16 8 15 9 14 10 13 11 5 12
REMARK SMILES IDX 6 13 7 14 8 15 12 16 10 17 9 18 11 20 20 22 17 24
REMARK H PARENT 9 19 11 21 20 23 17 25
REMARK Flexibility Score: inf
ROOT
ATOM      1  C   UNL     1      40.849 -12.575   8.716  1.00  0.00     0.138 A 
ATOM      2  C   UNL     1      41.096 -11.367   8.043  1.00  0.00     0.100 A 
ATOM      3  C   UNL     1      40.227 -10.954   7.032  1.00  0.00     0.197 A 
ATOM      4  O   UNL     1      40.456  -9.867   6.436  1.00  0.00    -0.289 OA
ATOM      5  C   UNL     1      39.113 -11.752   6.703  1.00  0.00     0.107 A 
ATOM      6  C   UNL     1      38.185 -11.408   5.692  1.00  0.00     0.134 A 
ATOM      7  C   UNL     1      37.099 -12.255   5.429  1.00  0.00     0.093 A 
ATOM      8  C   UNL     1      36.923 -13.435   6.155  1.00  0.00     0.123 A 
ATOM      9  C   UNL     1      37.837 -13.780   7.156  1.00  0.00     0.094 A 
ATOM     10  C   UNL     1      38.927 -12.951   7.433  1.00  0.00     0.146 A 
ATOM     11  O   UNL     1      39.784 -13.301   8.387  1.00  0.00    -0.456 OA
ENDROOT
BRANCH   1  12
ATOM     12  C   UNL     1      41.739 -13.063   9.800  1.00  0.00     0.021 A 
ATOM     13  C   UNL     1      42.131 -14.410   9.817  1.00  0.00     0.016 A 
ATOM     14  C   UNL     1      42.971 -14.892  10.821  1.00  0.00     0.051 A 
ATOM     15  C   UNL     1      43.448 -14.041  11.824  1.00  0.00     0.157 A 
ATOM     16  C   UNL     1      42.229 -12.202  10.800  1.00  0.00     0.062 A 
ATOM     17  C   UNL     1      43.076 -12.677  11.810  1.00  0.00     0.158 A 
BRANCH  15  18
ATOM     18  O   UNL     1      44.281 -14.587  12.802  1.00  0.00    -0.504 OA
ATOM     19  H   UNL     1      44.084 -14.557  13.793  1.00  0.00     0.293 HD
ENDBRANCH  15  18
BRANCH  17  20
ATOM     20  O   UNL     1      43.523 -11.763  12.767  1.00  0.00    -0.504 OA
ATOM     21  H   UNL     1      43.317 -11.832  13.753  1.00  0.00     0.293 HD
ENDBRANCH  17  20
ENDBRANCH   1  12
BRANCH   6  22
ATOM     22  O   UNL     1      38.334 -10.236   4.949  1.00  0.00    -0.507 OA
ATOM     23  H   UNL     1      39.247  -9.842   4.752  1.00  0.00     0.293 HD
ENDBRANCH   6  22
BRANCH   8  24
ATOM     24  O   UNL     1      35.835 -14.259   5.874  1.00  0.00    -0.508 OA
ATOM     25  H   UNL     1      35.945 -15.128   5.366  1.00  0.00     0.293 HD
ENDBRANCH   8  24
TORSDOF 5
ENDMDL
MODEL 9
REMARK VINA RESULT:    -7.232      6.693      9.819
REMARK INTER + INTRA:          -8.799
REMARK INTER:                  -8.512
REMARK INTRA:                  -0.288
REMARK UNBOUND:                -0.299
REMARK SMILES O=c1cc(-c2ccc(O)c(O)c2)oc2cc(O)cc(O)c12
REMARK SMILES IDX 4 1 3 2 2 3 1 4 21 5 19 6 18 7 16 8 15 9 14 10 13 11 5 12
REMARK SMILES IDX 6 13 7 14 8 15 12 16 10 17 9 18 11 20 20 22 17 24
REMARK H PARENT 9 19 11 21 20 23 17 25
REMARK Flexibility Score: inf
ROOT
ATOM      1  C   UNL     1      33.335 -13.961   2.507  1.00  0.00     0.138 A 
ATOM      2  C   UNL     1      33.419 -14.107   3.902  1.00  0.00     0.100 A 
ATOM      3  C   UNL     1      34.617 -13.810   4.552  1.00  0.00     0.197 A 
ATOM      4  O   UNL     1      34.682 -13.942   5.804  1.00  0.00    -0.289 OA
ATOM      5  C   UNL     1      35.724 -13.365   3.802  1.00  0.00     0.107 A 
ATOM      6  C   UNL     1      36.974 -13.044   4.381  1.00  0.00     0.134 A 
ATOM      7  C   UNL     1      38.026 -12.603   3.565  1.00  0.00     0.093 A 
ATOM      8  C   UNL     1      37.852 -12.476   2.185  1.00  0.00     0.123 A 
ATOM      9  C   UNL     1      36.618 -12.792   1.606  1.00  0.00     0.094 A 
ATOM     10  C   UNL     1      35.558 -13.234   2.402  1.00  0.00     0.146 A 
ATOM     11  O   UNL     1      34.395 -13.530   1.829  1.00  0.00    -0.456 OA
ENDROOT
BRANCH   1  12
ATOM     12  C   UNL     1      32.085 -14.261   1.763  1.00  0.00     0.021 A 
ATOM     13  C   UNL     1      32.164 -14.741   0.447  1.00  0.00     0.016 A 
ATOM     14  C   UNL     1      31.005 -15.036  -0.272  1.00  0.00     0.051 A 
ATOM     15  C   UNL     1      29.743 -14.871   0.308  1.00  0.00     0.157 A 
ATOM     16  C   UNL     1      30.816 -14.108   2.353  1.00  0.00     0.062 A 
ATOM     17  C   UNL     1      29.648 -14.405   1.640  1.00  0.00     0.158 A 
BRANCH  15  18
ATOM     18  O   UNL     1      28.623 -15.179  -0.467  1.00  0.00    -0.504 OA
ATOM     19  H   UNL     1      28.668 -15.466  -1.435  1.00  0.00     0.293 HD
ENDBRANCH  15  18
BRANCH  17  20
ATOM     20  O   UNL     1      28.425 -14.229   2.291  1.00  0.00    -0.504 OA
ATOM     21  H   UNL     1      28.320 -14.188   3.295  1.00  0.00     0.293 HD
ENDBRANCH  17  20
ENDBRANCH   1  12
BRANCH   6  22
ATOM     22  O   UNL     1      37.179 -13.161   5.757  1.00  0.00    -0.507 OA
ATOM     23  H   UNL     1      36.685 -13.849   6.313  1.00  0.00     0.293 HD
ENDBRANCH   6  22
BRANCH   8  24
ATOM     24  O   UNL     1      38.912 -12.035   1.396  1.00  0.00    -0.508 OA
ATOM     25  H   UNL     1      38.781 -11.783   0.424  1.00  0.00     0.293 HD
ENDBRANCH   8  24
TORSDOF 5
ENDMDL
