MODEL 1
REMARK VINA RESULT:    -7.443      0.000      0.000
REMARK INTER + INTRA:          -7.661
REMARK INTER:                  -7.661
REMARK INTRA:                   0.000
REMARK UNBOUND:                 0.000
REMARK SMILES O=c1ccc2ccc(O)cc2o1
REMARK SMILES IDX 6 1 7 2 8 3 10 4 11 5 5 6 4 7 3 8 2 9 1 10 12 11 9 12
REMARK H PARENT 9 13
REMARK Flexibility Score: inf
ROOT
ATOM      1  C   UNL     1     -11.104   2.659  -8.856  1.00  0.00     0.016 A 
ATOM      2  C   UNL     1     -11.776   3.780  -8.360  1.00  0.00     0.047 A 
ATOM      3  C   UNL     1     -13.172   3.868  -8.454  1.00  0.00     0.119 A 
ATOM      4  C   UNL     1     -13.899   2.829  -9.047  1.00  0.00     0.094 A 
ATOM      5  C   UNL     1     -13.236   1.703  -9.547  1.00  0.00     0.142 A 
ATOM      6  C   UNL     1     -11.829   1.617  -9.451  1.00  0.00     0.018 A 
ATOM      7  C   UNL     1     -11.194   0.480  -9.961  1.00  0.00     0.019 A 
ATOM      8  C   UNL     1     -11.962  -0.528 -10.543  1.00  0.00     0.094 A 
ATOM      9  C   UNL     1     -13.351  -0.375 -10.603  1.00  0.00     0.336 A 
ATOM     10  O   UNL     1     -14.060  -1.274 -11.125  1.00  0.00    -0.246 OA
ATOM     11  O   UNL     1     -13.930   0.718 -10.111  1.00  0.00    -0.423 OA
ENDROOT
BRANCH   3  12
ATOM     12  O   UNL     1     -13.848   4.982  -7.960  1.00  0.00    -0.508 OA
ATOM     13  H   UNL     1     -13.388   5.658  -7.362  1.00  0.00     0.293 HD
ENDBRANCH   3  12
TORSDOF 1
ENDMDL
MODEL 2
REMARK VINA RESULT:    -7.120      1.643      4.772
REMARK INTER + INTRA:          -7.328
REMARK INTER:                  -7.328
REMARK INTRA:                   0.000
REMARK UNBOUND:                 0.000
REMARK SMILES O=c1ccc2ccc(O)cc2o1
REMARK SMILES IDX 6 1 7 2 8 3 10 4 11 5 5 6 4 7 3 8 2 9 1 10 12 11 9 12
REMARK H PARENT 9 13
REMARK Flexibility Score: inf
ROOT
ATOM      1  C   UNL     1     -14.096   0.625 -10.298  1.00  0.00     0.016 A 
ATOM      2  C   UNL     1     -13.601  -0.600 -10.757  1.00  0.00     0.047 A 
ATOM      3  C   UNL     1     -12.234  -0.894 -10.655  1.00  0.00     0.119 A 
ATOM      4  C   UNL     1     -11.358   0.042 -10.092  1.00  0.00     0.094 A 
ATOM      5  C   UNL     1     -11.843   1.270  -9.631  1.00  0.00     0.142 A 
ATOM      6  C   UNL     1     -13.221   1.565  -9.734  1.00  0.00     0.018 A 
ATOM      7  C   UNL     1     -13.676   2.801  -9.266  1.00  0.00     0.019 A 
ATOM      8  C   UNL     1     -12.765   3.700  -8.712  1.00  0.00     0.094 A 
ATOM      9  C   UNL     1     -11.415   3.341  -8.642  1.00  0.00     0.336 A 
ATOM     10  O   UNL     1     -10.578   4.139  -8.147  1.00  0.00    -0.246 OA
ATOM     11  O   UNL     1     -11.008   2.158  -9.096  1.00  0.00    -0.423 OA
ENDROOT
BRANCH   3  12
ATOM     12  O   UNL     1     -11.735  -2.113 -11.109  1.00  0.00    -0.508 OA
ATOM     13  H   UNL     1     -12.216  -2.985 -10.921  1.00  0.00     0.293 HD
ENDBRANCH   3  12
TORSDOF 1
ENDMDL
MODEL 3
REMARK VINA RESULT:    -7.010      1.472      2.255
REMARK INTER + INTRA:          -7.215
REMARK INTER:                  -7.215
REMARK INTRA:                   0.000
REMARK UNBOUND:                 0.000
REMARK SMILES O=c1ccc2ccc(O)cc2o1
REMARK SMILES IDX 6 1 7 2 8 3 10 4 11 5 5 6 4 7 3 8 2 9 1 10 12 11 9 12
REMARK H PARENT 9 13
REMARK Flexibility Score: inf
ROOT
ATOM      1  C   UNL     1     -13.658   3.063  -8.952  1.00  0.00     0.016 A 
ATOM      2  C   UNL     1     -12.613   3.864  -8.481  1.00  0.00     0.047 A 
ATOM      3  C   UNL     1     -11.286   3.417  -8.562  1.00  0.00     0.119 A 
ATOM      4  C   UNL     1     -11.004   2.163  -9.116  1.00  0.00     0.094 A 
ATOM      5  C   UNL     1     -12.043   1.354  -9.591  1.00  0.00     0.142 A 
ATOM      6  C   UNL     1     -13.378   1.807  -9.508  1.00  0.00     0.018 A 
ATOM      7  C   UNL     1     -14.395   0.976  -9.989  1.00  0.00     0.019 A 
ATOM      8  C   UNL     1     -14.064  -0.264 -10.534  1.00  0.00     0.094 A 
ATOM      9  C   UNL     1     -12.720  -0.647 -10.583  1.00  0.00     0.336 A 
ATOM     10  O   UNL     1     -12.402  -1.763 -11.070  1.00  0.00    -0.246 OA
ATOM     11  O   UNL     1     -11.771   0.162 -10.117  1.00  0.00    -0.423 OA
ENDROOT
BRANCH   3  12
ATOM     12  O   UNL     1     -10.241   4.211  -8.094  1.00  0.00    -0.508 OA
ATOM     13  H   UNL     1     -10.126   5.169  -8.400  1.00  0.00     0.293 HD
ENDBRANCH   3  12
TORSDOF 1
ENDMDL
MODEL 4
REMARK VINA RESULT:    -6.967      1.765      2.430
REMARK INTER + INTRA:          -7.171
REMARK INTER:                  -7.171
REMARK INTRA:                   0.000
REMARK UNBOUND:                 0.000
REMARK SMILES O=c1ccc2ccc(O)cc2o1
REMARK SMILES IDX 6 1 7 2 8 3 10 4 11 5 5 6 4 7 3 8 2 9 1 10 12 11 9 12
REMARK H PARENT 9 13
REMARK Flexibility Score: inf
ROOT
ATOM      1  C   UNL     1     -13.906   1.949  -9.814  1.00  0.00     0.016 A 
ATOM      2  C   UNL     1     -13.643   3.148  -9.144  1.00  0.00     0.047 A 
ATOM      3  C   UNL     1     -12.360   3.413  -8.645  1.00  0.00     0.119 A 
ATOM      4  C   UNL     1     -11.336   2.473  -8.816  1.00  0.00     0.094 A 
ATOM      5  C   UNL     1     -11.590   1.271  -9.484  1.00  0.00     0.142 A 
ATOM      6  C   UNL     1     -12.883   1.006  -9.986  1.00  0.00     0.018 A 
ATOM      7  C   UNL     1     -13.107  -0.205 -10.649  1.00  0.00     0.019 A 
ATOM      8  C   UNL     1     -12.055  -1.108 -10.795  1.00  0.00     0.094 A 
ATOM      9  C   UNL     1     -10.800  -0.780 -10.272  1.00  0.00     0.336 A 
ATOM     10  O   UNL     1      -9.839  -1.583 -10.393  1.00  0.00    -0.246 OA
ATOM     11  O   UNL     1     -10.614   0.380  -9.645  1.00  0.00    -0.423 OA
ENDROOT
BRANCH   3  12
ATOM     12  O   UNL     1     -12.091   4.606  -7.977  1.00  0.00    -0.508 OA
ATOM     13  H   UNL     1     -11.187   4.784  -7.555  1.00  0.00     0.293 HD
ENDBRANCH   3  12
TORSDOF 1
ENDMDL
MODEL 5
REMARK VINA RESULT:    -6.660      0.765      4.218
REMARK INTER + INTRA:          -6.855
REMARK INTER:                  -6.855
REMARK INTRA:                   0.000
REMARK UNBOUND:                 0.000
REMARK SMILES O=c1ccc2ccc(O)cc2o1
REMARK SMILES IDX 6 1 7 2 8 3 10 4 11 5 5 6 4 7 3 8 2 9 1 10 12 11 9 12
REMARK H PARENT 9 13
REMARK Flexibility Score: inf
ROOT
ATOM      1  C   UNL     1     -11.214   0.495  -9.938  1.00  0.00     0.016 A 
ATOM      2  C   UNL     1     -12.034  -0.489 -10.498  1.00  0.00     0.047 A 
ATOM      3  C   UNL     1     -13.421  -0.300 -10.567  1.00  0.00     0.119 A 
ATOM      4  C   UNL     1     -13.990   0.880 -10.073  1.00  0.00     0.094 A 
ATOM      5  C   UNL     1     -13.179   1.871  -9.510  1.00  0.00     0.142 A 
ATOM      6  C   UNL     1     -11.781   1.677  -9.442  1.00  0.00     0.018 A 
ATOM      7  C   UNL     1     -10.995   2.685  -8.873  1.00  0.00     0.019 A 
ATOM      8  C   UNL     1     -11.609   3.842  -8.395  1.00  0.00     0.094 A 
ATOM      9  C   UNL     1     -12.999   3.965  -8.496  1.00  0.00     0.336 A 
ATOM     10  O   UNL     1     -13.570   5.002  -8.070  1.00  0.00    -0.246 OA
ATOM     11  O   UNL     1     -13.723   2.991  -9.041  1.00  0.00    -0.423 OA
ENDROOT
BRANCH   3  12
ATOM     12  O   UNL     1     -14.244  -1.277 -11.125  1.00  0.00    -0.508 OA
ATOM     13  H   UNL     1     -14.295  -2.210 -10.736  1.00  0.00     0.293 HD
ENDBRANCH   3  12
TORSDOF 1
ENDMDL
MODEL 6
REMARK VINA RESULT:    -5.938      1.557      4.482
REMARK INTER + INTRA:          -6.111
REMARK INTER:                  -6.111
REMARK INTRA:                   0.000
REMARK UNBOUND:                 0.000
REMARK SMILES O=c1ccc2ccc(O)cc2o1
REMARK SMILES IDX 6 1 7 2 8 3 10 4 11 5 5 6 4 7 3 8 2 9 1 10 12 11 9 12
REMARK H PARENT 9 13
REMARK Flexibility Score: inf
ROOT
ATOM      1  C   UNL     1     -10.391  -0.477  -9.519  1.00  0.00     0.016 A 
ATOM      2  C   UNL     1     -10.489  -1.824  -9.880  1.00  0.00     0.047 A 
ATOM      3  C   UNL     1     -11.697  -2.340 -10.370  1.00  0.00     0.119 A 
ATOM      4  C   UNL     1     -12.812  -1.504 -10.499  1.00  0.00     0.094 A 
ATOM      5  C   UNL     1     -12.724  -0.154 -10.140  1.00  0.00     0.142 A 
ATOM      6  C   UNL     1     -11.506   0.363  -9.647  1.00  0.00     0.018 A 
ATOM      7  C   UNL     1     -11.449   1.715  -9.295  1.00  0.00     0.019 A 
ATOM      8  C   UNL     1     -12.587   2.508  -9.443  1.00  0.00     0.094 A 
ATOM      9  C   UNL     1     -13.760   1.928  -9.937  1.00  0.00     0.336 A 
ATOM     10  O   UNL     1     -14.796   2.627 -10.077  1.00  0.00    -0.246 OA
ATOM     11  O   UNL     1     -13.787   0.638 -10.264  1.00  0.00    -0.423 OA
ENDROOT
BRANCH   3  12
ATOM     12  O   UNL     1     -11.801  -3.682 -10.731  1.00  0.00    -0.508 OA
ATOM     13  H   UNL     1     -12.546  -4.012 -11.332  1.00  0.00     0.293 HD
ENDBRANCH   3  12
TORSDOF 1
ENDMDL
MODEL 7
REMARK VINA RESULT:    -5.509      2.337      4.994
REMARK INTER + INTRA:          -5.670
REMARK INTER:                  -5.670
REMARK INTRA:                   0.000
REMARK UNBOUND:                 0.000
REMARK SMILES O=c1ccc2ccc(O)cc2o1
REMARK SMILES IDX 6 1 7 2 8 3 10 4 11 5 5 6 4 7 3 8 2 9 1 10 12 11 9 12
REMARK H PARENT 9 13
REMARK Flexibility Score: inf
ROOT
ATOM      1  C   UNL     1     -12.407  -2.449 -10.580  1.00  0.00     0.016 A 
ATOM      2  C   UNL     1     -11.158  -2.994 -10.266  1.00  0.00     0.047 A 
ATOM      3  C   UNL     1     -10.148  -2.185  -9.726  1.00  0.00     0.119 A 
ATOM      4  C   UNL     1     -10.389  -0.824  -9.501  1.00  0.00     0.094 A 
ATOM      5  C   UNL     1     -11.635  -0.269  -9.812  1.00  0.00     0.142 A 
ATOM      6  C   UNL     1     -12.651  -1.086 -10.355  1.00  0.00     0.018 A 
ATOM      7  C   UNL     1     -13.886  -0.504 -10.657  1.00  0.00     0.019 A 
ATOM      8  C   UNL     1     -14.078   0.856 -10.414  1.00  0.00     0.094 A 
ATOM      9  C   UNL     1     -13.026   1.604  -9.874  1.00  0.00     0.336 A 
ATOM     10  O   UNL     1     -13.180   2.832  -9.648  1.00  0.00    -0.246 OA
ATOM     11  O   UNL     1     -11.860   1.024  -9.596  1.00  0.00    -0.423 OA
ENDROOT
BRANCH   3  12
ATOM     12  O   UNL     1      -8.902  -2.722  -9.410  1.00  0.00    -0.508 OA
ATOM     13  H   UNL     1      -8.127  -2.679 -10.061  1.00  0.00     0.293 HD
ENDBRANCH   3  12
TORSDOF 1
ENDMDL
MODEL 8
REMARK VINA RESULT:    -5.031     15.168     16.728
REMARK INTER + INTRA:          -5.178
REMARK INTER:                  -5.178
REMARK INTRA:                   0.000
REMARK UNBOUND:                 0.000
REMARK SMILES O=c1ccc2ccc(O)cc2o1
REMARK SMILES IDX 6 1 7 2 8 3 10 4 11 5 5 6 4 7 3 8 2 9 1 10 12 11 9 12
REMARK H PARENT 9 13
REMARK Flexibility Score: inf
ROOT
ATOM      1  C   UNL     1     -12.040   4.330   6.551  1.00  0.00     0.016 A 
ATOM      2  C   UNL     1     -11.016   4.499   7.488  1.00  0.00     0.047 A 
ATOM      3  C   UNL     1     -10.566   5.785   7.819  1.00  0.00     0.119 A 
ATOM      4  C   UNL     1     -11.141   6.905   7.210  1.00  0.00     0.094 A 
ATOM      5  C   UNL     1     -12.166   6.746   6.270  1.00  0.00     0.142 A 
ATOM      6  C   UNL     1     -12.618   5.450   5.938  1.00  0.00     0.018 A 
ATOM      7  C   UNL     1     -13.643   5.323   4.995  1.00  0.00     0.019 A 
ATOM      8  C   UNL     1     -14.185   6.469   4.415  1.00  0.00     0.094 A 
ATOM      9  C   UNL     1     -13.687   7.721   4.792  1.00  0.00     0.336 A 
ATOM     10  O   UNL     1     -14.163   8.767   4.280  1.00  0.00    -0.246 OA
ATOM     11  O   UNL     1     -12.711   7.814   5.692  1.00  0.00    -0.423 OA
ENDROOT
BRANCH   3  12
ATOM     12  O   UNL     1      -9.546   5.960   8.753  1.00  0.00    -0.508 OA
ATOM     13  H   UNL     1      -9.632   5.613   9.701  1.00  0.00     0.293 HD
ENDBRANCH   3  12
TORSDOF 1
ENDMDL
