MODEL 1
REMARK VINA RESULT:    -5.087      0.000      0.000
REMARK INTER + INTRA:         -10.754
REMARK INTER:                  -8.656
REMARK INTRA:                  -2.098
REMARK UNBOUND:                -2.098
REMARK SMILES CCCCCCCCCCCCCC(=O)[O-]
REMARK SMILES IDX 8 1 9 2 10 3 11 4 12 5 13 6 14 7 15 8 16 9 7 10 6 11 5 12
REMARK SMILES IDX 4 13 3 14 2 15 1 16
REMARK H PARENT
REMARK Flexibility Score: inf
ROOT
ATOM      1  C   UNL     1      21.796  -4.522 -36.177  1.00  0.00     0.000 C 
ENDROOT
BRANCH   1   2
ATOM      2  C   UNL     1      23.294  -4.809 -36.343  1.00  0.00     0.000 C 
BRANCH   2   3
ATOM      3  C   UNL     1      23.553  -6.318 -36.475  1.00  0.00     0.000 C 
BRANCH   3   4
ATOM      4  C   UNL     1      22.374  -7.068 -37.115  1.00  0.00     0.000 C 
BRANCH   4   5
ATOM      5  C   UNL     1      22.828  -8.149 -38.107  1.00  0.00     0.006 C 
BRANCH   5   6
ATOM      6  C   UNL     1      24.351  -8.309 -38.084  1.00  0.00     0.053 C 
BRANCH   6   7
ATOM      7  C   UNL     1      24.873  -8.571 -39.461  1.00  0.00     0.041 C 
ATOM      8  O   UNL     1      24.455  -9.560 -40.119  1.00  0.00    -0.550 OA
ATOM      9  O   UNL     1      25.781  -7.695 -40.040  1.00  0.00    -0.550 OA
ENDBRANCH   6   7
ENDBRANCH   5   6
ENDBRANCH   4   5
ENDBRANCH   3   4
ENDBRANCH   2   3
ENDBRANCH   1   2
BRANCH   1  10
ATOM     10  C   UNL     1      21.336  -3.426 -37.150  1.00  0.00     0.000 C 
BRANCH  10  11
ATOM     11  C   UNL     1      20.678  -3.995 -38.418  1.00  0.00    -0.000 C 
BRANCH  11  12
ATOM     12  C   UNL     1      21.539  -3.783 -39.677  1.00  0.00    -0.000 C 
BRANCH  12  13
ATOM     13  C   UNL     1      22.354  -5.032 -40.052  1.00  0.00    -0.000 C 
BRANCH  13  14
ATOM     14  C   UNL     1      23.871  -4.801 -39.944  1.00  0.00    -0.000 C 
BRANCH  14  15
ATOM     15  C   UNL     1      24.222  -3.332 -39.660  1.00  0.00    -0.003 C 
ATOM     16  C   UNL     1      25.491  -3.175 -38.822  1.00  0.00     0.004 C 
ENDBRANCH  14  15
ENDBRANCH  13  14
ENDBRANCH  12  13
ENDBRANCH  11  12
ENDBRANCH  10  11
ENDBRANCH   1  10
TORSDOF 12
ENDMDL
MODEL 2
REMARK VINA RESULT:    -4.962      1.838      4.301
REMARK INTER + INTRA:         -10.541
REMARK INTER:                  -8.548
REMARK INTRA:                  -1.993
REMARK UNBOUND:                -2.098
REMARK SMILES CCCCCCCCCCCCCC(=O)[O-]
REMARK SMILES IDX 8 1 9 2 10 3 11 4 12 5 13 6 14 7 15 8 16 9 7 10 6 11 5 12
REMARK SMILES IDX 4 13 3 14 2 15 1 16
REMARK H PARENT
REMARK Flexibility Score: inf
ROOT
ATOM      1  C   UNL     1      21.594  -3.905 -38.686  1.00  0.00     0.000 C 
ENDROOT
BRANCH   1   2
ATOM      2  C   UNL     1      22.227  -4.585 -39.907  1.00  0.00     0.000 C 
BRANCH   2   3
ATOM      3  C   UNL     1      23.760  -4.513 -39.842  1.00  0.00     0.000 C 
BRANCH   3   4
ATOM      4  C   UNL     1      24.275  -3.097 -39.540  1.00  0.00     0.000 C 
BRANCH   4   5
ATOM      5  C   UNL     1      25.623  -3.100 -38.805  1.00  0.00     0.006 C 
BRANCH   5   6
ATOM      6  C   UNL     1      25.835  -4.418 -38.056  1.00  0.00     0.053 C 
BRANCH   6   7
ATOM      7  C   UNL     1      27.295  -4.697 -37.885  1.00  0.00     0.041 C 
ATOM      8  O   UNL     1      27.678  -5.804 -37.422  1.00  0.00    -0.550 OA
ATOM      9  O   UNL     1      28.235  -3.756 -38.285  1.00  0.00    -0.550 OA
ENDBRANCH   6   7
ENDBRANCH   5   6
ENDBRANCH   4   5
ENDBRANCH   3   4
ENDBRANCH   2   3
ENDBRANCH   1   2
BRANCH   1  10
ATOM     10  C   UNL     1      21.254  -4.936 -37.598  1.00  0.00     0.000 C 
BRANCH  10  11
ATOM     11  C   UNL     1      22.347  -5.048 -36.523  1.00  0.00    -0.000 C 
BRANCH  11  12
ATOM     12  C   UNL     1      23.165  -6.347 -36.644  1.00  0.00    -0.000 C 
BRANCH  12  13
ATOM     13  C   UNL     1      22.372  -7.484 -37.310  1.00  0.00    -0.000 C 
BRANCH  13  14
ATOM     14  C   UNL     1      23.250  -8.360 -38.221  1.00  0.00    -0.000 C 
BRANCH  14  15
ATOM     15  C   UNL     1      24.744  -8.018 -38.102  1.00  0.00    -0.003 C 
ATOM     16  C   UNL     1      25.418  -7.816 -39.459  1.00  0.00     0.004 C 
ENDBRANCH  14  15
ENDBRANCH  13  14
ENDBRANCH  12  13
ENDBRANCH  11  12
ENDBRANCH  10  11
ENDBRANCH   1  10
TORSDOF 12
ENDMDL
MODEL 3
REMARK VINA RESULT:    -4.805      1.185      2.468
REMARK INTER + INTRA:         -10.273
REMARK INTER:                  -8.359
REMARK INTRA:                  -1.914
REMARK UNBOUND:                -2.098
REMARK SMILES CCCCCCCCCCCCCC(=O)[O-]
REMARK SMILES IDX 8 1 9 2 10 3 11 4 12 5 13 6 14 7 15 8 16 9 7 10 6 11 5 12
REMARK SMILES IDX 4 13 3 14 2 15 1 16
REMARK H PARENT
REMARK Flexibility Score: inf
ROOT
ATOM      1  C   UNL     1      20.745  -4.136 -38.609  1.00  0.00     0.000 C 
ENDROOT
BRANCH   1   2
ATOM      2  C   UNL     1      21.271  -5.183 -37.619  1.00  0.00     0.000 C 
BRANCH   2   3
ATOM      3  C   UNL     1      22.095  -4.521 -36.505  1.00  0.00     0.000 C 
BRANCH   3   4
ATOM      4  C   UNL     1      23.424  -5.246 -36.239  1.00  0.00     0.000 C 
BRANCH   4   5
ATOM      5  C   UNL     1      23.344  -6.753 -36.524  1.00  0.00     0.006 C 
BRANCH   5   6
ATOM      6  C   UNL     1      24.555  -7.221 -37.336  1.00  0.00     0.053 C 
BRANCH   6   7
ATOM      7  C   UNL     1      24.165  -8.320 -38.274  1.00  0.00     0.041 C 
ATOM      8  O   UNL     1      25.033  -9.127 -38.699  1.00  0.00    -0.550 OA
ATOM      9  O   UNL     1      22.835  -8.486 -38.637  1.00  0.00    -0.550 OA
ENDBRANCH   6   7
ENDBRANCH   5   6
ENDBRANCH   4   5
ENDBRANCH   3   4
ENDBRANCH   2   3
ENDBRANCH   1   2
BRANCH   1  10
ATOM     10  C   UNL     1      21.652  -4.045 -39.846  1.00  0.00     0.000 C 
BRANCH  10  11
ATOM     11  C   UNL     1      22.669  -5.194 -39.922  1.00  0.00    -0.000 C 
BRANCH  11  12
ATOM     12  C   UNL     1      24.126  -4.695 -39.935  1.00  0.00    -0.000 C 
BRANCH  12  13
ATOM     13  C   UNL     1      24.254  -3.235 -39.470  1.00  0.00    -0.000 C 
BRANCH  13  14
ATOM     14  C   UNL     1      25.633  -2.929 -38.859  1.00  0.00    -0.000 C 
BRANCH  14  15
ATOM     15  C   UNL     1      26.240  -4.146 -38.143  1.00  0.00    -0.003 C 
ATOM     16  C   UNL     1      27.767  -4.109 -38.098  1.00  0.00     0.004 C 
ENDBRANCH  14  15
ENDBRANCH  13  14
ENDBRANCH  12  13
ENDBRANCH  11  12
ENDBRANCH  10  11
ENDBRANCH   1  10
TORSDOF 12
ENDMDL
MODEL 4
REMARK VINA RESULT:    -4.785      1.652      3.208
REMARK INTER + INTRA:         -10.239
REMARK INTER:                  -8.444
REMARK INTRA:                  -1.795
REMARK UNBOUND:                -2.098
REMARK SMILES CCCCCCCCCCCCCC(=O)[O-]
REMARK SMILES IDX 8 1 9 2 10 3 11 4 12 5 13 6 14 7 15 8 16 9 7 10 6 11 5 12
REMARK SMILES IDX 4 13 3 14 2 15 1 16
REMARK H PARENT
REMARK Flexibility Score: inf
ROOT
ATOM      1  C   UNL     1      25.348  -3.497 -38.600  1.00  0.00     0.000 C 
ENDROOT
BRANCH   1   2
ATOM      2  C   UNL     1      25.168  -4.803 -37.816  1.00  0.00     0.000 C 
BRANCH   2   3
ATOM      3  C   UNL     1      26.359  -5.747 -38.042  1.00  0.00     0.000 C 
BRANCH   3   4
ATOM      4  C   UNL     1      25.949  -7.228 -38.042  1.00  0.00     0.000 C 
BRANCH   4   5
ATOM      5  C   UNL     1      25.205  -7.637 -39.322  1.00  0.00     0.006 C 
BRANCH   5   6
ATOM      6  C   UNL     1      24.243  -8.797 -39.049  1.00  0.00     0.053 C 
BRANCH   6   7
ATOM      7  C   UNL     1      22.862  -8.284 -38.786  1.00  0.00     0.041 C 
ATOM      8  O   UNL     1      22.401  -8.278 -37.615  1.00  0.00    -0.550 OA
ATOM      9  O   UNL     1      22.103  -7.765 -39.827  1.00  0.00    -0.550 OA
ENDBRANCH   6   7
ENDBRANCH   5   6
ENDBRANCH   4   5
ENDBRANCH   3   4
ENDBRANCH   2   3
ENDBRANCH   1   2
BRANCH   1  10
ATOM     10  C   UNL     1      24.145  -3.240 -39.523  1.00  0.00     0.000 C 
BRANCH  10  11
ATOM     11  C   UNL     1      23.290  -4.497 -39.746  1.00  0.00    -0.000 C 
BRANCH  11  12
ATOM     12  C   UNL     1      21.795  -4.172 -39.925  1.00  0.00    -0.000 C 
BRANCH  12  13
ATOM     13  C   UNL     1      21.099  -3.840 -38.595  1.00  0.00    -0.000 C 
BRANCH  13  14
ATOM     14  C   UNL     1      21.343  -4.912 -37.518  1.00  0.00    -0.000 C 
BRANCH  14  15
ATOM     15  C   UNL     1      21.841  -4.312 -36.194  1.00  0.00    -0.003 C 
ATOM     16  C   UNL     1      22.167  -2.822 -36.301  1.00  0.00     0.004 C 
ENDBRANCH  14  15
ENDBRANCH  13  14
ENDBRANCH  12  13
ENDBRANCH  11  12
ENDBRANCH  10  11
ENDBRANCH   1  10
TORSDOF 12
ENDMDL
MODEL 5
REMARK VINA RESULT:    -4.775      1.411      3.039
REMARK INTER + INTRA:         -10.223
REMARK INTER:                  -8.223
REMARK INTRA:                  -2.000
REMARK UNBOUND:                -2.098
REMARK SMILES CCCCCCCCCCCCCC(=O)[O-]
REMARK SMILES IDX 8 1 9 2 10 3 11 4 12 5 13 6 14 7 15 8 16 9 7 10 6 11 5 12
REMARK SMILES IDX 4 13 3 14 2 15 1 16
REMARK H PARENT
REMARK Flexibility Score: inf
ROOT
ATOM      1  C   UNL     1      25.290  -4.199 -37.815  1.00  0.00     0.000 C 
ENDROOT
BRANCH   1   2
ATOM      2  C   UNL     1      26.676  -4.822 -38.022  1.00  0.00     0.000 C 
BRANCH   2   3
ATOM      3  C   UNL     1      26.688  -6.295 -37.585  1.00  0.00     0.000 C 
BRANCH   3   4
ATOM      4  C   UNL     1      25.364  -6.730 -36.936  1.00  0.00     0.000 C 
BRANCH   4   5
ATOM      5  C   UNL     1      24.689  -7.888 -37.686  1.00  0.00     0.006 C 
BRANCH   5   6
ATOM      6  C   UNL     1      25.381  -8.147 -39.028  1.00  0.00     0.053 C 
BRANCH   6   7
ATOM      7  C   UNL     1      24.835  -9.384 -39.670  1.00  0.00     0.041 C 
ATOM      8  O   UNL     1      25.472 -10.468 -39.600  1.00  0.00    -0.550 OA
ATOM      9  O   UNL     1      23.598  -9.353 -40.300  1.00  0.00    -0.550 OA
ENDBRANCH   6   7
ENDBRANCH   5   6
ENDBRANCH   4   5
ENDBRANCH   3   4
ENDBRANCH   2   3
ENDBRANCH   1   2
BRANCH   1  10
ATOM     10  C   UNL     1      24.716  -3.681 -39.144  1.00  0.00     0.000 C 
BRANCH  10  11
ATOM     11  C   UNL     1      23.974  -4.771 -39.934  1.00  0.00    -0.000 C 
BRANCH  11  12
ATOM     12  C   UNL     1      22.456  -4.755 -39.680  1.00  0.00    -0.000 C 
BRANCH  12  13
ATOM     13  C   UNL     1      21.961  -6.032 -38.980  1.00  0.00    -0.000 C 
BRANCH  13  14
ATOM     14  C   UNL     1      21.617  -5.799 -37.499  1.00  0.00    -0.000 C 
BRANCH  14  15
ATOM     15  C   UNL     1      21.411  -4.311 -37.172  1.00  0.00    -0.003 C 
ATOM     16  C   UNL     1      21.990  -3.914 -35.814  1.00  0.00     0.004 C 
ENDBRANCH  14  15
ENDBRANCH  13  14
ENDBRANCH  12  13
ENDBRANCH  11  12
ENDBRANCH  10  11
ENDBRANCH   1  10
TORSDOF 12
ENDMDL
MODEL 6
REMARK VINA RESULT:    -4.759      2.927      5.178
REMARK INTER + INTRA:         -10.195
REMARK INTER:                  -8.233
REMARK INTRA:                  -1.962
REMARK UNBOUND:                -2.098
REMARK SMILES CCCCCCCCCCCCCC(=O)[O-]
REMARK SMILES IDX 8 1 9 2 10 3 11 4 12 5 13 6 14 7 15 8 16 9 7 10 6 11 5 12
REMARK SMILES IDX 4 13 3 14 2 15 1 16
REMARK H PARENT
REMARK Flexibility Score: inf
ROOT
ATOM      1  C   UNL     1      24.452  -3.270 -39.598  1.00  0.00     0.000 C 
ENDROOT
BRANCH   1   2
ATOM      2  C   UNL     1      23.975  -4.694 -39.915  1.00  0.00     0.000 C 
BRANCH   2   3
ATOM      3  C   UNL     1      22.474  -4.847 -39.626  1.00  0.00     0.000 C 
BRANCH   3   4
ATOM      4  C   UNL     1      22.161  -6.072 -38.753  1.00  0.00     0.000 C 
BRANCH   4   5
ATOM      5  C   UNL     1      21.908  -5.704 -37.284  1.00  0.00     0.006 C 
BRANCH   5   6
ATOM      6  C   UNL     1      21.258  -4.322 -37.170  1.00  0.00     0.053 C 
BRANCH   6   7
ATOM      7  C   UNL     1      21.967  -3.489 -36.149  1.00  0.00     0.041 C 
ATOM      8  O   UNL     1      21.646  -3.567 -34.934  1.00  0.00    -0.550 OA
ATOM      9  O   UNL     1      23.018  -2.666 -36.531  1.00  0.00    -0.550 OA
ENDBRANCH   6   7
ENDBRANCH   5   6
ENDBRANCH   4   5
ENDBRANCH   3   4
ENDBRANCH   2   3
ENDBRANCH   1   2
BRANCH   1  10
ATOM     10  C   UNL     1      25.759  -3.296 -38.789  1.00  0.00     0.000 C 
BRANCH  10  11
ATOM     11  C   UNL     1      25.815  -4.461 -37.788  1.00  0.00    -0.000 C 
BRANCH  11  12
ATOM     12  C   UNL     1      27.103  -5.294 -37.920  1.00  0.00    -0.000 C 
BRANCH  12  13
ATOM     13  C   UNL     1      26.921  -6.744 -37.440  1.00  0.00    -0.000 C 
BRANCH  13  14
ATOM     14  C   UNL     1      25.440  -7.129 -37.274  1.00  0.00    -0.000 C 
BRANCH  14  15
ATOM     15  C   UNL     1      25.036  -8.307 -38.174  1.00  0.00    -0.003 C 
ATOM     16  C   UNL     1      25.360  -8.069 -39.648  1.00  0.00     0.004 C 
ENDBRANCH  14  15
ENDBRANCH  13  14
ENDBRANCH  12  13
ENDBRANCH  11  12
ENDBRANCH  10  11
ENDBRANCH   1  10
TORSDOF 12
ENDMDL
MODEL 7
REMARK VINA RESULT:    -4.689      1.941      4.282
REMARK INTER + INTRA:         -10.076
REMARK INTER:                  -8.357
REMARK INTRA:                  -1.719
REMARK UNBOUND:                -2.098
REMARK SMILES CCCCCCCCCCCCCC(=O)[O-]
REMARK SMILES IDX 8 1 9 2 10 3 11 4 12 5 13 6 14 7 15 8 16 9 7 10 6 11 5 12
REMARK SMILES IDX 4 13 3 14 2 15 1 16
REMARK H PARENT
REMARK Flexibility Score: inf
ROOT
ATOM      1  C   UNL     1      21.516  -3.391 -36.893  1.00  0.00     0.000 C 
ENDROOT
BRANCH   1   2
ATOM      2  C   UNL     1      22.766  -2.590 -36.509  1.00  0.00     0.000 C 
BRANCH   2   3
ATOM      3  C   UNL     1      23.454  -2.013 -37.755  1.00  0.00     0.000 C 
BRANCH   3   4
ATOM      4  C   UNL     1      24.529  -2.952 -38.327  1.00  0.00     0.000 C 
BRANCH   4   5
ATOM      5  C   UNL     1      24.248  -3.358 -39.781  1.00  0.00     0.006 C 
BRANCH   5   6
ATOM      6  C   UNL     1      23.904  -4.848 -39.877  1.00  0.00     0.053 C 
BRANCH   6   7
ATOM      7  C   UNL     1      22.450  -5.033 -40.176  1.00  0.00     0.041 C 
ATOM      8  O   UNL     1      21.975  -6.191 -40.318  1.00  0.00    -0.550 OA
ATOM      9  O   UNL     1      21.607  -3.932 -40.245  1.00  0.00    -0.550 OA
ENDBRANCH   6   7
ENDBRANCH   5   6
ENDBRANCH   4   5
ENDBRANCH   3   4
ENDBRANCH   2   3
ENDBRANCH   1   2
BRANCH   1  10
ATOM     10  C   UNL     1      21.699  -4.883 -36.571  1.00  0.00     0.000 C 
BRANCH  10  11
ATOM     11  C   UNL     1      23.127  -5.221 -36.115  1.00  0.00    -0.000 C 
BRANCH  11  12
ATOM     12  C   UNL     1      23.648  -6.534 -36.728  1.00  0.00    -0.000 C 
BRANCH  12  13
ATOM     13  C   UNL     1      22.513  -7.450 -37.216  1.00  0.00    -0.000 C 
BRANCH  13  14
ATOM     14  C   UNL     1      23.017  -8.571 -38.143  1.00  0.00    -0.000 C 
BRANCH  14  15
ATOM     15  C   UNL     1      24.550  -8.614 -38.232  1.00  0.00    -0.003 C 
ATOM     16  C   UNL     1      25.057  -8.895 -39.646  1.00  0.00     0.004 C 
ENDBRANCH  14  15
ENDBRANCH  13  14
ENDBRANCH  12  13
ENDBRANCH  11  12
ENDBRANCH  10  11
ENDBRANCH   1  10
TORSDOF 12
ENDMDL
MODEL 8
REMARK VINA RESULT:    -4.611      1.137      2.671
REMARK INTER + INTRA:          -9.943
REMARK INTER:                  -7.795
REMARK INTRA:                  -2.148
REMARK UNBOUND:                -2.098
REMARK SMILES CCCCCCCCCCCCCC(=O)[O-]
REMARK SMILES IDX 8 1 9 2 10 3 11 4 12 5 13 6 14 7 15 8 16 9 7 10 6 11 5 12
REMARK SMILES IDX 4 13 3 14 2 15 1 16
REMARK H PARENT
REMARK Flexibility Score: inf
ROOT
ATOM      1  C   UNL     1      21.266  -3.147 -38.408  1.00  0.00     0.000 C 
ENDROOT
BRANCH   1   2
ATOM      2  C   UNL     1      20.854  -4.490 -39.024  1.00  0.00     0.000 C 
BRANCH   2   3
ATOM      3  C   UNL     1      21.745  -4.840 -40.226  1.00  0.00     0.000 C 
BRANCH   3   4
ATOM      4  C   UNL     1      22.643  -6.060 -39.962  1.00  0.00     0.000 C 
BRANCH   4   5
ATOM      5  C   UNL     1      21.841  -7.321 -39.611  1.00  0.00     0.006 C 
BRANCH   5   6
ATOM      6  C   UNL     1      22.476  -8.062 -38.430  1.00  0.00     0.053 C 
BRANCH   6   7
ATOM      7  C   UNL     1      23.848  -8.543 -38.788  1.00  0.00     0.041 C 
ATOM      8  O   UNL     1      24.826  -8.280 -38.040  1.00  0.00    -0.550 OA
ATOM      9  O   UNL     1      24.037  -9.326 -39.919  1.00  0.00    -0.550 OA
ENDBRANCH   6   7
ENDBRANCH   5   6
ENDBRANCH   4   5
ENDBRANCH   3   4
ENDBRANCH   2   3
ENDBRANCH   1   2
BRANCH   1  10
ATOM     10  C   UNL     1      21.650  -3.315 -36.930  1.00  0.00     0.000 C 
BRANCH  10  11
ATOM     11  C   UNL     1      21.860  -4.785 -36.534  1.00  0.00    -0.000 C 
BRANCH  11  12
ATOM     12  C   UNL     1      23.347  -5.149 -36.372  1.00  0.00    -0.000 C 
BRANCH  12  13
ATOM     13  C   UNL     1      24.285  -4.037 -36.873  1.00  0.00    -0.000 C 
BRANCH  13  14
ATOM     14  C   UNL     1      25.099  -4.465 -38.107  1.00  0.00    -0.000 C 
BRANCH  14  15
ATOM     15  C   UNL     1      25.009  -3.444 -39.252  1.00  0.00    -0.003 C 
ATOM     16  C   UNL     1      24.896  -2.002 -38.758  1.00  0.00     0.004 C 
ENDBRANCH  14  15
ENDBRANCH  13  14
ENDBRANCH  12  13
ENDBRANCH  11  12
ENDBRANCH  10  11
ENDBRANCH   1  10
TORSDOF 12
ENDMDL
MODEL 9
REMARK VINA RESULT:    -4.585      3.419      5.450
REMARK INTER + INTRA:          -9.900
REMARK INTER:                  -8.192
REMARK INTRA:                  -1.708
REMARK UNBOUND:                -2.098
REMARK SMILES CCCCCCCCCCCCCC(=O)[O-]
REMARK SMILES IDX 8 1 9 2 10 3 11 4 12 5 13 6 14 7 15 8 16 9 7 10 6 11 5 12
REMARK SMILES IDX 4 13 3 14 2 15 1 16
REMARK H PARENT
REMARK Flexibility Score: inf
ROOT
ATOM      1  C   UNL     1      22.628  -8.236 -39.519  1.00  0.00     0.000 C 
ENDROOT
BRANCH   1   2
ATOM      2  C   UNL     1      22.023  -6.841 -39.315  1.00  0.00     0.000 C 
BRANCH   2   3
ATOM      3  C   UNL     1      21.934  -6.493 -37.821  1.00  0.00     0.000 C 
BRANCH   3   4
ATOM      4  C   UNL     1      21.251  -5.140 -37.567  1.00  0.00     0.000 C 
BRANCH   4   5
ATOM      5  C   UNL     1      21.062  -4.321 -38.852  1.00  0.00     0.006 C 
BRANCH   5   6
ATOM      6  C   UNL     1      20.491  -2.935 -38.538  1.00  0.00     0.053 C 
BRANCH   6   7
ATOM      7  C   UNL     1      19.385  -2.595 -39.486  1.00  0.00     0.041 C 
ATOM      8  O   UNL     1      19.428  -2.995 -40.679  1.00  0.00    -0.550 OA
ATOM      9  O   UNL     1      18.280  -1.882 -39.040  1.00  0.00    -0.550 OA
ENDBRANCH   6   7
ENDBRANCH   5   6
ENDBRANCH   4   5
ENDBRANCH   3   4
ENDBRANCH   2   3
ENDBRANCH   1   2
BRANCH   1  10
ATOM     10  C   UNL     1      23.528  -8.623 -38.334  1.00  0.00     0.000 C 
BRANCH  10  11
ATOM     11  C   UNL     1      24.998  -8.809 -38.741  1.00  0.00    -0.000 C 
BRANCH  11  12
ATOM     12  C   UNL     1      25.655  -7.495 -39.201  1.00  0.00    -0.000 C 
BRANCH  12  13
ATOM     13  C   UNL     1      26.151  -6.639 -38.024  1.00  0.00    -0.000 C 
BRANCH  13  14
ATOM     14  C   UNL     1      25.307  -5.368 -37.823  1.00  0.00    -0.000 C 
BRANCH  14  15
ATOM     15  C   UNL     1      24.952  -4.683 -39.152  1.00  0.00    -0.003 C 
ATOM     16  C   UNL     1      24.609  -3.203 -38.986  1.00  0.00     0.004 C 
ENDBRANCH  14  15
ENDBRANCH  13  14
ENDBRANCH  12  13
ENDBRANCH  11  12
ENDBRANCH  10  11
ENDBRANCH   1  10
TORSDOF 12
ENDMDL
