MODEL 1
REMARK VINA RESULT:    -5.582      0.000      0.000
REMARK INTER + INTRA:          -7.056
REMARK INTER:                  -6.724
REMARK INTRA:                  -0.333
REMARK UNBOUND:                -0.333
REMARK SMILES O=c1c(O)c(-c2ccc(O)c(O)c2)oc2cc(O)cc(O)c12
REMARK SMILES IDX 5 1 3 2 2 3 1 4 22 5 20 6 19 7 17 8 16 9 15 10 14 11 6 12
REMARK SMILES IDX 7 13 8 14 9 15 13 16 11 17 10 18 12 20 4 22 21 24 18 26
REMARK H PARENT 10 19 12 21 4 23 21 25 18 27
REMARK Flexibility Score: inf
ROOT
ATOM      1  C   UNL     1      36.965 184.019 172.031  1.00  0.00     0.180 A 
ATOM      2  C   UNL     1      36.758 185.240 172.697  1.00  0.00     0.208 A 
ATOM      3  C   UNL     1      37.872 186.017 173.054  1.00  0.00     0.238 A 
ATOM      4  O   UNL     1      37.679 187.135 173.601  1.00  0.00    -0.285 OA
ATOM      5  C   UNL     1      39.177 185.556 172.756  1.00  0.00     0.111 A 
ATOM      6  C   UNL     1      40.379 186.243 173.107  1.00  0.00     0.134 A 
ATOM      7  C   UNL     1      41.610 185.759 172.646  1.00  0.00     0.093 A 
ATOM      8  C   UNL     1      41.690 184.582 171.904  1.00  0.00     0.123 A 
ATOM      9  C   UNL     1      40.526 183.871 171.606  1.00  0.00     0.094 A 
ATOM     10  C   UNL     1      39.279 184.347 172.021  1.00  0.00     0.146 A 
ATOM     11  O   UNL     1      38.197 183.647 171.706  1.00  0.00    -0.452 OA
ENDROOT
BRANCH   1  12
ATOM     12  C   UNL     1      35.842 183.134 171.644  1.00  0.00     0.025 A 
ATOM     13  C   UNL     1      35.317 183.212 170.346  1.00  0.00     0.016 A 
ATOM     14  C   UNL     1      34.271 182.372 169.952  1.00  0.00     0.051 A 
ATOM     15  C   UNL     1      33.747 181.432 170.844  1.00  0.00     0.157 A 
ATOM     16  C   UNL     1      35.327 182.173 172.533  1.00  0.00     0.062 A 
ATOM     17  C   UNL     1      34.280 181.327 172.140  1.00  0.00     0.158 A 
BRANCH  15  18
ATOM     18  O   UNL     1      32.702 180.608 170.425  1.00  0.00    -0.504 OA
ATOM     19  H   UNL     1      32.341 179.861 171.004  1.00  0.00     0.293 HD
ENDBRANCH  15  18
BRANCH  17  20
ATOM     20  O   UNL     1      33.771 180.382 173.030  1.00  0.00    -0.504 OA
ATOM     21  H   UNL     1      33.053 180.621 173.704  1.00  0.00     0.293 HD
ENDBRANCH  17  20
ENDBRANCH   1  12
BRANCH   2  22
ATOM     22  O   UNL     1      35.460 185.687 172.961  1.00  0.00    -0.502 OA
ATOM     23  H   UNL     1      34.741 185.719 172.249  1.00  0.00     0.293 HD
ENDBRANCH   2  22
BRANCH   6  24
ATOM     24  O   UNL     1      40.419 187.378 173.922  1.00  0.00    -0.507 OA
ATOM     25  H   UNL     1      39.746 187.593 174.642  1.00  0.00     0.293 HD
ENDBRANCH   6  24
BRANCH   8  26
ATOM     26  O   UNL     1      42.933 184.122 171.476  1.00  0.00    -0.508 OA
ATOM     27  H   UNL     1      43.790 184.606 171.723  1.00  0.00     0.293 HD
ENDBRANCH   8  26
TORSDOF 6
ENDMDL
MODEL 2
REMARK VINA RESULT:    -4.684      4.252      9.420
REMARK INTER + INTRA:          -5.976
REMARK INTER:                  -5.744
REMARK INTRA:                  -0.231
REMARK UNBOUND:                -0.333
REMARK SMILES O=c1c(O)c(-c2ccc(O)c(O)c2)oc2cc(O)cc(O)c12
REMARK SMILES IDX 5 1 3 2 2 3 1 4 22 5 20 6 19 7 17 8 16 9 15 10 14 11 6 12
REMARK SMILES IDX 7 13 8 14 9 15 13 16 11 17 10 18 12 20 4 22 21 24 18 26
REMARK H PARENT 10 19 12 21 4 23 21 25 18 27
REMARK Flexibility Score: inf
ROOT
ATOM      1  C   UNL     1      33.117 179.101 171.494  1.00  0.00     0.180 A 
ATOM      2  C   UNL     1      31.821 178.887 170.992  1.00  0.00     0.208 A 
ATOM      3  C   UNL     1      31.345 177.571 170.874  1.00  0.00     0.238 A 
ATOM      4  O   UNL     1      30.165 177.389 170.477  1.00  0.00    -0.285 OA
ATOM      5  C   UNL     1      32.176 176.486 171.242  1.00  0.00     0.111 A 
ATOM      6  C   UNL     1      31.812 175.111 171.127  1.00  0.00     0.134 A 
ATOM      7  C   UNL     1      32.663 174.125 171.643  1.00  0.00     0.093 A 
ATOM      8  C   UNL     1      33.891 174.459 172.212  1.00  0.00     0.123 A 
ATOM      9  C   UNL     1      34.283 175.797 172.276  1.00  0.00     0.094 A 
ATOM     10  C   UNL     1      33.441 176.806 171.802  1.00  0.00     0.146 A 
ATOM     11  O   UNL     1      33.847 178.066 171.892  1.00  0.00    -0.452 OA
ENDROOT
BRANCH   1  12
ATOM     12  C   UNL     1      33.697 180.457 171.624  1.00  0.00     0.025 A 
ATOM     13  C   UNL     1      33.977 180.969 172.900  1.00  0.00     0.016 A 
ATOM     14  C   UNL     1      34.544 182.238 173.047  1.00  0.00     0.051 A 
ATOM     15  C   UNL     1      34.854 183.007 171.921  1.00  0.00     0.157 A 
ATOM     16  C   UNL     1      34.029 181.224 170.492  1.00  0.00     0.062 A 
ATOM     17  C   UNL     1      34.600 182.497 170.637  1.00  0.00     0.158 A 
BRANCH  15  18
ATOM     18  O   UNL     1      35.416 184.271 172.097  1.00  0.00    -0.504 OA
ATOM     19  H   UNL     1      35.766 184.583 172.994  1.00  0.00     0.293 HD
ENDBRANCH  15  18
BRANCH  17  20
ATOM     20  O   UNL     1      34.920 183.252 169.510  1.00  0.00    -0.504 OA
ATOM     21  H   UNL     1      35.761 183.816 169.469  1.00  0.00     0.293 HD
ENDBRANCH  17  20
ENDBRANCH   1  12
BRANCH   2  22
ATOM     22  O   UNL     1      31.009 179.974 170.656  1.00  0.00    -0.502 OA
ATOM     23  H   UNL     1      31.382 180.901 170.488  1.00  0.00     0.293 HD
ENDBRANCH   2  22
BRANCH   6  24
ATOM     24  O   UNL     1      30.649 174.662 170.493  1.00  0.00    -0.507 OA
ATOM     25  H   UNL     1      30.083 173.891 170.811  1.00  0.00     0.293 HD
ENDBRANCH   6  24
BRANCH   8  26
ATOM     26  O   UNL     1      34.719 173.451 172.701  1.00  0.00    -0.508 OA
ATOM     27  H   UNL     1      34.951 173.389 173.686  1.00  0.00     0.293 HD
ENDBRANCH   8  26
TORSDOF 6
ENDMDL
MODEL 3
REMARK VINA RESULT:    -4.684      6.395      9.964
REMARK INTER + INTRA:          -5.975
REMARK INTER:                  -5.706
REMARK INTRA:                  -0.269
REMARK UNBOUND:                -0.333
REMARK SMILES O=c1c(O)c(-c2ccc(O)c(O)c2)oc2cc(O)cc(O)c12
REMARK SMILES IDX 5 1 3 2 2 3 1 4 22 5 20 6 19 7 17 8 16 9 15 10 14 11 6 12
REMARK SMILES IDX 7 13 8 14 9 15 13 16 11 17 10 18 12 20 4 22 21 24 18 26
REMARK H PARENT 10 19 12 21 4 23 21 25 18 27
REMARK Flexibility Score: inf
ROOT
ATOM      1  C   UNL     1      33.859 176.160 171.890  1.00  0.00     0.180 A 
ATOM      2  C   UNL     1      32.647 175.841 171.253  1.00  0.00     0.208 A 
ATOM      3  C   UNL     1      31.728 176.869 170.987  1.00  0.00     0.238 A 
ATOM      4  O   UNL     1      30.668 176.587 170.367  1.00  0.00    -0.285 OA
ATOM      5  C   UNL     1      32.024 178.197 171.375  1.00  0.00     0.111 A 
ATOM      6  C   UNL     1      31.149 179.310 171.191  1.00  0.00     0.134 A 
ATOM      7  C   UNL     1      31.599 180.601 171.496  1.00  0.00     0.093 A 
ATOM      8  C   UNL     1      32.866 180.813 172.037  1.00  0.00     0.123 A 
ATOM      9  C   UNL     1      33.708 179.725 172.276  1.00  0.00     0.094 A 
ATOM     10  C   UNL     1      33.301 178.429 171.950  1.00  0.00     0.146 A 
ATOM     11  O   UNL     1      34.136 177.424 172.183  1.00  0.00    -0.452 OA
ENDROOT
BRANCH   1  12
ATOM     12  C   UNL     1      34.867 175.127 172.226  1.00  0.00     0.025 A 
ATOM     13  C   UNL     1      34.954 174.650 173.542  1.00  0.00     0.016 A 
ATOM     14  C   UNL     1      35.883 173.660 173.877  1.00  0.00     0.051 A 
ATOM     15  C   UNL     1      36.727 173.124 172.900  1.00  0.00     0.157 A 
ATOM     16  C   UNL     1      35.702 174.571 171.240  1.00  0.00     0.062 A 
ATOM     17  C   UNL     1      36.633 173.577 171.573  1.00  0.00     0.158 A 
BRANCH  15  18
ATOM     18  O   UNL     1      37.646 172.140 173.263  1.00  0.00    -0.504 OA
ATOM     19  H   UNL     1      37.375 171.319 173.788  1.00  0.00     0.293 HD
ENDBRANCH  15  18
BRANCH  17  20
ATOM     20  O   UNL     1      37.462 173.037 170.590  1.00  0.00    -0.504 OA
ATOM     21  H   UNL     1      38.463 172.957 170.725  1.00  0.00     0.293 HD
ENDBRANCH  17  20
ENDBRANCH   1  12
BRANCH   2  22
ATOM     22  O   UNL     1      32.384 174.526 170.857  1.00  0.00    -0.502 OA
ATOM     23  H   UNL     1      33.116 173.890 170.565  1.00  0.00     0.293 HD
ENDBRANCH   2  22
BRANCH   6  24
ATOM     24  O   UNL     1      29.829 179.198 170.744  1.00  0.00    -0.507 OA
ATOM     25  H   UNL     1      29.013 179.379 171.309  1.00  0.00     0.293 HD
ENDBRANCH   6  24
BRANCH   8  26
ATOM     26  O   UNL     1      33.275 182.109 172.342  1.00  0.00    -0.508 OA
ATOM     27  H   UNL     1      34.240 182.319 172.574  1.00  0.00     0.293 HD
ENDBRANCH   8  26
TORSDOF 6
ENDMDL
MODEL 4
REMARK VINA RESULT:    -4.574      1.634      7.118
REMARK INTER + INTRA:          -5.843
REMARK INTER:                  -5.600
REMARK INTRA:                  -0.242
REMARK UNBOUND:                -0.333
REMARK SMILES O=c1c(O)c(-c2ccc(O)c(O)c2)oc2cc(O)cc(O)c12
REMARK SMILES IDX 5 1 3 2 2 3 1 4 22 5 20 6 19 7 17 8 16 9 15 10 14 11 6 12
REMARK SMILES IDX 7 13 8 14 9 15 13 16 11 17 10 18 12 20 4 22 21 24 18 26
REMARK H PARENT 10 19 12 21 4 23 21 25 18 27
REMARK Flexibility Score: inf
ROOT
ATOM      1  C   UNL     1      37.080 183.512 172.050  1.00  0.00     0.180 A 
ATOM      2  C   UNL     1      36.531 183.777 170.783  1.00  0.00     0.208 A 
ATOM      3  C   UNL     1      35.375 183.087 170.384  1.00  0.00     0.238 A 
ATOM      4  O   UNL     1      34.856 183.368 169.272  1.00  0.00    -0.285 OA
ATOM      5  C   UNL     1      34.793 182.129 171.249  1.00  0.00     0.111 A 
ATOM      6  C   UNL     1      33.644 181.343 170.932  1.00  0.00     0.134 A 
ATOM      7  C   UNL     1      33.078 180.520 171.914  1.00  0.00     0.093 A 
ATOM      8  C   UNL     1      33.653 180.406 173.178  1.00  0.00     0.123 A 
ATOM      9  C   UNL     1      34.810 181.126 173.480  1.00  0.00     0.094 A 
ATOM     10  C   UNL     1      35.379 181.982 172.533  1.00  0.00     0.146 A 
ATOM     11  O   UNL     1      36.473 182.657 172.864  1.00  0.00    -0.452 OA
ENDROOT
BRANCH   1  12
ATOM     12  C   UNL     1      38.310 184.182 172.531  1.00  0.00     0.025 A 
ATOM     13  C   UNL     1      38.233 185.077 173.607  1.00  0.00     0.016 A 
ATOM     14  C   UNL     1      39.385 185.705 174.091  1.00  0.00     0.051 A 
ATOM     15  C   UNL     1      40.631 185.435 173.517  1.00  0.00     0.157 A 
ATOM     16  C   UNL     1      39.568 183.895 171.968  1.00  0.00     0.062 A 
ATOM     17  C   UNL     1      40.725 184.521 172.453  1.00  0.00     0.158 A 
BRANCH  15  18
ATOM     18  O   UNL     1      41.762 186.077 174.019  1.00  0.00    -0.504 OA
ATOM     19  H   UNL     1      42.249 186.794 173.496  1.00  0.00     0.293 HD
ENDBRANCH  15  18
BRANCH  17  20
ATOM     20  O   UNL     1      41.965 184.237 171.885  1.00  0.00    -0.504 OA
ATOM     21  H   UNL     1      42.763 184.848 172.018  1.00  0.00     0.293 HD
ENDBRANCH  17  20
ENDBRANCH   1  12
BRANCH   2  22
ATOM     22  O   UNL     1      37.108 184.743 169.954  1.00  0.00    -0.502 OA
ATOM     23  H   UNL     1      36.664 185.633 169.765  1.00  0.00     0.293 HD
ENDBRANCH   2  22
BRANCH   6  24
ATOM     24  O   UNL     1      33.045 181.311 169.669  1.00  0.00    -0.507 OA
ATOM     25  H   UNL     1      32.979 180.492 169.084  1.00  0.00     0.293 HD
ENDBRANCH   6  24
BRANCH   8  26
ATOM     26  O   UNL     1      33.071 179.567 174.125  1.00  0.00    -0.508 OA
ATOM     27  H   UNL     1      33.315 179.627 175.108  1.00  0.00     0.293 HD
ENDBRANCH   8  26
TORSDOF 6
ENDMDL
MODEL 5
REMARK VINA RESULT:    -4.557      7.686     10.859
REMARK INTER + INTRA:          -5.823
REMARK INTER:                  -5.509
REMARK INTRA:                  -0.314
REMARK UNBOUND:                -0.333
REMARK SMILES O=c1c(O)c(-c2ccc(O)c(O)c2)oc2cc(O)cc(O)c12
REMARK SMILES IDX 5 1 3 2 2 3 1 4 22 5 20 6 19 7 17 8 16 9 15 10 14 11 6 12
REMARK SMILES IDX 7 13 8 14 9 15 13 16 11 17 10 18 12 20 4 22 21 24 18 26
REMARK H PARENT 10 19 12 21 4 23 21 25 18 27
REMARK Flexibility Score: inf
ROOT
ATOM      1  C   UNL     1      33.904 175.203 172.097  1.00  0.00     0.180 A 
ATOM      2  C   UNL     1      33.287 174.306 172.985  1.00  0.00     0.208 A 
ATOM      3  C   UNL     1      33.913 173.079 173.257  1.00  0.00     0.238 A 
ATOM      4  O   UNL     1      33.384 172.302 174.095  1.00  0.00    -0.285 OA
ATOM      5  C   UNL     1      35.139 172.758 172.626  1.00  0.00     0.111 A 
ATOM      6  C   UNL     1      35.842 171.528 172.798  1.00  0.00     0.134 A 
ATOM      7  C   UNL     1      37.111 171.371 172.226  1.00  0.00     0.093 A 
ATOM      8  C   UNL     1      37.674 172.373 171.437  1.00  0.00     0.123 A 
ATOM      9  C   UNL     1      36.970 173.557 171.214  1.00  0.00     0.094 A 
ATOM     10  C   UNL     1      35.717 173.757 171.800  1.00  0.00     0.146 A 
ATOM     11  O   UNL     1      35.086 174.902 171.572  1.00  0.00    -0.452 OA
ENDROOT
BRANCH   1  12
ATOM     12  C   UNL     1      33.293 176.505 171.741  1.00  0.00     0.025 A 
ATOM     13  C   UNL     1      33.776 177.680 172.335  1.00  0.00     0.016 A 
ATOM     14  C   UNL     1      33.229 178.922 171.999  1.00  0.00     0.051 A 
ATOM     15  C   UNL     1      32.202 179.008 171.054  1.00  0.00     0.157 A 
ATOM     16  C   UNL     1      32.274 176.596 170.775  1.00  0.00     0.062 A 
ATOM     17  C   UNL     1      31.725 177.841 170.434  1.00  0.00     0.158 A 
BRANCH  15  18
ATOM     18  O   UNL     1      31.673 180.260 170.740  1.00  0.00    -0.504 OA
ATOM     19  H   UNL     1      32.124 180.884 170.083  1.00  0.00     0.293 HD
ENDBRANCH  15  18
BRANCH  17  20
ATOM     20  O   UNL     1      30.711 177.921 169.481  1.00  0.00    -0.504 OA
ATOM     21  H   UNL     1      30.411 177.109 168.955  1.00  0.00     0.293 HD
ENDBRANCH  17  20
ENDBRANCH   1  12
BRANCH   2  22
ATOM     22  O   UNL     1      32.088 174.652 173.615  1.00  0.00    -0.502 OA
ATOM     23  H   UNL     1      31.647 174.059 174.308  1.00  0.00     0.293 HD
ENDBRANCH   2  22
BRANCH   6  24
ATOM     24  O   UNL     1      35.329 170.427 173.491  1.00  0.00    -0.507 OA
ATOM     25  H   UNL     1      35.260 169.493 173.116  1.00  0.00     0.293 HD
ENDBRANCH   6  24
BRANCH   8  26
ATOM     26  O   UNL     1      38.931 172.176 170.871  1.00  0.00    -0.508 OA
ATOM     27  H   UNL     1      39.662 172.875 170.950  1.00  0.00     0.293 HD
ENDBRANCH   8  26
TORSDOF 6
ENDMDL
MODEL 6
REMARK VINA RESULT:    -4.531      4.178      9.536
REMARK INTER + INTRA:          -5.791
REMARK INTER:                  -5.457
REMARK INTRA:                  -0.334
REMARK UNBOUND:                -0.333
REMARK SMILES O=c1c(O)c(-c2ccc(O)c(O)c2)oc2cc(O)cc(O)c12
REMARK SMILES IDX 5 1 3 2 2 3 1 4 22 5 20 6 19 7 17 8 16 9 15 10 14 11 6 12
REMARK SMILES IDX 7 13 8 14 9 15 13 16 11 17 10 18 12 20 4 22 21 24 18 26
REMARK H PARENT 10 19 12 21 4 23 21 25 18 27
REMARK Flexibility Score: inf
ROOT
ATOM      1  C   UNL     1      32.682 179.537 171.493  1.00  0.00     0.180 A 
ATOM      2  C   UNL     1      31.287 179.644 171.629  1.00  0.00     0.208 A 
ATOM      3  C   UNL     1      30.508 178.477 171.585  1.00  0.00     0.238 A 
ATOM      4  O   UNL     1      29.265 178.572 171.763  1.00  0.00    -0.285 OA
ATOM      5  C   UNL     1      31.131 177.221 171.390  1.00  0.00     0.111 A 
ATOM      6  C   UNL     1      30.436 175.978 171.289  1.00  0.00     0.134 A 
ATOM      7  C   UNL     1      31.164 174.783 171.226  1.00  0.00     0.093 A 
ATOM      8  C   UNL     1      32.557 174.788 171.195  1.00  0.00     0.123 A 
ATOM      9  C   UNL     1      33.245 176.001 171.233  1.00  0.00     0.094 A 
ATOM     10  C   UNL     1      32.549 177.209 171.332  1.00  0.00     0.146 A 
ATOM     11  O   UNL     1      33.243 178.339 171.377  1.00  0.00    -0.452 OA
ENDROOT
BRANCH   1  12
ATOM     12  C   UNL     1      33.567 180.725 171.505  1.00  0.00     0.025 A 
ATOM     13  C   UNL     1      34.177 181.120 172.705  1.00  0.00     0.016 A 
ATOM     14  C   UNL     1      35.033 182.225 172.735  1.00  0.00     0.051 A 
ATOM     15  C   UNL     1      35.304 182.941 171.565  1.00  0.00     0.157 A 
ATOM     16  C   UNL     1      33.858 181.434 170.325  1.00  0.00     0.062 A 
ATOM     17  C   UNL     1      34.718 182.541 170.352  1.00  0.00     0.158 A 
BRANCH  15  18
ATOM     18  O   UNL     1      36.160 184.040 171.625  1.00  0.00    -0.504 OA
ATOM     19  H   UNL     1      35.935 184.867 172.164  1.00  0.00     0.293 HD
ENDBRANCH  15  18
BRANCH  17  20
ATOM     20  O   UNL     1      34.995 183.241 169.179  1.00  0.00    -0.504 OA
ATOM     21  H   UNL     1      35.297 182.768 168.336  1.00  0.00     0.293 HD
ENDBRANCH  17  20
ENDBRANCH   1  12
BRANCH   2  22
ATOM     22  O   UNL     1      30.695 180.892 171.845  1.00  0.00    -0.502 OA
ATOM     23  H   UNL     1      30.475 181.237 172.772  1.00  0.00     0.293 HD
ENDBRANCH   2  22
BRANCH   6  24
ATOM     24  O   UNL     1      29.044 175.866 171.218  1.00  0.00    -0.507 OA
ATOM     25  H   UNL     1      28.533 175.553 170.407  1.00  0.00     0.293 HD
ENDBRANCH   6  24
BRANCH   8  26
ATOM     26  O   UNL     1      33.247 173.581 171.116  1.00  0.00    -0.508 OA
ATOM     27  H   UNL     1      33.086 172.927 170.358  1.00  0.00     0.293 HD
ENDBRANCH   8  26
TORSDOF 6
ENDMDL
MODEL 7
REMARK VINA RESULT:    -4.477      8.079     11.219
REMARK INTER + INTRA:          -5.727
REMARK INTER:                  -5.450
REMARK INTRA:                  -0.276
REMARK UNBOUND:                -0.333
REMARK SMILES O=c1c(O)c(-c2ccc(O)c(O)c2)oc2cc(O)cc(O)c12
REMARK SMILES IDX 5 1 3 2 2 3 1 4 22 5 20 6 19 7 17 8 16 9 15 10 14 11 6 12
REMARK SMILES IDX 7 13 8 14 9 15 13 16 11 17 10 18 12 20 4 22 21 24 18 26
REMARK H PARENT 10 19 12 21 4 23 21 25 18 27
REMARK Flexibility Score: inf
ROOT
ATOM      1  C   UNL     1      33.721 174.943 171.744  1.00  0.00     0.180 A 
ATOM      2  C   UNL     1      32.887 173.828 171.551  1.00  0.00     0.208 A 
ATOM      3  C   UNL     1      33.470 172.583 171.265  1.00  0.00     0.238 A 
ATOM      4  O   UNL     1      32.721 171.578 171.148  1.00  0.00    -0.285 OA
ATOM      5  C   UNL     1      34.877 172.472 171.160  1.00  0.00     0.111 A 
ATOM      6  C   UNL     1      35.572 171.268 170.836  1.00  0.00     0.134 A 
ATOM      7  C   UNL     1      36.972 171.244 170.887  1.00  0.00     0.093 A 
ATOM      8  C   UNL     1      37.702 172.393 171.188  1.00  0.00     0.123 A 
ATOM      9  C   UNL     1      37.033 173.590 171.448  1.00  0.00     0.094 A 
ATOM     10  C   UNL     1      35.636 173.637 171.440  1.00  0.00     0.146 A 
ATOM     11  O   UNL     1      35.040 174.793 171.704  1.00  0.00    -0.452 OA
ENDROOT
BRANCH   1  12
ATOM     12  C   UNL     1      33.179 176.293 172.024  1.00  0.00     0.025 A 
ATOM     13  C   UNL     1      33.320 176.840 173.308  1.00  0.00     0.016 A 
ATOM     14  C   UNL     1      32.835 178.121 173.589  1.00  0.00     0.051 A 
ATOM     15  C   UNL     1      32.218 178.878 172.589  1.00  0.00     0.157 A 
ATOM     16  C   UNL     1      32.577 177.065 171.014  1.00  0.00     0.062 A 
ATOM     17  C   UNL     1      32.092 178.351 171.293  1.00  0.00     0.158 A 
BRANCH  15  18
ATOM     18  O   UNL     1      31.742 180.152 172.899  1.00  0.00    -0.504 OA
ATOM     19  H   UNL     1      32.299 180.824 173.412  1.00  0.00     0.293 HD
ENDBRANCH  15  18
BRANCH  17  20
ATOM     20  O   UNL     1      31.490 179.105 170.287  1.00  0.00    -0.504 OA
ATOM     21  H   UNL     1      30.918 178.675 169.570  1.00  0.00     0.293 HD
ENDBRANCH  17  20
ENDBRANCH   1  12
BRANCH   2  22
ATOM     22  O   UNL     1      31.501 173.956 171.682  1.00  0.00    -0.502 OA
ATOM     23  H   UNL     1      30.876 173.159 171.654  1.00  0.00     0.293 HD
ENDBRANCH   2  22
BRANCH   6  24
ATOM     24  O   UNL     1      34.942 170.087 170.432  1.00  0.00    -0.507 OA
ATOM     25  H   UNL     1      34.827 169.796 169.473  1.00  0.00     0.293 HD
ENDBRANCH   6  24
BRANCH   8  26
ATOM     26  O   UNL     1      39.093 172.336 171.214  1.00  0.00    -0.508 OA
ATOM     27  H   UNL     1      39.587 171.782 171.906  1.00  0.00     0.293 HD
ENDBRANCH   8  26
TORSDOF 6
ENDMDL
MODEL 8
REMARK VINA RESULT:    -4.455     16.183     20.289
REMARK INTER + INTRA:          -5.700
REMARK INTER:                  -5.477
REMARK INTRA:                  -0.223
REMARK UNBOUND:                -0.333
REMARK SMILES O=c1c(O)c(-c2ccc(O)c(O)c2)oc2cc(O)cc(O)c12
REMARK SMILES IDX 5 1 3 2 2 3 1 4 22 5 20 6 19 7 17 8 16 9 15 10 14 11 6 12
REMARK SMILES IDX 7 13 8 14 9 15 13 16 11 17 10 18 12 20 4 22 21 24 18 26
REMARK H PARENT 10 19 12 21 4 23 21 25 18 27
REMARK Flexibility Score: inf
ROOT
ATOM      1  C   UNL     1      30.452 170.515 160.062  1.00  0.00     0.180 A 
ATOM      2  C   UNL     1      29.458 170.111 159.154  1.00  0.00     0.208 A 
ATOM      3  C   UNL     1      29.827 169.348 158.035  1.00  0.00     0.238 A 
ATOM      4  O   UNL     1      28.926 168.943 157.255  1.00  0.00    -0.285 OA
ATOM      5  C   UNL     1      31.187 169.012 157.830  1.00  0.00     0.111 A 
ATOM      6  C   UNL     1      31.680 168.277 156.709  1.00  0.00     0.134 A 
ATOM      7  C   UNL     1      33.026 167.890 156.676  1.00  0.00     0.093 A 
ATOM      8  C   UNL     1      33.909 168.265 157.687  1.00  0.00     0.123 A 
ATOM      9  C   UNL     1      33.450 169.034 158.757  1.00  0.00     0.094 A 
ATOM     10  C   UNL     1      32.106 169.406 158.837  1.00  0.00     0.146 A 
ATOM     11  O   UNL     1      31.708 170.128 159.877  1.00  0.00    -0.452 OA
ENDROOT
BRANCH   1  12
ATOM     12  C   UNL     1      30.143 171.341 161.252  1.00  0.00     0.025 A 
ATOM     13  C   UNL     1      30.331 170.804 162.534  1.00  0.00     0.016 A 
ATOM     14  C   UNL     1      30.066 171.573 163.671  1.00  0.00     0.051 A 
ATOM     15  C   UNL     1      29.625 172.893 163.544  1.00  0.00     0.157 A 
ATOM     16  C   UNL     1      29.720 172.677 161.126  1.00  0.00     0.062 A 
ATOM     17  C   UNL     1      29.455 173.451 162.265  1.00  0.00     0.158 A 
BRANCH  15  18
ATOM     18  O   UNL     1      29.366 173.636 164.695  1.00  0.00    -0.504 OA
ATOM     19  H   UNL     1      28.468 173.611 165.160  1.00  0.00     0.293 HD
ENDBRANCH  15  18
BRANCH  17  20
ATOM     20  O   UNL     1      29.029 174.772 162.131  1.00  0.00    -0.504 OA
ATOM     21  H   UNL     1      29.683 175.545 162.149  1.00  0.00     0.293 HD
ENDBRANCH  17  20
ENDBRANCH   1  12
BRANCH   2  22
ATOM     22  O   UNL     1      28.118 170.434 159.388  1.00  0.00    -0.502 OA
ATOM     23  H   UNL     1      27.353 169.920 158.968  1.00  0.00     0.293 HD
ENDBRANCH   2  22
BRANCH   6  24
ATOM     24  O   UNL     1      30.902 167.931 155.600  1.00  0.00    -0.507 OA
ATOM     25  H   UNL     1      30.384 167.070 155.508  1.00  0.00     0.293 HD
ENDBRANCH   6  24
BRANCH   8  26
ATOM     26  O   UNL     1      35.244 167.875 157.612  1.00  0.00    -0.508 OA
ATOM     27  H   UNL     1      35.969 168.370 158.120  1.00  0.00     0.293 HD
ENDBRANCH   8  26
TORSDOF 6
ENDMDL
MODEL 9
REMARK VINA RESULT:    -4.421     17.833     20.482
REMARK INTER + INTRA:          -5.658
REMARK INTER:                  -5.359
REMARK INTRA:                  -0.299
REMARK UNBOUND:                -0.333
REMARK SMILES O=c1c(O)c(-c2ccc(O)c(O)c2)oc2cc(O)cc(O)c12
REMARK SMILES IDX 5 1 3 2 2 3 1 4 22 5 20 6 19 7 17 8 16 9 15 10 14 11 6 12
REMARK SMILES IDX 7 13 8 14 9 15 13 16 11 17 10 18 12 20 4 22 21 24 18 26
REMARK H PARENT 10 19 12 21 4 23 21 25 18 27
REMARK Flexibility Score: inf
ROOT
ATOM      1  C   UNL     1      31.923 169.740 159.383  1.00  0.00     0.180 A 
ATOM      2  C   UNL     1      32.617 168.930 160.299  1.00  0.00     0.208 A 
ATOM      3  C   UNL     1      32.257 168.974 161.655  1.00  0.00     0.238 A 
ATOM      4  O   UNL     1      32.845 168.206 162.462  1.00  0.00    -0.285 OA
ATOM      5  C   UNL     1      31.220 169.838 162.081  1.00  0.00     0.111 A 
ATOM      6  C   UNL     1      30.799 169.993 163.437  1.00  0.00     0.134 A 
ATOM      7  C   UNL     1      29.676 170.779 163.726  1.00  0.00     0.093 A 
ATOM      8  C   UNL     1      28.999 171.466 162.720  1.00  0.00     0.123 A 
ATOM      9  C   UNL     1      29.439 171.369 161.399  1.00  0.00     0.094 A 
ATOM     10  C   UNL     1      30.534 170.564 161.073  1.00  0.00     0.146 A 
ATOM     11  O   UNL     1      30.912 170.491 159.803  1.00  0.00    -0.452 OA
ENDROOT
BRANCH   1  12
ATOM     12  C   UNL     1      32.262 169.767 157.942  1.00  0.00     0.025 A 
ATOM     13  C   UNL     1      33.358 170.525 157.503  1.00  0.00     0.016 A 
ATOM     14  C   UNL     1      33.708 170.548 156.150  1.00  0.00     0.051 A 
ATOM     15  C   UNL     1      32.979 169.802 155.219  1.00  0.00     0.157 A 
ATOM     16  C   UNL     1      31.543 169.000 157.006  1.00  0.00     0.062 A 
ATOM     17  C   UNL     1      31.894 169.020 155.649  1.00  0.00     0.158 A 
BRANCH  15  18
ATOM     18  O   UNL     1      33.350 169.846 153.875  1.00  0.00    -0.504 OA
ATOM     19  H   UNL     1      33.910 170.600 153.497  1.00  0.00     0.293 HD
ENDBRANCH  15  18
BRANCH  17  20
ATOM     20  O   UNL     1      31.171 168.263 154.728  1.00  0.00    -0.504 OA
ATOM     21  H   UNL     1      31.120 167.253 154.794  1.00  0.00     0.293 HD
ENDBRANCH  17  20
ENDBRANCH   1  12
BRANCH   2  22
ATOM     22  O   UNL     1      33.622 168.067 159.853  1.00  0.00    -0.502 OA
ATOM     23  H   UNL     1      33.733 167.128 160.217  1.00  0.00     0.293 HD
ENDBRANCH   2  22
BRANCH   6  24
ATOM     24  O   UNL     1      31.461 169.424 164.529  1.00  0.00    -0.507 OA
ATOM     25  H   UNL     1      31.312 169.685 165.491  1.00  0.00     0.293 HD
ENDBRANCH   6  24
BRANCH   8  26
ATOM     26  O   UNL     1      27.896 172.251 163.046  1.00  0.00    -0.508 OA
ATOM     27  H   UNL     1      28.004 173.171 163.460  1.00  0.00     0.293 HD
ENDBRANCH   8  26
TORSDOF 6
ENDMDL
