MODEL 1
REMARK VINA RESULT:    -5.287      0.000      0.000
REMARK INTER + INTRA:          -9.603
REMARK INTER:                  -8.996
REMARK INTRA:                  -0.607
REMARK UNBOUND:                -0.607
REMARK SMILES CCCCCCCCCCCCCC(=O)[O-]
REMARK SMILES IDX 8 1 9 2 10 3 11 4 12 5 13 6 14 7 15 8 16 9 7 10 6 11 5 12
REMARK SMILES IDX 4 13 3 14 2 15 1 16
REMARK H PARENT
REMARK Flexibility Score: inf
ROOT
ATOM      1  C   UNL     1      27.963  40.211  32.577  1.00  0.00     0.000 C 
ENDROOT
BRANCH   1   2
ATOM      2  C   UNL     1      27.774  39.271  33.784  1.00  0.00     0.000 C 
BRANCH   2   3
ATOM      3  C   UNL     1      27.482  37.799  33.427  1.00  0.00     0.000 C 
BRANCH   3   4
ATOM      4  C   UNL     1      27.242  37.530  31.930  1.00  0.00     0.000 C 
BRANCH   4   5
ATOM      5  C   UNL     1      27.946  36.257  31.433  1.00  0.00     0.006 C 
BRANCH   5   6
ATOM      6  C   UNL     1      28.077  35.199  32.537  1.00  0.00     0.053 C 
BRANCH   6   7
ATOM      7  C   UNL     1      27.866  33.814  32.006  1.00  0.00     0.041 C 
ATOM      8  O   UNL     1      28.101  32.815  32.734  1.00  0.00    -0.550 OA
ATOM      9  O   UNL     1      27.444  33.628  30.696  1.00  0.00    -0.550 OA
ENDBRANCH   6   7
ENDBRANCH   5   6
ENDBRANCH   4   5
ENDBRANCH   3   4
ENDBRANCH   2   3
ENDBRANCH   1   2
BRANCH   1  10
ATOM     10  C   UNL     1      27.657  41.697  32.854  1.00  0.00     0.000 C 
BRANCH  10  11
ATOM     11  C   UNL     1      27.893  42.150  34.307  1.00  0.00    -0.000 C 
BRANCH  11  12
ATOM     12  C   UNL     1      26.848  43.140  34.856  1.00  0.00    -0.000 C 
BRANCH  12  13
ATOM     13  C   UNL     1      25.604  42.457  35.464  1.00  0.00    -0.000 C 
BRANCH  13  14
ATOM     14  C   UNL     1      24.641  43.461  36.115  1.00  0.00    -0.000 C 
BRANCH  14  15
ATOM     15  C   UNL     1      23.407  43.690  35.235  1.00  0.00    -0.003 C 
ATOM     16  C   UNL     1      22.456  44.700  35.871  1.00  0.00     0.004 C 
ENDBRANCH  14  15
ENDBRANCH  13  14
ENDBRANCH  12  13
ENDBRANCH  11  12
ENDBRANCH  10  11
ENDBRANCH   1  10
TORSDOF 12
ENDMDL
MODEL 2
REMARK VINA RESULT:    -5.272      1.261      2.173
REMARK INTER + INTRA:          -9.578
REMARK INTER:                  -9.139
REMARK INTRA:                  -0.439
REMARK UNBOUND:                -0.607
REMARK SMILES CCCCCCCCCCCCCC(=O)[O-]
REMARK SMILES IDX 8 1 9 2 10 3 11 4 12 5 13 6 14 7 15 8 16 9 7 10 6 11 5 12
REMARK SMILES IDX 4 13 3 14 2 15 1 16
REMARK H PARENT
REMARK Flexibility Score: inf
ROOT
ATOM      1  C   UNL     1      27.796  42.306  33.348  1.00  0.00     0.000 C 
ENDROOT
BRANCH   1   2
ATOM      2  C   UNL     1      27.730  40.834  32.896  1.00  0.00     0.000 C 
BRANCH   2   3
ATOM      3  C   UNL     1      27.268  39.838  33.979  1.00  0.00     0.000 C 
BRANCH   3   4
ATOM      4  C   UNL     1      27.682  38.375  33.733  1.00  0.00     0.000 C 
BRANCH   4   5
ATOM      5  C   UNL     1      27.471  37.932  32.276  1.00  0.00     0.006 C 
BRANCH   5   6
ATOM      6  C   UNL     1      27.011  36.471  32.177  1.00  0.00     0.053 C 
BRANCH   6   7
ATOM      7  C   UNL     1      27.694  35.605  33.191  1.00  0.00     0.041 C 
ATOM      8  O   UNL     1      28.776  35.029  32.905  1.00  0.00    -0.550 OA
ATOM      9  O   UNL     1      27.117  35.407  34.439  1.00  0.00    -0.550 OA
ENDBRANCH   6   7
ENDBRANCH   5   6
ENDBRANCH   4   5
ENDBRANCH   3   4
ENDBRANCH   2   3
ENDBRANCH   1   2
BRANCH   1  10
ATOM     10  C   UNL     1      27.886  42.517  34.873  1.00  0.00     0.000 C 
BRANCH  10  11
ATOM     11  C   UNL     1      26.853  43.502  35.455  1.00  0.00    -0.000 C 
BRANCH  11  12
ATOM     12  C   UNL     1      25.430  42.933  35.609  1.00  0.00    -0.000 C 
BRANCH  12  13
ATOM     13  C   UNL     1      24.379  43.990  36.013  1.00  0.00    -0.000 C 
BRANCH  13  14
ATOM     14  C   UNL     1      23.052  43.819  35.260  1.00  0.00    -0.000 C 
BRANCH  14  15
ATOM     15  C   UNL     1      21.947  44.675  35.889  1.00  0.00    -0.003 C 
ATOM     16  C   UNL     1      22.529  45.704  36.853  1.00  0.00     0.004 C 
ENDBRANCH  14  15
ENDBRANCH  13  14
ENDBRANCH  12  13
ENDBRANCH  11  12
ENDBRANCH  10  11
ENDBRANCH   1  10
TORSDOF 12
ENDMDL
MODEL 3
REMARK VINA RESULT:    -5.119      4.427      8.703
REMARK INTER + INTRA:          -9.317
REMARK INTER:                  -8.761
REMARK INTRA:                  -0.556
REMARK UNBOUND:                -0.607
REMARK SMILES CCCCCCCCCCCCCC(=O)[O-]
REMARK SMILES IDX 8 1 9 2 10 3 11 4 12 5 13 6 14 7 15 8 16 9 7 10 6 11 5 12
REMARK SMILES IDX 4 13 3 14 2 15 1 16
REMARK H PARENT
REMARK Flexibility Score: inf
ROOT
ATOM      1  C   UNL     1      28.030  39.305  32.258  1.00  0.00     0.000 C 
ENDROOT
BRANCH   1   2
ATOM      2  C   UNL     1      27.560  40.172  33.443  1.00  0.00     0.000 C 
BRANCH   2   3
ATOM      3  C   UNL     1      27.653  41.694  33.216  1.00  0.00     0.000 C 
BRANCH   3   4
ATOM      4  C   UNL     1      27.464  42.552  34.481  1.00  0.00     0.000 C 
BRANCH   4   5
ATOM      5  C   UNL     1      26.083  42.363  35.129  1.00  0.00     0.006 C 
BRANCH   5   6
ATOM      6  C   UNL     1      25.668  43.576  35.972  1.00  0.00     0.053 C 
BRANCH   6   7
ATOM      7  C   UNL     1      24.196  43.840  35.876  1.00  0.00     0.041 C 
ATOM      8  O   UNL     1      23.671  44.750  36.569  1.00  0.00    -0.550 OA
ATOM      9  O   UNL     1      23.401  43.058  35.049  1.00  0.00    -0.550 OA
ENDBRANCH   6   7
ENDBRANCH   5   6
ENDBRANCH   4   5
ENDBRANCH   3   4
ENDBRANCH   2   3
ENDBRANCH   1   2
BRANCH   1  10
ATOM     10  C   UNL     1      27.484  37.862  32.248  1.00  0.00     0.000 C 
BRANCH  10  11
ATOM     11  C   UNL     1      27.596  37.115  33.590  1.00  0.00    -0.000 C 
BRANCH  11  12
ATOM     12  C   UNL     1      27.370  35.594  33.507  1.00  0.00    -0.000 C 
BRANCH  12  13
ATOM     13  C   UNL     1      28.483  34.842  32.745  1.00  0.00    -0.000 C 
BRANCH  13  14
ATOM     14  C   UNL     1      27.923  33.813  31.751  1.00  0.00    -0.000 C 
BRANCH  14  15
ATOM     15  C   UNL     1      26.882  34.452  30.825  1.00  0.00    -0.003 C 
ATOM     16  C   UNL     1      26.243  33.409  29.912  1.00  0.00     0.004 C 
ENDBRANCH  14  15
ENDBRANCH  13  14
ENDBRANCH  12  13
ENDBRANCH  11  12
ENDBRANCH  10  11
ENDBRANCH   1  10
TORSDOF 12
ENDMDL
MODEL 4
REMARK VINA RESULT:    -5.010      4.209      8.682
REMARK INTER + INTRA:          -9.132
REMARK INTER:                  -8.395
REMARK INTRA:                  -0.737
REMARK UNBOUND:                -0.607
REMARK SMILES CCCCCCCCCCCCCC(=O)[O-]
REMARK SMILES IDX 8 1 9 2 10 3 11 4 12 5 13 6 14 7 15 8 16 9 7 10 6 11 5 12
REMARK SMILES IDX 4 13 3 14 2 15 1 16
REMARK H PARENT
REMARK Flexibility Score: inf
ROOT
ATOM      1  C   UNL     1      27.279  35.707  32.983  1.00  0.00     0.000 C 
ENDROOT
BRANCH   1   2
ATOM      2  C   UNL     1      27.565  37.160  33.410  1.00  0.00     0.000 C 
BRANCH   2   3
ATOM      3  C   UNL     1      27.151  38.236  32.385  1.00  0.00     0.000 C 
BRANCH   3   4
ATOM      4  C   UNL     1      28.230  39.290  32.079  1.00  0.00     0.000 C 
BRANCH   4   5
ATOM      5  C   UNL     1      27.793  40.717  32.452  1.00  0.00     0.006 C 
BRANCH   5   6
ATOM      6  C   UNL     1      27.293  40.809  33.900  1.00  0.00     0.053 C 
BRANCH   6   7
ATOM      7  C   UNL     1      27.204  42.230  34.366  1.00  0.00     0.041 C 
ATOM      8  O   UNL     1      27.968  43.104  33.879  1.00  0.00    -0.550 OA
ATOM      9  O   UNL     1      26.304  42.581  35.363  1.00  0.00    -0.550 OA
ENDBRANCH   6   7
ENDBRANCH   5   6
ENDBRANCH   4   5
ENDBRANCH   3   4
ENDBRANCH   2   3
ENDBRANCH   1   2
BRANCH   1  10
ATOM     10  C   UNL     1      28.507  34.920  32.482  1.00  0.00     0.000 C 
BRANCH  10  11
ATOM     11  C   UNL     1      28.513  34.616  30.972  1.00  0.00    -0.000 C 
BRANCH  11  12
ATOM     12  C   UNL     1      27.169  34.851  30.257  1.00  0.00    -0.000 C 
BRANCH  12  13
ATOM     13  C   UNL     1      26.381  33.554  29.973  1.00  0.00    -0.000 C 
BRANCH  13  14
ATOM     14  C   UNL     1      24.861  33.773  29.990  1.00  0.00    -0.000 C 
BRANCH  14  15
ATOM     15  C   UNL     1      24.136  32.659  29.225  1.00  0.00    -0.003 C 
ATOM     16  C   UNL     1      25.098  31.897  28.319  1.00  0.00     0.004 C 
ENDBRANCH  14  15
ENDBRANCH  13  14
ENDBRANCH  12  13
ENDBRANCH  11  12
ENDBRANCH  10  11
ENDBRANCH   1  10
TORSDOF 12
ENDMDL
MODEL 5
REMARK VINA RESULT:    -4.799      5.173      9.301
REMARK INTER + INTRA:          -8.772
REMARK INTER:                  -8.381
REMARK INTRA:                  -0.391
REMARK UNBOUND:                -0.607
REMARK SMILES CCCCCCCCCCCCCC(=O)[O-]
REMARK SMILES IDX 8 1 9 2 10 3 11 4 12 5 13 6 14 7 15 8 16 9 7 10 6 11 5 12
REMARK SMILES IDX 4 13 3 14 2 15 1 16
REMARK H PARENT
REMARK Flexibility Score: inf
ROOT
ATOM      1  C   UNL     1      27.838  40.925  33.049  1.00  0.00     0.000 C 
ENDROOT
BRANCH   1   2
ATOM      2  C   UNL     1      26.723  40.863  34.111  1.00  0.00     0.000 C 
BRANCH   2   3
ATOM      3  C   UNL     1      26.387  42.209  34.786  1.00  0.00     0.000 C 
BRANCH   3   4
ATOM      4  C   UNL     1      25.029  42.250  35.511  1.00  0.00     0.000 C 
BRANCH   4   5
ATOM      5  C   UNL     1      24.565  43.681  35.827  1.00  0.00     0.006 C 
BRANCH   5   6
ATOM      6  C   UNL     1      23.087  43.901  35.475  1.00  0.00     0.053 C 
BRANCH   6   7
ATOM      7  C   UNL     1      22.592  45.227  35.966  1.00  0.00     0.041 C 
ATOM      8  O   UNL     1      22.082  46.049  35.160  1.00  0.00    -0.550 OA
ATOM      9  O   UNL     1      22.727  45.569  37.305  1.00  0.00    -0.550 OA
ENDBRANCH   6   7
ENDBRANCH   5   6
ENDBRANCH   4   5
ENDBRANCH   3   4
ENDBRANCH   2   3
ENDBRANCH   1   2
BRANCH   1  10
ATOM     10  C   UNL     1      28.064  39.618  32.262  1.00  0.00     0.000 C 
BRANCH  10  11
ATOM     11  C   UNL     1      27.572  38.340  32.969  1.00  0.00    -0.000 C 
BRANCH  11  12
ATOM     12  C   UNL     1      27.176  37.189  32.026  1.00  0.00    -0.000 C 
BRANCH  12  13
ATOM     13  C   UNL     1      27.719  35.812  32.465  1.00  0.00    -0.000 C 
BRANCH  13  14
ATOM     14  C   UNL     1      28.566  35.139  31.375  1.00  0.00    -0.000 C 
BRANCH  14  15
ATOM     15  C   UNL     1      27.718  34.815  30.140  1.00  0.00    -0.003 C 
ATOM     16  C   UNL     1      26.746  33.673  30.423  1.00  0.00     0.004 C 
ENDBRANCH  14  15
ENDBRANCH  13  14
ENDBRANCH  12  13
ENDBRANCH  11  12
ENDBRANCH  10  11
ENDBRANCH   1  10
TORSDOF 12
ENDMDL
MODEL 6
REMARK VINA RESULT:    -4.792      4.304      8.695
REMARK INTER + INTRA:          -8.761
REMARK INTER:                  -8.029
REMARK INTRA:                  -0.732
REMARK UNBOUND:                -0.607
REMARK SMILES CCCCCCCCCCCCCC(=O)[O-]
REMARK SMILES IDX 8 1 9 2 10 3 11 4 12 5 13 6 14 7 15 8 16 9 7 10 6 11 5 12
REMARK SMILES IDX 4 13 3 14 2 15 1 16
REMARK H PARENT
REMARK Flexibility Score: inf
ROOT
ATOM      1  C   UNL     1      27.147  36.159  34.512  1.00  0.00     0.000 C 
ENDROOT
BRANCH   1   2
ATOM      2  C   UNL     1      27.171  37.694  34.373  1.00  0.00     0.000 C 
BRANCH   2   3
ATOM      3  C   UNL     1      27.243  38.218  32.925  1.00  0.00     0.000 C 
BRANCH   3   4
ATOM      4  C   UNL     1      28.062  39.509  32.741  1.00  0.00     0.000 C 
BRANCH   4   5
ATOM      5  C   UNL     1      27.889  40.496  33.908  1.00  0.00     0.006 C 
BRANCH   5   6
ATOM      6  C   UNL     1      27.556  41.913  33.421  1.00  0.00     0.053 C 
BRANCH   6   7
ATOM      7  C   UNL     1      27.468  42.883  34.560  1.00  0.00     0.041 C 
ATOM      8  O   UNL     1      26.394  43.004  35.206  1.00  0.00    -0.550 OA
ATOM      9  O   UNL     1      28.560  43.678  34.884  1.00  0.00    -0.550 OA
ENDBRANCH   6   7
ENDBRANCH   5   6
ENDBRANCH   4   5
ENDBRANCH   3   4
ENDBRANCH   2   3
ENDBRANCH   1   2
BRANCH   1  10
ATOM     10  C   UNL     1      27.318  35.381  33.192  1.00  0.00     0.000 C 
BRANCH  10  11
ATOM     11  C   UNL     1      28.421  34.304  33.210  1.00  0.00    -0.000 C 
BRANCH  11  12
ATOM     12  C   UNL     1      28.394  33.329  32.018  1.00  0.00    -0.000 C 
BRANCH  12  13
ATOM     13  C   UNL     1      27.194  33.539  31.069  1.00  0.00    -0.000 C 
BRANCH  13  14
ATOM     14  C   UNL     1      27.626  33.976  29.662  1.00  0.00    -0.000 C 
BRANCH  14  15
ATOM     15  C   UNL     1      28.696  35.073  29.729  1.00  0.00    -0.003 C 
ATOM     16  C   UNL     1      29.863  34.762  28.798  1.00  0.00     0.004 C 
ENDBRANCH  14  15
ENDBRANCH  13  14
ENDBRANCH  12  13
ENDBRANCH  11  12
ENDBRANCH  10  11
ENDBRANCH   1  10
TORSDOF 12
ENDMDL
MODEL 7
REMARK VINA RESULT:    -4.789      4.840      9.466
REMARK INTER + INTRA:          -8.755
REMARK INTER:                  -8.024
REMARK INTRA:                  -0.731
REMARK UNBOUND:                -0.607
REMARK SMILES CCCCCCCCCCCCCC(=O)[O-]
REMARK SMILES IDX 8 1 9 2 10 3 11 4 12 5 13 6 14 7 15 8 16 9 7 10 6 11 5 12
REMARK SMILES IDX 4 13 3 14 2 15 1 16
REMARK H PARENT
REMARK Flexibility Score: inf
ROOT
ATOM      1  C   UNL     1      26.312  33.793  30.103  1.00  0.00     0.000 C 
ENDROOT
BRANCH   1   2
ATOM      2  C   UNL     1      27.850  33.804  30.005  1.00  0.00     0.000 C 
BRANCH   2   3
ATOM      3  C   UNL     1      28.543  34.968  30.743  1.00  0.00     0.000 C 
BRANCH   3   4
ATOM      4  C   UNL     1      28.606  34.820  32.274  1.00  0.00     0.000 C 
BRANCH   4   5
ATOM      5  C   UNL     1      27.644  35.773  33.005  1.00  0.00     0.006 C 
BRANCH   5   6
ATOM      6  C   UNL     1      27.132  36.892  32.089  1.00  0.00     0.053 C 
BRANCH   6   7
ATOM      7  C   UNL     1      27.387  38.247  32.674  1.00  0.00     0.041 C 
ATOM      8  O   UNL     1      27.040  38.501  33.857  1.00  0.00    -0.550 OA
ATOM      9  O   UNL     1      27.976  39.240  31.901  1.00  0.00    -0.550 OA
ENDBRANCH   6   7
ENDBRANCH   5   6
ENDBRANCH   4   5
ENDBRANCH   3   4
ENDBRANCH   2   3
ENDBRANCH   1   2
BRANCH   1  10
ATOM     10  C   UNL     1      25.610  32.738  29.223  1.00  0.00     0.000 C 
BRANCH  10  11
ATOM     11  C   UNL     1      24.074  32.706  29.348  1.00  0.00    -0.000 C 
BRANCH  11  12
ATOM     12  C   UNL     1      23.322  32.451  28.028  1.00  0.00    -0.000 C 
BRANCH  12  13
ATOM     13  C   UNL     1      22.365  31.240  28.083  1.00  0.00    -0.000 C 
BRANCH  13  14
ATOM     14  C   UNL     1      22.502  30.440  29.388  1.00  0.00    -0.000 C 
BRANCH  14  15
ATOM     15  C   UNL     1      21.155  30.335  30.113  1.00  0.00    -0.003 C 
ATOM     16  C   UNL     1      20.706  31.695  30.639  1.00  0.00     0.004 C 
ENDBRANCH  14  15
ENDBRANCH  13  14
ENDBRANCH  12  13
ENDBRANCH  11  12
ENDBRANCH  10  11
ENDBRANCH   1  10
TORSDOF 12
ENDMDL
MODEL 8
REMARK VINA RESULT:    -4.725      3.219      5.864
REMARK INTER + INTRA:          -8.647
REMARK INTER:                  -7.775
REMARK INTRA:                  -0.872
REMARK UNBOUND:                -0.607
REMARK SMILES CCCCCCCCCCCCCC(=O)[O-]
REMARK SMILES IDX 8 1 9 2 10 3 11 4 12 5 13 6 14 7 15 8 16 9 7 10 6 11 5 12
REMARK SMILES IDX 4 13 3 14 2 15 1 16
REMARK H PARENT
REMARK Flexibility Score: inf
ROOT
ATOM      1  C   UNL     1      28.864  34.926  31.147  1.00  0.00     0.000 C 
ENDROOT
BRANCH   1   2
ATOM      2  C   UNL     1      28.082  34.131  30.084  1.00  0.00     0.000 C 
BRANCH   2   3
ATOM      3  C   UNL     1      26.765  33.499  30.578  1.00  0.00     0.000 C 
BRANCH   3   4
ATOM      4  C   UNL     1      25.486  34.233  30.134  1.00  0.00     0.000 C 
BRANCH   4   5
ATOM      5  C   UNL     1      24.369  33.272  29.693  1.00  0.00     0.006 C 
BRANCH   5   6
ATOM      6  C   UNL     1      24.876  32.209  28.709  1.00  0.00     0.053 C 
BRANCH   6   7
ATOM      7  C   UNL     1      23.872  31.115  28.509  1.00  0.00     0.041 C 
ATOM      8  O   UNL     1      22.647  31.389  28.423  1.00  0.00    -0.550 OA
ATOM      9  O   UNL     1      24.287  29.791  28.453  1.00  0.00    -0.550 OA
ENDBRANCH   6   7
ENDBRANCH   5   6
ENDBRANCH   4   5
ENDBRANCH   3   4
ENDBRANCH   2   3
ENDBRANCH   1   2
BRANCH   1  10
ATOM     10  C   UNL     1      28.258  34.892  32.565  1.00  0.00     0.000 C 
BRANCH  10  11
ATOM     11  C   UNL     1      27.527  36.179  32.992  1.00  0.00    -0.000 C 
BRANCH  11  12
ATOM     12  C   UNL     1      27.267  37.185  31.854  1.00  0.00    -0.000 C 
BRANCH  12  13
ATOM     13  C   UNL     1      27.714  38.625  32.184  1.00  0.00    -0.000 C 
BRANCH  13  14
ATOM     14  C   UNL     1      27.792  38.886  33.696  1.00  0.00    -0.000 C 
BRANCH  14  15
ATOM     15  C   UNL     1      27.876  40.388  33.992  1.00  0.00    -0.003 C 
ATOM     16  C   UNL     1      26.491  40.981  34.228  1.00  0.00     0.004 C 
ENDBRANCH  14  15
ENDBRANCH  13  14
ENDBRANCH  12  13
ENDBRANCH  11  12
ENDBRANCH  10  11
ENDBRANCH   1  10
TORSDOF 12
ENDMDL
MODEL 9
REMARK VINA RESULT:    -4.629      5.504      9.232
REMARK INTER + INTRA:          -8.484
REMARK INTER:                  -7.954
REMARK INTRA:                  -0.530
REMARK UNBOUND:                -0.607
REMARK SMILES CCCCCCCCCCCCCC(=O)[O-]
REMARK SMILES IDX 8 1 9 2 10 3 11 4 12 5 13 6 14 7 15 8 16 9 7 10 6 11 5 12
REMARK SMILES IDX 4 13 3 14 2 15 1 16
REMARK H PARENT
REMARK Flexibility Score: inf
ROOT
ATOM      1  C   UNL     1      27.374  43.273  34.457  1.00  0.00     0.000 C 
ENDROOT
BRANCH   1   2
ATOM      2  C   UNL     1      26.678  43.912  35.673  1.00  0.00     0.000 C 
BRANCH   2   3
ATOM      3  C   UNL     1      25.438  43.155  36.190  1.00  0.00     0.000 C 
BRANCH   3   4
ATOM      4  C   UNL     1      24.146  43.402  35.388  1.00  0.00     0.000 C 
BRANCH   4   5
ATOM      5  C   UNL     1      23.359  44.625  35.887  1.00  0.00     0.006 C 
BRANCH   5   6
ATOM      6  C   UNL     1      21.929  44.658  35.332  1.00  0.00     0.053 C 
BRANCH   6   7
ATOM      7  C   UNL     1      21.441  46.062  35.142  1.00  0.00     0.041 C 
ATOM      8  O   UNL     1      22.215  47.034  35.344  1.00  0.00    -0.550 OA
ATOM      9  O   UNL     1      20.121  46.298  34.778  1.00  0.00    -0.550 OA
ENDBRANCH   6   7
ENDBRANCH   5   6
ENDBRANCH   4   5
ENDBRANCH   3   4
ENDBRANCH   2   3
ENDBRANCH   1   2
BRANCH   1  10
ATOM     10  C   UNL     1      27.867  41.827  34.672  1.00  0.00     0.000 C 
BRANCH  10  11
ATOM     11  C   UNL     1      27.466  40.832  33.565  1.00  0.00    -0.000 C 
BRANCH  11  12
ATOM     12  C   UNL     1      26.920  39.484  34.071  1.00  0.00    -0.000 C 
BRANCH  12  13
ATOM     13  C   UNL     1      27.709  38.261  33.554  1.00  0.00    -0.000 C 
BRANCH  13  14
ATOM     14  C   UNL     1      27.146  37.713  32.235  1.00  0.00    -0.000 C 
BRANCH  14  15
ATOM     15  C   UNL     1      27.777  36.359  31.888  1.00  0.00    -0.003 C 
ATOM     16  C   UNL     1      27.832  35.447  33.110  1.00  0.00     0.004 C 
ENDBRANCH  14  15
ENDBRANCH  13  14
ENDBRANCH  12  13
ENDBRANCH  11  12
ENDBRANCH  10  11
ENDBRANCH   1  10
TORSDOF 12
ENDMDL
