MODEL 1
REMARK VINA RESULT:    -3.485      0.000      0.000
REMARK INTER + INTRA:          -6.881
REMARK INTER:                  -5.522
REMARK INTRA:                  -1.359
REMARK UNBOUND:                -1.359
REMARK SMILES CCCCCCCCCCCC(=O)[O-]
REMARK SMILES IDX 7 1 8 2 9 3 10 4 11 5 12 6 13 7 14 8 6 9 5 10 4 11 3 12 2 13
REMARK SMILES IDX 1 14
REMARK H PARENT
REMARK Flexibility Score: inf
ROOT
ATOM      1  C   UNL     1      11.496  14.615  11.165  1.00  0.00     0.000 C 
ENDROOT
BRANCH   1   2
ATOM      2  C   UNL     1      10.350  15.010  12.114  1.00  0.00     0.000 C 
BRANCH   2   3
ATOM      3  C   UNL     1       9.568  13.794  12.641  1.00  0.00     0.000 C 
BRANCH   3   4
ATOM      4  C   UNL     1      10.204  12.454  12.228  1.00  0.00     0.006 C 
BRANCH   4   5
ATOM      5  C   UNL     1      10.813  11.660  13.395  1.00  0.00     0.053 C 
BRANCH   5   6
ATOM      6  C   UNL     1      12.162  11.106  13.055  1.00  0.00     0.041 C 
ATOM      7  O   UNL     1      12.285  10.264  12.127  1.00  0.00    -0.550 OA
ATOM      8  O   UNL     1      13.278  11.497  13.782  1.00  0.00    -0.550 OA
ENDBRANCH   5   6
ENDBRANCH   4   5
ENDBRANCH   3   4
ENDBRANCH   2   3
ENDBRANCH   1   2
BRANCH   1   9
ATOM      9  C   UNL     1      11.516  15.375   9.823  1.00  0.00     0.000 C 
BRANCH   9  10
ATOM     10  C   UNL     1      10.301  15.124   8.909  1.00  0.00    -0.000 C 
BRANCH  10  11
ATOM     11  C   UNL     1       9.916  13.645   8.734  1.00  0.00    -0.000 C 
BRANCH  11  12
ATOM     12  C   UNL     1      10.961  12.849   7.932  1.00  0.00    -0.000 C 
BRANCH  12  13
ATOM     13  C   UNL     1      11.573  11.697   8.742  1.00  0.00    -0.003 C 
ATOM     14  C   UNL     1      13.035  11.946   9.109  1.00  0.00     0.004 C 
ENDBRANCH  12  13
ENDBRANCH  11  12
ENDBRANCH  10  11
ENDBRANCH   9  10
ENDBRANCH   1   9
TORSDOF 10
ENDMDL
MODEL 2
REMARK VINA RESULT:    -3.482      5.695      8.314
REMARK INTER + INTRA:          -6.877
REMARK INTER:                  -6.133
REMARK INTRA:                  -0.744
REMARK UNBOUND:                -1.359
REMARK SMILES CCCCCCCCCCCC(=O)[O-]
REMARK SMILES IDX 7 1 8 2 9 3 10 4 11 5 12 6 13 7 14 8 6 9 5 10 4 11 3 12 2 13
REMARK SMILES IDX 1 14
REMARK H PARENT
REMARK Flexibility Score: inf
ROOT
ATOM      1  C   UNL     1      15.405  12.312  18.014  1.00  0.00     0.000 C 
ENDROOT
BRANCH   1   2
ATOM      2  C   UNL     1      15.523  11.946  16.524  1.00  0.00     0.000 C 
BRANCH   2   3
ATOM      3  C   UNL     1      14.153  11.757  15.848  1.00  0.00     0.000 C 
BRANCH   3   4
ATOM      4  C   UNL     1      14.259  11.619  14.319  1.00  0.00     0.006 C 
BRANCH   4   5
ATOM      5  C   UNL     1      12.987  11.079  13.646  1.00  0.00     0.053 C 
BRANCH   5   6
ATOM      6  C   UNL     1      12.446  12.028  12.621  1.00  0.00     0.041 C 
ATOM      7  O   UNL     1      13.203  12.498  11.733  1.00  0.00    -0.550 OA
ATOM      8  O   UNL     1      11.113  12.415  12.666  1.00  0.00    -0.550 OA
ENDBRANCH   5   6
ENDBRANCH   4   5
ENDBRANCH   3   4
ENDBRANCH   2   3
ENDBRANCH   1   2
BRANCH   1   9
ATOM      9  C   UNL     1      16.649  11.981  18.863  1.00  0.00     0.000 C 
BRANCH   9  10
ATOM     10  C   UNL     1      17.972  12.582  18.348  1.00  0.00    -0.000 C 
BRANCH  10  11
ATOM     11  C   UNL     1      19.110  11.566  18.150  1.00  0.00    -0.000 C 
BRANCH  11  12
ATOM     12  C   UNL     1      19.582  11.478  16.688  1.00  0.00    -0.000 C 
BRANCH  12  13
ATOM     13  C   UNL     1      18.973  12.577  15.805  1.00  0.00    -0.003 C 
ATOM     14  C   UNL     1      18.569  12.067  14.423  1.00  0.00     0.004 C 
ENDBRANCH  12  13
ENDBRANCH  11  12
ENDBRANCH  10  11
ENDBRANCH   9  10
ENDBRANCH   1   9
TORSDOF 10
ENDMDL
MODEL 3
REMARK VINA RESULT:    -3.354      2.574      4.637
REMARK INTER + INTRA:          -6.674
REMARK INTER:                  -5.074
REMARK INTRA:                  -1.599
REMARK UNBOUND:                -1.359
REMARK SMILES CCCCCCCCCCCC(=O)[O-]
REMARK SMILES IDX 7 1 8 2 9 3 10 4 11 5 12 6 13 7 14 8 6 9 5 10 4 11 3 12 2 13
REMARK SMILES IDX 1 14
REMARK H PARENT
REMARK Flexibility Score: inf
ROOT
ATOM      1  C   UNL     1      12.179  11.022  11.814  1.00  0.00     0.000 C 
ENDROOT
BRANCH   1   2
ATOM      2  C   UNL     1      10.975  10.219  11.288  1.00  0.00     0.000 C 
BRANCH   2   3
ATOM      3  C   UNL     1       9.744  11.102  11.020  1.00  0.00     0.000 C 
BRANCH   3   4
ATOM      4  C   UNL     1       9.374  11.169   9.527  1.00  0.00     0.006 C 
BRANCH   4   5
ATOM      5  C   UNL     1       9.470  12.577   8.917  1.00  0.00     0.053 C 
BRANCH   5   6
ATOM      6  C   UNL     1      10.429  12.628   7.769  1.00  0.00     0.041 C 
ATOM      7  O   UNL     1      10.368  13.569   6.934  1.00  0.00    -0.550 OA
ATOM      8  O   UNL     1      11.372  11.622   7.604  1.00  0.00    -0.550 OA
ENDBRANCH   5   6
ENDBRANCH   4   5
ENDBRANCH   3   4
ENDBRANCH   2   3
ENDBRANCH   1   2
BRANCH   1   9
ATOM      9  C   UNL     1      12.828  11.967  10.784  1.00  0.00     0.000 C 
BRANCH   9  10
ATOM     10  C   UNL     1      12.962  13.435  11.234  1.00  0.00    -0.000 C 
BRANCH  10  11
ATOM     11  C   UNL     1      12.483  14.474  10.206  1.00  0.00    -0.000 C 
BRANCH  11  12
ATOM     12  C   UNL     1      11.227  15.233  10.668  1.00  0.00    -0.000 C 
BRANCH  12  13
ATOM     13  C   UNL     1      10.758  14.800  12.065  1.00  0.00    -0.003 C 
ATOM     14  C   UNL     1       9.244  14.613  12.147  1.00  0.00     0.004 C 
ENDBRANCH  12  13
ENDBRANCH  11  12
ENDBRANCH  10  11
ENDBRANCH   9  10
ENDBRANCH   1   9
TORSDOF 10
ENDMDL
MODEL 4
REMARK VINA RESULT:    -3.349      2.079      4.076
REMARK INTER + INTRA:          -6.666
REMARK INTER:                  -5.116
REMARK INTRA:                  -1.551
REMARK UNBOUND:                -1.359
REMARK SMILES CCCCCCCCCCCC(=O)[O-]
REMARK SMILES IDX 7 1 8 2 9 3 10 4 11 5 12 6 13 7 14 8 6 9 5 10 4 11 3 12 2 13
REMARK SMILES IDX 1 14
REMARK H PARENT
REMARK Flexibility Score: inf
ROOT
ATOM      1  C   UNL     1      10.721  15.304  12.056  1.00  0.00     0.000 C 
ENDROOT
BRANCH   1   2
ATOM      2  C   UNL     1      11.338  14.914  10.701  1.00  0.00     0.000 C 
BRANCH   2   3
ATOM      3  C   UNL     1      12.712  14.236  10.847  1.00  0.00     0.000 C 
BRANCH   3   4
ATOM      4  C   UNL     1      12.900  13.057   9.876  1.00  0.00     0.006 C 
BRANCH   4   5
ATOM      5  C   UNL     1      11.710  12.825   8.931  1.00  0.00     0.053 C 
BRANCH   5   6
ATOM      6  C   UNL     1      11.882  11.588   8.103  1.00  0.00     0.041 C 
ATOM      7  O   UNL     1      11.048  11.308   7.203  1.00  0.00    -0.550 OA
ATOM      8  O   UNL     1      12.946  10.731   8.347  1.00  0.00    -0.550 OA
ENDBRANCH   5   6
ENDBRANCH   4   5
ENDBRANCH   3   4
ENDBRANCH   2   3
ENDBRANCH   1   2
BRANCH   1   9
ATOM      9  C   UNL     1       9.503  14.459  12.481  1.00  0.00     0.000 C 
BRANCH   9  10
ATOM     10  C   UNL     1       9.236  13.213  11.614  1.00  0.00    -0.000 C 
BRANCH  10  11
ATOM     11  C   UNL     1       9.555  11.871  12.295  1.00  0.00    -0.000 C 
BRANCH  11  12
ATOM     12  C   UNL     1      10.812  11.936  13.179  1.00  0.00    -0.000 C 
BRANCH  12  13
ATOM     13  C   UNL     1      11.873  10.903  12.772  1.00  0.00    -0.003 C 
ATOM     14  C   UNL     1      11.458  10.082  11.552  1.00  0.00     0.004 C 
ENDBRANCH  12  13
ENDBRANCH  11  12
ENDBRANCH  10  11
ENDBRANCH   9  10
ENDBRANCH   1   9
TORSDOF 10
ENDMDL
MODEL 5
REMARK VINA RESULT:    -3.318      3.040      4.782
REMARK INTER + INTRA:          -6.617
REMARK INTER:                  -5.409
REMARK INTRA:                  -1.208
REMARK UNBOUND:                -1.359
REMARK SMILES CCCCCCCCCCCC(=O)[O-]
REMARK SMILES IDX 7 1 8 2 9 3 10 4 11 5 12 6 13 7 14 8 6 9 5 10 4 11 3 12 2 13
REMARK SMILES IDX 1 14
REMARK H PARENT
REMARK Flexibility Score: inf
ROOT
ATOM      1  C   UNL     1       9.306  13.388  13.245  1.00  0.00     0.000 C 
ENDROOT
BRANCH   1   2
ATOM      2  C   UNL     1       9.361  14.561  12.249  1.00  0.00     0.000 C 
BRANCH   2   3
ATOM      3  C   UNL     1      10.798  15.020  11.950  1.00  0.00     0.000 C 
BRANCH   3   4
ATOM      4  C   UNL     1      11.091  15.116  10.443  1.00  0.00     0.006 C 
BRANCH   4   5
ATOM      5  C   UNL     1       9.983  14.536   9.548  1.00  0.00     0.053 C 
BRANCH   5   6
ATOM      6  C   UNL     1      10.000  15.132   8.174  1.00  0.00     0.041 C 
ATOM      7  O   UNL     1      10.323  16.337   8.011  1.00  0.00    -0.550 OA
ATOM      8  O   UNL     1       9.629  14.364   7.079  1.00  0.00    -0.550 OA
ENDBRANCH   5   6
ENDBRANCH   4   5
ENDBRANCH   3   4
ENDBRANCH   2   3
ENDBRANCH   1   2
BRANCH   1   9
ATOM      9  C   UNL     1       9.882  12.061  12.714  1.00  0.00     0.000 C 
BRANCH   9  10
ATOM     10  C   UNL     1      11.198  11.606  13.376  1.00  0.00    -0.000 C 
BRANCH  10  11
ATOM     11  C   UNL     1      12.261  11.069  12.403  1.00  0.00    -0.000 C 
BRANCH  11  12
ATOM     12  C   UNL     1      11.649  10.312  11.211  1.00  0.00    -0.000 C 
BRANCH  12  13
ATOM     13  C   UNL     1      11.981  10.970   9.863  1.00  0.00    -0.003 C 
ATOM     14  C   UNL     1      12.987  12.112   9.997  1.00  0.00     0.004 C 
ENDBRANCH  12  13
ENDBRANCH  11  12
ENDBRANCH  10  11
ENDBRANCH   9  10
ENDBRANCH   1   9
TORSDOF 10
ENDMDL
MODEL 6
REMARK VINA RESULT:    -3.305      1.279      2.634
REMARK INTER + INTRA:          -6.597
REMARK INTER:                  -5.103
REMARK INTRA:                  -1.494
REMARK UNBOUND:                -1.359
REMARK SMILES CCCCCCCCCCCC(=O)[O-]
REMARK SMILES IDX 7 1 8 2 9 3 10 4 11 5 12 6 13 7 14 8 6 9 5 10 4 11 3 12 2 13
REMARK SMILES IDX 1 14
REMARK H PARENT
REMARK Flexibility Score: inf
ROOT
ATOM      1  C   UNL     1       9.234  13.075  13.431  1.00  0.00     0.000 C 
ENDROOT
BRANCH   1   2
ATOM      2  C   UNL     1       9.186  11.554  13.199  1.00  0.00     0.000 C 
BRANCH   2   3
ATOM      3  C   UNL     1       9.744  11.144  11.824  1.00  0.00     0.000 C 
BRANCH   3   4
ATOM      4  C   UNL     1      10.865  10.094  11.927  1.00  0.00     0.006 C 
BRANCH   4   5
ATOM      5  C   UNL     1      12.269  10.642  11.625  1.00  0.00     0.053 C 
BRANCH   5   6
ATOM      6  C   UNL     1      12.721  11.630  12.655  1.00  0.00     0.041 C 
ATOM      7  O   UNL     1      13.224  12.729  12.301  1.00  0.00    -0.550 OA
ATOM      8  O   UNL     1      12.614  11.326  14.006  1.00  0.00    -0.550 OA
ENDBRANCH   5   6
ENDBRANCH   4   5
ENDBRANCH   3   4
ENDBRANCH   2   3
ENDBRANCH   1   2
BRANCH   1   9
ATOM      9  C   UNL     1       9.298  13.924  12.146  1.00  0.00     0.000 C 
BRANCH   9  10
ATOM     10  C   UNL     1      10.404  14.998  12.124  1.00  0.00    -0.000 C 
BRANCH  10  11
ATOM     11  C   UNL     1      11.206  15.075  10.813  1.00  0.00    -0.000 C 
BRANCH  11  12
ATOM     12  C   UNL     1      10.743  14.043   9.771  1.00  0.00    -0.000 C 
BRANCH  12  13
ATOM     13  C   UNL     1      11.918  13.301   9.115  1.00  0.00    -0.003 C 
ATOM     14  C   UNL     1      11.464  12.122   8.255  1.00  0.00     0.004 C 
ENDBRANCH  12  13
ENDBRANCH  11  12
ENDBRANCH  10  11
ENDBRANCH   9  10
ENDBRANCH   1   9
TORSDOF 10
ENDMDL
MODEL 7
REMARK VINA RESULT:    -3.304      1.783      3.368
REMARK INTER + INTRA:          -6.594
REMARK INTER:                  -5.075
REMARK INTRA:                  -1.519
REMARK UNBOUND:                -1.359
REMARK SMILES CCCCCCCCCCCC(=O)[O-]
REMARK SMILES IDX 7 1 8 2 9 3 10 4 11 5 12 6 13 7 14 8 6 9 5 10 4 11 3 12 2 13
REMARK SMILES IDX 1 14
REMARK H PARENT
REMARK Flexibility Score: inf
ROOT
ATOM      1  C   UNL     1      12.639  11.808   9.111  1.00  0.00     0.000 C 
ENDROOT
BRANCH   1   2
ATOM      2  C   UNL     1      12.279  10.830  10.243  1.00  0.00     0.000 C 
BRANCH   2   3
ATOM      3  C   UNL     1      12.455  11.447  11.642  1.00  0.00     0.000 C 
BRANCH   3   4
ATOM      4  C   UNL     1      11.640  10.714  12.722  1.00  0.00     0.006 C 
BRANCH   4   5
ATOM      5  C   UNL     1      10.163  11.133  12.789  1.00  0.00     0.053 C 
BRANCH   5   6
ATOM      6  C   UNL     1       9.863  11.948  14.009  1.00  0.00     0.041 C 
ATOM      7  O   UNL     1       9.106  12.951  13.930  1.00  0.00    -0.550 OA
ATOM      8  O   UNL     1      10.444  11.618  15.226  1.00  0.00    -0.550 OA
ENDBRANCH   5   6
ENDBRANCH   4   5
ENDBRANCH   3   4
ENDBRANCH   2   3
ENDBRANCH   1   2
BRANCH   1   9
ATOM      9  C   UNL     1      11.535  12.011   8.055  1.00  0.00     0.000 C 
BRANCH   9  10
ATOM     10  C   UNL     1      10.140  12.341   8.620  1.00  0.00    -0.000 C 
BRANCH  10  11
ATOM     11  C   UNL     1       9.942  13.807   9.043  1.00  0.00    -0.000 C 
BRANCH  11  12
ATOM     12  C   UNL     1       9.739  13.967  10.559  1.00  0.00    -0.000 C 
BRANCH  12  13
ATOM     13  C   UNL     1      10.842  14.811  11.215  1.00  0.00    -0.003 C 
ATOM     14  C   UNL     1      11.913  15.258  10.220  1.00  0.00     0.004 C 
ENDBRANCH  12  13
ENDBRANCH  11  12
ENDBRANCH  10  11
ENDBRANCH   9  10
ENDBRANCH   1   9
TORSDOF 10
ENDMDL
MODEL 8
REMARK VINA RESULT:    -3.300      1.902      3.542
REMARK INTER + INTRA:          -6.588
REMARK INTER:                  -4.925
REMARK INTRA:                  -1.664
REMARK UNBOUND:                -1.359
REMARK SMILES CCCCCCCCCCCC(=O)[O-]
REMARK SMILES IDX 7 1 8 2 9 3 10 4 11 5 12 6 13 7 14 8 6 9 5 10 4 11 3 12 2 13
REMARK SMILES IDX 1 14
REMARK H PARENT
REMARK Flexibility Score: inf
ROOT
ATOM      1  C   UNL     1      12.824  12.488   9.947  1.00  0.00     0.000 C 
ENDROOT
BRANCH   1   2
ATOM      2  C   UNL     1      13.061  13.825  10.672  1.00  0.00     0.000 C 
BRANCH   2   3
ATOM      3  C   UNL     1      12.003  14.886  10.321  1.00  0.00     0.000 C 
BRANCH   3   4
ATOM      4  C   UNL     1      10.971  15.091  11.444  1.00  0.00     0.006 C 
BRANCH   4   5
ATOM      5  C   UNL     1       9.661  14.310  11.245  1.00  0.00     0.053 C 
BRANCH   5   6
ATOM      6  C   UNL     1       9.691  12.977  11.927  1.00  0.00     0.041 C 
ATOM      7  O   UNL     1      10.238  12.856  13.055  1.00  0.00    -0.550 OA
ATOM      8  O   UNL     1       9.142  11.865  11.305  1.00  0.00    -0.550 OA
ENDBRANCH   5   6
ENDBRANCH   4   5
ENDBRANCH   3   4
ENDBRANCH   2   3
ENDBRANCH   1   2
BRANCH   1   9
ATOM      9  C   UNL     1      12.249  12.615   8.523  1.00  0.00     0.000 C 
BRANCH   9  10
ATOM     10  C   UNL     1      10.959  11.813   8.263  1.00  0.00    -0.000 C 
BRANCH  10  11
ATOM     11  C   UNL     1       9.730  12.663   7.900  1.00  0.00    -0.000 C 
BRANCH  11  12
ATOM     12  C   UNL     1      10.101  13.969   7.176  1.00  0.00    -0.000 C 
BRANCH  12  13
ATOM     13  C   UNL     1       9.248  15.160   7.635  1.00  0.00    -0.003 C 
ATOM     14  C   UNL     1       9.967  16.499   7.470  1.00  0.00     0.004 C 
ENDBRANCH  12  13
ENDBRANCH  11  12
ENDBRANCH  10  11
ENDBRANCH   9  10
ENDBRANCH   1   9
TORSDOF 10
ENDMDL
MODEL 9
REMARK VINA RESULT:    -3.271      1.152      2.400
REMARK INTER + INTRA:          -6.543
REMARK INTER:                  -5.259
REMARK INTRA:                  -1.284
REMARK UNBOUND:                -1.359
REMARK SMILES CCCCCCCCCCCC(=O)[O-]
REMARK SMILES IDX 7 1 8 2 9 3 10 4 11 5 12 6 13 7 14 8 6 9 5 10 4 11 3 12 2 13
REMARK SMILES IDX 1 14
REMARK H PARENT
REMARK Flexibility Score: inf
ROOT
ATOM      1  C   UNL     1      11.140  15.006  11.802  1.00  0.00     0.000 C 
ENDROOT
BRANCH   1   2
ATOM      2  C   UNL     1       9.648  14.891  12.161  1.00  0.00     0.000 C 
BRANCH   2   3
ATOM      3  C   UNL     1       9.317  13.594  12.921  1.00  0.00     0.000 C 
BRANCH   3   4
ATOM      4  C   UNL     1       9.778  12.331  12.172  1.00  0.00     0.006 C 
BRANCH   4   5
ATOM      5  C   UNL     1      10.775  11.463  12.957  1.00  0.00     0.053 C 
BRANCH   5   6
ATOM      6  C   UNL     1      12.108  11.384  12.278  1.00  0.00     0.041 C 
ATOM      7  O   UNL     1      13.043  12.151  12.627  1.00  0.00    -0.550 OA
ATOM      8  O   UNL     1      12.307  10.484  11.239  1.00  0.00    -0.550 OA
ENDBRANCH   5   6
ENDBRANCH   4   5
ENDBRANCH   3   4
ENDBRANCH   2   3
ENDBRANCH   1   2
BRANCH   1   9
ATOM      9  C   UNL     1      11.431  15.242  10.307  1.00  0.00     0.000 C 
BRANCH   9  10
ATOM     10  C   UNL     1      11.777  13.976   9.499  1.00  0.00    -0.000 C 
BRANCH  10  11
ATOM     11  C   UNL     1      10.631  13.429   8.630  1.00  0.00    -0.000 C 
BRANCH  11  12
ATOM     12  C   UNL     1       9.510  14.458   8.407  1.00  0.00    -0.000 C 
BRANCH  12  13
ATOM     13  C   UNL     1       9.637  15.185   7.060  1.00  0.00    -0.003 C 
ATOM     14  C   UNL     1       9.743  16.701   7.216  1.00  0.00     0.004 C 
ENDBRANCH  12  13
ENDBRANCH  11  12
ENDBRANCH  10  11
ENDBRANCH   9  10
ENDBRANCH   1   9
TORSDOF 10
ENDMDL
