MODEL 1
REMARK VINA RESULT:    -6.242      0.000      0.000
REMARK INTER + INTRA:          -7.629
REMARK INTER:                  -7.336
REMARK INTRA:                  -0.292
REMARK UNBOUND:                -0.292
REMARK SMILES O=c1cc(-c2ccc(O)c(O)c2)oc2cc(O)cc(O)c12
REMARK SMILES IDX 4 1 3 2 2 3 1 4 21 5 19 6 18 7 16 8 15 9 14 10 13 11 5 12
REMARK SMILES IDX 6 13 7 14 8 15 12 16 10 17 9 18 11 20 20 22 17 24
REMARK H PARENT 9 19 11 21 20 23 17 25
REMARK Flexibility Score: inf
ROOT
ATOM      1  C   UNL     1      62.785  -8.073  -4.446  1.00  0.00     0.138 A 
ATOM      2  C   UNL     1      63.531  -8.767  -3.483  1.00  0.00     0.100 A 
ATOM      3  C   UNL     1      63.402  -8.430  -2.134  1.00  0.00     0.197 A 
ATOM      4  O   UNL     1      64.125  -9.032  -1.300  1.00  0.00    -0.289 OA
ATOM      5  C   UNL     1      62.493  -7.415  -1.747  1.00  0.00     0.107 A 
ATOM      6  C   UNL     1      62.252  -7.010  -0.399  1.00  0.00     0.134 A 
ATOM      7  C   UNL     1      61.402  -5.925  -0.147  1.00  0.00     0.093 A 
ATOM      8  C   UNL     1      60.740  -5.271  -1.184  1.00  0.00     0.123 A 
ATOM      9  C   UNL     1      60.929  -5.691  -2.502  1.00  0.00     0.094 A 
ATOM     10  C   UNL     1      61.797  -6.747  -2.790  1.00  0.00     0.146 A 
ATOM     11  O   UNL     1      61.963  -7.104  -4.059  1.00  0.00    -0.456 OA
ENDROOT
BRANCH   1  12
ATOM     12  C   UNL     1      62.882  -8.393  -5.892  1.00  0.00     0.021 A 
ATOM     13  C   UNL     1      62.842  -9.737  -6.305  1.00  0.00     0.016 A 
ATOM     14  C   UNL     1      62.924 -10.066  -7.660  1.00  0.00     0.051 A 
ATOM     15  C   UNL     1      63.037  -9.060  -8.628  1.00  0.00     0.157 A 
ATOM     16  C   UNL     1      62.982  -7.386  -6.871  1.00  0.00     0.062 A 
ATOM     17  C   UNL     1      63.063  -7.713  -8.230  1.00  0.00     0.158 A 
BRANCH  15  18
ATOM     18  O   UNL     1      63.120  -9.392  -9.979  1.00  0.00    -0.504 OA
ATOM     19  H   UNL     1      63.172 -10.356 -10.286  1.00  0.00     0.293 HD
ENDBRANCH  15  18
BRANCH  17  20
ATOM     20  O   UNL     1      63.163  -6.687  -9.168  1.00  0.00    -0.504 OA
ATOM     21  H   UNL     1      63.598  -6.825 -10.072  1.00  0.00     0.293 HD
ENDBRANCH  17  20
ENDBRANCH   1  12
BRANCH   6  22
ATOM     22  O   UNL     1      62.799  -7.644   0.720  1.00  0.00    -0.507 OA
ATOM     23  H   UNL     1      62.349  -8.375   1.249  1.00  0.00     0.293 HD
ENDBRANCH   6  22
BRANCH   8  24
ATOM     24  O   UNL     1      59.890  -4.206  -0.894  1.00  0.00    -0.508 OA
ATOM     25  H   UNL     1      59.398  -3.705  -1.625  1.00  0.00     0.293 HD
ENDBRANCH   8  24
TORSDOF 5
ENDMDL
MODEL 2
REMARK VINA RESULT:    -5.749      2.921      5.308
REMARK INTER + INTRA:          -7.049
REMARK INTER:                  -6.767
REMARK INTRA:                  -0.283
REMARK UNBOUND:                -0.292
REMARK SMILES O=c1cc(-c2ccc(O)c(O)c2)oc2cc(O)cc(O)c12
REMARK SMILES IDX 4 1 3 2 2 3 1 4 21 5 19 6 18 7 16 8 15 9 14 10 13 11 5 12
REMARK SMILES IDX 6 13 7 14 8 15 12 16 10 17 9 18 11 20 20 22 17 24
REMARK H PARENT 9 19 11 21 20 23 17 25
REMARK Flexibility Score: inf
ROOT
ATOM      1  C   UNL     1      61.750  -6.748  -0.265  1.00  0.00     0.138 A 
ATOM      2  C   UNL     1      61.299  -5.431  -0.436  1.00  0.00     0.100 A 
ATOM      3  C   UNL     1      60.986  -4.658   0.684  1.00  0.00     0.197 A 
ATOM      4  O   UNL     1      60.531  -3.501   0.496  1.00  0.00    -0.289 OA
ATOM      5  C   UNL     1      61.159  -5.197   1.981  1.00  0.00     0.107 A 
ATOM      6  C   UNL     1      60.905  -4.491   3.196  1.00  0.00     0.134 A 
ATOM      7  C   UNL     1      61.019  -5.162   4.421  1.00  0.00     0.093 A 
ATOM      8  C   UNL     1      61.434  -6.492   4.479  1.00  0.00     0.123 A 
ATOM      9  C   UNL     1      61.733  -7.177   3.301  1.00  0.00     0.094 A 
ATOM     10  C   UNL     1      61.596  -6.547   2.061  1.00  0.00     0.146 A 
ATOM     11  O   UNL     1      61.874  -7.239   0.962  1.00  0.00    -0.456 OA
ENDROOT
BRANCH   1  12
ATOM     12  C   UNL     1      62.100  -7.612  -1.421  1.00  0.00     0.021 A 
ATOM     13  C   UNL     1      63.194  -8.490  -1.319  1.00  0.00     0.016 A 
ATOM     14  C   UNL     1      63.541  -9.319  -2.388  1.00  0.00     0.051 A 
ATOM     15  C   UNL     1      62.795  -9.295  -3.574  1.00  0.00     0.157 A 
ATOM     16  C   UNL     1      61.346  -7.602  -2.610  1.00  0.00     0.062 A 
ATOM     17  C   UNL     1      61.691  -8.434  -3.683  1.00  0.00     0.158 A 
BRANCH  15  18
ATOM     18  O   UNL     1      63.145 -10.123  -4.638  1.00  0.00    -0.504 OA
ATOM     19  H   UNL     1      62.918  -9.882  -5.596  1.00  0.00     0.293 HD
ENDBRANCH  15  18
BRANCH  17  20
ATOM     20  O   UNL     1      60.922  -8.394  -4.844  1.00  0.00    -0.504 OA
ATOM     21  H   UNL     1      60.252  -7.656  -5.022  1.00  0.00     0.293 HD
ENDBRANCH  17  20
ENDBRANCH   1  12
BRANCH   6  22
ATOM     22  O   UNL     1      60.562  -3.137   3.260  1.00  0.00    -0.507 OA
ATOM     23  H   UNL     1      59.653  -2.781   3.510  1.00  0.00     0.293 HD
ENDBRANCH   6  22
BRANCH   8  24
ATOM     24  O   UNL     1      61.551  -7.122   5.716  1.00  0.00    -0.508 OA
ATOM     25  H   UNL     1      60.854  -7.782   6.043  1.00  0.00     0.293 HD
ENDBRANCH   8  24
TORSDOF 5
ENDMDL
MODEL 3
REMARK VINA RESULT:    -5.693      1.776      7.169
REMARK INTER + INTRA:          -6.983
REMARK INTER:                  -6.713
REMARK INTRA:                  -0.270
REMARK UNBOUND:                -0.292
REMARK SMILES O=c1cc(-c2ccc(O)c(O)c2)oc2cc(O)cc(O)c12
REMARK SMILES IDX 4 1 3 2 2 3 1 4 21 5 19 6 18 7 16 8 15 9 14 10 13 11 5 12
REMARK SMILES IDX 6 13 7 14 8 15 12 16 10 17 9 18 11 20 20 22 17 24
REMARK H PARENT 9 19 11 21 20 23 17 25
REMARK Flexibility Score: inf
ROOT
ATOM      1  C   UNL     1      61.591  -7.230  -3.105  1.00  0.00     0.138 A 
ATOM      2  C   UNL     1      60.944  -8.442  -3.386  1.00  0.00     0.100 A 
ATOM      3  C   UNL     1      61.064  -9.010  -4.656  1.00  0.00     0.197 A 
ATOM      4  O   UNL     1      60.428 -10.068  -4.894  1.00  0.00    -0.289 OA
ATOM      5  C   UNL     1      61.865  -8.377  -5.636  1.00  0.00     0.107 A 
ATOM      6  C   UNL     1      62.089  -8.881  -6.953  1.00  0.00     0.134 A 
ATOM      7  C   UNL     1      62.823  -8.116  -7.870  1.00  0.00     0.093 A 
ATOM      8  C   UNL     1      63.389  -6.897  -7.501  1.00  0.00     0.123 A 
ATOM      9  C   UNL     1      63.218  -6.418  -6.201  1.00  0.00     0.094 A 
ATOM     10  C   UNL     1      62.464  -7.141  -5.274  1.00  0.00     0.146 A 
ATOM     11  O   UNL     1      62.311  -6.641  -4.052  1.00  0.00    -0.456 OA
ENDROOT
BRANCH   1  12
ATOM     12  C   UNL     1      61.498  -6.584  -1.771  1.00  0.00     0.021 A 
ATOM     13  C   UNL     1      61.027  -5.263  -1.676  1.00  0.00     0.016 A 
ATOM     14  C   UNL     1      60.923  -4.634  -0.433  1.00  0.00     0.051 A 
ATOM     15  C   UNL     1      61.279  -5.315   0.738  1.00  0.00     0.157 A 
ATOM     16  C   UNL     1      61.842  -7.269  -0.589  1.00  0.00     0.062 A 
ATOM     17  C   UNL     1      61.737  -6.641   0.658  1.00  0.00     0.158 A 
BRANCH  15  18
ATOM     18  O   UNL     1      61.175  -4.684   1.976  1.00  0.00    -0.504 OA
ATOM     19  H   UNL     1      61.818  -3.952   2.253  1.00  0.00     0.293 HD
ENDBRANCH  15  18
BRANCH  17  20
ATOM     20  O   UNL     1      62.088  -7.351   1.805  1.00  0.00    -0.504 OA
ATOM     21  H   UNL     1      62.483  -8.283   1.762  1.00  0.00     0.293 HD
ENDBRANCH  17  20
ENDBRANCH   1  12
BRANCH   6  22
ATOM     22  O   UNL     1      61.638 -10.125  -7.405  1.00  0.00    -0.507 OA
ATOM     23  H   UNL     1      61.103 -10.780  -6.857  1.00  0.00     0.293 HD
ENDBRANCH   6  22
BRANCH   8  24
ATOM     24  O   UNL     1      64.125  -6.170  -8.434  1.00  0.00    -0.508 OA
ATOM     25  H   UNL     1      64.606  -6.626  -9.201  1.00  0.00     0.293 HD
ENDBRANCH   8  24
TORSDOF 5
ENDMDL
MODEL 4
REMARK VINA RESULT:    -5.606      1.424      7.030
REMARK INTER + INTRA:          -6.882
REMARK INTER:                  -6.618
REMARK INTRA:                  -0.264
REMARK UNBOUND:                -0.292
REMARK SMILES O=c1cc(-c2ccc(O)c(O)c2)oc2cc(O)cc(O)c12
REMARK SMILES IDX 4 1 3 2 2 3 1 4 21 5 19 6 18 7 16 8 15 9 14 10 13 11 5 12
REMARK SMILES IDX 6 13 7 14 8 15 12 16 10 17 9 18 11 20 20 22 17 24
REMARK H PARENT 9 19 11 21 20 23 17 25
REMARK Flexibility Score: inf
ROOT
ATOM      1  C   UNL     1      62.586  -7.683  -4.837  1.00  0.00     0.138 A 
ATOM      2  C   UNL     1      62.332  -8.912  -5.464  1.00  0.00     0.100 A 
ATOM      3  C   UNL     1      62.491  -9.027  -6.846  1.00  0.00     0.197 A 
ATOM      4  O   UNL     1      62.202 -10.125  -7.386  1.00  0.00    -0.289 OA
ATOM      5  C   UNL     1      62.942  -7.915  -7.597  1.00  0.00     0.107 A 
ATOM      6  C   UNL     1      63.173  -7.925  -9.006  1.00  0.00     0.134 A 
ATOM      7  C   UNL     1      63.525  -6.734  -9.656  1.00  0.00     0.093 A 
ATOM      8  C   UNL     1      63.710  -5.551  -8.943  1.00  0.00     0.123 A 
ATOM      9  C   UNL     1      63.535  -5.541  -7.558  1.00  0.00     0.094 A 
ATOM     10  C   UNL     1      63.151  -6.703  -6.885  1.00  0.00     0.146 A 
ATOM     11  O   UNL     1      62.978  -6.647  -5.569  1.00  0.00    -0.456 OA
ENDROOT
BRANCH   1  12
ATOM     12  C   UNL     1      62.435  -7.506  -3.370  1.00  0.00     0.021 A 
ATOM     13  C   UNL     1      61.326  -6.802  -2.871  1.00  0.00     0.016 A 
ATOM     14  C   UNL     1      61.155  -6.626  -1.496  1.00  0.00     0.051 A 
ATOM     15  C   UNL     1      62.084  -7.160  -0.594  1.00  0.00     0.157 A 
ATOM     16  C   UNL     1      63.358  -8.052  -2.458  1.00  0.00     0.062 A 
ATOM     17  C   UNL     1      63.189  -7.880  -1.078  1.00  0.00     0.158 A 
BRANCH  15  18
ATOM     18  O   UNL     1      61.911  -6.983   0.778  1.00  0.00    -0.504 OA
ATOM     19  H   UNL     1      61.720  -6.070   1.175  1.00  0.00     0.293 HD
ENDBRANCH  15  18
BRANCH  17  20
ATOM     20  O   UNL     1      64.125  -8.434  -0.207  1.00  0.00    -0.504 OA
ATOM     21  H   UNL     1      64.090  -9.406   0.074  1.00  0.00     0.293 HD
ENDBRANCH  17  20
ENDBRANCH   1  12
BRANCH   6  22
ATOM     22  O   UNL     1      63.095  -9.069  -9.806  1.00  0.00    -0.507 OA
ATOM     23  H   UNL     1      63.844  -9.728  -9.948  1.00  0.00     0.293 HD
ENDBRANCH   6  22
BRANCH   8  24
ATOM     24  O   UNL     1      64.074  -4.390  -9.621  1.00  0.00    -0.508 OA
ATOM     25  H   UNL     1      64.863  -3.826  -9.322  1.00  0.00     0.293 HD
ENDBRANCH   8  24
TORSDOF 5
ENDMDL
MODEL 5
REMARK VINA RESULT:    -5.451      1.357      1.953
REMARK INTER + INTRA:          -6.699
REMARK INTER:                  -6.437
REMARK INTRA:                  -0.263
REMARK UNBOUND:                -0.292
REMARK SMILES O=c1cc(-c2ccc(O)c(O)c2)oc2cc(O)cc(O)c12
REMARK SMILES IDX 4 1 3 2 2 3 1 4 21 5 19 6 18 7 16 8 15 9 14 10 13 11 5 12
REMARK SMILES IDX 6 13 7 14 8 15 12 16 10 17 9 18 11 20 20 22 17 24
REMARK H PARENT 9 19 11 21 20 23 17 25
REMARK Flexibility Score: inf
ROOT
ATOM      1  C   UNL     1      62.255  -7.502  -3.327  1.00  0.00     0.138 A 
ATOM      2  C   UNL     1      62.774  -8.397  -2.380  1.00  0.00     0.100 A 
ATOM      3  C   UNL     1      62.655  -8.107  -1.020  1.00  0.00     0.197 A 
ATOM      4  O   UNL     1      63.179  -8.900  -0.197  1.00  0.00    -0.289 OA
ATOM      5  C   UNL     1      61.980  -6.933  -0.607  1.00  0.00     0.107 A 
ATOM      6  C   UNL     1      61.768  -6.551   0.753  1.00  0.00     0.134 A 
ATOM      7  C   UNL     1      61.173  -5.315   1.038  1.00  0.00     0.093 A 
ATOM      8  C   UNL     1      60.731  -4.476   0.018  1.00  0.00     0.123 A 
ATOM      9  C   UNL     1      60.888  -4.860  -1.315  1.00  0.00     0.094 A 
ATOM     10  C   UNL     1      61.508  -6.071  -1.633  1.00  0.00     0.146 A 
ATOM     11  O   UNL     1      61.654  -6.392  -2.914  1.00  0.00    -0.456 OA
ENDROOT
BRANCH   1  12
ATOM     12  C   UNL     1      62.351  -7.763  -4.786  1.00  0.00     0.021 A 
ATOM     13  C   UNL     1      63.178  -6.947  -5.578  1.00  0.00     0.016 A 
ATOM     14  C   UNL     1      63.294  -7.174  -6.952  1.00  0.00     0.051 A 
ATOM     15  C   UNL     1      62.593  -8.225  -7.557  1.00  0.00     0.157 A 
ATOM     16  C   UNL     1      61.661  -8.826  -5.398  1.00  0.00     0.062 A 
ATOM     17  C   UNL     1      61.776  -9.057  -6.774  1.00  0.00     0.158 A 
BRANCH  15  18
ATOM     18  O   UNL     1      62.710  -8.448  -8.928  1.00  0.00    -0.504 OA
ATOM     19  H   UNL     1      62.080  -9.070  -9.420  1.00  0.00     0.293 HD
ENDBRANCH  15  18
BRANCH  17  20
ATOM     20  O   UNL     1      61.075 -10.118  -7.344  1.00  0.00    -0.504 OA
ATOM     21  H   UNL     1      60.218  -9.980  -7.866  1.00  0.00     0.293 HD
ENDBRANCH  17  20
ENDBRANCH   1  12
BRANCH   6  22
ATOM     22  O   UNL     1      62.099  -7.350   1.852  1.00  0.00    -0.507 OA
ATOM     23  H   UNL     1      62.633  -8.204   1.808  1.00  0.00     0.293 HD
ENDBRANCH   6  22
BRANCH   8  24
ATOM     24  O   UNL     1      60.129  -3.261   0.339  1.00  0.00    -0.508 OA
ATOM     25  H   UNL     1      60.173  -2.880   1.278  1.00  0.00     0.293 HD
ENDBRANCH   8  24
TORSDOF 5
ENDMDL
MODEL 6
REMARK VINA RESULT:    -5.164      3.662      8.544
REMARK INTER + INTRA:          -6.363
REMARK INTER:                  -6.045
REMARK INTRA:                  -0.318
REMARK UNBOUND:                -0.292
REMARK SMILES O=c1cc(-c2ccc(O)c(O)c2)oc2cc(O)cc(O)c12
REMARK SMILES IDX 4 1 3 2 2 3 1 4 21 5 19 6 18 7 16 8 15 9 14 10 13 11 5 12
REMARK SMILES IDX 6 13 7 14 8 15 12 16 10 17 9 18 11 20 20 22 17 24
REMARK H PARENT 9 19 11 21 20 23 17 25
REMARK Flexibility Score: inf
ROOT
ATOM      1  C   UNL     1      62.630  -8.250   1.690  1.00  0.00     0.138 A 
ATOM      2  C   UNL     1      63.429  -9.007   0.822  1.00  0.00     0.100 A 
ATOM      3  C   UNL     1      63.441  -8.708  -0.542  1.00  0.00     0.197 A 
ATOM      4  O   UNL     1      64.125  -9.439  -1.303  1.00  0.00    -0.289 OA
ATOM      5  C   UNL     1      62.675  -7.622  -1.031  1.00  0.00     0.107 A 
ATOM      6  C   UNL     1      62.635  -7.203  -2.395  1.00  0.00     0.134 A 
ATOM      7  C   UNL     1      61.762  -6.176  -2.777  1.00  0.00     0.093 A 
ATOM      8  C   UNL     1      60.973  -5.515  -1.837  1.00  0.00     0.123 A 
ATOM      9  C   UNL     1      61.040  -5.882  -0.493  1.00  0.00     0.094 A 
ATOM     10  C   UNL     1      61.875  -6.926  -0.086  1.00  0.00     0.146 A 
ATOM     11  O   UNL     1      61.896  -7.257   1.201  1.00  0.00    -0.456 OA
ENDROOT
BRANCH   1  12
ATOM     12  C   UNL     1      62.582  -8.523   3.149  1.00  0.00     0.021 A 
ATOM     13  C   UNL     1      63.301  -9.613   3.670  1.00  0.00     0.016 A 
ATOM     14  C   UNL     1      63.280  -9.889   5.039  1.00  0.00     0.051 A 
ATOM     15  C   UNL     1      62.549  -9.075   5.914  1.00  0.00     0.157 A 
ATOM     16  C   UNL     1      61.860  -7.701   4.035  1.00  0.00     0.062 A 
ATOM     17  C   UNL     1      61.838  -7.974   5.408  1.00  0.00     0.158 A 
BRANCH  15  18
ATOM     18  O   UNL     1      62.529  -9.354   7.279  1.00  0.00    -0.504 OA
ATOM     19  H   UNL     1      63.188  -9.999   7.699  1.00  0.00     0.293 HD
ENDBRANCH  15  18
BRANCH  17  20
ATOM     20  O   UNL     1      61.111  -7.137   6.253  1.00  0.00    -0.504 OA
ATOM     21  H   UNL     1      60.214  -7.409   6.638  1.00  0.00     0.293 HD
ENDBRANCH  17  20
ENDBRANCH   1  12
BRANCH   6  22
ATOM     22  O   UNL     1      63.440  -7.740  -3.404  1.00  0.00    -0.507 OA
ATOM     23  H   UNL     1      64.247  -7.287  -3.804  1.00  0.00     0.293 HD
ENDBRANCH   6  22
BRANCH   8  24
ATOM     24  O   UNL     1      60.128  -4.487  -2.251  1.00  0.00    -0.508 OA
ATOM     25  H   UNL     1      60.474  -3.699  -2.786  1.00  0.00     0.293 HD
ENDBRANCH   8  24
TORSDOF 5
ENDMDL
MODEL 7
REMARK VINA RESULT:    -5.147     14.409     16.587
REMARK INTER + INTRA:          -6.342
REMARK INTER:                  -6.042
REMARK INTRA:                  -0.300
REMARK UNBOUND:                -0.292
REMARK SMILES O=c1cc(-c2ccc(O)c(O)c2)oc2cc(O)cc(O)c12
REMARK SMILES IDX 4 1 3 2 2 3 1 4 21 5 19 6 18 7 16 8 15 9 14 10 13 11 5 12
REMARK SMILES IDX 6 13 7 14 8 15 12 16 10 17 9 18 11 20 20 22 17 24
REMARK H PARENT 9 19 11 21 20 23 17 25
REMARK Flexibility Score: inf
ROOT
ATOM      1  C   UNL     1      47.233  -9.322  -4.569  1.00  0.00     0.138 A 
ATOM      2  C   UNL     1      45.945  -9.016  -5.029  1.00  0.00     0.100 A 
ATOM      3  C   UNL     1      45.705  -8.926  -6.402  1.00  0.00     0.197 A 
ATOM      4  O   UNL     1      44.553  -8.596  -6.782  1.00  0.00    -0.289 OA
ATOM      5  C   UNL     1      46.755  -9.180  -7.317  1.00  0.00     0.107 A 
ATOM      6  C   UNL     1      46.621  -9.151  -8.738  1.00  0.00     0.134 A 
ATOM      7  C   UNL     1      47.756  -9.322  -9.542  1.00  0.00     0.093 A 
ATOM      8  C   UNL     1      49.005  -9.578  -8.981  1.00  0.00     0.123 A 
ATOM      9  C   UNL     1      49.140  -9.657  -7.594  1.00  0.00     0.094 A 
ATOM     10  C   UNL     1      48.034  -9.458  -6.764  1.00  0.00     0.146 A 
ATOM     11  O   UNL     1      48.208  -9.524  -5.448  1.00  0.00    -0.456 OA
ENDROOT
BRANCH   1  12
ATOM     12  C   UNL     1      47.542  -9.432  -3.121  1.00  0.00     0.021 A 
ATOM     13  C   UNL     1      46.592 -10.002  -2.255  1.00  0.00     0.016 A 
ATOM     14  C   UNL     1      46.859 -10.125  -0.889  1.00  0.00     0.051 A 
ATOM     15  C   UNL     1      48.084  -9.691  -0.366  1.00  0.00     0.157 A 
ATOM     16  C   UNL     1      48.776  -9.010  -2.591  1.00  0.00     0.062 A 
ATOM     17  C   UNL     1      49.048  -9.134  -1.222  1.00  0.00     0.158 A 
BRANCH  15  18
ATOM     18  O   UNL     1      48.347  -9.814   0.997  1.00  0.00    -0.504 OA
ATOM     19  H   UNL     1      49.288  -9.953   1.346  1.00  0.00     0.293 HD
ENDBRANCH  15  18
BRANCH  17  20
ATOM     20  O   UNL     1      50.280  -8.703  -0.735  1.00  0.00    -0.504 OA
ATOM     21  H   UNL     1      50.611  -8.952   0.190  1.00  0.00     0.293 HD
ENDBRANCH  17  20
ENDBRANCH   1  12
BRANCH   6  22
ATOM     22  O   UNL     1      45.405  -8.983  -9.408  1.00  0.00    -0.507 OA
ATOM     23  H   UNL     1      45.217  -8.270 -10.096  1.00  0.00     0.293 HD
ENDBRANCH   6  22
BRANCH   8  24
ATOM     24  O   UNL     1      50.108  -9.757  -9.813  1.00  0.00    -0.508 OA
ATOM     25  H   UNL     1      50.180  -9.286 -10.707  1.00  0.00     0.293 HD
ENDBRANCH   8  24
TORSDOF 5
ENDMDL
MODEL 8
REMARK VINA RESULT:    -4.985      2.564      4.289
REMARK INTER + INTRA:          -6.151
REMARK INTER:                  -5.887
REMARK INTRA:                  -0.265
REMARK UNBOUND:                -0.292
REMARK SMILES O=c1cc(-c2ccc(O)c(O)c2)oc2cc(O)cc(O)c12
REMARK SMILES IDX 4 1 3 2 2 3 1 4 21 5 19 6 18 7 16 8 15 9 14 10 13 11 5 12
REMARK SMILES IDX 6 13 7 14 8 15 12 16 10 17 9 18 11 20 20 22 17 24
REMARK H PARENT 9 19 11 21 20 23 17 25
REMARK Flexibility Score: inf
ROOT
ATOM      1  C   UNL     1      62.069  -7.159  -0.602  1.00  0.00     0.138 A 
ATOM      2  C   UNL     1      62.367  -8.230   0.252  1.00  0.00     0.100 A 
ATOM      3  C   UNL     1      62.218  -8.076   1.631  1.00  0.00     0.197 A 
ATOM      4  O   UNL     1      62.546  -9.036   2.374  1.00  0.00    -0.289 OA
ATOM      5  C   UNL     1      61.733  -6.852   2.153  1.00  0.00     0.107 A 
ATOM      6  C   UNL     1      61.508  -6.591   3.539  1.00  0.00     0.134 A 
ATOM      7  C   UNL     1      61.120  -5.307   3.945  1.00  0.00     0.093 A 
ATOM      8  C   UNL     1      60.892  -4.295   3.015  1.00  0.00     0.123 A 
ATOM      9  C   UNL     1      61.061  -4.553   1.654  1.00  0.00     0.094 A 
ATOM     10  C   UNL     1      61.480  -5.812   1.219  1.00  0.00     0.146 A 
ATOM     11  O   UNL     1      61.646  -6.012  -0.084  1.00  0.00    -0.456 OA
ENDROOT
BRANCH   1  12
ATOM     12  C   UNL     1      62.208  -7.270  -2.077  1.00  0.00     0.021 A 
ATOM     13  C   UNL     1      63.242  -6.573  -2.726  1.00  0.00     0.016 A 
ATOM     14  C   UNL     1      63.400  -6.666  -4.111  1.00  0.00     0.051 A 
ATOM     15  C   UNL     1      62.535  -7.463  -4.870  1.00  0.00     0.157 A 
ATOM     16  C   UNL     1      61.350  -8.081  -2.844  1.00  0.00     0.062 A 
ATOM     17  C   UNL     1      61.507  -8.176  -4.232  1.00  0.00     0.158 A 
BRANCH  15  18
ATOM     18  O   UNL     1      62.695  -7.552  -6.252  1.00  0.00    -0.504 OA
ATOM     19  H   UNL     1      61.978  -7.230  -6.891  1.00  0.00     0.293 HD
ENDBRANCH  15  18
BRANCH  17  20
ATOM     20  O   UNL     1      60.636  -8.988  -4.957  1.00  0.00    -0.504 OA
ATOM     21  H   UNL     1      60.570  -9.986  -4.797  1.00  0.00     0.293 HD
ENDBRANCH  17  20
ENDBRANCH   1  12
BRANCH   6  22
ATOM     22  O   UNL     1      61.628  -7.552   4.548  1.00  0.00    -0.507 OA
ATOM     23  H   UNL     1      61.932  -7.366   5.491  1.00  0.00     0.293 HD
ENDBRANCH   6  22
BRANCH   8  24
ATOM     24  O   UNL     1      60.492  -3.035   3.454  1.00  0.00    -0.508 OA
ATOM     25  H   UNL     1      59.525  -2.736   3.398  1.00  0.00     0.293 HD
ENDBRANCH   8  24
TORSDOF 5
ENDMDL
MODEL 9
REMARK VINA RESULT:    -4.821     16.556     19.676
REMARK INTER + INTRA:          -5.959
REMARK INTER:                  -5.690
REMARK INTRA:                  -0.269
REMARK UNBOUND:                -0.292
REMARK SMILES O=c1cc(-c2ccc(O)c(O)c2)oc2cc(O)cc(O)c12
REMARK SMILES IDX 4 1 3 2 2 3 1 4 21 5 19 6 18 7 16 8 15 9 14 10 13 11 5 12
REMARK SMILES IDX 6 13 7 14 8 15 12 16 10 17 9 18 11 20 20 22 17 24
REMARK H PARENT 9 19 11 21 20 23 17 25
REMARK Flexibility Score: inf
ROOT
ATOM      1  C   UNL     1      60.260   9.006   4.203  1.00  0.00     0.138 A 
ATOM      2  C   UNL     1      59.139   9.525   3.541  1.00  0.00     0.100 A 
ATOM      3  C   UNL     1      59.119   9.567   2.145  1.00  0.00     0.197 A 
ATOM      4  O   UNL     1      58.123  10.089   1.582  1.00  0.00    -0.289 OA
ATOM      5  C   UNL     1      60.214   9.053   1.411  1.00  0.00     0.107 A 
ATOM      6  C   UNL     1      60.290   9.011  -0.014  1.00  0.00     0.134 A 
ATOM      7  C   UNL     1      61.469   8.569  -0.630  1.00  0.00     0.093 A 
ATOM      8  C   UNL     1      62.548   8.112   0.124  1.00  0.00     0.123 A 
ATOM      9  C   UNL     1      62.467   8.102   1.517  1.00  0.00     0.094 A 
ATOM     10  C   UNL     1      61.318   8.569   2.162  1.00  0.00     0.146 A 
ATOM     11  O   UNL     1      61.287   8.558   3.490  1.00  0.00    -0.456 OA
ENDROOT
BRANCH   1  12
ATOM     12  C   UNL     1      60.332   8.935   5.684  1.00  0.00     0.021 A 
ATOM     13  C   UNL     1      60.447  10.124   6.426  1.00  0.00     0.016 A 
ATOM     14  C   UNL     1      60.509  10.087   7.821  1.00  0.00     0.051 A 
ATOM     15  C   UNL     1      60.449   8.864   8.501  1.00  0.00     0.157 A 
ATOM     16  C   UNL     1      60.258   7.709   6.374  1.00  0.00     0.062 A 
ATOM     17  C   UNL     1      60.319   7.670   7.772  1.00  0.00     0.158 A 
BRANCH  15  18
ATOM     18  O   UNL     1      60.513   8.831   9.892  1.00  0.00    -0.504 OA
ATOM     19  H   UNL     1      60.078   8.087  10.426  1.00  0.00     0.293 HD
ENDBRANCH  15  18
BRANCH  17  20
ATOM     20  O   UNL     1      60.245   6.437   8.418  1.00  0.00    -0.504 OA
ATOM     21  H   UNL     1      59.360   6.014   8.671  1.00  0.00     0.293 HD
ENDBRANCH  17  20
ENDBRANCH   1  12
BRANCH   6  22
ATOM     22  O   UNL     1      59.241   9.368  -0.867  1.00  0.00    -0.507 OA
ATOM     23  H   UNL     1      58.993   8.882  -1.715  1.00  0.00     0.293 HD
ENDBRANCH   6  22
BRANCH   8  24
ATOM     24  O   UNL     1      63.698   7.665  -0.523  1.00  0.00    -0.508 OA
ATOM     25  H   UNL     1      63.650   7.146  -1.392  1.00  0.00     0.293 HD
ENDBRANCH   8  24
TORSDOF 5
ENDMDL
