MODEL 1
REMARK VINA RESULT:    -6.125      0.000      0.000
REMARK INTER + INTRA:          -7.596
REMARK INTER:                  -7.379
REMARK INTRA:                  -0.217
REMARK UNBOUND:                -0.217
REMARK SMILES O=c1c(O)c(-c2ccc(O)c(O)c2)oc2cc(O)cc(O)c12
REMARK SMILES IDX 5 1 3 2 2 3 1 4 22 5 20 6 19 7 17 8 16 9 15 10 14 11 6 12
REMARK SMILES IDX 7 13 8 14 9 15 13 16 11 17 10 18 12 20 4 22 21 24 18 26
REMARK H PARENT 10 19 12 21 4 23 21 25 18 27
REMARK Flexibility Score: inf
ROOT
ATOM      1  C   UNL     1      27.398 -22.856   0.398  1.00  0.00     0.180 A 
ATOM      2  C   UNL     1      26.196 -23.488   0.034  1.00  0.00     0.208 A 
ATOM      3  C   UNL     1      26.234 -24.816  -0.418  1.00  0.00     0.238 A 
ATOM      4  O   UNL     1      25.161 -25.358  -0.793  1.00  0.00    -0.285 OA
ATOM      5  C   UNL     1      27.471 -25.502  -0.486  1.00  0.00     0.111 A 
ATOM      6  C   UNL     1      27.621 -26.862  -0.891  1.00  0.00     0.134 A 
ATOM      7  C   UNL     1      28.906 -27.398  -1.047  1.00  0.00     0.093 A 
ATOM      8  C   UNL     1      30.042 -26.643  -0.748  1.00  0.00     0.123 A 
ATOM      9  C   UNL     1      29.903 -25.333  -0.295  1.00  0.00     0.094 A 
ATOM     10  C   UNL     1      28.636 -24.759  -0.165  1.00  0.00     0.146 A 
ATOM     11  O   UNL     1      28.549 -23.504   0.260  1.00  0.00    -0.452 OA
ENDROOT
BRANCH   1  12
ATOM     12  C   UNL     1      27.436 -21.466   0.907  1.00  0.00     0.025 A 
ATOM     13  C   UNL     1      28.096 -20.477   0.165  1.00  0.00     0.016 A 
ATOM     14  C   UNL     1      28.161 -19.165   0.637  1.00  0.00     0.051 A 
ATOM     15  C   UNL     1      27.582 -18.818   1.863  1.00  0.00     0.157 A 
ATOM     16  C   UNL     1      26.872 -21.126   2.149  1.00  0.00     0.062 A 
ATOM     17  C   UNL     1      26.935 -19.813   2.632  1.00  0.00     0.158 A 
BRANCH  15  18
ATOM     18  O   UNL     1      27.675 -17.486   2.274  1.00  0.00    -0.504 OA
ATOM     19  H   UNL     1      28.018 -17.198   3.180  1.00  0.00     0.293 HD
ENDBRANCH  15  18
BRANCH  17  20
ATOM     20  O   UNL     1      26.352 -19.546   3.872  1.00  0.00    -0.504 OA
ATOM     21  H   UNL     1      26.268 -20.225   4.614  1.00  0.00     0.293 HD
ENDBRANCH  17  20
ENDBRANCH   1  12
BRANCH   2  22
ATOM     22  O   UNL     1      24.989 -22.785   0.089  1.00  0.00    -0.502 OA
ATOM     23  H   UNL     1      24.601 -22.437   0.958  1.00  0.00     0.293 HD
ENDBRANCH   2  22
BRANCH   6  24
ATOM     24  O   UNL     1      26.551 -27.730  -1.125  1.00  0.00    -0.507 OA
ATOM     25  H   UNL     1      25.745 -27.823  -0.526  1.00  0.00     0.293 HD
ENDBRANCH   6  24
BRANCH   8  26
ATOM     26  O   UNL     1      31.316 -27.189  -0.890  1.00  0.00    -0.508 OA
ATOM     27  H   UNL     1      31.820 -27.138  -1.768  1.00  0.00     0.293 HD
ENDBRANCH   8  26
TORSDOF 6
ENDMDL
MODEL 2
REMARK VINA RESULT:    -5.890      2.152      2.298
REMARK INTER + INTRA:          -7.312
REMARK INTER:                  -7.339
REMARK INTRA:                   0.027
REMARK UNBOUND:                -0.217
REMARK SMILES O=c1c(O)c(-c2ccc(O)c(O)c2)oc2cc(O)cc(O)c12
REMARK SMILES IDX 5 1 3 2 2 3 1 4 22 5 20 6 19 7 17 8 16 9 15 10 14 11 6 12
REMARK SMILES IDX 7 13 8 14 9 15 13 16 11 17 10 18 12 20 4 22 21 24 18 26
REMARK H PARENT 10 19 12 21 4 23 21 25 18 27
REMARK Flexibility Score: inf
ROOT
ATOM      1  C   UNL     1      25.593 -22.919  -0.444  1.00  0.00     0.180 A 
ATOM      2  C   UNL     1      24.696 -23.978  -0.662  1.00  0.00     0.208 A 
ATOM      3  C   UNL     1      25.206 -25.269  -0.876  1.00  0.00     0.238 A 
ATOM      4  O   UNL     1      24.400 -26.204  -1.125  1.00  0.00    -0.285 OA
ATOM      5  C   UNL     1      26.604 -25.487  -0.853  1.00  0.00     0.111 A 
ATOM      6  C   UNL     1      27.229 -26.760  -1.018  1.00  0.00     0.134 A 
ATOM      7  C   UNL     1      28.624 -26.838  -1.109  1.00  0.00     0.093 A 
ATOM      8  C   UNL     1      29.419 -25.698  -0.975  1.00  0.00     0.123 A 
ATOM      9  C   UNL     1      28.821 -24.459  -0.754  1.00  0.00     0.094 A 
ATOM     10  C   UNL     1      27.431 -24.344  -0.695  1.00  0.00     0.146 A 
ATOM     11  O   UNL     1      26.902 -23.143  -0.494  1.00  0.00    -0.452 OA
ENDROOT
BRANCH   1  12
ATOM     12  C   UNL     1      25.132 -21.535  -0.186  1.00  0.00     0.025 A 
ATOM     13  C   UNL     1      24.220 -20.937  -1.067  1.00  0.00     0.016 A 
ATOM     14  C   UNL     1      23.788 -19.626  -0.854  1.00  0.00     0.051 A 
ATOM     15  C   UNL     1      24.267 -18.885   0.232  1.00  0.00     0.157 A 
ATOM     16  C   UNL     1      25.632 -20.786   0.892  1.00  0.00     0.062 A 
ATOM     17  C   UNL     1      25.207 -19.469   1.113  1.00  0.00     0.158 A 
BRANCH  15  18
ATOM     18  O   UNL     1      23.789 -17.582   0.394  1.00  0.00    -0.504 OA
ATOM     19  H   UNL     1      23.034 -17.187  -0.148  1.00  0.00     0.293 HD
ENDBRANCH  15  18
BRANCH  17  20
ATOM     20  O   UNL     1      25.744 -18.785   2.205  1.00  0.00    -0.504 OA
ATOM     21  H   UNL     1      25.435 -18.911   3.157  1.00  0.00     0.293 HD
ENDBRANCH  17  20
ENDBRANCH   1  12
BRANCH   2  22
ATOM     22  O   UNL     1      23.320 -23.737  -0.701  1.00  0.00    -0.502 OA
ATOM     23  H   UNL     1      22.797 -23.712  -1.569  1.00  0.00     0.293 HD
ENDBRANCH   2  22
BRANCH   6  24
ATOM     24  O   UNL     1      26.531 -27.970  -1.071  1.00  0.00    -0.507 OA
ATOM     25  H   UNL     1      26.848 -28.796  -1.556  1.00  0.00     0.293 HD
ENDBRANCH   6  24
BRANCH   8  26
ATOM     26  O   UNL     1      30.807 -25.787  -1.051  1.00  0.00    -0.508 OA
ATOM     27  H   UNL     1      31.280 -26.682  -1.096  1.00  0.00     0.293 HD
ENDBRANCH   8  26
TORSDOF 6
ENDMDL
MODEL 3
REMARK VINA RESULT:    -5.717      2.292      6.862
REMARK INTER + INTRA:          -7.104
REMARK INTER:                  -7.567
REMARK INTRA:                   0.464
REMARK UNBOUND:                -0.217
REMARK SMILES O=c1c(O)c(-c2ccc(O)c(O)c2)oc2cc(O)cc(O)c12
REMARK SMILES IDX 5 1 3 2 2 3 1 4 22 5 20 6 19 7 17 8 16 9 15 10 14 11 6 12
REMARK SMILES IDX 7 13 8 14 9 15 13 16 11 17 10 18 12 20 4 22 21 24 18 26
REMARK H PARENT 10 19 12 21 4 23 21 25 18 27
REMARK Flexibility Score: inf
ROOT
ATOM      1  C   UNL     1      25.949 -23.561  -0.588  1.00  0.00     0.180 A 
ATOM      2  C   UNL     1      24.567 -23.812  -0.530  1.00  0.00     0.208 A 
ATOM      3  C   UNL     1      23.681 -22.727  -0.451  1.00  0.00     0.238 A 
ATOM      4  O   UNL     1      22.448 -22.960  -0.344  1.00  0.00    -0.285 OA
ATOM      5  C   UNL     1      24.184 -21.404  -0.448  1.00  0.00     0.111 A 
ATOM      6  C   UNL     1      23.374 -20.229  -0.412  1.00  0.00     0.134 A 
ATOM      7  C   UNL     1      23.984 -18.974  -0.281  1.00  0.00     0.093 A 
ATOM      8  C   UNL     1      25.374 -18.849  -0.250  1.00  0.00     0.123 A 
ATOM      9  C   UNL     1      26.174 -19.986  -0.345  1.00  0.00     0.094 A 
ATOM     10  C   UNL     1      25.595 -21.253  -0.440  1.00  0.00     0.146 A 
ATOM     11  O   UNL     1      26.394 -22.311  -0.517  1.00  0.00    -0.452 OA
ENDROOT
BRANCH   1  12
ATOM     12  C   UNL     1      26.945 -24.651  -0.697  1.00  0.00     0.025 A 
ATOM     13  C   UNL     1      28.309 -24.336  -0.756  1.00  0.00     0.016 A 
ATOM     14  C   UNL     1      29.264 -25.348  -0.880  1.00  0.00     0.051 A 
ATOM     15  C   UNL     1      28.875 -26.689  -0.962  1.00  0.00     0.157 A 
ATOM     16  C   UNL     1      26.550 -25.996  -0.802  1.00  0.00     0.062 A 
ATOM     17  C   UNL     1      27.500 -27.017  -0.929  1.00  0.00     0.158 A 
BRANCH  15  18
ATOM     18  O   UNL     1      29.879 -27.654  -1.076  1.00  0.00    -0.504 OA
ATOM     19  H   UNL     1      30.347 -28.077  -0.288  1.00  0.00     0.293 HD
ENDBRANCH  15  18
BRANCH  17  20
ATOM     20  O   UNL     1      27.035 -28.331  -1.025  1.00  0.00    -0.504 OA
ATOM     21  H   UNL     1      27.354 -28.993  -1.717  1.00  0.00     0.293 HD
ENDBRANCH  17  20
ENDBRANCH   1  12
BRANCH   2  22
ATOM     22  O   UNL     1      24.093 -25.127  -0.512  1.00  0.00    -0.502 OA
ATOM     23  H   UNL     1      24.312 -25.774   0.237  1.00  0.00     0.293 HD
ENDBRANCH   2  22
BRANCH   6  24
ATOM     24  O   UNL     1      21.981 -20.237  -0.528  1.00  0.00    -0.507 OA
ATOM     25  H   UNL     1      21.361 -19.602  -0.050  1.00  0.00     0.293 HD
ENDBRANCH   6  24
BRANCH   8  26
ATOM     26  O   UNL     1      25.972 -17.596  -0.135  1.00  0.00    -0.508 OA
ATOM     27  H   UNL     1      25.598 -16.784  -0.612  1.00  0.00     0.293 HD
ENDBRANCH   8  26
TORSDOF 6
ENDMDL
MODEL 4
REMARK VINA RESULT:    -5.716      2.408      3.706
REMARK INTER + INTRA:          -7.103
REMARK INTER:                  -6.994
REMARK INTRA:                  -0.109
REMARK UNBOUND:                -0.217
REMARK SMILES O=c1c(O)c(-c2ccc(O)c(O)c2)oc2cc(O)cc(O)c12
REMARK SMILES IDX 5 1 3 2 2 3 1 4 22 5 20 6 19 7 17 8 16 9 15 10 14 11 6 12
REMARK SMILES IDX 7 13 8 14 9 15 13 16 11 17 10 18 12 20 4 22 21 24 18 26
REMARK H PARENT 10 19 12 21 4 23 21 25 18 27
REMARK Flexibility Score: inf
ROOT
ATOM      1  C   UNL     1      26.651 -23.287  -0.295  1.00  0.00     0.180 A 
ATOM      2  C   UNL     1      27.919 -22.722  -0.080  1.00  0.00     0.208 A 
ATOM      3  C   UNL     1      29.054 -23.544  -0.167  1.00  0.00     0.238 A 
ATOM      4  O   UNL     1      30.183 -23.044   0.081  1.00  0.00    -0.285 OA
ATOM      5  C   UNL     1      28.908 -24.916  -0.483  1.00  0.00     0.111 A 
ATOM      6  C   UNL     1      29.992 -25.832  -0.636  1.00  0.00     0.134 A 
ATOM      7  C   UNL     1      29.724 -27.194  -0.821  1.00  0.00     0.093 A 
ATOM      8  C   UNL     1      28.412 -27.662  -0.923  1.00  0.00     0.123 A 
ATOM      9  C   UNL     1      27.348 -26.767  -0.835  1.00  0.00     0.094 A 
ATOM     10  C   UNL     1      27.583 -25.408  -0.614  1.00  0.00     0.146 A 
ATOM     11  O   UNL     1      26.541 -24.591  -0.525  1.00  0.00    -0.452 OA
ENDROOT
BRANCH   1  12
ATOM     12  C   UNL     1      25.409 -22.480  -0.245  1.00  0.00     0.025 A 
ATOM     13  C   UNL     1      25.253 -21.399  -1.125  1.00  0.00     0.016 A 
ATOM     14  C   UNL     1      24.100 -20.613  -1.080  1.00  0.00     0.051 A 
ATOM     15  C   UNL     1      23.089 -20.881  -0.151  1.00  0.00     0.157 A 
ATOM     16  C   UNL     1      24.407 -22.737   0.705  1.00  0.00     0.062 A 
ATOM     17  C   UNL     1      23.248 -21.953   0.759  1.00  0.00     0.158 A 
BRANCH  15  18
ATOM     18  O   UNL     1      21.958 -20.062  -0.163  1.00  0.00    -0.504 OA
ATOM     19  H   UNL     1      21.259 -20.054   0.566  1.00  0.00     0.293 HD
ENDBRANCH  15  18
BRANCH  17  20
ATOM     20  O   UNL     1      22.292 -22.268   1.727  1.00  0.00    -0.504 OA
ATOM     21  H   UNL     1      22.190 -23.181   2.144  1.00  0.00     0.293 HD
ENDBRANCH  17  20
ENDBRANCH   1  12
BRANCH   2  22
ATOM     22  O   UNL     1      28.039 -21.370   0.252  1.00  0.00    -0.502 OA
ATOM     23  H   UNL     1      27.296 -20.701   0.087  1.00  0.00     0.293 HD
ENDBRANCH   2  22
BRANCH   6  24
ATOM     24  O   UNL     1      31.338 -25.454  -0.642  1.00  0.00    -0.507 OA
ATOM     25  H   UNL     1      31.921 -25.419  -1.464  1.00  0.00     0.293 HD
ENDBRANCH   6  24
BRANCH   8  26
ATOM     26  O   UNL     1      28.154 -29.017  -1.122  1.00  0.00    -0.508 OA
ATOM     27  H   UNL     1      27.847 -29.372  -2.021  1.00  0.00     0.293 HD
ENDBRANCH   8  26
TORSDOF 6
ENDMDL
MODEL 5
REMARK VINA RESULT:    -5.465      2.558      6.716
REMARK INTER + INTRA:          -6.800
REMARK INTER:                  -7.125
REMARK INTRA:                   0.325
REMARK UNBOUND:                -0.217
REMARK SMILES O=c1c(O)c(-c2ccc(O)c(O)c2)oc2cc(O)cc(O)c12
REMARK SMILES IDX 5 1 3 2 2 3 1 4 22 5 20 6 19 7 17 8 16 9 15 10 14 11 6 12
REMARK SMILES IDX 7 13 8 14 9 15 13 16 11 17 10 18 12 20 4 22 21 24 18 26
REMARK H PARENT 10 19 12 21 4 23 21 25 18 27
REMARK Flexibility Score: inf
ROOT
ATOM      1  C   UNL     1      25.960 -23.122  -0.435  1.00  0.00     0.180 A 
ATOM      2  C   UNL     1      24.625 -23.547  -0.323  1.00  0.00     0.208 A 
ATOM      3  C   UNL     1      23.606 -22.583  -0.278  1.00  0.00     0.238 A 
ATOM      4  O   UNL     1      22.417 -22.967  -0.123  1.00  0.00    -0.285 OA
ATOM      5  C   UNL     1      23.932 -21.208  -0.361  1.00  0.00     0.111 A 
ATOM      6  C   UNL     1      22.977 -20.147  -0.366  1.00  0.00     0.134 A 
ATOM      7  C   UNL     1      23.419 -18.819  -0.319  1.00  0.00     0.093 A 
ATOM      8  C   UNL     1      24.782 -18.513  -0.336  1.00  0.00     0.123 A 
ATOM      9  C   UNL     1      25.721 -19.540  -0.392  1.00  0.00     0.094 A 
ATOM     10  C   UNL     1      25.311 -20.875  -0.402  1.00  0.00     0.146 A 
ATOM     11  O   UNL     1      26.239 -21.823  -0.445  1.00  0.00    -0.452 OA
ENDROOT
BRANCH   1  12
ATOM     12  C   UNL     1      27.088 -24.080  -0.514  1.00  0.00     0.025 A 
ATOM     13  C   UNL     1      26.875 -25.353  -1.060  1.00  0.00     0.016 A 
ATOM     14  C   UNL     1      27.919 -26.277  -1.125  1.00  0.00     0.051 A 
ATOM     15  C   UNL     1      29.189 -25.955  -0.634  1.00  0.00     0.157 A 
ATOM     16  C   UNL     1      28.356 -23.760   0.000  1.00  0.00     0.062 A 
ATOM     17  C   UNL     1      29.409 -24.682  -0.058  1.00  0.00     0.158 A 
BRANCH  15  18
ATOM     18  O   UNL     1      30.193 -26.921  -0.736  1.00  0.00    -0.504 OA
ATOM     19  H   UNL     1      30.791 -27.031  -1.542  1.00  0.00     0.293 HD
ENDBRANCH  15  18
BRANCH  17  20
ATOM     20  O   UNL     1      30.642 -24.296   0.470  1.00  0.00    -0.504 OA
ATOM     21  H   UNL     1      31.397 -23.913  -0.080  1.00  0.00     0.293 HD
ENDBRANCH  17  20
ENDBRANCH   1  12
BRANCH   2  22
ATOM     22  O   UNL     1      24.327 -24.908  -0.221  1.00  0.00    -0.502 OA
ATOM     23  H   UNL     1      24.635 -25.475   0.560  1.00  0.00     0.293 HD
ENDBRANCH   2  22
BRANCH   6  24
ATOM     24  O   UNL     1      21.594 -20.342  -0.441  1.00  0.00    -0.507 OA
ATOM     25  H   UNL     1      20.999 -20.543   0.348  1.00  0.00     0.293 HD
ENDBRANCH   6  24
BRANCH   8  26
ATOM     26  O   UNL     1      25.213 -17.189  -0.306  1.00  0.00    -0.508 OA
ATOM     27  H   UNL     1      26.132 -16.938   0.041  1.00  0.00     0.293 HD
ENDBRANCH   8  26
TORSDOF 6
ENDMDL
MODEL 6
REMARK VINA RESULT:    -5.336      3.434      5.327
REMARK INTER + INTRA:          -6.645
REMARK INTER:                  -6.499
REMARK INTRA:                  -0.145
REMARK UNBOUND:                -0.217
REMARK SMILES O=c1c(O)c(-c2ccc(O)c(O)c2)oc2cc(O)cc(O)c12
REMARK SMILES IDX 5 1 3 2 2 3 1 4 22 5 20 6 19 7 17 8 16 9 15 10 14 11 6 12
REMARK SMILES IDX 7 13 8 14 9 15 13 16 11 17 10 18 12 20 4 22 21 24 18 26
REMARK H PARENT 10 19 12 21 4 23 21 25 18 27
REMARK Flexibility Score: inf
ROOT
ATOM      1  C   UNL     1      27.046 -19.583   0.395  1.00  0.00     0.180 A 
ATOM      2  C   UNL     1      25.965 -18.768   0.018  1.00  0.00     0.208 A 
ATOM      3  C   UNL     1      24.727 -19.367  -0.266  1.00  0.00     0.238 A 
ATOM      4  O   UNL     1      23.778 -18.637  -0.656  1.00  0.00    -0.285 OA
ATOM      5  C   UNL     1      24.581 -20.770  -0.152  1.00  0.00     0.111 A 
ATOM      6  C   UNL     1      23.362 -21.478  -0.376  1.00  0.00     0.134 A 
ATOM      7  C   UNL     1      23.365 -22.879  -0.364  1.00  0.00     0.093 A 
ATOM      8  C   UNL     1      24.528 -23.594  -0.071  1.00  0.00     0.123 A 
ATOM      9  C   UNL     1      25.709 -22.910   0.207  1.00  0.00     0.094 A 
ATOM     10  C   UNL     1      25.746 -21.515   0.167  1.00  0.00     0.146 A 
ATOM     11  O   UNL     1      26.895 -20.903   0.428  1.00  0.00    -0.452 OA
ENDROOT
BRANCH   1  12
ATOM     12  C   UNL     1      28.375 -19.024   0.733  1.00  0.00     0.025 A 
ATOM     13  C   UNL     1      28.500 -18.155   1.826  1.00  0.00     0.016 A 
ATOM     14  C   UNL     1      29.740 -17.600   2.149  1.00  0.00     0.051 A 
ATOM     15  C   UNL     1      30.873 -17.890   1.382  1.00  0.00     0.157 A 
ATOM     16  C   UNL     1      29.507 -19.300  -0.053  1.00  0.00     0.062 A 
ATOM     17  C   UNL     1      30.754 -18.746   0.262  1.00  0.00     0.158 A 
BRANCH  15  18
ATOM     18  O   UNL     1      32.085 -17.309   1.763  1.00  0.00    -0.504 OA
ATOM     19  H   UNL     1      32.977 -17.781   1.714  1.00  0.00     0.293 HD
ENDBRANCH  15  18
BRANCH  17  20
ATOM     20  O   UNL     1      31.836 -19.065  -0.561  1.00  0.00    -0.504 OA
ATOM     21  H   UNL     1      32.237 -18.432  -1.237  1.00  0.00     0.293 HD
ENDBRANCH  17  20
ENDBRANCH   1  12
BRANCH   2  22
ATOM     22  O   UNL     1      26.137 -17.387  -0.108  1.00  0.00    -0.502 OA
ATOM     23  H   UNL     1      25.923 -16.888  -0.964  1.00  0.00     0.293 HD
ENDBRANCH   2  22
BRANCH   6  24
ATOM     24  O   UNL     1      22.127 -20.859  -0.587  1.00  0.00    -0.507 OA
ATOM     25  H   UNL     1      21.527 -21.027  -1.379  1.00  0.00     0.293 HD
ENDBRANCH   6  24
BRANCH   8  26
ATOM     26  O   UNL     1      24.518 -24.987  -0.045  1.00  0.00    -0.508 OA
ATOM     27  H   UNL     1      25.051 -25.509   0.641  1.00  0.00     0.293 HD
ENDBRANCH   8  26
TORSDOF 6
ENDMDL
MODEL 7
REMARK VINA RESULT:    -5.328      3.626      6.192
REMARK INTER + INTRA:          -6.636
REMARK INTER:                  -6.670
REMARK INTRA:                   0.035
REMARK UNBOUND:                -0.217
REMARK SMILES O=c1c(O)c(-c2ccc(O)c(O)c2)oc2cc(O)cc(O)c12
REMARK SMILES IDX 5 1 3 2 2 3 1 4 22 5 20 6 19 7 17 8 16 9 15 10 14 11 6 12
REMARK SMILES IDX 7 13 8 14 9 15 13 16 11 17 10 18 12 20 4 22 21 24 18 26
REMARK H PARENT 10 19 12 21 4 23 21 25 18 27
REMARK Flexibility Score: inf
ROOT
ATOM      1  C   UNL     1      26.460 -20.477   0.574  1.00  0.00     0.180 A 
ATOM      2  C   UNL     1      26.616 -19.320   1.357  1.00  0.00     0.208 A 
ATOM      3  C   UNL     1      27.888 -18.736   1.463  1.00  0.00     0.238 A 
ATOM      4  O   UNL     1      28.032 -17.732   2.209  1.00  0.00    -0.285 OA
ATOM      5  C   UNL     1      28.985 -19.306   0.772  1.00  0.00     0.111 A 
ATOM      6  C   UNL     1      30.310 -18.774   0.776  1.00  0.00     0.134 A 
ATOM      7  C   UNL     1      31.345 -19.494   0.165  1.00  0.00     0.093 A 
ATOM      8  C   UNL     1      31.089 -20.692  -0.506  1.00  0.00     0.123 A 
ATOM      9  C   UNL     1      29.789 -21.188  -0.566  1.00  0.00     0.094 A 
ATOM     10  C   UNL     1      28.743 -20.512   0.065  1.00  0.00     0.146 A 
ATOM     11  O   UNL     1      27.521 -21.026  -0.008  1.00  0.00    -0.452 OA
ENDROOT
BRANCH   1  12
ATOM     12  C   UNL     1      25.146 -21.135   0.394  1.00  0.00     0.025 A 
ATOM     13  C   UNL     1      25.060 -22.533   0.461  1.00  0.00     0.016 A 
ATOM     14  C   UNL     1      23.834 -23.175   0.274  1.00  0.00     0.051 A 
ATOM     15  C   UNL     1      22.676 -22.438   0.002  1.00  0.00     0.157 A 
ATOM     16  C   UNL     1      23.989 -20.393   0.098  1.00  0.00     0.062 A 
ATOM     17  C   UNL     1      22.756 -21.029  -0.094  1.00  0.00     0.158 A 
BRANCH  15  18
ATOM     18  O   UNL     1      21.480 -23.140  -0.168  1.00  0.00    -0.504 OA
ATOM     19  H   UNL     1      20.581 -22.699  -0.293  1.00  0.00     0.293 HD
ENDBRANCH  15  18
BRANCH  17  20
ATOM     20  O   UNL     1      21.649 -20.228  -0.382  1.00  0.00    -0.504 OA
ATOM     21  H   UNL     1      21.600 -19.240  -0.184  1.00  0.00     0.293 HD
ENDBRANCH  17  20
ENDBRANCH   1  12
BRANCH   2  22
ATOM     22  O   UNL     1      25.524 -18.786   2.047  1.00  0.00    -0.502 OA
ATOM     23  H   UNL     1      24.582 -18.806   1.674  1.00  0.00     0.293 HD
ENDBRANCH   2  22
BRANCH   6  24
ATOM     24  O   UNL     1      30.654 -17.542   1.339  1.00  0.00    -0.507 OA
ATOM     25  H   UNL     1      31.230 -16.846   0.890  1.00  0.00     0.293 HD
ENDBRANCH   6  24
BRANCH   8  26
ATOM     26  O   UNL     1      32.122 -21.393  -1.125  1.00  0.00    -0.508 OA
ATOM     27  H   UNL     1      32.734 -20.949  -1.800  1.00  0.00     0.293 HD
ENDBRANCH   8  26
TORSDOF 6
ENDMDL
MODEL 8
REMARK VINA RESULT:    -5.209      1.639      3.040
REMARK INTER + INTRA:          -6.492
REMARK INTER:                  -6.169
REMARK INTRA:                  -0.323
REMARK UNBOUND:                -0.217
REMARK SMILES O=c1c(O)c(-c2ccc(O)c(O)c2)oc2cc(O)cc(O)c12
REMARK SMILES IDX 5 1 3 2 2 3 1 4 22 5 20 6 19 7 17 8 16 9 15 10 14 11 6 12
REMARK SMILES IDX 7 13 8 14 9 15 13 16 11 17 10 18 12 20 4 22 21 24 18 26
REMARK H PARENT 10 19 12 21 4 23 21 25 18 27
REMARK Flexibility Score: inf
ROOT
ATOM      1  C   UNL     1      28.063 -23.091  -0.133  1.00  0.00     0.180 A 
ATOM      2  C   UNL     1      29.466 -23.025  -0.191  1.00  0.00     0.208 A 
ATOM      3  C   UNL     1      30.194 -24.205  -0.410  1.00  0.00     0.238 A 
ATOM      4  O   UNL     1      31.452 -24.149  -0.407  1.00  0.00    -0.285 OA
ATOM      5  C   UNL     1      29.512 -25.433  -0.584  1.00  0.00     0.111 A 
ATOM      6  C   UNL     1      30.148 -26.683  -0.852  1.00  0.00     0.134 A 
ATOM      7  C   UNL     1      29.382 -27.856  -0.875  1.00  0.00     0.093 A 
ATOM      8  C   UNL     1      27.996 -27.815  -0.707  1.00  0.00     0.123 A 
ATOM      9  C   UNL     1      27.360 -26.592  -0.504  1.00  0.00     0.094 A 
ATOM     10  C   UNL     1      28.100 -25.410  -0.439  1.00  0.00     0.146 A 
ATOM     11  O   UNL     1      27.455 -24.268  -0.234  1.00  0.00    -0.452 OA
ENDROOT
BRANCH   1  12
ATOM     12  C   UNL     1      27.225 -21.887   0.069  1.00  0.00     0.025 A 
ATOM     13  C   UNL     1      26.829 -21.128  -1.040  1.00  0.00     0.016 A 
ATOM     14  C   UNL     1      26.056 -19.978  -0.870  1.00  0.00     0.051 A 
ATOM     15  C   UNL     1      25.676 -19.556   0.409  1.00  0.00     0.157 A 
ATOM     16  C   UNL     1      26.865 -21.454   1.357  1.00  0.00     0.062 A 
ATOM     17  C   UNL     1      26.092 -20.301   1.538  1.00  0.00     0.158 A 
BRANCH  15  18
ATOM     18  O   UNL     1      24.896 -18.402   0.511  1.00  0.00    -0.504 OA
ATOM     19  H   UNL     1      24.129 -18.295   1.159  1.00  0.00     0.293 HD
ENDBRANCH  15  18
BRANCH  17  20
ATOM     20  O   UNL     1      25.769 -19.931   2.846  1.00  0.00    -0.504 OA
ATOM     21  H   UNL     1      24.925 -19.441   3.102  1.00  0.00     0.293 HD
ENDBRANCH  17  20
ENDBRANCH   1  12
BRANCH   2  22
ATOM     22  O   UNL     1      30.121 -21.806   0.005  1.00  0.00    -0.502 OA
ATOM     23  H   UNL     1      31.035 -21.743   0.437  1.00  0.00     0.293 HD
ENDBRANCH   2  22
BRANCH   6  24
ATOM     24  O   UNL     1      31.511 -26.822  -1.125  1.00  0.00    -0.507 OA
ATOM     25  H   UNL     1      32.235 -26.884  -0.425  1.00  0.00     0.293 HD
ENDBRANCH   6  24
BRANCH   8  26
ATOM     26  O   UNL     1      27.241 -28.984  -0.747  1.00  0.00    -0.508 OA
ATOM     27  H   UNL     1      26.295 -28.993  -1.113  1.00  0.00     0.293 HD
ENDBRANCH   8  26
TORSDOF 6
ENDMDL
MODEL 9
REMARK VINA RESULT:    -5.161      1.419      6.549
REMARK INTER + INTRA:          -6.434
REMARK INTER:                  -6.764
REMARK INTRA:                   0.329
REMARK UNBOUND:                -0.217
REMARK SMILES O=c1c(O)c(-c2ccc(O)c(O)c2)oc2cc(O)cc(O)c12
REMARK SMILES IDX 5 1 3 2 2 3 1 4 22 5 20 6 19 7 17 8 16 9 15 10 14 11 6 12
REMARK SMILES IDX 7 13 8 14 9 15 13 16 11 17 10 18 12 20 4 22 21 24 18 26
REMARK H PARENT 10 19 12 21 4 23 21 25 18 27
REMARK Flexibility Score: inf
ROOT
ATOM      1  C   UNL     1      27.614 -23.421   0.026  1.00  0.00     0.180 A 
ATOM      2  C   UNL     1      26.302 -23.643  -0.425  1.00  0.00     0.208 A 
ATOM      3  C   UNL     1      25.315 -22.684  -0.145  1.00  0.00     0.238 A 
ATOM      4  O   UNL     1      24.130 -22.914  -0.504  1.00  0.00    -0.285 OA
ATOM      5  C   UNL     1      25.656 -21.509   0.567  1.00  0.00     0.111 A 
ATOM      6  C   UNL     1      24.745 -20.453   0.870  1.00  0.00     0.134 A 
ATOM      7  C   UNL     1      25.160 -19.398   1.694  1.00  0.00     0.093 A 
ATOM      8  C   UNL     1      26.472 -19.330   2.170  1.00  0.00     0.123 A 
ATOM      9  C   UNL     1      27.384 -20.326   1.830  1.00  0.00     0.094 A 
ATOM     10  C   UNL     1      26.990 -21.408   1.040  1.00  0.00     0.146 A 
ATOM     11  O   UNL     1      27.888 -22.341   0.749  1.00  0.00    -0.452 OA
ENDROOT
BRANCH   1  12
ATOM     12  C   UNL     1      28.714 -24.374  -0.251  1.00  0.00     0.025 A 
ATOM     13  C   UNL     1      30.028 -23.898  -0.355  1.00  0.00     0.016 A 
ATOM     14  C   UNL     1      31.077 -24.776  -0.636  1.00  0.00     0.051 A 
ATOM     15  C   UNL     1      30.833 -26.140  -0.832  1.00  0.00     0.157 A 
ATOM     16  C   UNL     1      28.463 -25.739  -0.470  1.00  0.00     0.062 A 
ATOM     17  C   UNL     1      29.508 -26.627  -0.755  1.00  0.00     0.158 A 
BRANCH  15  18
ATOM     18  O   UNL     1      31.927 -26.966  -1.102  1.00  0.00    -0.504 OA
ATOM     19  H   UNL     1      31.961 -27.625  -1.867  1.00  0.00     0.293 HD
ENDBRANCH  15  18
BRANCH  17  20
ATOM     20  O   UNL     1      29.184 -27.970  -0.958  1.00  0.00    -0.504 OA
ATOM     21  H   UNL     1      29.120 -28.404  -1.867  1.00  0.00     0.293 HD
ENDBRANCH  17  20
ENDBRANCH   1  12
BRANCH   2  22
ATOM     22  O   UNL     1      25.983 -24.820  -1.108  1.00  0.00    -0.502 OA
ATOM     23  H   UNL     1      25.696 -25.666  -0.629  1.00  0.00     0.293 HD
ENDBRANCH   2  22
BRANCH   6  24
ATOM     24  O   UNL     1      23.442 -20.378   0.370  1.00  0.00    -0.507 OA
ATOM     25  H   UNL     1      22.691 -19.859   0.799  1.00  0.00     0.293 HD
ENDBRANCH   6  24
BRANCH   8  26
ATOM     26  O   UNL     1      26.880 -18.270   2.975  1.00  0.00    -0.508 OA
ATOM     27  H   UNL     1      26.626 -17.312   2.761  1.00  0.00     0.293 HD
ENDBRANCH   8  26
TORSDOF 6
ENDMDL
