MODEL 1
REMARK VINA RESULT:    -3.214      0.000      0.000
REMARK INTER + INTRA:         -14.396
REMARK INTER:                  -8.475
REMARK INTRA:                  -5.921
REMARK UNBOUND:                -5.921
REMARK SMILES CCCCCCCCCCCCCCCCCCCCCCCCCCCCCC(=O)[O-]
REMARK SMILES IDX 16 1 17 2 18 3 19 4 20 5 21 6 22 7 23 8 24 9 25 10 26 11
REMARK SMILES IDX 27 12 28 13 29 14 30 15 31 16 32 17 15 18 14 19 13 20 12 21
REMARK SMILES IDX 11 22 10 23 9 24 8 25 7 26 6 27 5 28 4 29 3 30 2 31 1 32
REMARK H PARENT
REMARK Flexibility Score: inf
ROOT
ATOM      1  C   UNL     1     165.977 153.772 176.886  1.00  0.00     0.000 C 
ENDROOT
BRANCH   1   2
ATOM      2  C   UNL     1     165.158 154.793 177.696  1.00  0.00     0.000 C 
BRANCH   2   3
ATOM      3  C   UNL     1     163.699 154.954 177.219  1.00  0.00     0.000 C 
BRANCH   3   4
ATOM      4  C   UNL     1     162.997 156.171 177.847  1.00  0.00     0.000 C 
BRANCH   4   5
ATOM      5  C   UNL     1     163.853 156.783 178.967  1.00  0.00     0.000 C 
BRANCH   5   6
ATOM      6  C   UNL     1     163.706 158.312 179.064  1.00  0.00     0.000 C 
BRANCH   6   7
ATOM      7  C   UNL     1     164.881 159.119 178.478  1.00  0.00     0.000 C 
BRANCH   7   8
ATOM      8  C   UNL     1     165.952 158.255 177.780  1.00  0.00     0.000 C 
BRANCH   8   9
ATOM      9  C   UNL     1     166.194 158.676 176.323  1.00  0.00     0.000 C 
BRANCH   9  10
ATOM     10  C   UNL     1     165.700 157.601 175.345  1.00  0.00     0.000 C 
BRANCH  10  11
ATOM     11  C   UNL     1     164.226 157.835 174.974  1.00  0.00     0.000 C 
BRANCH  11  12
ATOM     12  C   UNL     1     163.868 159.327 174.818  1.00  0.00     0.000 C 
BRANCH  12  13
ATOM     13  C   UNL     1     162.667 159.789 175.670  1.00  0.00     0.006 C 
BRANCH  13  14
ATOM     14  C   UNL     1     161.325 159.114 175.335  1.00  0.00     0.053 C 
BRANCH  14  15
ATOM     15  C   UNL     1     160.337 160.071 174.733  1.00  0.00     0.041 C 
ATOM     16  O   UNL     1     160.725 160.977 173.949  1.00  0.00    -0.550 OA
ATOM     17  O   UNL     1     158.988 159.962 175.044  1.00  0.00    -0.550 OA
ENDBRANCH  14  15
ENDBRANCH  13  14
ENDBRANCH  12  13
ENDBRANCH  11  12
ENDBRANCH  10  11
ENDBRANCH   9  10
ENDBRANCH   8   9
ENDBRANCH   7   8
ENDBRANCH   6   7
ENDBRANCH   5   6
ENDBRANCH   4   5
ENDBRANCH   3   4
ENDBRANCH   2   3
ENDBRANCH   1   2
BRANCH   1  18
ATOM     18  C   UNL     1     165.615 152.317 177.211  1.00  0.00     0.000 C 
BRANCH  18  19
ATOM     19  C   UNL     1     166.869 151.431 177.291  1.00  0.00     0.000 C 
BRANCH  19  20
ATOM     20  C   UNL     1     168.163 152.218 177.025  1.00  0.00     0.000 C 
BRANCH  20  21
ATOM     21  C   UNL     1     169.096 152.249 178.250  1.00  0.00     0.000 C 
BRANCH  21  22
ATOM     22  C   UNL     1     168.522 151.486 179.454  1.00  0.00     0.000 C 
BRANCH  22  23
ATOM     23  C   UNL     1     168.340 152.377 180.692  1.00  0.00     0.000 C 
BRANCH  23  24
ATOM     24  C   UNL     1     167.238 153.420 180.455  1.00  0.00    -0.000 C 
BRANCH  24  25
ATOM     25  C   UNL     1     167.717 154.861 180.695  1.00  0.00    -0.000 C 
BRANCH  25  26
ATOM     26  C   UNL     1     167.921 155.638 179.382  1.00  0.00    -0.000 C 
BRANCH  26  27
ATOM     27  C   UNL     1     169.397 155.976 179.108  1.00  0.00    -0.000 C 
BRANCH  27  28
ATOM     28  C   UNL     1     169.684 156.567 177.714  1.00  0.00    -0.000 C 
BRANCH  28  29
ATOM     29  C   UNL     1     169.662 155.508 176.597  1.00  0.00    -0.000 C 
BRANCH  29  30
ATOM     30  C   UNL     1     169.019 156.025 175.302  1.00  0.00    -0.000 C 
BRANCH  30  31
ATOM     31  C   UNL     1     169.475 157.449 174.946  1.00  0.00    -0.003 C 
ATOM     32  C   UNL     1     170.228 157.471 173.620  1.00  0.00     0.004 C 
ENDBRANCH  30  31
ENDBRANCH  29  30
ENDBRANCH  28  29
ENDBRANCH  27  28
ENDBRANCH  26  27
ENDBRANCH  25  26
ENDBRANCH  24  25
ENDBRANCH  23  24
ENDBRANCH  22  23
ENDBRANCH  21  22
ENDBRANCH  20  21
ENDBRANCH  19  20
ENDBRANCH  18  19
ENDBRANCH   1  18
TORSDOF 28
ENDMDL
MODEL 2
REMARK VINA RESULT:    -3.168      1.541      3.954
REMARK INTER + INTRA:         -14.276
REMARK INTER:                  -7.757
REMARK INTRA:                  -6.519
REMARK UNBOUND:                -5.921
REMARK SMILES CCCCCCCCCCCCCCCCCCCCCCCCCCCCCC(=O)[O-]
REMARK SMILES IDX 16 1 17 2 18 3 19 4 20 5 21 6 22 7 23 8 24 9 25 10 26 11
REMARK SMILES IDX 27 12 28 13 29 14 30 15 31 16 32 17 15 18 14 19 13 20 12 21
REMARK SMILES IDX 11 22 10 23 9 24 8 25 7 26 6 27 5 28 4 29 3 30 2 31 1 32
REMARK H PARENT
REMARK Flexibility Score: inf
ROOT
ATOM      1  C   UNL     1     166.094 152.745 177.802  1.00  0.00     0.000 C 
ENDROOT
BRANCH   1   2
ATOM      2  C   UNL     1     166.775 153.188 176.495  1.00  0.00     0.000 C 
BRANCH   2   3
ATOM      3  C   UNL     1     167.134 154.688 176.445  1.00  0.00     0.000 C 
BRANCH   3   4
ATOM      4  C   UNL     1     168.246 155.002 175.429  1.00  0.00     0.000 C 
BRANCH   4   5
ATOM      5  C   UNL     1     169.025 156.262 175.836  1.00  0.00     0.000 C 
BRANCH   5   6
ATOM      6  C   UNL     1     169.432 157.128 174.631  1.00  0.00     0.000 C 
BRANCH   6   7
ATOM      7  C   UNL     1     168.322 158.043 174.079  1.00  0.00     0.000 C 
BRANCH   7   8
ATOM      8  C   UNL     1     167.685 158.968 175.139  1.00  0.00     0.000 C 
BRANCH   8   9
ATOM      9  C   UNL     1     166.151 158.882 175.152  1.00  0.00     0.000 C 
BRANCH   9  10
ATOM     10  C   UNL     1     165.667 157.526 174.621  1.00  0.00     0.000 C 
BRANCH  10  11
ATOM     11  C   UNL     1     164.148 157.377 174.809  1.00  0.00     0.000 C 
BRANCH  11  12
ATOM     12  C   UNL     1     163.515 158.542 175.595  1.00  0.00     0.000 C 
BRANCH  12  13
ATOM     13  C   UNL     1     161.984 158.442 175.765  1.00  0.00     0.006 C 
BRANCH  13  14
ATOM     14  C   UNL     1     161.410 159.167 176.996  1.00  0.00     0.053 C 
BRANCH  14  15
ATOM     15  C   UNL     1     160.123 158.559 177.470  1.00  0.00     0.041 C 
ATOM     16  O   UNL     1     160.026 157.313 177.625  1.00  0.00    -0.550 OA
ATOM     17  O   UNL     1     159.028 159.372 177.734  1.00  0.00    -0.550 OA
ENDBRANCH  14  15
ENDBRANCH  13  14
ENDBRANCH  12  13
ENDBRANCH  11  12
ENDBRANCH  10  11
ENDBRANCH   9  10
ENDBRANCH   8   9
ENDBRANCH   7   8
ENDBRANCH   6   7
ENDBRANCH   5   6
ENDBRANCH   4   5
ENDBRANCH   3   4
ENDBRANCH   2   3
ENDBRANCH   1   2
BRANCH   1  18
ATOM     18  C   UNL     1     166.480 153.614 179.006  1.00  0.00     0.000 C 
BRANCH  18  19
ATOM     19  C   UNL     1     167.104 152.770 180.129  1.00  0.00     0.000 C 
BRANCH  19  20
ATOM     20  C   UNL     1     168.008 151.648 179.590  1.00  0.00     0.000 C 
BRANCH  20  21
ATOM     21  C   UNL     1     169.503 152.013 179.654  1.00  0.00     0.000 C 
BRANCH  21  22
ATOM     22  C   UNL     1     169.996 152.719 178.381  1.00  0.00     0.000 C 
BRANCH  22  23
ATOM     23  C   UNL     1     170.345 154.196 178.616  1.00  0.00     0.000 C 
BRANCH  23  24
ATOM     24  C   UNL     1     170.452 154.498 180.118  1.00  0.00    -0.000 C 
BRANCH  24  25
ATOM     25  C   UNL     1     169.474 155.590 180.580  1.00  0.00    -0.000 C 
BRANCH  25  26
ATOM     26  C   UNL     1     168.888 156.388 179.402  1.00  0.00    -0.000 C 
BRANCH  26  27
ATOM     27  C   UNL     1     167.511 157.001 179.718  1.00  0.00    -0.000 C 
BRANCH  27  28
ATOM     28  C   UNL     1     166.775 157.611 178.510  1.00  0.00    -0.000 C 
BRANCH  28  29
ATOM     29  C   UNL     1     165.278 157.850 178.778  1.00  0.00    -0.000 C 
BRANCH  29  30
ATOM     30  C   UNL     1     164.565 156.600 179.315  1.00  0.00    -0.000 C 
BRANCH  30  31
ATOM     31  C   UNL     1     163.253 156.305 178.572  1.00  0.00    -0.003 C 
ATOM     32  C   UNL     1     163.461 155.259 177.481  1.00  0.00     0.004 C 
ENDBRANCH  30  31
ENDBRANCH  29  30
ENDBRANCH  28  29
ENDBRANCH  27  28
ENDBRANCH  26  27
ENDBRANCH  25  26
ENDBRANCH  24  25
ENDBRANCH  23  24
ENDBRANCH  22  23
ENDBRANCH  21  22
ENDBRANCH  20  21
ENDBRANCH  19  20
ENDBRANCH  18  19
ENDBRANCH   1  18
TORSDOF 28
ENDMDL
MODEL 3
REMARK VINA RESULT:    -3.081      2.195      4.139
REMARK INTER + INTRA:         -14.044
REMARK INTER:                  -8.232
REMARK INTRA:                  -5.812
REMARK UNBOUND:                -5.921
REMARK SMILES CCCCCCCCCCCCCCCCCCCCCCCCCCCCCC(=O)[O-]
REMARK SMILES IDX 16 1 17 2 18 3 19 4 20 5 21 6 22 7 23 8 24 9 25 10 26 11
REMARK SMILES IDX 27 12 28 13 29 14 30 15 31 16 32 17 15 18 14 19 13 20 12 21
REMARK SMILES IDX 11 22 10 23 9 24 8 25 7 26 6 27 5 28 4 29 3 30 2 31 1 32
REMARK H PARENT
REMARK Flexibility Score: inf
ROOT
ATOM      1  C   UNL     1     169.333 155.375 178.702  1.00  0.00     0.000 C 
ENDROOT
BRANCH   1   2
ATOM      2  C   UNL     1     167.924 155.862 179.086  1.00  0.00     0.000 C 
BRANCH   2   3
ATOM      3  C   UNL     1     167.207 154.970 180.121  1.00  0.00     0.000 C 
BRANCH   3   4
ATOM      4  C   UNL     1     165.675 155.014 179.987  1.00  0.00     0.000 C 
BRANCH   4   5
ATOM      5  C   UNL     1     165.238 156.125 179.019  1.00  0.00     0.000 C 
BRANCH   5   6
ATOM      6  C   UNL     1     163.756 156.022 178.620  1.00  0.00     0.000 C 
BRANCH   6   7
ATOM      7  C   UNL     1     163.459 156.304 177.134  1.00  0.00     0.000 C 
BRANCH   7   8
ATOM      8  C   UNL     1     163.218 157.795 176.813  1.00  0.00     0.000 C 
BRANCH   8   9
ATOM      9  C   UNL     1     163.328 158.100 175.311  1.00  0.00     0.000 C 
BRANCH   9  10
ATOM     10  C   UNL     1     163.561 159.598 175.065  1.00  0.00     0.000 C 
BRANCH  10  11
ATOM     11  C   UNL     1     162.299 160.259 174.487  1.00  0.00     0.000 C 
BRANCH  11  12
ATOM     12  C   UNL     1     162.583 161.604 173.789  1.00  0.00     0.000 C 
BRANCH  12  13
ATOM     13  C   UNL     1     162.958 161.484 172.296  1.00  0.00     0.006 C 
BRANCH  13  14
ATOM     14  C   UNL     1     164.467 161.433 172.000  1.00  0.00     0.053 C 
BRANCH  14  15
ATOM     15  C   UNL     1     164.855 160.216 171.212  1.00  0.00     0.041 C 
ATOM     16  O   UNL     1     165.728 159.422 171.654  1.00  0.00    -0.550 OA
ATOM     17  O   UNL     1     164.255 159.964 169.985  1.00  0.00    -0.550 OA
ENDBRANCH  14  15
ENDBRANCH  13  14
ENDBRANCH  12  13
ENDBRANCH  11  12
ENDBRANCH  10  11
ENDBRANCH   9  10
ENDBRANCH   8   9
ENDBRANCH   7   8
ENDBRANCH   6   7
ENDBRANCH   5   6
ENDBRANCH   4   5
ENDBRANCH   3   4
ENDBRANCH   2   3
ENDBRANCH   1   2
BRANCH   1  18
ATOM     18  C   UNL     1     169.810 154.187 179.547  1.00  0.00     0.000 C 
BRANCH  18  19
ATOM     19  C   UNL     1     169.845 152.891 178.722  1.00  0.00     0.000 C 
BRANCH  19  20
ATOM     20  C   UNL     1     169.239 151.696 179.478  1.00  0.00     0.000 C 
BRANCH  20  21
ATOM     21  C   UNL     1     167.801 151.381 179.027  1.00  0.00     0.000 C 
BRANCH  21  22
ATOM     22  C   UNL     1     167.541 151.764 177.562  1.00  0.00     0.000 C 
BRANCH  22  23
ATOM     23  C   UNL     1     166.179 152.443 177.356  1.00  0.00     0.000 C 
BRANCH  23  24
ATOM     24  C   UNL     1     166.329 153.717 176.511  1.00  0.00    -0.000 C 
BRANCH  24  25
ATOM     25  C   UNL     1     167.682 153.800 175.787  1.00  0.00    -0.000 C 
BRANCH  25  26
ATOM     26  C   UNL     1     168.008 155.227 175.314  1.00  0.00    -0.000 C 
BRANCH  26  27
ATOM     27  C   UNL     1     166.809 156.186 175.427  1.00  0.00    -0.000 C 
BRANCH  27  28
ATOM     28  C   UNL     1     166.967 157.521 174.674  1.00  0.00    -0.000 C 
BRANCH  28  29
ATOM     29  C   UNL     1     167.478 158.661 175.574  1.00  0.00    -0.000 C 
BRANCH  29  30
ATOM     30  C   UNL     1     166.723 158.746 176.909  1.00  0.00    -0.000 C 
BRANCH  30  31
ATOM     31  C   UNL     1     167.571 159.373 178.026  1.00  0.00    -0.003 C 
ATOM     32  C   UNL     1     166.814 159.388 179.350  1.00  0.00     0.004 C 
ENDBRANCH  30  31
ENDBRANCH  29  30
ENDBRANCH  28  29
ENDBRANCH  27  28
ENDBRANCH  26  27
ENDBRANCH  25  26
ENDBRANCH  24  25
ENDBRANCH  23  24
ENDBRANCH  22  23
ENDBRANCH  21  22
ENDBRANCH  20  21
ENDBRANCH  19  20
ENDBRANCH  18  19
ENDBRANCH   1  18
TORSDOF 28
ENDMDL
MODEL 4
REMARK VINA RESULT:    -3.079      2.805      4.850
REMARK INTER + INTRA:         -14.039
REMARK INTER:                  -7.666
REMARK INTRA:                  -6.373
REMARK UNBOUND:                -5.921
REMARK SMILES CCCCCCCCCCCCCCCCCCCCCCCCCCCCCC(=O)[O-]
REMARK SMILES IDX 16 1 17 2 18 3 19 4 20 5 21 6 22 7 23 8 24 9 25 10 26 11
REMARK SMILES IDX 27 12 28 13 29 14 30 15 31 16 32 17 15 18 14 19 13 20 12 21
REMARK SMILES IDX 11 22 10 23 9 24 8 25 7 26 6 27 5 28 4 29 3 30 2 31 1 32
REMARK H PARENT
REMARK Flexibility Score: inf
ROOT
ATOM      1  C   UNL     1     168.067 151.604 178.260  1.00  0.00     0.000 C 
ENDROOT
BRANCH   1   2
ATOM      2  C   UNL     1     166.834 151.276 177.400  1.00  0.00     0.000 C 
BRANCH   2   3
ATOM      3  C   UNL     1     165.846 152.450 177.237  1.00  0.00     0.000 C 
BRANCH   3   4
ATOM      4  C   UNL     1     166.471 153.662 176.524  1.00  0.00     0.000 C 
BRANCH   4   5
ATOM      5  C   UNL     1     165.593 154.912 176.689  1.00  0.00     0.000 C 
BRANCH   5   6
ATOM      6  C   UNL     1     164.194 154.592 177.244  1.00  0.00     0.000 C 
BRANCH   6   7
ATOM      7  C   UNL     1     163.524 155.737 178.027  1.00  0.00     0.000 C 
BRANCH   7   8
ATOM      8  C   UNL     1     162.839 156.793 177.133  1.00  0.00     0.000 C 
BRANCH   8   9
ATOM      9  C   UNL     1     163.335 158.219 177.417  1.00  0.00     0.000 C 
BRANCH   9  10
ATOM     10  C   UNL     1     164.418 158.640 176.414  1.00  0.00     0.000 C 
BRANCH  10  11
ATOM     11  C   UNL     1     164.129 158.058 175.021  1.00  0.00     0.000 C 
BRANCH  11  12
ATOM     12  C   UNL     1     165.405 157.701 174.234  1.00  0.00     0.000 C 
BRANCH  12  13
ATOM     13  C   UNL     1     166.715 157.853 175.036  1.00  0.00     0.006 C 
BRANCH  13  14
ATOM     14  C   UNL     1     167.669 158.954 174.537  1.00  0.00     0.053 C 
BRANCH  14  15
ATOM     15  C   UNL     1     168.721 158.422 173.609  1.00  0.00     0.041 C 
ATOM     16  O   UNL     1     168.796 158.839 172.423  1.00  0.00    -0.550 OA
ATOM     17  O   UNL     1     169.618 157.459 174.056  1.00  0.00    -0.550 OA
ENDBRANCH  14  15
ENDBRANCH  13  14
ENDBRANCH  12  13
ENDBRANCH  11  12
ENDBRANCH  10  11
ENDBRANCH   9  10
ENDBRANCH   8   9
ENDBRANCH   7   8
ENDBRANCH   6   7
ENDBRANCH   5   6
ENDBRANCH   4   5
ENDBRANCH   3   4
ENDBRANCH   2   3
ENDBRANCH   1   2
BRANCH   1  18
ATOM     18  C   UNL     1     167.924 151.143 179.717  1.00  0.00     0.000 C 
BRANCH  18  19
ATOM     19  C   UNL     1     168.237 152.283 180.699  1.00  0.00     0.000 C 
BRANCH  19  20
ATOM     20  C   UNL     1     167.774 153.654 180.178  1.00  0.00     0.000 C 
BRANCH  20  21
ATOM     21  C   UNL     1     166.317 153.970 180.563  1.00  0.00     0.000 C 
BRANCH  21  22
ATOM     22  C   UNL     1     166.021 155.478 180.574  1.00  0.00     0.000 C 
BRANCH  22  23
ATOM     23  C   UNL     1     167.226 156.326 180.142  1.00  0.00     0.000 C 
BRANCH  23  24
ATOM     24  C   UNL     1     166.920 157.084 178.842  1.00  0.00    -0.000 C 
BRANCH  24  25
ATOM     25  C   UNL     1     168.068 158.007 178.403  1.00  0.00    -0.000 C 
BRANCH  25  26
ATOM     26  C   UNL     1     169.370 157.235 178.130  1.00  0.00    -0.000 C 
BRANCH  26  27
ATOM     27  C   UNL     1     169.161 156.003 177.230  1.00  0.00    -0.000 C 
BRANCH  27  28
ATOM     28  C   UNL     1     169.986 154.762 177.619  1.00  0.00    -0.000 C 
BRANCH  28  29
ATOM     29  C   UNL     1     171.079 155.069 178.659  1.00  0.00    -0.000 C 
BRANCH  29  30
ATOM     30  C   UNL     1     171.421 153.854 179.534  1.00  0.00    -0.000 C 
BRANCH  30  31
ATOM     31  C   UNL     1     171.522 152.554 178.723  1.00  0.00    -0.003 C 
ATOM     32  C   UNL     1     171.714 151.348 179.637  1.00  0.00     0.004 C 
ENDBRANCH  30  31
ENDBRANCH  29  30
ENDBRANCH  28  29
ENDBRANCH  27  28
ENDBRANCH  26  27
ENDBRANCH  25  26
ENDBRANCH  24  25
ENDBRANCH  23  24
ENDBRANCH  22  23
ENDBRANCH  21  22
ENDBRANCH  20  21
ENDBRANCH  19  20
ENDBRANCH  18  19
ENDBRANCH   1  18
TORSDOF 28
ENDMDL
MODEL 5
REMARK VINA RESULT:    -3.076      1.583      3.013
REMARK INTER + INTRA:         -14.031
REMARK INTER:                  -8.429
REMARK INTRA:                  -5.603
REMARK UNBOUND:                -5.921
REMARK SMILES CCCCCCCCCCCCCCCCCCCCCCCCCCCCCC(=O)[O-]
REMARK SMILES IDX 16 1 17 2 18 3 19 4 20 5 21 6 22 7 23 8 24 9 25 10 26 11
REMARK SMILES IDX 27 12 28 13 29 14 30 15 31 16 32 17 15 18 14 19 13 20 12 21
REMARK SMILES IDX 11 22 10 23 9 24 8 25 7 26 6 27 5 28 4 29 3 30 2 31 1 32
REMARK H PARENT
REMARK Flexibility Score: inf
ROOT
ATOM      1  C   UNL     1     165.766 153.138 177.937  1.00  0.00     0.000 C 
ENDROOT
BRANCH   1   2
ATOM      2  C   UNL     1     166.068 154.483 178.620  1.00  0.00     0.000 C 
BRANCH   2   3
ATOM      3  C   UNL     1     166.110 154.415 180.161  1.00  0.00     0.000 C 
BRANCH   3   4
ATOM      4  C   UNL     1     166.543 155.743 180.806  1.00  0.00     0.000 C 
BRANCH   4   5
ATOM      5  C   UNL     1     166.084 156.941 179.960  1.00  0.00     0.000 C 
BRANCH   5   6
ATOM      6  C   UNL     1     164.904 157.702 180.591  1.00  0.00     0.000 C 
BRANCH   6   7
ATOM      7  C   UNL     1     163.736 158.007 179.634  1.00  0.00     0.000 C 
BRANCH   7   8
ATOM      8  C   UNL     1     163.968 157.526 178.185  1.00  0.00     0.000 C 
BRANCH   8   9
ATOM      9  C   UNL     1     163.029 156.378 177.786  1.00  0.00     0.000 C 
BRANCH   9  10
ATOM     10  C   UNL     1     161.720 156.915 177.190  1.00  0.00     0.000 C 
BRANCH  10  11
ATOM     11  C   UNL     1     161.868 158.390 176.784  1.00  0.00     0.000 C 
BRANCH  11  12
ATOM     12  C   UNL     1     161.408 158.672 175.340  1.00  0.00     0.000 C 
BRANCH  12  13
ATOM     13  C   UNL     1     160.375 159.811 175.208  1.00  0.00     0.006 C 
BRANCH  13  14
ATOM     14  C   UNL     1     160.706 160.881 174.152  1.00  0.00     0.053 C 
BRANCH  14  15
ATOM     15  C   UNL     1     162.156 161.266 174.162  1.00  0.00     0.041 C 
ATOM     16  O   UNL     1     162.657 161.835 175.168  1.00  0.00    -0.550 OA
ATOM     17  O   UNL     1     162.953 161.001 173.055  1.00  0.00    -0.550 OA
ENDBRANCH  14  15
ENDBRANCH  13  14
ENDBRANCH  12  13
ENDBRANCH  11  12
ENDBRANCH  10  11
ENDBRANCH   9  10
ENDBRANCH   8   9
ENDBRANCH   7   8
ENDBRANCH   6   7
ENDBRANCH   5   6
ENDBRANCH   4   5
ENDBRANCH   3   4
ENDBRANCH   2   3
ENDBRANCH   1   2
BRANCH   1  18
ATOM     18  C   UNL     1     166.716 152.826 176.774  1.00  0.00     0.000 C 
BRANCH  18  19
ATOM     19  C   UNL     1     167.879 151.928 177.224  1.00  0.00     0.000 C 
BRANCH  19  20
ATOM     20  C   UNL     1     167.609 151.251 178.579  1.00  0.00     0.000 C 
BRANCH  20  21
ATOM     21  C   UNL     1     168.827 151.308 179.520  1.00  0.00     0.000 C 
BRANCH  21  22
ATOM     22  C   UNL     1     169.220 152.745 179.895  1.00  0.00     0.000 C 
BRANCH  22  23
ATOM     23  C   UNL     1     170.624 153.127 179.403  1.00  0.00     0.000 C 
BRANCH  23  24
ATOM     24  C   UNL     1     170.547 154.246 178.353  1.00  0.00    -0.000 C 
BRANCH  24  25
ATOM     25  C   UNL     1     169.648 155.414 178.788  1.00  0.00    -0.000 C 
BRANCH  25  26
ATOM     26  C   UNL     1     169.018 156.147 177.591  1.00  0.00    -0.000 C 
BRANCH  26  27
ATOM     27  C   UNL     1     169.134 155.357 176.274  1.00  0.00    -0.000 C 
BRANCH  27  28
ATOM     28  C   UNL     1     168.281 155.898 175.111  1.00  0.00    -0.000 C 
BRANCH  28  29
ATOM     29  C   UNL     1     167.090 156.750 175.585  1.00  0.00    -0.000 C 
BRANCH  29  30
ATOM     30  C   UNL     1     165.739 156.055 175.365  1.00  0.00    -0.000 C 
BRANCH  30  31
ATOM     31  C   UNL     1     164.808 156.856 174.441  1.00  0.00    -0.003 C 
ATOM     32  C   UNL     1     164.941 158.355 174.689  1.00  0.00     0.004 C 
ENDBRANCH  30  31
ENDBRANCH  29  30
ENDBRANCH  28  29
ENDBRANCH  27  28
ENDBRANCH  26  27
ENDBRANCH  25  26
ENDBRANCH  24  25
ENDBRANCH  23  24
ENDBRANCH  22  23
ENDBRANCH  21  22
ENDBRANCH  20  21
ENDBRANCH  19  20
ENDBRANCH  18  19
ENDBRANCH   1  18
TORSDOF 28
ENDMDL
MODEL 6
REMARK VINA RESULT:    -3.049      1.675      3.363
REMARK INTER + INTRA:         -13.962
REMARK INTER:                  -7.643
REMARK INTRA:                  -6.319
REMARK UNBOUND:                -5.921
REMARK SMILES CCCCCCCCCCCCCCCCCCCCCCCCCCCCCC(=O)[O-]
REMARK SMILES IDX 16 1 17 2 18 3 19 4 20 5 21 6 22 7 23 8 24 9 25 10 26 11
REMARK SMILES IDX 27 12 28 13 29 14 30 15 31 16 32 17 15 18 14 19 13 20 12 21
REMARK SMILES IDX 11 22 10 23 9 24 8 25 7 26 6 27 5 28 4 29 3 30 2 31 1 32
REMARK H PARENT
REMARK Flexibility Score: inf
ROOT
ATOM      1  C   UNL     1     166.600 153.894 176.503  1.00  0.00     0.000 C 
ENDROOT
BRANCH   1   2
ATOM      2  C   UNL     1     165.423 153.831 177.493  1.00  0.00     0.000 C 
BRANCH   2   3
ATOM      3  C   UNL     1     165.488 154.882 178.621  1.00  0.00     0.000 C 
BRANCH   3   4
ATOM      4  C   UNL     1     166.425 156.057 178.289  1.00  0.00     0.000 C 
BRANCH   4   5
ATOM      5  C   UNL     1     166.958 156.717 179.570  1.00  0.00     0.000 C 
BRANCH   5   6
ATOM      6  C   UNL     1     166.090 156.412 180.804  1.00  0.00     0.000 C 
BRANCH   6   7
ATOM      7  C   UNL     1     165.536 157.651 181.534  1.00  0.00     0.000 C 
BRANCH   7   8
ATOM      8  C   UNL     1     165.612 158.954 180.710  1.00  0.00     0.000 C 
BRANCH   8   9
ATOM      9  C   UNL     1     164.258 159.673 180.616  1.00  0.00     0.000 C 
BRANCH   9  10
ATOM     10  C   UNL     1     163.123 158.793 181.157  1.00  0.00     0.000 C 
BRANCH  10  11
ATOM     11  C   UNL     1     162.155 158.395 180.031  1.00  0.00     0.000 C 
BRANCH  11  12
ATOM     12  C   UNL     1     162.539 157.072 179.339  1.00  0.00     0.000 C 
BRANCH  12  13
ATOM     13  C   UNL     1     162.876 157.208 177.839  1.00  0.00     0.006 C 
BRANCH  13  14
ATOM     14  C   UNL     1     161.683 157.045 176.879  1.00  0.00     0.053 C 
BRANCH  14  15
ATOM     15  C   UNL     1     161.348 158.320 176.162  1.00  0.00     0.041 C 
ATOM     16  O   UNL     1     162.114 158.770 175.269  1.00  0.00    -0.550 OA
ATOM     17  O   UNL     1     160.188 159.014 176.485  1.00  0.00    -0.550 OA
ENDBRANCH  14  15
ENDBRANCH  13  14
ENDBRANCH  12  13
ENDBRANCH  11  12
ENDBRANCH  10  11
ENDBRANCH   9  10
ENDBRANCH   8   9
ENDBRANCH   7   8
ENDBRANCH   6   7
ENDBRANCH   5   6
ENDBRANCH   4   5
ENDBRANCH   3   4
ENDBRANCH   2   3
ENDBRANCH   1   2
BRANCH   1  18
ATOM     18  C   UNL     1     167.502 152.654 176.560  1.00  0.00     0.000 C 
BRANCH  18  19
ATOM     19  C   UNL     1     166.951 151.605 177.539  1.00  0.00     0.000 C 
BRANCH  19  20
ATOM     20  C   UNL     1     167.936 151.286 178.676  1.00  0.00     0.000 C 
BRANCH  20  21
ATOM     21  C   UNL     1     167.728 152.189 179.907  1.00  0.00     0.000 C 
BRANCH  21  22
ATOM     22  C   UNL     1     168.637 153.428 179.894  1.00  0.00     0.000 C 
BRANCH  22  23
ATOM     23  C   UNL     1     170.127 153.074 179.776  1.00  0.00     0.000 C 
BRANCH  23  24
ATOM     24  C   UNL     1     170.849 154.062 178.847  1.00  0.00    -0.000 C 
BRANCH  24  25
ATOM     25  C   UNL     1     169.886 155.011 178.117  1.00  0.00    -0.000 C 
BRANCH  25  26
ATOM     26  C   UNL     1     170.425 155.453 176.746  1.00  0.00    -0.000 C 
BRANCH  26  27
ATOM     27  C   UNL     1     169.396 156.251 175.925  1.00  0.00    -0.000 C 
BRANCH  27  28
ATOM     28  C   UNL     1     169.241 157.730 176.330  1.00  0.00    -0.000 C 
BRANCH  28  29
ATOM     29  C   UNL     1     167.943 158.365 175.801  1.00  0.00    -0.000 C 
BRANCH  29  30
ATOM     30  C   UNL     1     167.086 157.377 174.995  1.00  0.00    -0.000 C 
BRANCH  30  31
ATOM     31  C   UNL     1     165.588 157.714 175.053  1.00  0.00    -0.003 C 
ATOM     32  C   UNL     1     164.738 156.519 174.634  1.00  0.00     0.004 C 
ENDBRANCH  30  31
ENDBRANCH  29  30
ENDBRANCH  28  29
ENDBRANCH  27  28
ENDBRANCH  26  27
ENDBRANCH  25  26
ENDBRANCH  24  25
ENDBRANCH  23  24
ENDBRANCH  22  23
ENDBRANCH  21  22
ENDBRANCH  20  21
ENDBRANCH  19  20
ENDBRANCH  18  19
ENDBRANCH   1  18
TORSDOF 28
ENDMDL
MODEL 7
REMARK VINA RESULT:    -3.038      1.758      3.322
REMARK INTER + INTRA:         -13.932
REMARK INTER:                  -8.117
REMARK INTRA:                  -5.815
REMARK UNBOUND:                -5.921
REMARK SMILES CCCCCCCCCCCCCCCCCCCCCCCCCCCCCC(=O)[O-]
REMARK SMILES IDX 16 1 17 2 18 3 19 4 20 5 21 6 22 7 23 8 24 9 25 10 26 11
REMARK SMILES IDX 27 12 28 13 29 14 30 15 31 16 32 17 15 18 14 19 13 20 12 21
REMARK SMILES IDX 11 22 10 23 9 24 8 25 7 26 6 27 5 28 4 29 3 30 2 31 1 32
REMARK H PARENT
REMARK Flexibility Score: inf
ROOT
ATOM      1  C   UNL     1     167.270 153.678 176.124  1.00  0.00     0.000 C 
ENDROOT
BRANCH   1   2
ATOM      2  C   UNL     1     167.669 155.134 176.423  1.00  0.00     0.000 C 
BRANCH   2   3
ATOM      3  C   UNL     1     167.424 156.110 175.253  1.00  0.00     0.000 C 
BRANCH   3   4
ATOM      4  C   UNL     1     166.333 157.149 175.561  1.00  0.00     0.000 C 
BRANCH   4   5
ATOM      5  C   UNL     1     164.960 156.672 175.062  1.00  0.00     0.000 C 
BRANCH   5   6
ATOM      6  C   UNL     1     164.067 156.133 176.194  1.00  0.00     0.000 C 
BRANCH   6   7
ATOM      7  C   UNL     1     164.432 156.628 177.606  1.00  0.00     0.000 C 
BRANCH   7   8
ATOM      8  C   UNL     1     163.405 156.245 178.693  1.00  0.00     0.000 C 
BRANCH   8   9
ATOM      9  C   UNL     1     162.767 157.472 179.362  1.00  0.00     0.000 C 
BRANCH   9  10
ATOM     10  C   UNL     1     161.366 157.147 179.898  1.00  0.00     0.000 C 
BRANCH  10  11
ATOM     11  C   UNL     1     160.289 157.903 179.104  1.00  0.00     0.000 C 
BRANCH  11  12
ATOM     12  C   UNL     1     160.358 157.644 177.586  1.00  0.00     0.000 C 
BRANCH  12  13
ATOM     13  C   UNL     1     160.588 158.908 176.730  1.00  0.00     0.006 C 
BRANCH  13  14
ATOM     14  C   UNL     1     161.454 158.702 175.474  1.00  0.00     0.053 C 
BRANCH  14  15
ATOM     15  C   UNL     1     162.709 159.524 175.502  1.00  0.00     0.041 C 
ATOM     16  O   UNL     1     163.276 159.784 176.596  1.00  0.00    -0.550 OA
ATOM     17  O   UNL     1     163.248 160.008 174.316  1.00  0.00    -0.550 OA
ENDBRANCH  14  15
ENDBRANCH  13  14
ENDBRANCH  12  13
ENDBRANCH  11  12
ENDBRANCH  10  11
ENDBRANCH   9  10
ENDBRANCH   8   9
ENDBRANCH   7   8
ENDBRANCH   6   7
ENDBRANCH   5   6
ENDBRANCH   4   5
ENDBRANCH   3   4
ENDBRANCH   2   3
ENDBRANCH   1   2
BRANCH   1  18
ATOM     18  C   UNL     1     166.002 153.237 176.868  1.00  0.00     0.000 C 
BRANCH  18  19
ATOM     19  C   UNL     1     166.060 151.747 177.241  1.00  0.00     0.000 C 
BRANCH  19  20
ATOM     20  C   UNL     1     167.498 151.255 177.479  1.00  0.00     0.000 C 
BRANCH  20  21
ATOM     21  C   UNL     1     167.920 151.358 178.956  1.00  0.00     0.000 C 
BRANCH  21  22
ATOM     22  C   UNL     1     169.027 152.398 179.187  1.00  0.00     0.000 C 
BRANCH  22  23
ATOM     23  C   UNL     1     168.611 153.504 180.168  1.00  0.00     0.000 C 
BRANCH  23  24
ATOM     24  C   UNL     1     167.098 153.459 180.429  1.00  0.00    -0.000 C 
BRANCH  24  25
ATOM     25  C   UNL     1     166.386 154.766 180.048  1.00  0.00    -0.000 C 
BRANCH  25  26
ATOM     26  C   UNL     1     166.309 155.756 181.224  1.00  0.00    -0.000 C 
BRANCH  26  27
ATOM     27  C   UNL     1     167.103 157.051 180.971  1.00  0.00    -0.000 C 
BRANCH  27  28
ATOM     28  C   UNL     1     167.472 157.315 179.499  1.00  0.00    -0.000 C 
BRANCH  28  29
ATOM     29  C   UNL     1     168.863 157.952 179.334  1.00  0.00    -0.000 C 
BRANCH  29  30
ATOM     30  C   UNL     1     169.280 158.090 177.862  1.00  0.00    -0.000 C 
BRANCH  30  31
ATOM     31  C   UNL     1     170.537 157.271 177.528  1.00  0.00    -0.003 C 
ATOM     32  C   UNL     1     170.706 156.102 178.493  1.00  0.00     0.004 C 
ENDBRANCH  30  31
ENDBRANCH  29  30
ENDBRANCH  28  29
ENDBRANCH  27  28
ENDBRANCH  26  27
ENDBRANCH  25  26
ENDBRANCH  24  25
ENDBRANCH  23  24
ENDBRANCH  22  23
ENDBRANCH  21  22
ENDBRANCH  20  21
ENDBRANCH  19  20
ENDBRANCH  18  19
ENDBRANCH   1  18
TORSDOF 28
ENDMDL
MODEL 8
REMARK VINA RESULT:    -3.018      2.567      7.640
REMARK INTER + INTRA:         -13.878
REMARK INTER:                  -7.997
REMARK INTRA:                  -5.881
REMARK UNBOUND:                -5.921
REMARK SMILES CCCCCCCCCCCCCCCCCCCCCCCCCCCCCC(=O)[O-]
REMARK SMILES IDX 16 1 17 2 18 3 19 4 20 5 21 6 22 7 23 8 24 9 25 10 26 11
REMARK SMILES IDX 27 12 28 13 29 14 30 15 31 16 32 17 15 18 14 19 13 20 12 21
REMARK SMILES IDX 11 22 10 23 9 24 8 25 7 26 6 27 5 28 4 29 3 30 2 31 1 32
REMARK H PARENT
REMARK Flexibility Score: inf
ROOT
ATOM      1  C   UNL     1     164.647 155.963 179.140  1.00  0.00     0.000 C 
ENDROOT
BRANCH   1   2
ATOM      2  C   UNL     1     166.177 155.943 179.298  1.00  0.00     0.000 C 
BRANCH   2   3
ATOM      3  C   UNL     1     166.719 154.717 180.063  1.00  0.00     0.000 C 
BRANCH   3   4
ATOM      4  C   UNL     1     168.249 154.587 179.975  1.00  0.00     0.000 C 
BRANCH   4   5
ATOM      5  C   UNL     1     168.671 153.115 179.839  1.00  0.00     0.000 C 
BRANCH   5   6
ATOM      6  C   UNL     1     167.475 152.147 179.851  1.00  0.00     0.000 C 
BRANCH   6   7
ATOM      7  C   UNL     1     167.558 150.993 178.833  1.00  0.00     0.000 C 
BRANCH   7   8
ATOM      8  C   UNL     1     167.289 151.421 177.374  1.00  0.00     0.000 C 
BRANCH   8   9
ATOM      9  C   UNL     1     166.069 152.346 177.245  1.00  0.00     0.000 C 
BRANCH   9  10
ATOM     10  C   UNL     1     166.432 153.645 176.512  1.00  0.00     0.000 C 
BRANCH  10  11
ATOM     11  C   UNL     1     167.948 153.728 176.268  1.00  0.00     0.000 C 
BRANCH  11  12
ATOM     12  C   UNL     1     168.502 155.163 176.373  1.00  0.00     0.000 C 
BRANCH  12  13
ATOM     13  C   UNL     1     168.665 155.887 175.019  1.00  0.00     0.006 C 
BRANCH  13  14
ATOM     14  C   UNL     1     168.288 157.380 175.022  1.00  0.00     0.053 C 
BRANCH  14  15
ATOM     15  C   UNL     1     166.830 157.601 175.298  1.00  0.00     0.041 C 
ATOM     16  O   UNL     1     166.462 158.482 176.119  1.00  0.00    -0.550 OA
ATOM     17  O   UNL     1     165.876 156.827 174.649  1.00  0.00    -0.550 OA
ENDBRANCH  14  15
ENDBRANCH  13  14
ENDBRANCH  12  13
ENDBRANCH  11  12
ENDBRANCH  10  11
ENDBRANCH   9  10
ENDBRANCH   8   9
ENDBRANCH   7   8
ENDBRANCH   6   7
ENDBRANCH   5   6
ENDBRANCH   4   5
ENDBRANCH   3   4
ENDBRANCH   2   3
ENDBRANCH   1   2
BRANCH   1  18
ATOM     18  C   UNL     1     164.192 156.362 177.730  1.00  0.00     0.000 C 
BRANCH  18  19
ATOM     19  C   UNL     1     162.694 156.088 177.525  1.00  0.00     0.000 C 
BRANCH  19  20
ATOM     20  C   UNL     1     161.968 157.262 176.846  1.00  0.00     0.000 C 
BRANCH  20  21
ATOM     21  C   UNL     1     162.919 158.141 176.013  1.00  0.00     0.000 C 
BRANCH  21  22
ATOM     22  C   UNL     1     162.645 159.643 176.189  1.00  0.00     0.000 C 
BRANCH  22  23
ATOM     23  C   UNL     1     162.678 160.087 177.659  1.00  0.00     0.000 C 
BRANCH  23  24
ATOM     24  C   UNL     1     164.111 160.037 178.210  1.00  0.00    -0.000 C 
BRANCH  24  25
ATOM     25  C   UNL     1     164.170 159.605 179.684  1.00  0.00    -0.000 C 
BRANCH  25  26
ATOM     26  C   UNL     1     163.072 160.268 180.534  1.00  0.00    -0.000 C 
BRANCH  26  27
ATOM     27  C   UNL     1     162.241 159.252 181.340  1.00  0.00    -0.000 C 
BRANCH  27  28
ATOM     28  C   UNL     1     161.823 157.988 180.565  1.00  0.00    -0.000 C 
BRANCH  28  29
ATOM     29  C   UNL     1     160.337 157.994 180.163  1.00  0.00    -0.000 C 
BRANCH  29  30
ATOM     30  C   UNL     1     159.612 159.277 180.595  1.00  0.00    -0.000 C 
BRANCH  30  31
ATOM     31  C   UNL     1     159.320 160.215 179.413  1.00  0.00    -0.003 C 
ATOM     32  C   UNL     1     159.165 159.431 178.113  1.00  0.00     0.004 C 
ENDBRANCH  30  31
ENDBRANCH  29  30
ENDBRANCH  28  29
ENDBRANCH  27  28
ENDBRANCH  26  27
ENDBRANCH  25  26
ENDBRANCH  24  25
ENDBRANCH  23  24
ENDBRANCH  22  23
ENDBRANCH  21  22
ENDBRANCH  20  21
ENDBRANCH  19  20
ENDBRANCH  18  19
ENDBRANCH   1  18
TORSDOF 28
ENDMDL
MODEL 9
REMARK VINA RESULT:    -3.000      1.715      4.051
REMARK INTER + INTRA:         -13.831
REMARK INTER:                  -7.195
REMARK INTRA:                  -6.636
REMARK UNBOUND:                -5.921
REMARK SMILES CCCCCCCCCCCCCCCCCCCCCCCCCCCCCC(=O)[O-]
REMARK SMILES IDX 16 1 17 2 18 3 19 4 20 5 21 6 22 7 23 8 24 9 25 10 26 11
REMARK SMILES IDX 27 12 28 13 29 14 30 15 31 16 32 17 15 18 14 19 13 20 12 21
REMARK SMILES IDX 11 22 10 23 9 24 8 25 7 26 6 27 5 28 4 29 3 30 2 31 1 32
REMARK H PARENT
REMARK Flexibility Score: inf
ROOT
ATOM      1  C   UNL     1     167.326 151.480 177.380  1.00  0.00     0.000 C 
ENDROOT
BRANCH   1   2
ATOM      2  C   UNL     1     166.066 152.351 177.240  1.00  0.00     0.000 C 
BRANCH   2   3
ATOM      3  C   UNL     1     166.324 153.743 176.625  1.00  0.00     0.000 C 
BRANCH   3   4
ATOM      4  C   UNL     1     167.695 153.845 175.934  1.00  0.00     0.000 C 
BRANCH   4   5
ATOM      5  C   UNL     1     168.267 155.266 176.053  1.00  0.00     0.000 C 
BRANCH   5   6
ATOM      6  C   UNL     1     168.848 155.562 177.447  1.00  0.00     0.000 C 
BRANCH   6   7
ATOM      7  C   UNL     1     168.993 157.057 177.790  1.00  0.00     0.000 C 
BRANCH   7   8
ATOM      8  C   UNL     1     168.010 157.975 177.032  1.00  0.00     0.000 C 
BRANCH   8   9
ATOM      9  C   UNL     1     167.283 158.958 177.961  1.00  0.00     0.000 C 
BRANCH   9  10
ATOM     10  C   UNL     1     166.902 160.246 177.218  1.00  0.00     0.000 C 
BRANCH  10  11
ATOM     11  C   UNL     1     165.427 160.602 177.464  1.00  0.00     0.000 C 
BRANCH  11  12
ATOM     12  C   UNL     1     164.839 159.929 178.720  1.00  0.00     0.000 C 
BRANCH  12  13
ATOM     13  C   UNL     1     163.297 159.881 178.759  1.00  0.00     0.006 C 
BRANCH  13  14
ATOM     14  C   UNL     1     162.606 159.835 177.384  1.00  0.00     0.053 C 
BRANCH  14  15
ATOM     15  C   UNL     1     161.672 160.991 177.173  1.00  0.00     0.041 C 
ATOM     16  O   UNL     1     162.114 162.105 176.789  1.00  0.00    -0.550 OA
ATOM     17  O   UNL     1     160.312 160.835 177.408  1.00  0.00    -0.550 OA
ENDBRANCH  14  15
ENDBRANCH  13  14
ENDBRANCH  12  13
ENDBRANCH  11  12
ENDBRANCH  10  11
ENDBRANCH   9  10
ENDBRANCH   8   9
ENDBRANCH   7   8
ENDBRANCH   6   7
ENDBRANCH   5   6
ENDBRANCH   4   5
ENDBRANCH   3   4
ENDBRANCH   2   3
ENDBRANCH   1   2
BRANCH   1  18
ATOM     18  C   UNL     1     167.822 151.368 178.828  1.00  0.00     0.000 C 
BRANCH  18  19
ATOM     19  C   UNL     1     169.138 152.135 179.031  1.00  0.00     0.000 C 
BRANCH  19  20
ATOM     20  C   UNL     1     169.047 153.169 180.166  1.00  0.00     0.000 C 
BRANCH  20  21
ATOM     21  C   UNL     1     167.598 153.605 180.453  1.00  0.00     0.000 C 
BRANCH  21  22
ATOM     22  C   UNL     1     167.520 154.929 181.230  1.00  0.00     0.000 C 
BRANCH  22  23
ATOM     23  C   UNL     1     166.722 156.010 180.486  1.00  0.00     0.000 C 
BRANCH  23  24
ATOM     24  C   UNL     1     165.601 155.378 179.647  1.00  0.00    -0.000 C 
BRANCH  24  25
ATOM     25  C   UNL     1     164.574 156.406 179.148  1.00  0.00    -0.000 C 
BRANCH  25  26
ATOM     26  C   UNL     1     163.440 155.757 178.336  1.00  0.00    -0.000 C 
BRANCH  26  27
ATOM     27  C   UNL     1     163.411 156.221 176.868  1.00  0.00    -0.000 C 
BRANCH  27  28
ATOM     28  C   UNL     1     164.680 156.951 176.388  1.00  0.00    -0.000 C 
BRANCH  28  29
ATOM     29  C   UNL     1     164.979 156.718 174.896  1.00  0.00    -0.000 C 
BRANCH  29  30
ATOM     30  C   UNL     1     165.550 157.965 174.204  1.00  0.00    -0.000 C 
BRANCH  30  31
ATOM     31  C   UNL     1     164.614 159.178 174.312  1.00  0.00    -0.003 C 
ATOM     32  C   UNL     1     165.016 160.273 173.330  1.00  0.00     0.004 C 
ENDBRANCH  30  31
ENDBRANCH  29  30
ENDBRANCH  28  29
ENDBRANCH  27  28
ENDBRANCH  26  27
ENDBRANCH  25  26
ENDBRANCH  24  25
ENDBRANCH  23  24
ENDBRANCH  22  23
ENDBRANCH  21  22
ENDBRANCH  20  21
ENDBRANCH  19  20
ENDBRANCH  18  19
ENDBRANCH   1  18
TORSDOF 28
ENDMDL
