MODEL 1
REMARK VINA RESULT:    -5.200      0.000      0.000
REMARK INTER + INTRA:          -8.637
REMARK INTER:                  -7.176
REMARK INTRA:                  -1.461
REMARK UNBOUND:                -1.461
REMARK SMILES CC[C@@H](CC[C@H](C)[C@@H]1CC[C@@H]2[C@H]3CC=C4C[C@H](O)CC[C@]4(C)[C@H]3CC[C@@]21C)C(C)C
REMARK SMILES IDX 5 1 4 2 3 3 2 4 1 5 28 6 29 7 30 8 6 9 7 10 8 11 9 12 26 13
REMARK SMILES IDX 10 14 11 15 25 16 27 17 12 18 24 19 23 20 13 21 21 22 14 23
REMARK SMILES IDX 15 24 20 25 22 26 16 27 19 28 17 29 18 30
REMARK H PARENT 18 31
REMARK Flexibility Score: inf
ROOT
ATOM      1  C   UNL     1     117.479  10.693 139.541  1.00  0.00     0.004 C 
ENDROOT
BRANCH   1   2
ATOM      2  C   UNL     1     116.798  12.016 139.126  1.00  0.00     0.004 C 
BRANCH   2   3
ATOM      3  C   UNL     1     116.466  13.013 140.275  1.00  0.00    -0.009 C 
BRANCH   3   4
ATOM      4  C   UNL     1     115.069  12.806 140.924  1.00  0.00     0.000 C 
ATOM      5  C   UNL     1     114.001  12.212 140.005  1.00  0.00     0.004 C 
ENDBRANCH   3   4
BRANCH   3   6
ATOM      6  C   UNL     1     116.752  14.508 139.898  1.00  0.00    -0.014 C 
ATOM      7  C   UNL     1     116.279  15.541 140.941  1.00  0.00     0.007 C 
ATOM      8  C   UNL     1     116.130  14.863 138.536  1.00  0.00     0.007 C 
ENDBRANCH   3   6
ENDBRANCH   2   3
ENDBRANCH   1   2
BRANCH   1   9
ATOM      9  C   UNL     1     116.635   9.409 139.325  1.00  0.00    -0.011 C 
ATOM     10  C   UNL     1     115.694   9.546 138.102  1.00  0.00     0.008 C 
BRANCH   9  11
ATOM     11  C   UNL     1     116.007   8.893 140.671  1.00  0.00    -0.002 C 
ATOM     12  C   UNL     1     116.851   9.225 141.898  1.00  0.00     0.005 C 
ATOM     13  C   UNL     1     115.476   7.425 140.868  1.00  0.00    -0.026 C 
ATOM     14  C   UNL     1     116.290   8.386 143.036  1.00  0.00     0.005 C 
ATOM     15  C   UNL     1     115.403   7.278 142.424  1.00  0.00    -0.001 C 
ATOM     16  C   UNL     1     116.367   6.308 140.242  1.00  0.00     0.007 C 
ATOM     17  C   UNL     1     114.043   7.290 140.279  1.00  0.00     0.012 C 
ATOM     18  C   UNL     1     115.768   5.873 143.004  1.00  0.00     0.000 C 
ATOM     19  C   UNL     1     117.557   5.907 141.123  1.00  0.00     0.005 C 
ATOM     20  C   UNL     1     117.113   5.268 142.467  1.00  0.00     0.003 C 
ATOM     21  C   UNL     1     114.603   4.873 142.915  1.00  0.00     0.031 C 
ATOM     22  C   UNL     1     117.196   3.672 142.521  1.00  0.00    -0.008 C 
ATOM     23  C   UNL     1     114.976   3.639 143.683  1.00  0.00    -0.027 C 
ATOM     24  C   UNL     1     116.212   3.117 143.559  1.00  0.00    -0.065 C 
ATOM     25  C   UNL     1     118.649   3.229 142.904  1.00  0.00     0.014 C 
ATOM     26  C   UNL     1     116.836   2.985 141.174  1.00  0.00     0.016 C 
ATOM     27  C   UNL     1     116.669   2.012 144.476  1.00  0.00     0.063 C 
ATOM     28  C   UNL     1     118.916   3.311 144.421  1.00  0.00     0.033 C 
ATOM     29  C   UNL     1     117.929   2.450 145.258  1.00  0.00     0.118 C 
BRANCH  29  30
ATOM     30  O   UNL     1     117.560   3.133 146.434  1.00  0.00    -0.393 OA
ATOM     31  H   UNL     1     117.393   4.079 146.189  1.00  0.00     0.210 HD
ENDBRANCH  29  30
ENDBRANCH   9  11
ENDBRANCH   1   9
TORSDOF 7
ENDMDL
MODEL 2
REMARK VINA RESULT:    -5.148     11.983     13.649
REMARK INTER + INTRA:          -8.565
REMARK INTER:                  -7.178
REMARK INTRA:                  -1.387
REMARK UNBOUND:                -1.461
REMARK SMILES CC[C@@H](CC[C@H](C)[C@@H]1CC[C@@H]2[C@H]3CC=C4C[C@H](O)CC[C@]4(C)[C@H]3CC[C@@]21C)C(C)C
REMARK SMILES IDX 5 1 4 2 3 3 2 4 1 5 28 6 29 7 30 8 6 9 7 10 8 11 9 12 26 13
REMARK SMILES IDX 10 14 11 15 25 16 27 17 12 18 24 19 23 20 13 21 21 22 14 23
REMARK SMILES IDX 15 24 20 25 22 26 16 27 19 28 17 29 18 30
REMARK H PARENT 18 31
REMARK Flexibility Score: inf
ROOT
ATOM      1  C   UNL     1     126.799   7.506 136.212  1.00  0.00     0.004 C 
ENDROOT
BRANCH   1   2
ATOM      2  C   UNL     1     125.425   8.106 135.840  1.00  0.00     0.004 C 
BRANCH   2   3
ATOM      3  C   UNL     1     124.857   9.187 136.806  1.00  0.00    -0.009 C 
BRANCH   3   4
ATOM      4  C   UNL     1     123.312   9.155 136.972  1.00  0.00     0.000 C 
ATOM      5  C   UNL     1     122.645   7.820 136.643  1.00  0.00     0.004 C 
ENDBRANCH   3   4
BRANCH   3   6
ATOM      6  C   UNL     1     125.414  10.625 136.521  1.00  0.00    -0.014 C 
ATOM      7  C   UNL     1     126.752  10.951 137.214  1.00  0.00     0.007 C 
ATOM      8  C   UNL     1     124.384  11.703 136.906  1.00  0.00     0.007 C 
ENDBRANCH   3   6
ENDBRANCH   2   3
ENDBRANCH   1   2
BRANCH   1   9
ATOM      9  C   UNL     1     126.762   6.091 136.846  1.00  0.00    -0.011 C 
ATOM     10  C   UNL     1     125.489   5.313 136.428  1.00  0.00     0.008 C 
BRANCH   9  11
ATOM     11  C   UNL     1     127.120   6.129 138.377  1.00  0.00    -0.002 C 
ATOM     12  C   UNL     1     127.047   7.529 138.979  1.00  0.00     0.005 C 
ATOM     13  C   UNL     1     128.399   5.441 138.981  1.00  0.00    -0.026 C 
ATOM     14  C   UNL     1     127.729   7.442 140.335  1.00  0.00     0.005 C 
ATOM     15  C   UNL     1     128.552   6.134 140.376  1.00  0.00    -0.001 C 
ATOM     16  C   UNL     1     129.699   5.597 138.134  1.00  0.00     0.007 C 
ATOM     17  C   UNL     1     128.139   3.922 139.196  1.00  0.00     0.012 C 
ATOM     18  C   UNL     1     130.014   6.396 140.861  1.00  0.00     0.000 C 
ATOM     19  C   UNL     1     130.418   6.935 138.354  1.00  0.00     0.005 C 
ATOM     20  C   UNL     1     130.942   7.096 139.806  1.00  0.00     0.003 C 
ATOM     21  C   UNL     1     130.669   5.149 141.477  1.00  0.00     0.031 C 
ATOM     22  C   UNL     1     132.504   6.813 140.000  1.00  0.00    -0.008 C 
ATOM     23  C   UNL     1     131.973   5.555 142.100  1.00  0.00    -0.027 C 
ATOM     24  C   UNL     1     132.800   6.392 141.445  1.00  0.00    -0.065 C 
ATOM     25  C   UNL     1     133.323   8.107 139.665  1.00  0.00     0.014 C 
ATOM     26  C   UNL     1     133.045   5.670 139.097  1.00  0.00     0.016 C 
ATOM     27  C   UNL     1     134.004   6.973 142.141  1.00  0.00     0.063 C 
ATOM     28  C   UNL     1     133.344   9.116 140.831  1.00  0.00     0.033 C 
ATOM     29  C   UNL     1     133.929   8.518 142.141  1.00  0.00     0.118 C 
BRANCH  29  30
ATOM     30  O   UNL     1     133.197   8.970 143.256  1.00  0.00    -0.393 OA
ATOM     31  H   UNL     1     132.348   8.458 143.283  1.00  0.00     0.210 HD
ENDBRANCH  29  30
ENDBRANCH   9  11
ENDBRANCH   1   9
TORSDOF 7
ENDMDL
MODEL 3
REMARK VINA RESULT:    -5.131     11.711     13.282
REMARK INTER + INTRA:          -8.542
REMARK INTER:                  -6.959
REMARK INTRA:                  -1.583
REMARK UNBOUND:                -1.461
REMARK SMILES CC[C@@H](CC[C@H](C)[C@@H]1CC[C@@H]2[C@H]3CC=C4C[C@H](O)CC[C@]4(C)[C@H]3CC[C@@]21C)C(C)C
REMARK SMILES IDX 5 1 4 2 3 3 2 4 1 5 28 6 29 7 30 8 6 9 7 10 8 11 9 12 26 13
REMARK SMILES IDX 10 14 11 15 25 16 27 17 12 18 24 19 23 20 13 21 21 22 14 23
REMARK SMILES IDX 15 24 20 25 22 26 16 27 19 28 17 29 18 30
REMARK H PARENT 18 31
REMARK Flexibility Score: inf
ROOT
ATOM      1  C   UNL     1     127.330   8.211 135.447  1.00  0.00     0.004 C 
ENDROOT
BRANCH   1   2
ATOM      2  C   UNL     1     126.638   9.250 134.535  1.00  0.00     0.004 C 
BRANCH   2   3
ATOM      3  C   UNL     1     126.386  10.655 135.157  1.00  0.00    -0.009 C 
BRANCH   3   4
ATOM      4  C   UNL     1     127.342  11.024 136.326  1.00  0.00     0.000 C 
ATOM      5  C   UNL     1     128.636  11.726 135.917  1.00  0.00     0.004 C 
ENDBRANCH   3   4
BRANCH   3   6
ATOM      6  C   UNL     1     124.877  10.921 135.491  1.00  0.00    -0.014 C 
ATOM      7  C   UNL     1     124.109  11.729 134.426  1.00  0.00     0.007 C 
ATOM      8  C   UNL     1     124.729  11.630 136.849  1.00  0.00     0.007 C 
ENDBRANCH   3   6
ENDBRANCH   2   3
ENDBRANCH   1   2
BRANCH   1   9
ATOM      9  C   UNL     1     126.422   7.067 135.967  1.00  0.00    -0.011 C 
ATOM     10  C   UNL     1     124.989   7.170 135.387  1.00  0.00     0.008 C 
BRANCH   9  11
ATOM     11  C   UNL     1     126.564   6.871 137.521  1.00  0.00    -0.002 C 
ATOM     12  C   UNL     1     126.730   8.183 138.282  1.00  0.00     0.005 C 
ATOM     13  C   UNL     1     127.556   5.839 138.173  1.00  0.00    -0.026 C 
ATOM     14  C   UNL     1     127.181   7.804 139.684  1.00  0.00     0.005 C 
ATOM     15  C   UNL     1     127.669   6.338 139.652  1.00  0.00    -0.001 C 
ATOM     16  C   UNL     1     128.962   5.755 137.503  1.00  0.00     0.007 C 
ATOM     17  C   UNL     1     126.929   4.415 138.166  1.00  0.00     0.012 C 
ATOM     18  C   UNL     1     129.071   6.190 140.327  1.00  0.00     0.000 C 
ATOM     19  C   UNL     1     129.929   6.852 137.967  1.00  0.00     0.005 C 
ATOM     20  C   UNL     1     130.271   6.741 139.477  1.00  0.00     0.003 C 
ATOM     21  C   UNL     1     129.332   4.768 140.850  1.00  0.00     0.031 C 
ATOM     22  C   UNL     1     131.685   6.071 139.807  1.00  0.00    -0.008 C 
ATOM     23  C   UNL     1     130.595   4.785 141.661  1.00  0.00    -0.027 C 
ATOM     24  C   UNL     1     131.674   5.455 141.212  1.00  0.00    -0.065 C 
ATOM     25  C   UNL     1     132.815   7.153 139.731  1.00  0.00     0.014 C 
ATOM     26  C   UNL     1     132.070   4.922 138.835  1.00  0.00     0.016 C 
ATOM     27  C   UNL     1     132.871   5.658 142.105  1.00  0.00     0.063 C 
ATOM     28  C   UNL     1     132.905   8.011 141.010  1.00  0.00     0.033 C 
ATOM     29  C   UNL     1     133.152   7.167 142.291  1.00  0.00     0.118 C 
BRANCH  29  30
ATOM     30  O   UNL     1     132.395   7.675 143.365  1.00  0.00    -0.393 OA
ATOM     31  H   UNL     1     132.948   8.361 143.822  1.00  0.00     0.210 HD
ENDBRANCH  29  30
ENDBRANCH   9  11
ENDBRANCH   1   9
TORSDOF 7
ENDMDL
MODEL 4
REMARK VINA RESULT:    -4.814      1.588      3.280
REMARK INTER + INTRA:          -8.104
REMARK INTER:                  -5.886
REMARK INTRA:                  -2.217
REMARK UNBOUND:                -1.461
REMARK SMILES CC[C@@H](CC[C@H](C)[C@@H]1CC[C@@H]2[C@H]3CC=C4C[C@H](O)CC[C@]4(C)[C@H]3CC[C@@]21C)C(C)C
REMARK SMILES IDX 5 1 4 2 3 3 2 4 1 5 28 6 29 7 30 8 6 9 7 10 8 11 9 12 26 13
REMARK SMILES IDX 10 14 11 15 25 16 27 17 12 18 24 19 23 20 13 21 21 22 14 23
REMARK SMILES IDX 15 24 20 25 22 26 16 27 19 28 17 29 18 30
REMARK H PARENT 18 31
REMARK Flexibility Score: inf
ROOT
ATOM      1  C   UNL     1     117.893   9.838 139.659  1.00  0.00     0.004 C 
ENDROOT
BRANCH   1   2
ATOM      2  C   UNL     1     118.642   9.556 138.338  1.00  0.00     0.004 C 
BRANCH   2   3
ATOM      3  C   UNL     1     118.087   8.394 137.462  1.00  0.00    -0.009 C 
BRANCH   3   4
ATOM      4  C   UNL     1     119.094   7.234 137.219  1.00  0.00     0.000 C 
ATOM      5  C   UNL     1     118.544   5.828 137.460  1.00  0.00     0.004 C 
ENDBRANCH   3   4
BRANCH   3   6
ATOM      6  C   UNL     1     117.392   8.888 136.146  1.00  0.00    -0.014 C 
ATOM      7  C   UNL     1     117.564  10.391 135.848  1.00  0.00     0.007 C 
ATOM      8  C   UNL     1     115.889   8.556 136.157  1.00  0.00     0.007 C 
ENDBRANCH   3   6
ENDBRANCH   2   3
ENDBRANCH   1   2
BRANCH   1   9
ATOM      9  C   UNL     1     116.345   9.770 139.579  1.00  0.00    -0.011 C 
ATOM     10  C   UNL     1     115.741  11.113 139.098  1.00  0.00     0.008 C 
BRANCH   9  11
ATOM     11  C   UNL     1     115.724   9.113 140.866  1.00  0.00    -0.002 C 
ATOM     12  C   UNL     1     116.514   9.410 142.137  1.00  0.00     0.005 C 
ATOM     13  C   UNL     1     115.293   7.602 140.941  1.00  0.00    -0.026 C 
ATOM     14  C   UNL     1     115.988   8.453 143.195  1.00  0.00     0.005 C 
ATOM     15  C   UNL     1     115.195   7.335 142.480  1.00  0.00    -0.001 C 
ATOM     16  C   UNL     1     116.274   6.598 140.261  1.00  0.00     0.007 C 
ATOM     17  C   UNL     1     113.886   7.414 140.304  1.00  0.00     0.012 C 
ATOM     18  C   UNL     1     115.644   5.919 142.966  1.00  0.00     0.000 C 
ATOM     19  C   UNL     1     117.469   6.215 141.144  1.00  0.00     0.005 C 
ATOM     20  C   UNL     1     117.040   5.450 142.425  1.00  0.00     0.003 C 
ATOM     21  C   UNL     1     114.554   4.851 142.773  1.00  0.00     0.031 C 
ATOM     22  C   UNL     1     117.233   3.864 142.365  1.00  0.00    -0.008 C 
ATOM     23  C   UNL     1     114.996   3.592 143.459  1.00  0.00    -0.027 C 
ATOM     24  C   UNL     1     116.267   3.167 143.332  1.00  0.00    -0.065 C 
ATOM     25  C   UNL     1     118.705   3.493 142.756  1.00  0.00     0.014 C 
ATOM     26  C   UNL     1     116.954   3.255 140.963  1.00  0.00     0.016 C 
ATOM     27  C   UNL     1     116.779   2.030 144.180  1.00  0.00     0.063 C 
ATOM     28  C   UNL     1     118.930   3.480 144.282  1.00  0.00     0.033 C 
ATOM     29  C   UNL     1     117.987   2.494 145.026  1.00  0.00     0.118 C 
BRANCH  29  30
ATOM     30  O   UNL     1     117.545   3.061 146.238  1.00  0.00    -0.393 OA
ATOM     31  H   UNL     1     116.610   2.764 146.382  1.00  0.00     0.210 HD
ENDBRANCH  29  30
ENDBRANCH   9  11
ENDBRANCH   1   9
TORSDOF 7
ENDMDL
MODEL 5
REMARK VINA RESULT:    -4.750      1.816      3.671
REMARK INTER + INTRA:          -8.016
REMARK INTER:                  -6.598
REMARK INTRA:                  -1.418
REMARK UNBOUND:                -1.461
REMARK SMILES CC[C@@H](CC[C@H](C)[C@@H]1CC[C@@H]2[C@H]3CC=C4C[C@H](O)CC[C@]4(C)[C@H]3CC[C@@]21C)C(C)C
REMARK SMILES IDX 5 1 4 2 3 3 2 4 1 5 28 6 29 7 30 8 6 9 7 10 8 11 9 12 26 13
REMARK SMILES IDX 10 14 11 15 25 16 27 17 12 18 24 19 23 20 13 21 21 22 14 23
REMARK SMILES IDX 15 24 20 25 22 26 16 27 19 28 17 29 18 30
REMARK H PARENT 18 31
REMARK Flexibility Score: inf
ROOT
ATOM      1  C   UNL     1     116.087  12.560 136.244  1.00  0.00     0.004 C 
ENDROOT
BRANCH   1   2
ATOM      2  C   UNL     1     115.646  14.036 136.367  1.00  0.00     0.004 C 
BRANCH   2   3
ATOM      3  C   UNL     1     116.426  14.908 137.395  1.00  0.00    -0.009 C 
BRANCH   3   4
ATOM      4  C   UNL     1     115.771  14.983 138.804  1.00  0.00     0.000 C 
ATOM      5  C   UNL     1     116.673  14.576 139.968  1.00  0.00     0.004 C 
ENDBRANCH   3   4
BRANCH   3   6
ATOM      6  C   UNL     1     116.832  16.313 136.832  1.00  0.00    -0.014 C 
ATOM      7  C   UNL     1     117.811  17.108 137.719  1.00  0.00     0.007 C 
ATOM      8  C   UNL     1     115.590  17.183 136.567  1.00  0.00     0.007 C 
ENDBRANCH   3   6
ENDBRANCH   2   3
ENDBRANCH   1   2
BRANCH   1   9
ATOM      9  C   UNL     1     115.385  11.569 137.209  1.00  0.00    -0.011 C 
ATOM     10  C   UNL     1     113.895  11.938 137.419  1.00  0.00     0.008 C 
BRANCH   9  11
ATOM     11  C   UNL     1     116.253  11.293 138.491  1.00  0.00    -0.002 C 
ATOM     12  C   UNL     1     117.633  10.724 138.176  1.00  0.00     0.005 C 
ATOM     13  C   UNL     1     115.715  10.511 139.745  1.00  0.00    -0.026 C 
ATOM     14  C   UNL     1     118.192  10.214 139.495  1.00  0.00     0.005 C 
ATOM     15  C   UNL     1     117.024  10.104 140.501  1.00  0.00    -0.001 C 
ATOM     16  C   UNL     1     114.844   9.259 139.422  1.00  0.00     0.007 C 
ATOM     17  C   UNL     1     114.881  11.462 140.652  1.00  0.00     0.012 C 
ATOM     18  C   UNL     1     117.009   8.710 141.207  1.00  0.00     0.000 C 
ATOM     19  C   UNL     1     115.667   8.005 139.099  1.00  0.00     0.005 C 
ATOM     20  C   UNL     1     116.513   7.523 140.307  1.00  0.00     0.003 C 
ATOM     21  C   UNL     1     116.302   8.741 142.572  1.00  0.00     0.031 C 
ATOM     22  C   UNL     1     115.902   6.285 141.114  1.00  0.00    -0.008 C 
ATOM     23  C   UNL     1     116.530   7.424 143.255  1.00  0.00    -0.027 C 
ATOM     24  C   UNL     1     116.416   6.277 142.559  1.00  0.00    -0.065 C 
ATOM     25  C   UNL     1     116.311   4.943 140.416  1.00  0.00     0.014 C 
ATOM     26  C   UNL     1     114.351   6.309 141.208  1.00  0.00     0.016 C 
ATOM     27  C   UNL     1     116.846   4.968 143.172  1.00  0.00     0.063 C 
ATOM     28  C   UNL     1     117.741   4.495 140.781  1.00  0.00     0.033 C 
ATOM     29  C   UNL     1     117.948   4.309 142.310  1.00  0.00     0.118 C 
BRANCH  29  30
ATOM     30  O   UNL     1     119.217   4.785 142.694  1.00  0.00    -0.393 OA
ATOM     31  H   UNL     1     119.651   5.163 141.886  1.00  0.00     0.210 HD
ENDBRANCH  29  30
ENDBRANCH   9  11
ENDBRANCH   1   9
TORSDOF 7
ENDMDL
MODEL 6
REMARK VINA RESULT:    -4.736      1.357      2.271
REMARK INTER + INTRA:          -7.997
REMARK INTER:                  -6.507
REMARK INTRA:                  -1.490
REMARK UNBOUND:                -1.461
REMARK SMILES CC[C@@H](CC[C@H](C)[C@@H]1CC[C@@H]2[C@H]3CC=C4C[C@H](O)CC[C@]4(C)[C@H]3CC[C@@]21C)C(C)C
REMARK SMILES IDX 5 1 4 2 3 3 2 4 1 5 28 6 29 7 30 8 6 9 7 10 8 11 9 12 26 13
REMARK SMILES IDX 10 14 11 15 25 16 27 17 12 18 24 19 23 20 13 21 21 22 14 23
REMARK SMILES IDX 15 24 20 25 22 26 16 27 19 28 17 29 18 30
REMARK H PARENT 18 31
REMARK Flexibility Score: inf
ROOT
ATOM      1  C   UNL     1     116.904  11.647 137.562  1.00  0.00     0.004 C 
ENDROOT
BRANCH   1   2
ATOM      2  C   UNL     1     116.004  12.739 136.941  1.00  0.00     0.004 C 
BRANCH   2   3
ATOM      3  C   UNL     1     115.618  13.927 137.871  1.00  0.00    -0.009 C 
BRANCH   3   4
ATOM      4  C   UNL     1     115.986  15.330 137.310  1.00  0.00     0.000 C 
ATOM      5  C   UNL     1     116.386  15.361 135.835  1.00  0.00     0.004 C 
ENDBRANCH   3   4
BRANCH   3   6
ATOM      6  C   UNL     1     116.074  13.723 139.358  1.00  0.00    -0.014 C 
ATOM      7  C   UNL     1     114.938  13.390 140.344  1.00  0.00     0.007 C 
ATOM      8  C   UNL     1     116.833  14.957 139.878  1.00  0.00     0.007 C 
ENDBRANCH   3   6
ENDBRANCH   2   3
ENDBRANCH   1   2
BRANCH   1   9
ATOM      9  C   UNL     1     116.227  10.270 137.789  1.00  0.00    -0.011 C 
ATOM     10  C   UNL     1     115.035  10.057 136.823  1.00  0.00     0.008 C 
BRANCH   9  11
ATOM     11  C   UNL     1     115.984   9.987 139.317  1.00  0.00    -0.002 C 
ATOM     12  C   UNL     1     117.160  10.392 140.201  1.00  0.00     0.005 C 
ATOM     13  C   UNL     1     115.456   8.610 139.865  1.00  0.00    -0.026 C 
ATOM     14  C   UNL     1     116.905   9.758 141.559  1.00  0.00     0.005 C 
ATOM     15  C   UNL     1     115.824   8.667 141.386  1.00  0.00    -0.001 C 
ATOM     16  C   UNL     1     116.071   7.347 139.188  1.00  0.00     0.007 C 
ATOM     17  C   UNL     1     113.909   8.533 139.721  1.00  0.00     0.012 C 
ATOM     18  C   UNL     1     116.265   7.318 142.041  1.00  0.00     0.000 C 
ATOM     19  C   UNL     1     117.441   6.952 139.756  1.00  0.00     0.005 C 
ATOM     20  C   UNL     1     117.367   6.531 141.248  1.00  0.00     0.003 C 
ATOM     21  C   UNL     1     115.073   6.426 142.424  1.00  0.00     0.031 C 
ATOM     22  C   UNL     1     117.379   4.954 141.510  1.00  0.00    -0.008 C 
ATOM     23  C   UNL     1     115.586   5.269 143.231  1.00  0.00    -0.027 C 
ATOM     24  C   UNL     1     116.706   4.625 142.848  1.00  0.00    -0.065 C 
ATOM     25  C   UNL     1     118.856   4.431 141.537  1.00  0.00     0.014 C 
ATOM     26  C   UNL     1     116.614   4.139 140.430  1.00  0.00     0.016 C 
ATOM     27  C   UNL     1     117.348   3.607 143.756  1.00  0.00     0.063 C 
ATOM     28  C   UNL     1     119.549   4.678 142.892  1.00  0.00     0.033 C 
ATOM     29  C   UNL     1     118.800   4.023 144.086  1.00  0.00     0.118 C 
BRANCH  29  30
ATOM     30  O   UNL     1     118.819   4.879 145.205  1.00  0.00    -0.393 OA
ATOM     31  H   UNL     1     117.892   5.201 145.351  1.00  0.00     0.210 HD
ENDBRANCH  29  30
ENDBRANCH   9  11
ENDBRANCH   1   9
TORSDOF 7
ENDMDL
MODEL 7
REMARK VINA RESULT:    -4.690      3.150      8.163
REMARK INTER + INTRA:          -7.933
REMARK INTER:                  -5.600
REMARK INTRA:                  -2.334
REMARK UNBOUND:                -1.461
REMARK SMILES CC[C@@H](CC[C@H](C)[C@@H]1CC[C@@H]2[C@H]3CC=C4C[C@H](O)CC[C@]4(C)[C@H]3CC[C@@]21C)C(C)C
REMARK SMILES IDX 5 1 4 2 3 3 2 4 1 5 28 6 29 7 30 8 6 9 7 10 8 11 9 12 26 13
REMARK SMILES IDX 10 14 11 15 25 16 27 17 12 18 24 19 23 20 13 21 21 22 14 23
REMARK SMILES IDX 15 24 20 25 22 26 16 27 19 28 17 29 18 30
REMARK H PARENT 18 31
REMARK Flexibility Score: inf
ROOT
ATOM      1  C   UNL     1     117.122   2.474 141.682  1.00  0.00     0.004 C 
ENDROOT
BRANCH   1   2
ATOM      2  C   UNL     1     118.656   2.618 141.807  1.00  0.00     0.004 C 
BRANCH   2   3
ATOM      3  C   UNL     1     119.219   4.069 141.775  1.00  0.00    -0.009 C 
BRANCH   3   4
ATOM      4  C   UNL     1     119.971   4.439 140.465  1.00  0.00     0.000 C 
ATOM      5  C   UNL     1     119.259   4.049 139.169  1.00  0.00     0.004 C 
ENDBRANCH   3   4
BRANCH   3   6
ATOM      6  C   UNL     1     120.018   4.451 143.069  1.00  0.00    -0.014 C 
ATOM      7  C   UNL     1     121.085   3.425 143.499  1.00  0.00     0.007 C 
ATOM      8  C   UNL     1     119.067   4.700 144.253  1.00  0.00     0.007 C 
ENDBRANCH   3   6
ENDBRANCH   2   3
ENDBRANCH   1   2
BRANCH   1   9
ATOM      9  C   UNL     1     116.288   3.599 142.349  1.00  0.00    -0.011 C 
ATOM     10  C   UNL     1     115.575   3.096 143.629  1.00  0.00     0.008 C 
BRANCH   9  11
ATOM     11  C   UNL     1     115.422   4.383 141.295  1.00  0.00    -0.002 C 
ATOM     12  C   UNL     1     115.773   4.041 139.850  1.00  0.00     0.005 C 
ATOM     13  C   UNL     1     115.195   5.939 141.352  1.00  0.00    -0.026 C 
ATOM     14  C   UNL     1     115.102   5.101 138.990  1.00  0.00     0.005 C 
ATOM     15  C   UNL     1     114.702   6.280 139.906  1.00  0.00    -0.001 C 
ATOM     16  C   UNL     1     116.454   6.779 141.726  1.00  0.00     0.007 C 
ATOM     17  C   UNL     1     114.064   6.279 142.366  1.00  0.00     0.012 C 
ATOM     18  C   UNL     1     115.181   7.646 139.317  1.00  0.00     0.000 C 
ATOM     19  C   UNL     1     117.390   7.044 140.540  1.00  0.00     0.005 C 
ATOM     20  C   UNL     1     116.723   7.910 139.438  1.00  0.00     0.003 C 
ATOM     21  C   UNL     1     114.344   8.836 139.818  1.00  0.00     0.031 C 
ATOM     22  C   UNL     1     117.137   9.455 139.446  1.00  0.00    -0.008 C 
ATOM     23  C   UNL     1     114.739  10.056 139.038  1.00  0.00    -0.027 C 
ATOM     24  C   UNL     1     116.039  10.309 138.798  1.00  0.00    -0.065 C 
ATOM     25  C   UNL     1     118.474   9.650 138.652  1.00  0.00     0.014 C 
ATOM     26  C   UNL     1     117.350  10.035 140.871  1.00  0.00     0.016 C 
ATOM     27  C   UNL     1     116.439  11.405 137.843  1.00  0.00     0.063 C 
ATOM     28  C   UNL     1     118.258   9.698 137.125  1.00  0.00     0.033 C 
ATOM     29  C   UNL     1     117.284  10.826 136.685  1.00  0.00     0.118 C 
BRANCH  29  30
ATOM     30  O   UNL     1     116.445  10.372 135.649  1.00  0.00    -0.393 OA
ATOM     31  H   UNL     1     115.656   9.942 136.070  1.00  0.00     0.210 HD
ENDBRANCH  29  30
ENDBRANCH   9  11
ENDBRANCH   1   9
TORSDOF 7
ENDMDL
MODEL 8
REMARK VINA RESULT:    -4.678     11.313     14.463
REMARK INTER + INTRA:          -7.916
REMARK INTER:                  -6.484
REMARK INTRA:                  -1.432
REMARK UNBOUND:                -1.461
REMARK SMILES CC[C@@H](CC[C@H](C)[C@@H]1CC[C@@H]2[C@H]3CC=C4C[C@H](O)CC[C@]4(C)[C@H]3CC[C@@]21C)C(C)C
REMARK SMILES IDX 5 1 4 2 3 3 2 4 1 5 28 6 29 7 30 8 6 9 7 10 8 11 9 12 26 13
REMARK SMILES IDX 10 14 11 15 25 16 27 17 12 18 24 19 23 20 13 21 21 22 14 23
REMARK SMILES IDX 15 24 20 25 22 26 16 27 19 28 17 29 18 30
REMARK H PARENT 18 31
REMARK Flexibility Score: inf
ROOT
ATOM      1  C   UNL     1     129.201   6.086 141.561  1.00  0.00     0.004 C 
ENDROOT
BRANCH   1   2
ATOM      2  C   UNL     1     130.575   5.663 142.127  1.00  0.00     0.004 C 
BRANCH   2   3
ATOM      3  C   UNL     1     131.800   6.515 141.679  1.00  0.00    -0.009 C 
BRANCH   3   4
ATOM      4  C   UNL     1     132.793   5.771 140.741  1.00  0.00     0.000 C 
ATOM      5  C   UNL     1     132.530   4.277 140.562  1.00  0.00     0.004 C 
ENDBRANCH   3   4
BRANCH   3   6
ATOM      6  C   UNL     1     132.511   7.249 142.868  1.00  0.00    -0.014 C 
ATOM      7  C   UNL     1     133.110   8.625 142.515  1.00  0.00     0.007 C 
ATOM      8  C   UNL     1     133.620   6.370 143.475  1.00  0.00     0.007 C 
ENDBRANCH   3   6
ENDBRANCH   2   3
ENDBRANCH   1   2
BRANCH   1   9
ATOM      9  C   UNL     1     128.509   5.048 140.639  1.00  0.00    -0.011 C 
ATOM     10  C   UNL     1     128.851   3.596 141.060  1.00  0.00     0.008 C 
BRANCH   9  11
ATOM     11  C   UNL     1     128.668   5.420 139.120  1.00  0.00    -0.002 C 
ATOM     12  C   UNL     1     129.508   6.673 138.890  1.00  0.00     0.005 C 
ATOM     13  C   UNL     1     127.457   5.495 138.119  1.00  0.00    -0.026 C 
ATOM     14  C   UNL     1     129.285   7.071 137.439  1.00  0.00     0.005 C 
ATOM     15  C   UNL     1     128.033   6.326 136.924  1.00  0.00    -0.001 C 
ATOM     16  C   UNL     1     126.165   6.157 138.689  1.00  0.00     0.007 C 
ATOM     17  C   UNL     1     127.091   4.069 137.614  1.00  0.00     0.012 C 
ATOM     18  C   UNL     1     127.038   7.304 136.219  1.00  0.00     0.000 C 
ATOM     19  C   UNL     1     126.190   7.690 138.642  1.00  0.00     0.005 C 
ATOM     20  C   UNL     1     126.236   8.240 137.191  1.00  0.00     0.003 C 
ATOM     21  C   UNL     1     126.124   6.594 135.207  1.00  0.00     0.031 C 
ATOM     22  C   UNL     1     124.837   8.758 136.616  1.00  0.00    -0.008 C 
ATOM     23  C   UNL     1     125.367   7.638 134.438  1.00  0.00    -0.027 C 
ATOM     24  C   UNL     1     124.828   8.690 135.083  1.00  0.00    -0.065 C 
ATOM     25  C   UNL     1     124.595  10.240 137.065  1.00  0.00     0.014 C 
ATOM     26  C   UNL     1     123.620   7.919 137.093  1.00  0.00     0.016 C 
ATOM     27  C   UNL     1     124.252   9.847 134.307  1.00  0.00     0.063 C 
ATOM     28  C   UNL     1     125.351  11.258 136.188  1.00  0.00     0.033 C 
ATOM     29  C   UNL     1     124.979  11.159 134.683  1.00  0.00     0.118 C 
BRANCH  29  30
ATOM     30  O   UNL     1     126.125  11.328 133.882  1.00  0.00    -0.393 OA
ATOM     31  H   UNL     1     125.855  11.180 132.939  1.00  0.00     0.210 HD
ENDBRANCH  29  30
ENDBRANCH   9  11
ENDBRANCH   1   9
TORSDOF 7
ENDMDL
MODEL 9
REMARK VINA RESULT:    -4.613      8.375     11.503
REMARK INTER + INTRA:          -7.827
REMARK INTER:                  -6.697
REMARK INTRA:                  -1.130
REMARK UNBOUND:                -1.461
REMARK SMILES CC[C@@H](CC[C@H](C)[C@@H]1CC[C@@H]2[C@H]3CC=C4C[C@H](O)CC[C@]4(C)[C@H]3CC[C@@]21C)C(C)C
REMARK SMILES IDX 5 1 4 2 3 3 2 4 1 5 28 6 29 7 30 8 6 9 7 10 8 11 9 12 26 13
REMARK SMILES IDX 10 14 11 15 25 16 27 17 12 18 24 19 23 20 13 21 21 22 14 23
REMARK SMILES IDX 15 24 20 25 22 26 16 27 19 28 17 29 18 30
REMARK H PARENT 18 31
REMARK Flexibility Score: inf
ROOT
ATOM      1  C   UNL     1     121.828   4.109 140.351  1.00  0.00     0.004 C 
ENDROOT
BRANCH   1   2
ATOM      2  C   UNL     1     120.552   3.647 141.089  1.00  0.00     0.004 C 
BRANCH   2   3
ATOM      3  C   UNL     1     120.377   4.153 142.551  1.00  0.00    -0.009 C 
BRANCH   3   4
ATOM      4  C   UNL     1     121.201   3.364 143.608  1.00  0.00     0.000 C 
ATOM      5  C   UNL     1     121.385   1.875 143.317  1.00  0.00     0.004 C 
ENDBRANCH   3   4
BRANCH   3   6
ATOM      6  C   UNL     1     118.876   4.347 142.963  1.00  0.00    -0.014 C 
ATOM      7  C   UNL     1     118.063   5.269 142.033  1.00  0.00     0.007 C 
ATOM      8  C   UNL     1     118.763   4.876 144.405  1.00  0.00     0.007 C 
ENDBRANCH   3   6
ENDBRANCH   2   3
ENDBRANCH   1   2
BRANCH   1   9
ATOM      9  C   UNL     1     122.063   3.472 138.956  1.00  0.00    -0.011 C 
ATOM     10  C   UNL     1     120.907   2.517 138.565  1.00  0.00     0.008 C 
BRANCH   9  11
ATOM     11  C   UNL     1     123.533   2.935 138.801  1.00  0.00    -0.002 C 
ATOM     12  C   UNL     1     124.104   2.360 140.093  1.00  0.00     0.005 C 
ATOM     13  C   UNL     1     124.686   3.762 138.122  1.00  0.00    -0.026 C 
ATOM     14  C   UNL     1     125.599   2.204 139.861  1.00  0.00     0.005 C 
ATOM     15  C   UNL     1     125.983   3.040 138.619  1.00  0.00    -0.001 C 
ATOM     16  C   UNL     1     124.717   5.278 138.485  1.00  0.00     0.007 C 
ATOM     17  C   UNL     1     124.597   3.634 136.574  1.00  0.00     0.012 C 
ATOM     18  C   UNL     1     127.216   3.955 138.908  1.00  0.00     0.000 C 
ATOM     19  C   UNL     1     125.406   5.576 139.823  1.00  0.00     0.005 C 
ATOM     20  C   UNL     1     126.912   5.203 139.812  1.00  0.00     0.003 C 
ATOM     21  C   UNL     1     127.988   4.333 137.633  1.00  0.00     0.031 C 
ATOM     22  C   UNL     1     127.915   6.432 139.610  1.00  0.00    -0.008 C 
ATOM     23  C   UNL     1     129.259   5.023 138.034  1.00  0.00    -0.027 C 
ATOM     24  C   UNL     1     129.242   5.951 139.009  1.00  0.00    -0.065 C 
ATOM     25  C   UNL     1     128.196   7.118 140.991  1.00  0.00     0.014 C 
ATOM     26  C   UNL     1     127.374   7.524 138.646  1.00  0.00     0.016 C 
ATOM     27  C   UNL     1     130.533   6.496 139.566  1.00  0.00     0.063 C 
ATOM     28  C   UNL     1     129.256   6.369 141.823  1.00  0.00     0.033 C 
ATOM     29  C   UNL     1     130.617   6.226 141.087  1.00  0.00     0.118 C 
BRANCH  29  30
ATOM     30  O   UNL     1     131.172   4.953 141.326  1.00  0.00    -0.393 OA
ATOM     31  H   UNL     1     131.404   4.558 140.446  1.00  0.00     0.210 HD
ENDBRANCH  29  30
ENDBRANCH   9  11
ENDBRANCH   1   9
TORSDOF 7
ENDMDL
