MODEL 1
REMARK VINA RESULT:    -9.119      0.000      0.000
REMARK INTER + INTRA:         -11.017
REMARK INTER:                 -10.718
REMARK INTRA:                  -0.299
REMARK UNBOUND:                -0.299
REMARK SMILES O=c1cc(-c2ccc(O)c(O)c2)oc2cc(O)cc(O)c12
REMARK SMILES IDX 4 1 3 2 2 3 1 4 21 5 19 6 18 7 16 8 15 9 14 10 13 11 5 12
REMARK SMILES IDX 6 13 7 14 8 15 12 16 10 17 9 18 11 20 20 22 17 24
REMARK H PARENT 9 19 11 21 20 23 17 25
REMARK Flexibility Score: inf
ROOT
ATOM      1  C   UNL     1      -1.660  45.124   2.594  1.00  0.00     0.138 A 
ATOM      2  C   UNL     1      -2.647  45.123   1.598  1.00  0.00     0.100 A 
ATOM      3  C   UNL     1      -2.279  44.983   0.260  1.00  0.00     0.197 A 
ATOM      4  O   UNL     1      -3.190  44.924  -0.605  1.00  0.00    -0.289 OA
ATOM      5  C   UNL     1      -0.909  44.875  -0.085  1.00  0.00     0.107 A 
ATOM      6  C   UNL     1      -0.413  44.768  -1.418  1.00  0.00     0.134 A 
ATOM      7  C   UNL     1       0.954  44.549  -1.630  1.00  0.00     0.093 A 
ATOM      8  C   UNL     1       1.849  44.493  -0.559  1.00  0.00     0.123 A 
ATOM      9  C   UNL     1       1.382  44.649   0.743  1.00  0.00     0.094 A 
ATOM     10  C   UNL     1       0.019  44.835   0.989  1.00  0.00     0.146 A 
ATOM     11  O   UNL     1      -0.388  44.966   2.248  1.00  0.00    -0.456 OA
ENDROOT
BRANCH   1  12
ATOM     12  C   UNL     1      -1.997  45.271   4.032  1.00  0.00     0.021 A 
ATOM     13  C   UNL     1      -3.150  44.680   4.586  1.00  0.00     0.016 A 
ATOM     14  C   UNL     1      -3.447  44.843   5.941  1.00  0.00     0.051 A 
ATOM     15  C   UNL     1      -2.607  45.603   6.764  1.00  0.00     0.157 A 
ATOM     16  C   UNL     1      -1.167  46.044   4.863  1.00  0.00     0.062 A 
ATOM     17  C   UNL     1      -1.462  46.209   6.220  1.00  0.00     0.158 A 
BRANCH  15  18
ATOM     18  O   UNL     1      -2.908  45.762   8.117  1.00  0.00    -0.504 OA
ATOM     19  H   UNL     1      -2.278  46.244   8.747  1.00  0.00     0.293 HD
ENDBRANCH  15  18
BRANCH  17  20
ATOM     20  O   UNL     1      -0.608  46.974   7.012  1.00  0.00    -0.504 OA
ATOM     21  H   UNL     1       0.326  47.226   6.710  1.00  0.00     0.293 HD
ENDBRANCH  17  20
ENDBRANCH   1  12
BRANCH   6  22
ATOM     22  O   UNL     1      -1.210  44.895  -2.560  1.00  0.00    -0.507 OA
ATOM     23  H   UNL     1      -2.214  44.970  -2.557  1.00  0.00     0.293 HD
ENDBRANCH   6  22
BRANCH   8  24
ATOM     24  O   UNL     1       3.210  44.289  -0.781  1.00  0.00    -0.508 OA
ATOM     25  H   UNL     1       3.708  44.782  -1.513  1.00  0.00     0.293 HD
ENDBRANCH   8  24
TORSDOF 5
ENDMDL
MODEL 2
REMARK VINA RESULT:    -9.038      1.363      2.140
REMARK INTER + INTRA:         -10.922
REMARK INTER:                 -10.650
REMARK INTRA:                  -0.272
REMARK UNBOUND:                -0.299
REMARK SMILES O=c1cc(-c2ccc(O)c(O)c2)oc2cc(O)cc(O)c12
REMARK SMILES IDX 4 1 3 2 2 3 1 4 21 5 19 6 18 7 16 8 15 9 14 10 13 11 5 12
REMARK SMILES IDX 6 13 7 14 8 15 12 16 10 17 9 18 11 20 20 22 17 24
REMARK H PARENT 9 19 11 21 20 23 17 25
REMARK Flexibility Score: inf
ROOT
ATOM      1  C   UNL     1      -0.745  45.162   1.360  1.00  0.00     0.138 A 
ATOM      2  C   UNL     1      -1.611  45.282   0.263  1.00  0.00     0.100 A 
ATOM      3  C   UNL     1      -1.116  45.110  -1.029  1.00  0.00     0.197 A 
ATOM      4  O   UNL     1      -1.928  45.162  -1.989  1.00  0.00    -0.289 OA
ATOM      5  C   UNL     1       0.261  44.846  -1.227  1.00  0.00     0.107 A 
ATOM      6  C   UNL     1       0.885  44.692  -2.500  1.00  0.00     0.134 A 
ATOM      7  C   UNL     1       2.233  44.317  -2.568  1.00  0.00     0.093 A 
ATOM      8  C   UNL     1       2.993  44.151  -1.408  1.00  0.00     0.123 A 
ATOM      9  C   UNL     1       2.408  44.351  -0.161  1.00  0.00     0.094 A 
ATOM     10  C   UNL     1       1.056  44.691  -0.060  1.00  0.00     0.146 A 
ATOM     11  O   UNL     1       0.531  44.860   1.150  1.00  0.00    -0.456 OA
ENDROOT
BRANCH   1  12
ATOM     12  C   UNL     1      -1.218  45.337   2.756  1.00  0.00     0.021 A 
ATOM     13  C   UNL     1      -0.537  46.164   3.670  1.00  0.00     0.016 A 
ATOM     14  C   UNL     1      -0.999  46.302   4.980  1.00  0.00     0.051 A 
ATOM     15  C   UNL     1      -2.143  45.614   5.404  1.00  0.00     0.157 A 
ATOM     16  C   UNL     1      -2.358  44.639   3.193  1.00  0.00     0.062 A 
ATOM     17  C   UNL     1      -2.824  44.777   4.505  1.00  0.00     0.158 A 
BRANCH  15  18
ATOM     18  O   UNL     1      -2.602  45.757   6.713  1.00  0.00    -0.504 OA
ATOM     19  H   UNL     1      -2.222  46.461   7.335  1.00  0.00     0.293 HD
ENDBRANCH  15  18
BRANCH  17  20
ATOM     20  O   UNL     1      -3.963  44.075   4.897  1.00  0.00    -0.504 OA
ATOM     21  H   UNL     1      -4.808  44.545   5.200  1.00  0.00     0.293 HD
ENDBRANCH  17  20
ENDBRANCH   1  12
BRANCH   6  22
ATOM     22  O   UNL     1       0.238  44.918  -3.719  1.00  0.00    -0.507 OA
ATOM     23  H   UNL     1      -0.535  45.550  -3.853  1.00  0.00     0.293 HD
ENDBRANCH   6  22
BRANCH   8  24
ATOM     24  O   UNL     1       4.338  43.792  -1.486  1.00  0.00    -0.508 OA
ATOM     25  H   UNL     1       4.634  42.942  -1.950  1.00  0.00     0.293 HD
ENDBRANCH   8  24
TORSDOF 5
ENDMDL
MODEL 3
REMARK VINA RESULT:    -8.746      1.380      6.995
REMARK INTER + INTRA:         -10.578
REMARK INTER:                 -10.297
REMARK INTRA:                  -0.281
REMARK UNBOUND:                -0.299
REMARK SMILES O=c1cc(-c2ccc(O)c(O)c2)oc2cc(O)cc(O)c12
REMARK SMILES IDX 4 1 3 2 2 3 1 4 21 5 19 6 18 7 16 8 15 9 14 10 13 11 5 12
REMARK SMILES IDX 6 13 7 14 8 15 12 16 10 17 9 18 11 20 20 22 17 24
REMARK H PARENT 9 19 11 21 20 23 17 25
REMARK Flexibility Score: inf
ROOT
ATOM      1  C   UNL     1      -1.089  45.137   2.642  1.00  0.00     0.138 A 
ATOM      2  C   UNL     1      -2.370  44.652   2.943  1.00  0.00     0.100 A 
ATOM      3  C   UNL     1      -2.899  44.845   4.219  1.00  0.00     0.197 A 
ATOM      4  O   UNL     1      -4.074  44.454   4.441  1.00  0.00    -0.289 OA
ATOM      5  C   UNL     1      -2.129  45.502   5.209  1.00  0.00     0.107 A 
ATOM      6  C   UNL     1      -2.549  45.720   6.554  1.00  0.00     0.134 A 
ATOM      7  C   UNL     1      -1.749  46.485   7.412  1.00  0.00     0.093 A 
ATOM      8  C   UNL     1      -0.516  46.988   6.989  1.00  0.00     0.123 A 
ATOM      9  C   UNL     1      -0.072  46.735   5.695  1.00  0.00     0.094 A 
ATOM     10  C   UNL     1      -0.864  46.005   4.804  1.00  0.00     0.146 A 
ATOM     11  O   UNL     1      -0.409  45.798   3.572  1.00  0.00    -0.456 OA
ENDROOT
BRANCH   1  12
ATOM     12  C   UNL     1      -0.477  44.957   1.301  1.00  0.00     0.021 A 
ATOM     13  C   UNL     1       0.906  44.743   1.142  1.00  0.00     0.016 A 
ATOM     14  C   UNL     1       1.456  44.587  -0.132  1.00  0.00     0.051 A 
ATOM     15  C   UNL     1       0.639  44.649  -1.269  1.00  0.00     0.157 A 
ATOM     16  C   UNL     1      -1.288  45.032   0.154  1.00  0.00     0.062 A 
ATOM     17  C   UNL     1      -0.739  44.875  -1.123  1.00  0.00     0.158 A 
BRANCH  15  18
ATOM     18  O   UNL     1       1.193  44.491  -2.539  1.00  0.00    -0.504 OA
ATOM     19  H   UNL     1       0.630  44.578  -3.377  1.00  0.00     0.293 HD
ENDBRANCH  15  18
BRANCH  17  20
ATOM     20  O   UNL     1      -1.579  44.946  -2.234  1.00  0.00    -0.504 OA
ATOM     21  H   UNL     1      -2.560  44.702  -2.184  1.00  0.00     0.293 HD
ENDBRANCH  17  20
ENDBRANCH   1  12
BRANCH   6  22
ATOM     22  O   UNL     1      -3.722  45.191   7.101  1.00  0.00    -0.507 OA
ATOM     23  H   UNL     1      -4.082  45.411   8.016  1.00  0.00     0.293 HD
ENDBRANCH   6  22
BRANCH   8  24
ATOM     24  O   UNL     1       0.280  47.736   7.855  1.00  0.00    -0.508 OA
ATOM     25  H   UNL     1       0.435  48.726   7.712  1.00  0.00     0.293 HD
ENDBRANCH   8  24
TORSDOF 5
ENDMDL
MODEL 4
REMARK VINA RESULT:    -8.679      1.665      6.948
REMARK INTER + INTRA:         -10.500
REMARK INTER:                 -10.199
REMARK INTRA:                  -0.301
REMARK UNBOUND:                -0.299
REMARK SMILES O=c1cc(-c2ccc(O)c(O)c2)oc2cc(O)cc(O)c12
REMARK SMILES IDX 4 1 3 2 2 3 1 4 21 5 19 6 18 7 16 8 15 9 14 10 13 11 5 12
REMARK SMILES IDX 6 13 7 14 8 15 12 16 10 17 9 18 11 20 20 22 17 24
REMARK H PARENT 9 19 11 21 20 23 17 25
REMARK Flexibility Score: inf
ROOT
ATOM      1  C   UNL     1      -0.731  45.007   0.378  1.00  0.00     0.138 A 
ATOM      2  C   UNL     1      -2.072  44.647   0.574  1.00  0.00     0.100 A 
ATOM      3  C   UNL     1      -2.644  44.777   1.840  1.00  0.00     0.197 A 
ATOM      4  O   UNL     1      -3.864  44.505   1.972  1.00  0.00    -0.289 OA
ATOM      5  C   UNL     1      -1.859  45.244   2.922  1.00  0.00     0.107 A 
ATOM      6  C   UNL     1      -2.323  45.380   4.264  1.00  0.00     0.134 A 
ATOM      7  C   UNL     1      -1.490  45.962   5.227  1.00  0.00     0.093 A 
ATOM      8  C   UNL     1      -0.188  46.357   4.910  1.00  0.00     0.123 A 
ATOM      9  C   UNL     1       0.293  46.180   3.616  1.00  0.00     0.094 A 
ATOM     10  C   UNL     1      -0.526  45.633   2.624  1.00  0.00     0.146 A 
ATOM     11  O   UNL     1      -0.032  45.494   1.397  1.00  0.00    -0.456 OA
ENDROOT
BRANCH   1  12
ATOM     12  C   UNL     1      -0.072  44.887  -0.947  1.00  0.00     0.021 A 
ATOM     13  C   UNL     1      -0.779  45.103  -2.147  1.00  0.00     0.016 A 
ATOM     14  C   UNL     1      -0.136  44.972  -3.380  1.00  0.00     0.051 A 
ATOM     15  C   UNL     1       1.218  44.618  -3.439  1.00  0.00     0.157 A 
ATOM     16  C   UNL     1       1.283  44.519  -1.016  1.00  0.00     0.062 A 
ATOM     17  C   UNL     1       1.929  44.388  -2.250  1.00  0.00     0.158 A 
BRANCH  15  18
ATOM     18  O   UNL     1       1.856  44.491  -4.673  1.00  0.00    -0.504 OA
ATOM     19  H   UNL     1       2.284  45.285  -5.133  1.00  0.00     0.293 HD
ENDBRANCH  15  18
BRANCH  17  20
ATOM     20  O   UNL     1       3.276  44.031  -2.275  1.00  0.00    -0.504 OA
ATOM     21  H   UNL     1       3.956  44.530  -2.835  1.00  0.00     0.293 HD
ENDBRANCH  17  20
ENDBRANCH   1  12
BRANCH   6  22
ATOM     22  O   UNL     1      -3.575  44.939   4.705  1.00  0.00    -0.507 OA
ATOM     23  H   UNL     1      -4.117  44.211   4.268  1.00  0.00     0.293 HD
ENDBRANCH   6  22
BRANCH   8  24
ATOM     24  O   UNL     1       0.638  46.922   5.879  1.00  0.00    -0.508 OA
ATOM     25  H   UNL     1       0.761  47.925   5.953  1.00  0.00     0.293 HD
ENDBRANCH   8  24
TORSDOF 5
ENDMDL
MODEL 5
REMARK VINA RESULT:    -8.674      2.647      8.043
REMARK INTER + INTRA:         -10.494
REMARK INTER:                 -10.207
REMARK INTRA:                  -0.287
REMARK UNBOUND:                -0.299
REMARK SMILES O=c1cc(-c2ccc(O)c(O)c2)oc2cc(O)cc(O)c12
REMARK SMILES IDX 4 1 3 2 2 3 1 4 21 5 19 6 18 7 16 8 15 9 14 10 13 11 5 12
REMARK SMILES IDX 6 13 7 14 8 15 12 16 10 17 9 18 11 20 20 22 17 24
REMARK H PARENT 9 19 11 21 20 23 17 25
REMARK Flexibility Score: inf
ROOT
ATOM      1  C   UNL     1       1.658  44.523  -1.919  1.00  0.00     0.138 A 
ATOM      2  C   UNL     1       0.489  44.622  -2.687  1.00  0.00     0.100 A 
ATOM      3  C   UNL     1      -0.735  44.845  -2.057  1.00  0.00     0.197 A 
ATOM      4  O   UNL     1      -1.757  44.991  -2.777  1.00  0.00    -0.289 OA
ATOM      5  C   UNL     1      -0.794  44.939  -0.646  1.00  0.00     0.107 A 
ATOM      6  C   UNL     1      -1.991  45.124   0.108  1.00  0.00     0.134 A 
ATOM      7  C   UNL     1      -1.911  45.319   1.493  1.00  0.00     0.093 A 
ATOM      8  C   UNL     1      -0.683  45.274   2.157  1.00  0.00     0.123 A 
ATOM      9  C   UNL     1       0.485  45.040   1.438  1.00  0.00     0.094 A 
ATOM     10  C   UNL     1       0.443  44.877   0.051  1.00  0.00     0.146 A 
ATOM     11  O   UNL     1       1.583  44.669  -0.600  1.00  0.00    -0.456 OA
ENDROOT
BRANCH   1  12
ATOM     12  C   UNL     1       2.986  44.285  -2.538  1.00  0.00     0.021 A 
ATOM     13  C   UNL     1       4.031  43.661  -1.829  1.00  0.00     0.016 A 
ATOM     14  C   UNL     1       5.274  43.459  -2.433  1.00  0.00     0.051 A 
ATOM     15  C   UNL     1       5.498  43.880  -3.750  1.00  0.00     0.157 A 
ATOM     16  C   UNL     1       3.224  44.716  -3.855  1.00  0.00     0.062 A 
ATOM     17  C   UNL     1       4.467  44.514  -4.462  1.00  0.00     0.158 A 
BRANCH  15  18
ATOM     18  O   UNL     1       6.740  43.674  -4.350  1.00  0.00    -0.504 OA
ATOM     19  H   UNL     1       7.012  44.170  -5.190  1.00  0.00     0.293 HD
ENDBRANCH  15  18
BRANCH  17  20
ATOM     20  O   UNL     1       4.660  44.948  -5.773  1.00  0.00    -0.504 OA
ATOM     21  H   UNL     1       4.027  45.599  -6.224  1.00  0.00     0.293 HD
ENDBRANCH  17  20
ENDBRANCH   1  12
BRANCH   6  22
ATOM     22  O   UNL     1      -3.274  45.101  -0.447  1.00  0.00    -0.507 OA
ATOM     23  H   UNL     1      -4.124  45.301   0.057  1.00  0.00     0.293 HD
ENDBRANCH   6  22
BRANCH   8  24
ATOM     24  O   UNL     1      -0.616  45.455   3.538  1.00  0.00    -0.508 OA
ATOM     25  H   UNL     1      -0.173  44.772   4.141  1.00  0.00     0.293 HD
ENDBRANCH   8  24
TORSDOF 5
ENDMDL
MODEL 6
REMARK VINA RESULT:    -8.548      1.343      3.144
REMARK INTER + INTRA:         -10.346
REMARK INTER:                 -10.048
REMARK INTRA:                  -0.298
REMARK UNBOUND:                -0.299
REMARK SMILES O=c1cc(-c2ccc(O)c(O)c2)oc2cc(O)cc(O)c12
REMARK SMILES IDX 4 1 3 2 2 3 1 4 21 5 19 6 18 7 16 8 15 9 14 10 13 11 5 12
REMARK SMILES IDX 6 13 7 14 8 15 12 16 10 17 9 18 11 20 20 22 17 24
REMARK H PARENT 9 19 11 21 20 23 17 25
REMARK Flexibility Score: inf
ROOT
ATOM      1  C   UNL     1      -0.417  45.200   2.177  1.00  0.00     0.138 A 
ATOM      2  C   UNL     1       0.976  45.045   2.124  1.00  0.00     0.100 A 
ATOM      3  C   UNL     1       1.605  44.867   0.893  1.00  0.00     0.197 A 
ATOM      4  O   UNL     1       2.861  44.793   0.871  1.00  0.00    -0.289 OA
ATOM      5  C   UNL     1       0.831  44.812  -0.292  1.00  0.00     0.107 A 
ATOM      6  C   UNL     1       1.359  44.595  -1.599  1.00  0.00     0.134 A 
ATOM      7  C   UNL     1       0.510  44.678  -2.709  1.00  0.00     0.093 A 
ATOM      8  C   UNL     1      -0.859  44.910  -2.553  1.00  0.00     0.123 A 
ATOM      9  C   UNL     1      -1.393  45.071  -1.278  1.00  0.00     0.094 A 
ATOM     10  C   UNL     1      -0.566  45.028  -0.153  1.00  0.00     0.146 A 
ATOM     11  O   UNL     1      -1.114  45.200   1.046  1.00  0.00    -0.456 OA
ENDROOT
BRANCH   1  12
ATOM     12  C   UNL     1      -1.137  45.391   3.461  1.00  0.00     0.021 A 
ATOM     13  C   UNL     1      -0.598  46.172   4.502  1.00  0.00     0.016 A 
ATOM     14  C   UNL     1      -1.293  46.327   5.703  1.00  0.00     0.051 A 
ATOM     15  C   UNL     1      -2.532  45.701   5.891  1.00  0.00     0.157 A 
ATOM     16  C   UNL     1      -2.375  44.755   3.662  1.00  0.00     0.062 A 
ATOM     17  C   UNL     1      -3.073  44.909   4.865  1.00  0.00     0.158 A 
BRANCH  15  18
ATOM     18  O   UNL     1      -3.223  45.859   7.092  1.00  0.00    -0.504 OA
ATOM     19  H   UNL     1      -3.015  45.289   7.903  1.00  0.00     0.293 HD
ENDBRANCH  15  18
BRANCH  17  20
ATOM     20  O   UNL     1      -4.302  44.269   5.021  1.00  0.00    -0.504 OA
ATOM     21  H   UNL     1      -5.168  44.679   4.693  1.00  0.00     0.293 HD
ENDBRANCH  17  20
ENDBRANCH   1  12
BRANCH   6  22
ATOM     22  O   UNL     1       2.695  44.272  -1.858  1.00  0.00    -0.507 OA
ATOM     23  H   UNL     1       3.218  43.555  -1.380  1.00  0.00     0.293 HD
ENDBRANCH   6  22
BRANCH   8  24
ATOM     24  O   UNL     1      -1.699  44.976  -3.664  1.00  0.00    -0.508 OA
ATOM     25  H   UNL     1      -2.534  45.549  -3.664  1.00  0.00     0.293 HD
ENDBRANCH   8  24
TORSDOF 5
ENDMDL
MODEL 7
REMARK VINA RESULT:    -8.380      3.083      5.345
REMARK INTER + INTRA:         -10.149
REMARK INTER:                  -9.869
REMARK INTRA:                  -0.280
REMARK UNBOUND:                -0.299
REMARK SMILES O=c1cc(-c2ccc(O)c(O)c2)oc2cc(O)cc(O)c12
REMARK SMILES IDX 4 1 3 2 2 3 1 4 21 5 19 6 18 7 16 8 15 9 14 10 13 11 5 12
REMARK SMILES IDX 6 13 7 14 8 15 12 16 10 17 9 18 11 20 20 22 17 24
REMARK H PARENT 9 19 11 21 20 23 17 25
REMARK Flexibility Score: inf
ROOT
ATOM      1  C   UNL     1      -0.808  46.624   7.161  1.00  0.00     0.138 A 
ATOM      2  C   UNL     1      -2.135  46.170   7.175  1.00  0.00     0.100 A 
ATOM      3  C   UNL     1      -2.711  45.682   6.002  1.00  0.00     0.197 A 
ATOM      4  O   UNL     1      -3.881  45.225   6.060  1.00  0.00    -0.289 OA
ATOM      5  C   UNL     1      -1.963  45.676   4.800  1.00  0.00     0.107 A 
ATOM      6  C   UNL     1      -2.459  45.239   3.536  1.00  0.00     0.134 A 
ATOM      7  C   UNL     1      -1.589  45.169   2.440  1.00  0.00     0.093 A 
ATOM      8  C   UNL     1      -0.258  45.579   2.549  1.00  0.00     0.123 A 
ATOM      9  C   UNL     1       0.222  46.057   3.765  1.00  0.00     0.094 A 
ATOM     10  C   UNL     1      -0.612  46.106   4.886  1.00  0.00     0.146 A 
ATOM     11  O   UNL     1      -0.110  46.556   6.032  1.00  0.00    -0.456 OA
ENDROOT
BRANCH   1  12
ATOM     12  C   UNL     1      -0.147  47.155   8.379  1.00  0.00     0.021 A 
ATOM     13  C   UNL     1       0.758  48.233   8.320  1.00  0.00     0.016 A 
ATOM     14  C   UNL     1       1.373  48.705   9.481  1.00  0.00     0.051 A 
ATOM     15  C   UNL     1       1.103  48.108  10.719  1.00  0.00     0.157 A 
ATOM     16  C   UNL     1      -0.402  46.552   9.624  1.00  0.00     0.062 A 
ATOM     17  C   UNL     1       0.212  47.024  10.789  1.00  0.00     0.158 A 
BRANCH  15  18
ATOM     18  O   UNL     1       1.718  48.584  11.877  1.00  0.00    -0.504 OA
ATOM     19  H   UNL     1       2.301  47.988  12.451  1.00  0.00     0.293 HD
ENDBRANCH  15  18
BRANCH  17  20
ATOM     20  O   UNL     1      -0.075  46.405  12.004  1.00  0.00    -0.504 OA
ATOM     21  H   UNL     1      -0.964  46.526  12.474  1.00  0.00     0.293 HD
ENDBRANCH  17  20
ENDBRANCH   1  12
BRANCH   6  22
ATOM     22  O   UNL     1      -3.791  44.889   3.299  1.00  0.00    -0.507 OA
ATOM     23  H   UNL     1      -4.560  45.539   3.261  1.00  0.00     0.293 HD
ENDBRANCH   6  22
BRANCH   8  24
ATOM     24  O   UNL     1       0.595  45.520   1.449  1.00  0.00    -0.508 OA
ATOM     25  H   UNL     1       0.532  46.190   0.692  1.00  0.00     0.293 HD
ENDBRANCH   8  24
TORSDOF 5
ENDMDL
MODEL 8
REMARK VINA RESULT:    -8.305      2.232      4.116
REMARK INTER + INTRA:         -10.061
REMARK INTER:                  -9.771
REMARK INTRA:                  -0.290
REMARK UNBOUND:                -0.299
REMARK SMILES O=c1cc(-c2ccc(O)c(O)c2)oc2cc(O)cc(O)c12
REMARK SMILES IDX 4 1 3 2 2 3 1 4 21 5 19 6 18 7 16 8 15 9 14 10 13 11 5 12
REMARK SMILES IDX 6 13 7 14 8 15 12 16 10 17 9 18 11 20 20 22 17 24
REMARK H PARENT 9 19 11 21 20 23 17 25
REMARK Flexibility Score: inf
ROOT
ATOM      1  C   UNL     1       0.390  44.823  -0.521  1.00  0.00     0.138 A 
ATOM      2  C   UNL     1      -0.232  44.912  -1.775  1.00  0.00     0.100 A 
ATOM      3  C   UNL     1       0.521  44.730  -2.934  1.00  0.00     0.197 A 
ATOM      4  O   UNL     1      -0.076  44.754  -4.041  1.00  0.00    -0.289 OA
ATOM      5  C   UNL     1       1.913  44.488  -2.839  1.00  0.00     0.107 A 
ATOM      6  C   UNL     1       2.788  44.326  -3.953  1.00  0.00     0.134 A 
ATOM      7  C   UNL     1       4.126  43.974  -3.735  1.00  0.00     0.093 A 
ATOM      8  C   UNL     1       4.633  43.837  -2.440  1.00  0.00     0.123 A 
ATOM      9  C   UNL     1       3.800  44.046  -1.345  1.00  0.00     0.094 A 
ATOM     10  C   UNL     1       2.451  44.364  -1.531  1.00  0.00     0.146 A 
ATOM     11  O   UNL     1       1.686  44.540  -0.458  1.00  0.00    -0.456 OA
ENDROOT
BRANCH   1  12
ATOM     12  C   UNL     1      -0.364  45.010   0.744  1.00  0.00     0.021 A 
ATOM     13  C   UNL     1       0.286  45.334   1.951  1.00  0.00     0.016 A 
ATOM     14  C   UNL     1      -0.448  45.494   3.128  1.00  0.00     0.051 A 
ATOM     15  C   UNL     1      -1.839  45.328   3.125  1.00  0.00     0.157 A 
ATOM     16  C   UNL     1      -1.759  44.831   0.752  1.00  0.00     0.062 A 
ATOM     17  C   UNL     1      -2.496  44.991   1.930  1.00  0.00     0.158 A 
BRANCH  15  18
ATOM     18  O   UNL     1      -2.567  45.490   4.303  1.00  0.00    -0.504 OA
ATOM     19  H   UNL     1      -3.294  44.837   4.572  1.00  0.00     0.293 HD
ENDBRANCH  15  18
BRANCH  17  20
ATOM     20  O   UNL     1      -3.878  44.815   1.894  1.00  0.00    -0.504 OA
ATOM     21  H   UNL     1      -4.503  45.326   2.505  1.00  0.00     0.293 HD
ENDBRANCH  17  20
ENDBRANCH   1  12
BRANCH   6  22
ATOM     22  O   UNL     1       2.404  44.523  -5.283  1.00  0.00    -0.507 OA
ATOM     23  H   UNL     1       1.508  44.269  -5.668  1.00  0.00     0.293 HD
ENDBRANCH   6  22
BRANCH   8  24
ATOM     24  O   UNL     1       5.969  43.501  -2.233  1.00  0.00    -0.508 OA
ATOM     25  H   UNL     1       6.455  43.759  -1.382  1.00  0.00     0.293 HD
ENDBRANCH   8  24
TORSDOF 5
ENDMDL
MODEL 9
REMARK VINA RESULT:    -8.178      1.596      7.373
REMARK INTER + INTRA:          -9.910
REMARK INTER:                  -9.611
REMARK INTRA:                  -0.299
REMARK UNBOUND:                -0.299
REMARK SMILES O=c1cc(-c2ccc(O)c(O)c2)oc2cc(O)cc(O)c12
REMARK SMILES IDX 4 1 3 2 2 3 1 4 21 5 19 6 18 7 16 8 15 9 14 10 13 11 5 12
REMARK SMILES IDX 6 13 7 14 8 15 12 16 10 17 9 18 11 20 20 22 17 24
REMARK H PARENT 9 19 11 21 20 23 17 25
REMARK Flexibility Score: inf
ROOT
ATOM      1  C   UNL     1       0.001  45.216   1.348  1.00  0.00     0.138 A 
ATOM      2  C   UNL     1       0.906  45.830   2.226  1.00  0.00     0.100 A 
ATOM      3  C   UNL     1       0.530  46.074   3.547  1.00  0.00     0.197 A 
ATOM      4  O   UNL     1       1.383  46.569   4.326  1.00  0.00    -0.289 OA
ATOM      5  C   UNL     1      -0.772  45.728   3.983  1.00  0.00     0.107 A 
ATOM      6  C   UNL     1      -1.280  45.966   5.295  1.00  0.00     0.134 A 
ATOM      7  C   UNL     1      -2.544  45.475   5.645  1.00  0.00     0.093 A 
ATOM      8  C   UNL     1      -3.342  44.808   4.712  1.00  0.00     0.123 A 
ATOM      9  C   UNL     1      -2.877  44.618   3.414  1.00  0.00     0.094 A 
ATOM     10  C   UNL     1      -1.606  45.066   3.044  1.00  0.00     0.146 A 
ATOM     11  O   UNL     1      -1.195  44.851   1.798  1.00  0.00    -0.456 OA
ENDROOT
BRANCH   1  12
ATOM     12  C   UNL     1       0.349  44.934  -0.067  1.00  0.00     0.021 A 
ATOM     13  C   UNL     1       1.644  44.528  -0.444  1.00  0.00     0.016 A 
ATOM     14  C   UNL     1       1.946  44.279  -1.785  1.00  0.00     0.051 A 
ATOM     15  C   UNL     1       0.966  44.439  -2.773  1.00  0.00     0.157 A 
ATOM     16  C   UNL     1      -0.625  45.105  -1.067  1.00  0.00     0.062 A 
ATOM     17  C   UNL     1      -0.325  44.857  -2.411  1.00  0.00     0.158 A 
BRANCH  15  18
ATOM     18  O   UNL     1       1.272  44.189  -4.110  1.00  0.00    -0.504 OA
ATOM     19  H   UNL     1       1.274  43.248  -4.487  1.00  0.00     0.293 HD
ENDBRANCH  15  18
BRANCH  17  20
ATOM     20  O   UNL     1      -1.322  45.028  -3.370  1.00  0.00    -0.504 OA
ATOM     21  H   UNL     1      -1.880  44.256  -3.713  1.00  0.00     0.293 HD
ENDBRANCH  17  20
ENDBRANCH   1  12
BRANCH   6  22
ATOM     22  O   UNL     1      -0.599  46.695   6.275  1.00  0.00    -0.507 OA
ATOM     23  H   UNL     1      -0.989  46.972   7.162  1.00  0.00     0.293 HD
ENDBRANCH   6  22
BRANCH   8  24
ATOM     24  O   UNL     1      -4.604  44.336   5.067  1.00  0.00    -0.508 OA
ATOM     25  H   UNL     1      -4.873  43.371   4.912  1.00  0.00     0.293 HD
ENDBRANCH   8  24
TORSDOF 5
ENDMDL
