MODEL 1
REMARK VINA RESULT:    -7.964      0.000      0.000
REMARK INTER + INTRA:         -11.415
REMARK INTER:                 -10.524
REMARK INTRA:                  -0.891
REMARK UNBOUND:                -0.891
REMARK SMILES CC[C@H](C=C[C@H](C)[C@@H]1CC[C@H]2[C@@H]3CC=C4C[C@@H](O)CC[C@@]4(C)[C@@H]3CC[C@]21C)C(C)C
REMARK SMILES IDX 6 1 7 2 5 3 4 4 3 5 2 6 1 7 28 8 29 9 30 10 8 11 9 12 26 13
REMARK SMILES IDX 10 14 11 15 25 16 27 17 12 18 24 19 23 20 13 21 21 22 14 23
REMARK SMILES IDX 15 24 20 25 22 26 16 27 19 28 17 29 18 30
REMARK H PARENT 18 31
REMARK Flexibility Score: inf
ROOT
ATOM      1  C   UNL     1     170.389 176.817 172.913  1.00  0.00     0.012 C 
ATOM      2  C   UNL     1     170.160 175.435 172.287  1.00  0.00     0.012 C 
ENDROOT
BRANCH   1   3
ATOM      3  C   UNL     1     169.068 177.564 172.897  1.00  0.00    -0.028 C 
ATOM      4  C   UNL     1     167.917 176.965 172.537  1.00  0.00    -0.027 C 
BRANCH   4   5
ATOM      5  C   UNL     1     166.551 177.611 172.696  1.00  0.00     0.014 C 
BRANCH   5   6
ATOM      6  C   UNL     1     165.901 177.877 171.312  1.00  0.00     0.004 C 
ATOM      7  C   UNL     1     166.527 177.060 170.180  1.00  0.00     0.004 C 
ENDBRANCH   5   6
BRANCH   5   8
ATOM      8  C   UNL     1     165.625 176.877 173.718  1.00  0.00    -0.011 C 
ATOM      9  C   UNL     1     165.473 175.388 173.364  1.00  0.00     0.008 C 
ATOM     10  C   UNL     1     164.243 177.521 173.905  1.00  0.00     0.008 C 
ENDBRANCH   5   8
ENDBRANCH   4   5
ENDBRANCH   1   3
BRANCH   1  11
ATOM     11  C   UNL     1     171.048 176.680 174.332  1.00  0.00     0.002 C 
ATOM     12  C   UNL     1     170.933 177.906 175.234  1.00  0.00     0.005 C 
ATOM     13  C   UNL     1     172.549 176.277 174.391  1.00  0.00    -0.026 C 
ATOM     14  C   UNL     1     171.919 177.661 176.365  1.00  0.00     0.005 C 
ATOM     15  C   UNL     1     173.013 176.707 175.825  1.00  0.00    -0.001 C 
ATOM     16  C   UNL     1     172.741 174.761 174.111  1.00  0.00     0.007 C 
ATOM     17  C   UNL     1     173.385 177.061 173.346  1.00  0.00     0.012 C 
ATOM     18  C   UNL     1     173.275 175.543 176.826  1.00  0.00     0.000 C 
ATOM     19  C   UNL     1     172.312 173.797 175.240  1.00  0.00     0.005 C 
ATOM     20  C   UNL     1     172.243 174.406 176.673  1.00  0.00     0.003 C 
ATOM     21  C   UNL     1     174.705 174.978 176.749  1.00  0.00     0.031 C 
ATOM     22  C   UNL     1     172.398 173.334 177.828  1.00  0.00    -0.008 C 
ATOM     23  C   UNL     1     174.888 173.813 177.683  1.00  0.00    -0.027 C 
ATOM     24  C   UNL     1     173.872 173.034 178.132  1.00  0.00    -0.065 C 
ATOM     25  C   UNL     1     171.762 173.878 179.151  1.00  0.00     0.014 C 
ATOM     26  C   UNL     1     171.649 172.025 177.438  1.00  0.00     0.016 C 
ATOM     27  C   UNL     1     174.146 172.090 179.279  1.00  0.00     0.063 C 
ATOM     28  C   UNL     1     172.051 173.004 180.395  1.00  0.00     0.033 C 
ATOM     29  C   UNL     1     173.549 172.681 180.569  1.00  0.00     0.118 C 
BRANCH  29  30
ATOM     30  O   UNL     1     174.240 173.849 180.934  1.00  0.00    -0.393 OA
ATOM     31  H   UNL     1     174.614 173.690 181.839  1.00  0.00     0.210 HD
ENDBRANCH  29  30
ENDBRANCH   1  11
TORSDOF 6
ENDMDL
MODEL 2
REMARK VINA RESULT:    -7.916      5.310      9.596
REMARK INTER + INTRA:         -11.353
REMARK INTER:                 -10.397
REMARK INTRA:                  -0.956
REMARK UNBOUND:                -0.891
REMARK SMILES CC[C@H](C=C[C@H](C)[C@@H]1CC[C@H]2[C@@H]3CC=C4C[C@@H](O)CC[C@@]4(C)[C@@H]3CC[C@]21C)C(C)C
REMARK SMILES IDX 6 1 7 2 5 3 4 4 3 5 2 6 1 7 28 8 29 9 30 10 8 11 9 12 26 13
REMARK SMILES IDX 10 14 11 15 25 16 27 17 12 18 24 19 23 20 13 21 21 22 14 23
REMARK SMILES IDX 15 24 20 25 22 26 16 27 19 28 17 29 18 30
REMARK H PARENT 18 31
REMARK Flexibility Score: inf
ROOT
ATOM      1  C   UNL     1     176.176 169.615 172.875  1.00  0.00     0.012 C 
ATOM      2  C   UNL     1     176.383 171.004 172.255  1.00  0.00     0.012 C 
ENDROOT
BRANCH   1   3
ATOM      3  C   UNL     1     177.514 168.898 172.874  1.00  0.00    -0.028 C 
ATOM      4  C   UNL     1     178.671 169.553 172.664  1.00  0.00    -0.027 C 
BRANCH   4   5
ATOM      5  C   UNL     1     180.039 168.917 172.851  1.00  0.00     0.014 C 
BRANCH   5   6
ATOM      6  C   UNL     1     180.609 168.420 171.496  1.00  0.00     0.004 C 
ATOM      7  C   UNL     1     180.210 169.302 170.311  1.00  0.00     0.004 C 
ENDBRANCH   5   6
BRANCH   5   8
ATOM      8  C   UNL     1     181.026 169.791 173.690  1.00  0.00    -0.011 C 
ATOM      9  C   UNL     1     180.826 171.288 173.404  1.00  0.00     0.008 C 
ATOM     10  C   UNL     1     182.507 169.413 173.528  1.00  0.00     0.008 C 
ENDBRANCH   5   8
ENDBRANCH   4   5
ENDBRANCH   1   3
BRANCH   1  11
ATOM     11  C   UNL     1     175.496 169.733 174.285  1.00  0.00     0.002 C 
ATOM     12  C   UNL     1     175.648 168.517 175.195  1.00  0.00     0.005 C 
ATOM     13  C   UNL     1     173.979 170.077 174.324  1.00  0.00    -0.026 C 
ATOM     14  C   UNL     1     174.639 168.730 176.313  1.00  0.00     0.005 C 
ATOM     15  C   UNL     1     173.516 169.637 175.754  1.00  0.00    -0.001 C 
ATOM     16  C   UNL     1     173.731 171.583 174.033  1.00  0.00     0.007 C 
ATOM     17  C   UNL     1     173.187 169.255 173.274  1.00  0.00     0.012 C 
ATOM     18  C   UNL     1     173.196 170.795 176.746  1.00  0.00     0.000 C 
ATOM     19  C   UNL     1     174.108 172.569 175.161  1.00  0.00     0.005 C 
ATOM     20  C   UNL     1     174.183 171.971 176.598  1.00  0.00     0.003 C 
ATOM     21  C   UNL     1     171.745 171.303 176.649  1.00  0.00     0.031 C 
ATOM     22  C   UNL     1     173.973 173.042 177.745  1.00  0.00    -0.008 C 
ATOM     23  C   UNL     1     171.506 172.465 177.574  1.00  0.00    -0.027 C 
ATOM     24  C   UNL     1     172.485 173.285 178.030  1.00  0.00    -0.065 C 
ATOM     25  C   UNL     1     174.614 172.530 179.079  1.00  0.00     0.014 C 
ATOM     26  C   UNL     1     174.675 174.377 177.357  1.00  0.00     0.016 C 
ATOM     27  C   UNL     1     172.160 174.224 179.169  1.00  0.00     0.063 C 
ATOM     28  C   UNL     1     174.276 173.399 180.314  1.00  0.00     0.033 C 
ATOM     29  C   UNL     1     172.764 173.664 180.469  1.00  0.00     0.118 C 
BRANCH  29  30
ATOM     30  O   UNL     1     172.116 172.472 180.833  1.00  0.00    -0.393 OA
ATOM     31  H   UNL     1     171.807 172.045 179.992  1.00  0.00     0.210 HD
ENDBRANCH  29  30
ENDBRANCH   1  11
TORSDOF 6
ENDMDL
MODEL 3
REMARK VINA RESULT:    -7.897      6.040      9.357
REMARK INTER + INTRA:         -11.327
REMARK INTER:                 -10.336
REMARK INTRA:                  -0.991
REMARK UNBOUND:                -0.891
REMARK SMILES CC[C@H](C=C[C@H](C)[C@@H]1CC[C@H]2[C@@H]3CC=C4C[C@@H](O)CC[C@@]4(C)[C@@H]3CC[C@]21C)C(C)C
REMARK SMILES IDX 6 1 7 2 5 3 4 4 3 5 2 6 1 7 28 8 29 9 30 10 8 11 9 12 26 13
REMARK SMILES IDX 10 14 11 15 25 16 27 17 12 18 24 19 23 20 13 21 21 22 14 23
REMARK SMILES IDX 15 24 20 25 22 26 16 27 19 28 17 29 18 30
REMARK H PARENT 18 31
REMARK Flexibility Score: inf
ROOT
ATOM      1  C   UNL     1     173.472 170.146 176.226  1.00  0.00     0.012 C 
ATOM      2  C   UNL     1     174.079 169.041 177.102  1.00  0.00     0.012 C 
ENDROOT
BRANCH   1   3
ATOM      3  C   UNL     1     172.999 171.262 177.140  1.00  0.00    -0.028 C 
ATOM      4  C   UNL     1     173.746 171.702 178.170  1.00  0.00    -0.027 C 
BRANCH   4   5
ATOM      5  C   UNL     1     173.407 172.940 178.982  1.00  0.00     0.014 C 
BRANCH   5   6
ATOM      6  C   UNL     1     172.257 173.742 178.315  1.00  0.00     0.004 C 
ATOM      7  C   UNL     1     172.749 174.921 177.474  1.00  0.00     0.004 C 
ENDBRANCH   5   6
BRANCH   5   8
ATOM      8  C   UNL     1     173.200 172.654 180.504  1.00  0.00    -0.011 C 
ATOM      9  C   UNL     1     171.979 173.410 181.053  1.00  0.00     0.008 C 
ATOM     10  C   UNL     1     174.433 172.931 181.379  1.00  0.00     0.008 C 
ENDBRANCH   5   8
ENDBRANCH   4   5
ENDBRANCH   1   3
BRANCH   1  11
ATOM     11  C   UNL     1     174.487 170.592 175.116  1.00  0.00     0.002 C 
ATOM     12  C   UNL     1     174.318 172.020 174.602  1.00  0.00     0.005 C 
ATOM     13  C   UNL     1     174.585 169.714 173.836  1.00  0.00    -0.026 C 
ATOM     14  C   UNL     1     175.153 172.087 173.334  1.00  0.00     0.005 C 
ATOM     15  C   UNL     1     175.254 170.649 172.771  1.00  0.00    -0.001 C 
ATOM     16  C   UNL     1     175.387 168.410 174.102  1.00  0.00     0.007 C 
ATOM     17  C   UNL     1     173.179 169.309 173.322  1.00  0.00     0.012 C 
ATOM     18  C   UNL     1     176.727 170.302 172.400  1.00  0.00     0.000 C 
ATOM     19  C   UNL     1     176.916 168.568 174.257  1.00  0.00     0.005 C 
ATOM     20  C   UNL     1     177.541 169.851 173.631  1.00  0.00     0.003 C 
ATOM     21  C   UNL     1     176.847 169.261 171.272  1.00  0.00     0.031 C 
ATOM     22  C   UNL     1     179.077 169.702 173.277  1.00  0.00    -0.008 C 
ATOM     23  C   UNL     1     178.284 168.909 170.999  1.00  0.00    -0.027 C 
ATOM     24  C   UNL     1     179.284 169.049 171.904  1.00  0.00    -0.065 C 
ATOM     25  C   UNL     1     179.750 171.115 173.216  1.00  0.00     0.014 C 
ATOM     26  C   UNL     1     179.797 168.876 174.384  1.00  0.00     0.016 C 
ATOM     27  C   UNL     1     180.711 168.936 171.419  1.00  0.00     0.063 C 
ATOM     28  C   UNL     1     181.196 171.100 172.664  1.00  0.00     0.033 C 
ATOM     29  C   UNL     1     181.322 170.345 171.324  1.00  0.00     0.118 C 
BRANCH  29  30
ATOM     30  O   UNL     1     180.689 171.084 170.311  1.00  0.00    -0.393 OA
ATOM     31  H   UNL     1     180.703 170.520 169.494  1.00  0.00     0.210 HD
ENDBRANCH  29  30
ENDBRANCH   1  11
TORSDOF 6
ENDMDL
MODEL 4
REMARK VINA RESULT:    -7.832      2.760      8.461
REMARK INTER + INTRA:         -11.242
REMARK INTER:                 -10.252
REMARK INTRA:                  -0.990
REMARK UNBOUND:                -0.891
REMARK SMILES CC[C@H](C=C[C@H](C)[C@@H]1CC[C@H]2[C@@H]3CC=C4C[C@@H](O)CC[C@@]4(C)[C@@H]3CC[C@]21C)C(C)C
REMARK SMILES IDX 6 1 7 2 5 3 4 4 3 5 2 6 1 7 28 8 29 9 30 10 8 11 9 12 26 13
REMARK SMILES IDX 10 14 11 15 25 16 27 17 12 18 24 19 23 20 13 21 21 22 14 23
REMARK SMILES IDX 15 24 20 25 22 26 16 27 19 28 17 29 18 30
REMARK H PARENT 18 31
REMARK Flexibility Score: inf
ROOT
ATOM      1  C   UNL     1     172.909 176.240 176.238  1.00  0.00     0.012 C 
ATOM      2  C   UNL     1     172.286 177.351 177.094  1.00  0.00     0.012 C 
ENDROOT
BRANCH   1   3
ATOM      3  C   UNL     1     173.387 175.142 177.171  1.00  0.00    -0.028 C 
ATOM      4  C   UNL     1     172.607 174.654 178.153  1.00  0.00    -0.027 C 
BRANCH   4   5
ATOM      5  C   UNL     1     172.965 173.428 178.976  1.00  0.00     0.014 C 
BRANCH   5   6
ATOM      6  C   UNL     1     174.142 172.651 178.329  1.00  0.00     0.004 C 
ATOM      7  C   UNL     1     173.692 171.448 177.499  1.00  0.00     0.004 C 
ENDBRANCH   5   6
BRANCH   5   8
ATOM      8  C   UNL     1     173.142 173.726 180.500  1.00  0.00    -0.011 C 
ATOM      9  C   UNL     1     174.366 172.991 181.072  1.00  0.00     0.008 C 
ATOM     10  C   UNL     1     171.900 173.434 181.356  1.00  0.00     0.008 C 
ENDBRANCH   5   8
ENDBRANCH   4   5
ENDBRANCH   1   3
BRANCH   1  11
ATOM     11  C   UNL     1     171.905 175.767 175.129  1.00  0.00     0.002 C 
ATOM     12  C   UNL     1     172.080 174.329 174.649  1.00  0.00     0.005 C 
ATOM     13  C   UNL     1     171.819 176.616 173.827  1.00  0.00    -0.026 C 
ATOM     14  C   UNL     1     171.257 174.232 173.374  1.00  0.00     0.005 C 
ATOM     15  C   UNL     1     171.161 175.657 172.778  1.00  0.00    -0.001 C 
ATOM     16  C   UNL     1     171.013 177.925 174.056  1.00  0.00     0.007 C 
ATOM     17  C   UNL     1     173.229 177.011 173.318  1.00  0.00     0.012 C 
ATOM     18  C   UNL     1     169.691 175.994 172.385  1.00  0.00     0.000 C 
ATOM     19  C   UNL     1     169.483 177.770 174.200  1.00  0.00     0.005 C 
ATOM     20  C   UNL     1     168.865 176.473 173.598  1.00  0.00     0.003 C 
ATOM     21  C   UNL     1     169.581 177.009 171.233  1.00  0.00     0.031 C 
ATOM     22  C   UNL     1     167.332 176.612 173.225  1.00  0.00    -0.008 C 
ATOM     23  C   UNL     1     168.147 177.354 170.938  1.00  0.00    -0.027 C 
ATOM     24  C   UNL     1     167.138 177.233 171.836  1.00  0.00    -0.065 C 
ATOM     25  C   UNL     1     166.661 175.198 173.190  1.00  0.00     0.014 C 
ATOM     26  C   UNL     1     166.601 177.463 174.306  1.00  0.00     0.016 C 
ATOM     27  C   UNL     1     165.716 177.335 171.335  1.00  0.00     0.063 C 
ATOM     28  C   UNL     1     165.220 175.199 172.624  1.00  0.00     0.033 C 
ATOM     29  C   UNL     1     165.107 175.923 171.267  1.00  0.00     0.118 C 
BRANCH  29  30
ATOM     30  O   UNL     1     165.749 175.162 170.276  1.00  0.00    -0.393 OA
ATOM     31  H   UNL     1     166.712 175.398 170.313  1.00  0.00     0.210 HD
ENDBRANCH  29  30
ENDBRANCH   1  11
TORSDOF 6
ENDMDL
MODEL 5
REMARK VINA RESULT:    -7.101      5.265      8.168
REMARK INTER + INTRA:         -10.275
REMARK INTER:                  -9.050
REMARK INTRA:                  -1.225
REMARK UNBOUND:                -0.891
REMARK SMILES CC[C@H](C=C[C@H](C)[C@@H]1CC[C@H]2[C@@H]3CC=C4C[C@@H](O)CC[C@@]4(C)[C@@H]3CC[C@]21C)C(C)C
REMARK SMILES IDX 6 1 7 2 5 3 4 4 3 5 2 6 1 7 28 8 29 9 30 10 8 11 9 12 26 13
REMARK SMILES IDX 10 14 11 15 25 16 27 17 12 18 24 19 23 20 13 21 21 22 14 23
REMARK SMILES IDX 15 24 20 25 22 26 16 27 19 28 17 29 18 30
REMARK H PARENT 18 31
REMARK Flexibility Score: inf
ROOT
ATOM      1  C   UNL     1     174.610 169.718 172.516  1.00  0.00     0.012 C 
ATOM      2  C   UNL     1     176.018 170.294 172.307  1.00  0.00     0.012 C 
ENDROOT
BRANCH   1   3
ATOM      3  C   UNL     1     174.597 168.301 171.973  1.00  0.00    -0.028 C 
ATOM      4  C   UNL     1     173.685 167.895 171.071  1.00  0.00    -0.027 C 
BRANCH   4   5
ATOM      5  C   UNL     1     173.754 166.556 170.355  1.00  0.00     0.014 C 
BRANCH   5   6
ATOM      6  C   UNL     1     172.333 165.976 170.126  1.00  0.00     0.004 C 
ATOM      7  C   UNL     1     171.227 167.031 170.204  1.00  0.00     0.004 C 
ENDBRANCH   5   6
BRANCH   5   8
ATOM      8  C   UNL     1     174.661 166.572 169.083  1.00  0.00    -0.011 C 
ATOM      9  C   UNL     1     174.466 167.865 168.274  1.00  0.00     0.008 C 
ATOM     10  C   UNL     1     174.502 165.346 168.170  1.00  0.00     0.008 C 
ENDBRANCH   5   8
ENDBRANCH   4   5
ENDBRANCH   1   3
BRANCH   1  11
ATOM     11  C   UNL     1     174.177 169.850 174.019  1.00  0.00     0.002 C 
ATOM     12  C   UNL     1     174.227 168.560 174.835  1.00  0.00     0.005 C 
ATOM     13  C   UNL     1     172.775 170.456 174.313  1.00  0.00    -0.026 C 
ATOM     14  C   UNL     1     173.451 168.864 176.107  1.00  0.00     0.005 C 
ATOM     15  C   UNL     1     172.450 169.998 175.776  1.00  0.00    -0.001 C 
ATOM     16  C   UNL     1     172.777 172.000 174.138  1.00  0.00     0.007 C 
ATOM     17  C   UNL     1     171.697 169.873 173.363  1.00  0.00     0.012 C 
ATOM     18  C   UNL     1     172.503 171.116 176.860  1.00  0.00     0.000 C 
ATOM     19  C   UNL     1     173.493 172.813 175.239  1.00  0.00     0.005 C 
ATOM     20  C   UNL     1     173.663 172.103 176.615  1.00  0.00     0.003 C 
ATOM     21  C   UNL     1     171.176 171.882 177.017  1.00  0.00     0.031 C 
ATOM     22  C   UNL     1     173.828 173.103 177.831  1.00  0.00    -0.008 C 
ATOM     23  C   UNL     1     171.299 172.994 178.023  1.00  0.00    -0.027 C 
ATOM     24  C   UNL     1     172.471 173.588 178.358  1.00  0.00    -0.065 C 
ATOM     25  C   UNL     1     174.549 172.385 179.021  1.00  0.00     0.014 C 
ATOM     26  C   UNL     1     174.706 174.317 177.402  1.00  0.00     0.016 C 
ATOM     27  C   UNL     1     172.499 174.480 179.578  1.00  0.00     0.063 C 
ATOM     28  C   UNL     1     174.565 173.203 180.335  1.00  0.00     0.033 C 
ATOM     29  C   UNL     1     173.169 173.722 180.738  1.00  0.00     0.118 C 
BRANCH  29  30
ATOM     30  O   UNL     1     172.367 172.642 181.142  1.00  0.00    -0.393 OA
ATOM     31  H   UNL     1     172.743 171.830 180.714  1.00  0.00     0.210 HD
ENDBRANCH  29  30
ENDBRANCH   1  11
TORSDOF 6
ENDMDL
MODEL 6
REMARK VINA RESULT:    -7.034      3.067      8.790
REMARK INTER + INTRA:         -10.187
REMARK INTER:                  -9.205
REMARK INTRA:                  -0.982
REMARK UNBOUND:                -0.891
REMARK SMILES CC[C@H](C=C[C@H](C)[C@@H]1CC[C@H]2[C@@H]3CC=C4C[C@@H](O)CC[C@@]4(C)[C@@H]3CC[C@]21C)C(C)C
REMARK SMILES IDX 6 1 7 2 5 3 4 4 3 5 2 6 1 7 28 8 29 9 30 10 8 11 9 12 26 13
REMARK SMILES IDX 10 14 11 15 25 16 27 17 12 18 24 19 23 20 13 21 21 22 14 23
REMARK SMILES IDX 15 24 20 25 22 26 16 27 19 28 17 29 18 30
REMARK H PARENT 18 31
REMARK Flexibility Score: inf
ROOT
ATOM      1  C   UNL     1     173.061 176.302 176.303  1.00  0.00     0.012 C 
ATOM      2  C   UNL     1     172.615 177.403 177.276  1.00  0.00     0.012 C 
ENDROOT
BRANCH   1   3
ATOM      3  C   UNL     1     173.379 175.060 177.114  1.00  0.00    -0.028 C 
ATOM      4  C   UNL     1     172.867 174.864 178.344  1.00  0.00    -0.027 C 
BRANCH   4   5
ATOM      5  C   UNL     1     172.996 173.555 179.106  1.00  0.00     0.014 C 
BRANCH   5   6
ATOM      6  C   UNL     1     174.093 172.655 178.478  1.00  0.00     0.004 C 
ATOM      7  C   UNL     1     173.530 171.438 177.741  1.00  0.00     0.004 C 
ENDBRANCH   5   6
BRANCH   5   8
ATOM      8  C   UNL     1     173.113 173.739 180.653  1.00  0.00    -0.011 C 
ATOM      9  C   UNL     1     174.329 172.983 181.213  1.00  0.00     0.008 C 
ATOM     10  C   UNL     1     171.847 173.365 181.438  1.00  0.00     0.008 C 
ENDBRANCH   5   8
ENDBRANCH   4   5
ENDBRANCH   1   3
BRANCH   1  11
ATOM     11  C   UNL     1     171.989 176.094 175.176  1.00  0.00     0.002 C 
ATOM     12  C   UNL     1     171.115 174.851 175.319  1.00  0.00     0.005 C 
ATOM     13  C   UNL     1     172.491 176.064 173.703  1.00  0.00    -0.026 C 
ATOM     14  C   UNL     1     170.431 174.689 173.971  1.00  0.00     0.005 C 
ATOM     15  C   UNL     1     171.334 175.363 172.911  1.00  0.00    -0.001 C 
ATOM     16  C   UNL     1     172.816 177.492 173.185  1.00  0.00     0.007 C 
ATOM     17  C   UNL     1     173.775 175.205 173.562  1.00  0.00     0.012 C 
ATOM     18  C   UNL     1     170.498 176.291 171.980  1.00  0.00     0.000 C 
ATOM     19  C   UNL     1     171.604 178.401 172.882  1.00  0.00     0.005 C 
ATOM     20  C   UNL     1     170.251 177.676 172.615  1.00  0.00     0.003 C 
ATOM     21  C   UNL     1     171.099 176.451 170.572  1.00  0.00     0.031 C 
ATOM     22  C   UNL     1     169.232 178.527 171.752  1.00  0.00    -0.008 C 
ATOM     23  C   UNL     1     170.294 177.409 169.735  1.00  0.00    -0.027 C 
ATOM     24  C   UNL     1     169.497 178.378 170.248  1.00  0.00    -0.065 C 
ATOM     25  C   UNL     1     167.769 178.030 172.009  1.00  0.00     0.014 C 
ATOM     26  C   UNL     1     169.309 180.026 172.170  1.00  0.00     0.016 C 
ATOM     27  C   UNL     1     168.529 179.076 169.320  1.00  0.00     0.063 C 
ATOM     28  C   UNL     1     166.718 178.645 171.054  1.00  0.00     0.033 C 
ATOM     29  C   UNL     1     167.113 178.527 169.567  1.00  0.00     0.118 C 
BRANCH  29  30
ATOM     30  O   UNL     1     167.036 177.182 169.169  1.00  0.00    -0.393 OA
ATOM     31  H   UNL     1     167.752 177.040 168.498  1.00  0.00     0.210 HD
ENDBRANCH  29  30
ENDBRANCH   1  11
TORSDOF 6
ENDMDL
MODEL 7
REMARK VINA RESULT:    -6.997      2.458      3.754
REMARK INTER + INTRA:         -10.138
REMARK INTER:                  -8.981
REMARK INTRA:                  -1.157
REMARK UNBOUND:                -0.891
REMARK SMILES CC[C@H](C=C[C@H](C)[C@@H]1CC[C@H]2[C@@H]3CC=C4C[C@@H](O)CC[C@@]4(C)[C@@H]3CC[C@]21C)C(C)C
REMARK SMILES IDX 6 1 7 2 5 3 4 4 3 5 2 6 1 7 28 8 29 9 30 10 8 11 9 12 26 13
REMARK SMILES IDX 10 14 11 15 25 16 27 17 12 18 24 19 23 20 13 21 21 22 14 23
REMARK SMILES IDX 15 24 20 25 22 26 16 27 19 28 17 29 18 30
REMARK H PARENT 18 31
REMARK Flexibility Score: inf
ROOT
ATOM      1  C   UNL     1     171.731 176.392 172.382  1.00  0.00     0.012 C 
ATOM      2  C   UNL     1     170.442 175.592 172.152  1.00  0.00     0.012 C 
ENDROOT
BRANCH   1   3
ATOM      3  C   UNL     1     171.516 177.794 171.840  1.00  0.00    -0.028 C 
ATOM      4  C   UNL     1     172.309 178.317 170.886  1.00  0.00    -0.027 C 
BRANCH   4   5
ATOM      5  C   UNL     1     172.013 179.627 170.177  1.00  0.00     0.014 C 
BRANCH   5   6
ATOM      6  C   UNL     1     173.324 180.396 169.864  1.00  0.00     0.004 C 
ATOM      7  C   UNL     1     174.588 179.607 170.212  1.00  0.00     0.004 C 
ENDBRANCH   5   6
BRANCH   5   8
ATOM      8  C   UNL     1     171.042 179.477 168.962  1.00  0.00    -0.011 C 
ATOM      9  C   UNL     1     171.273 180.587 167.923  1.00  0.00     0.008 C 
ATOM     10  C   UNL     1     169.554 179.404 169.338  1.00  0.00     0.008 C 
ENDBRANCH   5   8
ENDBRANCH   4   5
ENDBRANCH   1   3
BRANCH   1  11
ATOM     11  C   UNL     1     172.159 176.330 173.891  1.00  0.00     0.002 C 
ATOM     12  C   UNL     1     172.048 177.643 174.662  1.00  0.00     0.005 C 
ATOM     13  C   UNL     1     173.585 175.795 174.212  1.00  0.00    -0.026 C 
ATOM     14  C   UNL     1     172.828 177.415 175.947  1.00  0.00     0.005 C 
ATOM     15  C   UNL     1     173.880 176.315 175.660  1.00  0.00    -0.001 C 
ATOM     16  C   UNL     1     173.651 174.248 174.088  1.00  0.00     0.007 C 
ATOM     17  C   UNL     1     174.642 176.393 173.248  1.00  0.00     0.012 C 
ATOM     18  C   UNL     1     173.868 175.233 176.781  1.00  0.00     0.000 C 
ATOM     19  C   UNL     1     172.962 173.442 175.212  1.00  0.00     0.005 C 
ATOM     20  C   UNL     1     172.753 174.189 176.563  1.00  0.00     0.003 C 
ATOM     21  C   UNL     1     175.225 174.531 176.970  1.00  0.00     0.031 C 
ATOM     22  C   UNL     1     172.623 173.223 177.811  1.00  0.00    -0.008 C 
ATOM     23  C   UNL     1     175.144 173.449 178.013  1.00  0.00    -0.027 C 
ATOM     24  C   UNL     1     173.996 172.816 178.361  1.00  0.00    -0.065 C 
ATOM     25  C   UNL     1     171.864 173.949 178.973  1.00  0.00     0.014 C 
ATOM     26  C   UNL     1     171.801 171.959 177.418  1.00  0.00     0.016 C 
ATOM     27  C   UNL     1     173.999 171.964 179.610  1.00  0.00     0.063 C 
ATOM     28  C   UNL     1     171.875 173.175 180.313  1.00  0.00     0.033 C 
ATOM     29  C   UNL     1     173.289 172.731 180.740  1.00  0.00     0.118 C 
BRANCH  29  30
ATOM     30  O   UNL     1     174.041 173.858 181.112  1.00  0.00    -0.393 OA
ATOM     31  H   UNL     1     174.871 173.521 181.537  1.00  0.00     0.210 HD
ENDBRANCH  29  30
ENDBRANCH   1  11
TORSDOF 6
ENDMDL
MODEL 8
REMARK VINA RESULT:    -6.978      3.711      8.844
REMARK INTER + INTRA:         -10.113
REMARK INTER:                  -8.896
REMARK INTRA:                  -1.217
REMARK UNBOUND:                -0.891
REMARK SMILES CC[C@H](C=C[C@H](C)[C@@H]1CC[C@H]2[C@@H]3CC=C4C[C@@H](O)CC[C@@]4(C)[C@@H]3CC[C@]21C)C(C)C
REMARK SMILES IDX 6 1 7 2 5 3 4 4 3 5 2 6 1 7 28 8 29 9 30 10 8 11 9 12 26 13
REMARK SMILES IDX 10 14 11 15 25 16 27 17 12 18 24 19 23 20 13 21 21 22 14 23
REMARK SMILES IDX 15 24 20 25 22 26 16 27 19 28 17 29 18 30
REMARK H PARENT 18 31
REMARK Flexibility Score: inf
ROOT
ATOM      1  C   UNL     1     173.651 175.512 175.794  1.00  0.00     0.012 C 
ATOM      2  C   UNL     1     175.127 175.932 175.792  1.00  0.00     0.012 C 
ENDROOT
BRANCH   1   3
ATOM      3  C   UNL     1     173.182 175.456 177.237  1.00  0.00    -0.028 C 
ATOM      4  C   UNL     1     172.797 174.302 177.814  1.00  0.00    -0.027 C 
BRANCH   4   5
ATOM      5  C   UNL     1     172.513 174.164 179.301  1.00  0.00     0.014 C 
BRANCH   5   6
ATOM      6  C   UNL     1     171.191 173.387 179.542  1.00  0.00     0.004 C 
ATOM      7  C   UNL     1     170.469 173.002 178.249  1.00  0.00     0.004 C 
ENDBRANCH   5   6
BRANCH   5   8
ATOM      8  C   UNL     1     173.732 173.642 180.126  1.00  0.00    -0.011 C 
ATOM      9  C   UNL     1     174.593 172.674 179.298  1.00  0.00     0.008 C 
ATOM     10  C   UNL     1     173.364 173.003 181.474  1.00  0.00     0.008 C 
ENDBRANCH   5   8
ENDBRANCH   4   5
ENDBRANCH   1   3
BRANCH   1  11
ATOM     11  C   UNL     1     172.806 176.454 174.865  1.00  0.00     0.002 C 
ATOM     12  C   UNL     1     171.933 177.479 175.585  1.00  0.00     0.005 C 
ATOM     13  C   UNL     1     171.863 175.781 173.827  1.00  0.00    -0.026 C 
ATOM     14  C   UNL     1     170.982 178.006 174.521  1.00  0.00     0.005 C 
ATOM     15  C   UNL     1     170.841 176.906 173.442  1.00  0.00    -0.001 C 
ATOM     16  C   UNL     1     172.658 175.230 172.611  1.00  0.00     0.007 C 
ATOM     17  C   UNL     1     171.081 174.600 174.457  1.00  0.00     0.012 C 
ATOM     18  C   UNL     1     171.007 177.507 172.014  1.00  0.00     0.000 C 
ATOM     19  C   UNL     1     173.204 176.280 171.618  1.00  0.00     0.005 C 
ATOM     20  C   UNL     1     172.491 177.666 171.623  1.00  0.00     0.003 C 
ATOM     21  C   UNL     1     170.250 176.723 170.927  1.00  0.00     0.031 C 
ATOM     22  C   UNL     1     172.641 178.464 170.264  1.00  0.00    -0.008 C 
ATOM     23  C   UNL     1     170.497 177.300 169.559  1.00  0.00    -0.027 C 
ATOM     24  C   UNL     1     171.589 178.035 169.233  1.00  0.00    -0.065 C 
ATOM     25  C   UNL     1     172.434 179.995 170.518  1.00  0.00     0.014 C 
ATOM     26  C   UNL     1     174.075 178.263 169.689  1.00  0.00     0.016 C 
ATOM     27  C   UNL     1     171.578 178.792 167.925  1.00  0.00     0.063 C 
ATOM     28  C   UNL     1     172.343 180.841 169.225  1.00  0.00     0.033 C 
ATOM     29  C   UNL     1     171.322 180.283 168.211  1.00  0.00     0.118 C 
BRANCH  29  30
ATOM     30  O   UNL     1     170.021 180.468 168.707  1.00  0.00    -0.393 OA
ATOM     31  H   UNL     1     169.768 181.406 168.506  1.00  0.00     0.210 HD
ENDBRANCH  29  30
ENDBRANCH   1  11
TORSDOF 6
ENDMDL
MODEL 9
REMARK VINA RESULT:    -6.885      1.582      2.293
REMARK INTER + INTRA:          -9.990
REMARK INTER:                  -8.808
REMARK INTRA:                  -1.181
REMARK UNBOUND:                -0.891
REMARK SMILES CC[C@H](C=C[C@H](C)[C@@H]1CC[C@H]2[C@@H]3CC=C4C[C@@H](O)CC[C@@]4(C)[C@@H]3CC[C@]21C)C(C)C
REMARK SMILES IDX 6 1 7 2 5 3 4 4 3 5 2 6 1 7 28 8 29 9 30 10 8 11 9 12 26 13
REMARK SMILES IDX 10 14 11 15 25 16 27 17 12 18 24 19 23 20 13 21 21 22 14 23
REMARK SMILES IDX 15 24 20 25 22 26 16 27 19 28 17 29 18 30
REMARK H PARENT 18 31
REMARK Flexibility Score: inf
ROOT
ATOM      1  C   UNL     1     171.094 176.205 172.317  1.00  0.00     0.012 C 
ATOM      2  C   UNL     1     170.110 175.055 172.063  1.00  0.00     0.012 C 
ENDROOT
BRANCH   1   3
ATOM      3  C   UNL     1     170.442 177.493 171.848  1.00  0.00    -0.028 C 
ATOM      4  C   UNL     1     170.199 177.732 170.545  1.00  0.00    -0.027 C 
BRANCH   4   5
ATOM      5  C   UNL     1     169.374 178.908 170.050  1.00  0.00     0.014 C 
BRANCH   5   6
ATOM      6  C   UNL     1     170.042 179.572 168.816  1.00  0.00     0.004 C 
ATOM      7  C   UNL     1     169.038 180.212 167.854  1.00  0.00     0.004 C 
ENDBRANCH   5   6
BRANCH   5   8
ATOM      8  C   UNL     1     167.858 178.578 169.868  1.00  0.00    -0.011 C 
ATOM      9  C   UNL     1     167.065 178.874 171.152  1.00  0.00     0.008 C 
ATOM     10  C   UNL     1     167.570 177.148 169.385  1.00  0.00     0.008 C 
ENDBRANCH   5   8
ENDBRANCH   4   5
ENDBRANCH   1   3
BRANCH   1  11
ATOM     11  C   UNL     1     171.560 176.214 173.816  1.00  0.00     0.002 C 
ATOM     12  C   UNL     1     171.320 177.518 174.574  1.00  0.00     0.005 C 
ATOM     13  C   UNL     1     173.043 175.846 174.111  1.00  0.00    -0.026 C 
ATOM     14  C   UNL     1     172.149 177.398 175.843  1.00  0.00     0.005 C 
ATOM     15  C   UNL     1     173.309 176.418 175.545  1.00  0.00    -0.001 C 
ATOM     16  C   UNL     1     173.278 174.314 174.005  1.00  0.00     0.007 C 
ATOM     17  C   UNL     1     174.005 176.543 173.115  1.00  0.00     0.012 C 
ATOM     18  C   UNL     1     173.443 175.358 176.679  1.00  0.00     0.000 C 
ATOM     19  C   UNL     1     172.709 173.453 175.155  1.00  0.00     0.005 C 
ATOM     20  C   UNL     1     172.447 174.193 176.501  1.00  0.00     0.003 C 
ATOM     21  C   UNL     1     174.874 174.814 176.845  1.00  0.00     0.031 C 
ATOM     22  C   UNL     1     172.454 173.238 177.764  1.00  0.00    -0.008 C 
ATOM     23  C   UNL     1     174.937 173.746 177.903  1.00  0.00    -0.027 C 
ATOM     24  C   UNL     1     173.876 172.995 178.286  1.00  0.00    -0.065 C 
ATOM     25  C   UNL     1     171.644 173.892 178.933  1.00  0.00     0.014 C 
ATOM     26  C   UNL     1     171.770 171.884 177.406  1.00  0.00     0.016 C 
ATOM     27  C   UNL     1     174.001 172.167 179.545  1.00  0.00     0.063 C 
ATOM     28  C   UNL     1     171.771 173.145 180.283  1.00  0.00     0.033 C 
ATOM     29  C   UNL     1     173.235 172.867 180.682  1.00  0.00     0.118 C 
BRANCH  29  30
ATOM     30  O   UNL     1     173.864 174.076 181.022  1.00  0.00    -0.393 OA
ATOM     31  H   UNL     1     173.595 174.288 181.953  1.00  0.00     0.210 HD
ENDBRANCH  29  30
ENDBRANCH   1  11
TORSDOF 6
ENDMDL
