MODEL 1
REMARK VINA RESULT:    28.333      0.000      0.000
REMARK INTER + INTRA:          29.161
REMARK INTER:                  29.161
REMARK INTRA:                   0.000
REMARK UNBOUND:                 0.000
REMARK SMILES CC1(C)CC[C@]2(C)CC[C@]3(C)C(=CC[C@@H]4[C@]5(C)CC[C@@H](O)C(C)(C)[C@@H]5CC[C@]43C)[C@@H]2C1
REMARK SMILES IDX 1 1 2 2 4 3 5 4 6 5 8 6 9 7 10 8 12 9 13 10 14 11 15 12
REMARK SMILES IDX 28 13 27 14 26 15 25 16 16 17 18 18 19 19 20 20 22 21 23 22
REMARK SMILES IDX 24 23 17 24 29 25 30 26 31 27 11 28 7 29 3 30 21 31
REMARK H PARENT 21 32
REMARK Flexibility Score: inf
ROOT
ATOM      1  C   UNL     1     140.480 124.674 142.406  1.00  0.00     0.011 C 
ATOM      2  C   UNL     1     139.243 123.763 142.245  1.00  0.00    -0.035 C 
ATOM      3  C   UNL     1     139.646 122.465 141.481  1.00  0.00     0.007 C 
ATOM      4  C   UNL     1     139.510 122.633 139.958  1.00  0.00     0.008 C 
ATOM      5  C   UNL     1     138.031 122.899 139.511  1.00  0.00    -0.026 C 
ATOM      6  C   UNL     1     138.065 123.769 138.226  1.00  0.00     0.008 C 
ATOM      7  C   UNL     1     136.669 124.184 137.745  1.00  0.00     0.012 C 
ATOM      8  C   UNL     1     135.837 124.996 138.799  1.00  0.00    -0.006 C 
ATOM      9  C   UNL     1     135.936 124.306 140.178  1.00  0.00    -0.064 C 
ATOM     10  C   UNL     1     134.915 124.360 141.069  1.00  0.00    -0.027 C 
ATOM     11  C   UNL     1     133.517 124.819 140.751  1.00  0.00     0.032 C 
ATOM     12  C   UNL     1     133.460 125.764 139.530  1.00  0.00     0.006 C 
ATOM     13  C   UNL     1     134.285 125.116 138.349  1.00  0.00    -0.020 C 
ATOM     14  C   UNL     1     134.121 126.012 137.104  1.00  0.00     0.008 C 
ATOM     15  C   UNL     1     132.655 126.237 136.741  1.00  0.00     0.005 C 
ATOM     16  C   UNL     1     131.920 127.083 137.816  1.00  0.00     0.003 C 
ATOM     17  C   UNL     1     132.007 126.400 139.256  1.00  0.00    -0.025 C 
ATOM     18  C   UNL     1     130.868 125.344 139.440  1.00  0.00     0.010 C 
ATOM     19  C   UNL     1     129.474 125.822 139.023  1.00  0.00     0.033 C 
ATOM     20  C   UNL     1     129.451 126.330 137.581  1.00  0.00     0.120 C 
ATOM     21  C   UNL     1     130.452 127.502 137.348  1.00  0.00    -0.006 C 
ATOM     22  C   UNL     1     130.422 127.865 135.835  1.00  0.00     0.014 C 
ATOM     23  C   UNL     1     129.979 128.795 138.074  1.00  0.00     0.014 C 
ATOM     24  C   UNL     1     131.807 127.508 140.354  1.00  0.00     0.012 C 
ATOM     25  C   UNL     1     133.752 123.687 137.989  1.00  0.00     0.012 C 
ATOM     26  C   UNL     1     137.226 123.614 140.650  1.00  0.00     0.022 C 
ATOM     27  C   UNL     1     138.128 124.552 141.484  1.00  0.00     0.015 C 
ATOM     28  C   UNL     1     136.526 126.397 138.928  1.00  0.00     0.017 C 
ATOM     29  C   UNL     1     137.360 121.532 139.204  1.00  0.00     0.012 C 
ATOM     30  C   UNL     1     138.743 123.382 143.655  1.00  0.00     0.011 C 
ENDROOT
BRANCH  20  31
ATOM     31  O   UNL     1     128.137 126.720 137.271  1.00  0.00    -0.393 OA
ATOM     32  H   UNL     1     128.171 127.211 136.408  1.00  0.00     0.210 HD
ENDBRANCH  20  31
TORSDOF 1
ENDMDL
MODEL 2
REMARK VINA RESULT:    29.648      1.200      1.574
REMARK INTER + INTRA:          30.515
REMARK INTER:                  30.515
REMARK INTRA:                   0.000
REMARK UNBOUND:                 0.000
REMARK SMILES CC1(C)CC[C@]2(C)CC[C@]3(C)C(=CC[C@@H]4[C@]5(C)CC[C@@H](O)C(C)(C)[C@@H]5CC[C@]43C)[C@@H]2C1
REMARK SMILES IDX 1 1 2 2 4 3 5 4 6 5 8 6 9 7 10 8 12 9 13 10 14 11 15 12
REMARK SMILES IDX 28 13 27 14 26 15 25 16 16 17 18 18 19 19 20 20 22 21 23 22
REMARK SMILES IDX 24 23 17 24 29 25 30 26 31 27 11 28 7 29 3 30 21 31
REMARK H PARENT 21 32
REMARK Flexibility Score: inf
ROOT
ATOM      1  C   UNL     1     138.933 124.873 144.864  1.00  0.00     0.011 C 
ATOM      2  C   UNL     1     137.756 123.987 144.401  1.00  0.00    -0.035 C 
ATOM      3  C   UNL     1     138.302 122.624 143.877  1.00  0.00     0.007 C 
ATOM      4  C   UNL     1     138.632 122.678 142.376  1.00  0.00     0.008 C 
ATOM      5  C   UNL     1     137.366 122.951 141.491  1.00  0.00    -0.026 C 
ATOM      6  C   UNL     1     137.822 123.719 140.222  1.00  0.00     0.008 C 
ATOM      7  C   UNL     1     136.653 124.133 139.319  1.00  0.00     0.012 C 
ATOM      8  C   UNL     1     135.587 125.047 140.021  1.00  0.00    -0.006 C 
ATOM      9  C   UNL     1     135.240 124.461 141.409  1.00  0.00    -0.064 C 
ATOM     10  C   UNL     1     134.004 124.612 141.949  1.00  0.00    -0.027 C 
ATOM     11  C   UNL     1     132.788 125.084 141.198  1.00  0.00     0.032 C 
ATOM     12  C   UNL     1     133.141 125.933 139.958  1.00  0.00     0.006 C 
ATOM     13  C   UNL     1     134.246 125.175 139.122  1.00  0.00    -0.020 C 
ATOM     14  C   UNL     1     134.502 125.977 137.829  1.00  0.00     0.008 C 
ATOM     15  C   UNL     1     133.222 126.214 137.031  1.00  0.00     0.005 C 
ATOM     16  C   UNL     1     132.244 127.159 137.780  1.00  0.00     0.003 C 
ATOM     17  C   UNL     1     131.868 126.587 139.221  1.00  0.00    -0.025 C 
ATOM     18  C   UNL     1     130.675 125.579 139.124  1.00  0.00     0.010 C 
ATOM     19  C   UNL     1     129.492 126.063 138.280  1.00  0.00     0.033 C 
ATOM     20  C   UNL     1     129.922 126.459 136.868  1.00  0.00     0.120 C 
ATOM     21  C   UNL     1     131.003 127.582 136.869  1.00  0.00    -0.006 C 
ATOM     22  C   UNL     1     131.440 127.829 135.396  1.00  0.00     0.014 C 
ATOM     23  C   UNL     1     130.400 128.939 137.335  1.00  0.00     0.014 C 
ATOM     24  C   UNL     1     131.406 127.781 140.136  1.00  0.00     0.012 C 
ATOM     25  C   UNL     1     133.774 123.737 138.712  1.00  0.00     0.012 C 
ATOM     26  C   UNL     1     136.297 123.773 142.288  1.00  0.00     0.022 C 
ATOM     27  C   UNL     1     136.956 124.746 143.291  1.00  0.00     0.015 C 
ATOM     28  C   UNL     1     136.275 126.434 140.260  1.00  0.00     0.017 C 
ATOM     29  C   UNL     1     136.751 121.583 141.087  1.00  0.00     0.012 C 
ATOM     30  C   UNL     1     136.843 123.729 145.618  1.00  0.00     0.011 C 
ENDROOT
BRANCH  20  31
ATOM     31  O   UNL     1     128.780 126.861 136.155  1.00  0.00    -0.393 OA
ATOM     32  H   UNL     1     128.434 127.685 136.590  1.00  0.00     0.210 HD
ENDBRANCH  20  31
TORSDOF 1
ENDMDL
