MODEL 1
REMARK VINA RESULT:    -0.499      0.000      0.000
REMARK INTER + INTRA:          -1.323
REMARK INTER:                  -0.966
REMARK INTRA:                  -0.358
REMARK UNBOUND:                -0.358
REMARK SMILES CCCCCCCCCCCCCCCCCC(=O)[O-]
REMARK SMILES IDX 10 1 11 2 12 3 13 4 14 5 15 6 16 7 17 8 18 9 19 10 20 11
REMARK SMILES IDX 9 12 8 13 7 14 6 15 5 16 4 17 3 18 2 19 1 20
REMARK H PARENT
REMARK Flexibility Score: inf
ROOT
ATOM      1  C   UNL     1     142.508 173.213 177.738  1.00  0.00     0.000 C 
ENDROOT
BRANCH   1   2
ATOM      2  C   UNL     1     143.080 172.783 179.101  1.00  0.00     0.000 C 
BRANCH   2   3
ATOM      3  C   UNL     1     144.564 172.383 179.031  1.00  0.00     0.000 C 
BRANCH   3   4
ATOM      4  C   UNL     1     144.967 171.847 177.648  1.00  0.00     0.000 C 
BRANCH   4   5
ATOM      5  C   UNL     1     144.915 170.313 177.569  1.00  0.00     0.000 C 
BRANCH   5   6
ATOM      6  C   UNL     1     143.615 169.842 176.904  1.00  0.00     0.000 C 
BRANCH   6   7
ATOM      7  C   UNL     1     142.989 170.964 176.062  1.00  0.00     0.006 C 
BRANCH   7   8
ATOM      8  C   UNL     1     141.563 170.624 175.610  1.00  0.00     0.053 C 
BRANCH   8   9
ATOM      9  C   UNL     1     140.739 170.076 176.733  1.00  0.00     0.041 C 
ATOM     10  O   UNL     1     140.704 168.836 176.948  1.00  0.00    -0.550 OA
ATOM     11  O   UNL     1     140.037 170.938 177.568  1.00  0.00    -0.550 OA
ENDBRANCH   8   9
ENDBRANCH   7   8
ENDBRANCH   6   7
ENDBRANCH   5   6
ENDBRANCH   4   5
ENDBRANCH   3   4
ENDBRANCH   2   3
ENDBRANCH   1   2
BRANCH   1  12
ATOM     12  C   UNL     1     141.259 174.110 177.800  1.00  0.00     0.000 C 
BRANCH  12  13
ATOM     13  C   UNL     1     141.092 174.993 176.553  1.00  0.00    -0.000 C 
BRANCH  13  14
ATOM     14  C   UNL     1     141.777 174.403 175.306  1.00  0.00    -0.000 C 
BRANCH  14  15
ATOM     15  C   UNL     1     142.655 175.390 174.510  1.00  0.00    -0.000 C 
BRANCH  15  16
ATOM     16  C   UNL     1     142.799 175.078 173.007  1.00  0.00    -0.000 C 
BRANCH  16  17
ATOM     17  C   UNL     1     143.607 176.114 172.205  1.00  0.00    -0.000 C 
BRANCH  17  18
ATOM     18  C   UNL     1     145.119 175.851 172.243  1.00  0.00    -0.000 C 
BRANCH  18  19
ATOM     19  C   UNL     1     145.685 176.103 173.646  1.00  0.00    -0.003 C 
ATOM     20  C   UNL     1     147.210 176.061 173.640  1.00  0.00     0.004 C 
ENDBRANCH  18  19
ENDBRANCH  17  18
ENDBRANCH  16  17
ENDBRANCH  15  16
ENDBRANCH  14  15
ENDBRANCH  13  14
ENDBRANCH  12  13
ENDBRANCH   1  12
TORSDOF 16
ENDMDL
MODEL 2
REMARK VINA RESULT:     0.108      2.975      6.276
REMARK INTER + INTRA:          -0.149
REMARK INTER:                  -0.915
REMARK INTRA:                   0.766
REMARK UNBOUND:                -0.358
REMARK SMILES CCCCCCCCCCCCCCCCCC(=O)[O-]
REMARK SMILES IDX 10 1 11 2 12 3 13 4 14 5 15 6 16 7 17 8 18 9 19 10 20 11
REMARK SMILES IDX 9 12 8 13 7 14 6 15 5 16 4 17 3 18 2 19 1 20
REMARK H PARENT
REMARK Flexibility Score: inf
ROOT
ATOM      1  C   UNL     1     141.445 172.094 178.191  1.00  0.00     0.000 C 
ENDROOT
BRANCH   1   2
ATOM      2  C   UNL     1     141.537 173.564 177.742  1.00  0.00     0.000 C 
BRANCH   2   3
ATOM      3  C   UNL     1     142.222 173.734 176.376  1.00  0.00     0.000 C 
BRANCH   3   4
ATOM      4  C   UNL     1     141.683 174.941 175.592  1.00  0.00     0.000 C 
BRANCH   4   5
ATOM      5  C   UNL     1     141.823 174.771 174.071  1.00  0.00     0.000 C 
BRANCH   5   6
ATOM      6  C   UNL     1     142.570 175.959 173.453  1.00  0.00     0.000 C 
BRANCH   6   7
ATOM      7  C   UNL     1     142.614 175.845 171.921  1.00  0.00     0.006 C 
BRANCH   7   8
ATOM      8  C   UNL     1     144.024 175.531 171.403  1.00  0.00     0.053 C 
BRANCH   8   9
ATOM      9  C   UNL     1     145.080 175.924 172.389  1.00  0.00     0.041 C 
ATOM     10  O   UNL     1     146.263 176.122 172.007  1.00  0.00    -0.550 OA
ATOM     11  O   UNL     1     144.750 176.109 173.727  1.00  0.00    -0.550 OA
ENDBRANCH   8   9
ENDBRANCH   7   8
ENDBRANCH   6   7
ENDBRANCH   5   6
ENDBRANCH   4   5
ENDBRANCH   3   4
ENDBRANCH   2   3
ENDBRANCH   1   2
BRANCH   1  12
ATOM     12  C   UNL     1     140.241 171.309 177.638  1.00  0.00     0.000 C 
BRANCH  12  13
ATOM     13  C   UNL     1     140.652 170.046 176.865  1.00  0.00    -0.000 C 
BRANCH  13  14
ATOM     14  C   UNL     1     141.391 170.362 175.551  1.00  0.00    -0.000 C 
BRANCH  14  15
ATOM     15  C   UNL     1     142.912 170.573 175.687  1.00  0.00    -0.000 C 
BRANCH  15  16
ATOM     16  C   UNL     1     143.632 169.580 176.621  1.00  0.00    -0.000 C 
BRANCH  16  17
ATOM     17  C   UNL     1     144.635 170.221 177.598  1.00  0.00    -0.000 C 
BRANCH  17  18
ATOM     18  C   UNL     1     144.557 171.754 177.613  1.00  0.00    -0.000 C 
BRANCH  18  19
ATOM     19  C   UNL     1     144.919 172.308 178.996  1.00  0.00    -0.003 C 
ATOM     20  C   UNL     1     146.424 172.530 179.124  1.00  0.00     0.004 C 
ENDBRANCH  18  19
ENDBRANCH  17  18
ENDBRANCH  16  17
ENDBRANCH  15  16
ENDBRANCH  14  15
ENDBRANCH  13  14
ENDBRANCH  12  13
ENDBRANCH   1  12
TORSDOF 16
ENDMDL
MODEL 3
REMARK VINA RESULT:     0.115      1.297      2.402
REMARK INTER + INTRA:          -0.135
REMARK INTER:                   0.036
REMARK INTRA:                  -0.171
REMARK UNBOUND:                -0.358
REMARK SMILES CCCCCCCCCCCCCCCCCC(=O)[O-]
REMARK SMILES IDX 10 1 11 2 12 3 13 4 14 5 15 6 16 7 17 8 18 9 19 10 20 11
REMARK SMILES IDX 9 12 8 13 7 14 6 15 5 16 4 17 3 18 2 19 1 20
REMARK H PARENT
REMARK Flexibility Score: inf
ROOT
ATOM      1  C   UNL     1     142.637 172.740 179.103  1.00  0.00     0.000 C 
ENDROOT
BRANCH   1   2
ATOM      2  C   UNL     1     144.169 172.597 179.123  1.00  0.00     0.000 C 
BRANCH   2   3
ATOM      3  C   UNL     1     144.757 172.227 177.750  1.00  0.00     0.000 C 
BRANCH   3   4
ATOM      4  C   UNL     1     145.100 170.734 177.638  1.00  0.00     0.000 C 
BRANCH   4   5
ATOM      5  C   UNL     1     144.076 169.952 176.800  1.00  0.00     0.000 C 
BRANCH   5   6
ATOM      6  C   UNL     1     142.962 170.875 176.294  1.00  0.00     0.000 C 
BRANCH   6   7
ATOM      7  C   UNL     1     142.058 170.147 175.286  1.00  0.00     0.006 C 
BRANCH   7   8
ATOM      8  C   UNL     1     140.569 170.418 175.540  1.00  0.00     0.053 C 
BRANCH   8   9
ATOM      9  C   UNL     1     140.207 170.230 176.980  1.00  0.00     0.041 C 
ATOM     10  O   UNL     1     140.388 169.116 177.539  1.00  0.00    -0.550 OA
ATOM     11  O   UNL     1     139.702 171.295 177.717  1.00  0.00    -0.550 OA
ENDBRANCH   8   9
ENDBRANCH   7   8
ENDBRANCH   6   7
ENDBRANCH   5   6
ENDBRANCH   4   5
ENDBRANCH   3   4
ENDBRANCH   2   3
ENDBRANCH   1   2
BRANCH   1  12
ATOM     12  C   UNL     1     142.089 173.844 178.180  1.00  0.00     0.000 C 
BRANCH  12  13
ATOM     13  C   UNL     1     142.104 173.445 176.695  1.00  0.00    -0.000 C 
BRANCH  13  14
ATOM     14  C   UNL     1     141.671 174.592 175.763  1.00  0.00    -0.000 C 
BRANCH  14  15
ATOM     15  C   UNL     1     142.167 174.478 174.307  1.00  0.00    -0.000 C 
BRANCH  15  16
ATOM     16  C   UNL     1     143.260 175.487 173.904  1.00  0.00    -0.000 C 
BRANCH  16  17
ATOM     17  C   UNL     1     143.312 175.820 172.402  1.00  0.00    -0.000 C 
BRANCH  17  18
ATOM     18  C   UNL     1     141.939 175.730 171.722  1.00  0.00    -0.000 C 
BRANCH  18  19
ATOM     19  C   UNL     1     142.066 175.892 170.203  1.00  0.00    -0.003 C 
ATOM     20  C   UNL     1     140.703 176.125 169.558  1.00  0.00     0.004 C 
ENDBRANCH  18  19
ENDBRANCH  17  18
ENDBRANCH  16  17
ENDBRANCH  15  16
ENDBRANCH  14  15
ENDBRANCH  13  14
ENDBRANCH  12  13
ENDBRANCH   1  12
TORSDOF 16
ENDMDL
MODEL 4
REMARK VINA RESULT:     0.497      4.264      7.574
REMARK INTER + INTRA:           0.605
REMARK INTER:                   1.925
REMARK INTRA:                  -1.320
REMARK UNBOUND:                -0.358
REMARK SMILES CCCCCCCCCCCCCCCCCC(=O)[O-]
REMARK SMILES IDX 10 1 11 2 12 3 13 4 14 5 15 6 16 7 17 8 18 9 19 10 20 11
REMARK SMILES IDX 9 12 8 13 7 14 6 15 5 16 4 17 3 18 2 19 1 20
REMARK H PARENT
REMARK Flexibility Score: inf
ROOT
ATOM      1  C   UNL     1     142.154 174.284 173.910  1.00  0.00     0.000 C 
ENDROOT
BRANCH   1   2
ATOM      2  C   UNL     1     142.436 175.669 173.302  1.00  0.00     0.000 C 
BRANCH   2   3
ATOM      3  C   UNL     1     143.754 175.720 172.509  1.00  0.00     0.000 C 
BRANCH   3   4
ATOM      4  C   UNL     1     143.533 176.006 171.015  1.00  0.00     0.000 C 
BRANCH   4   5
ATOM      5  C   UNL     1     142.069 175.822 170.586  1.00  0.00     0.000 C 
BRANCH   5   6
ATOM      6  C   UNL     1     141.928 174.654 169.603  1.00  0.00     0.000 C 
BRANCH   6   7
ATOM      7  C   UNL     1     143.302 174.204 169.082  1.00  0.00     0.006 C 
BRANCH   7   8
ATOM      8  C   UNL     1     143.279 172.763 168.555  1.00  0.00     0.053 C 
BRANCH   8   9
ATOM      9  C   UNL     1     144.244 172.567 167.427  1.00  0.00     0.041 C 
ATOM     10  O   UNL     1     145.382 172.073 167.644  1.00  0.00    -0.550 OA
ATOM     11  O   UNL     1     143.874 172.896 166.128  1.00  0.00    -0.550 OA
ENDBRANCH   8   9
ENDBRANCH   7   8
ENDBRANCH   6   7
ENDBRANCH   5   6
ENDBRANCH   4   5
ENDBRANCH   3   4
ENDBRANCH   2   3
ENDBRANCH   1   2
BRANCH   1  12
ATOM     12  C   UNL     1     141.361 174.293 175.231  1.00  0.00     0.000 C 
BRANCH  12  13
ATOM     13  C   UNL     1     142.262 174.433 176.469  1.00  0.00    -0.000 C 
BRANCH  13  14
ATOM     14  C   UNL     1     141.634 173.823 177.737  1.00  0.00    -0.000 C 
BRANCH  14  15
ATOM     15  C   UNL     1     142.480 172.736 178.430  1.00  0.00    -0.000 C 
BRANCH  15  16
ATOM     16  C   UNL     1     143.622 172.148 177.578  1.00  0.00    -0.000 C 
BRANCH  16  17
ATOM     17  C   UNL     1     143.311 170.788 176.927  1.00  0.00    -0.000 C 
BRANCH  17  18
ATOM     18  C   UNL     1     142.364 170.905 175.725  1.00  0.00    -0.000 C 
BRANCH  18  19
ATOM     19  C   UNL     1     141.090 170.082 175.947  1.00  0.00    -0.003 C 
ATOM     20  C   UNL     1     140.320 170.576 177.169  1.00  0.00     0.004 C 
ENDBRANCH  18  19
ENDBRANCH  17  18
ENDBRANCH  16  17
ENDBRANCH  15  16
ENDBRANCH  14  15
ENDBRANCH  13  14
ENDBRANCH  12  13
ENDBRANCH   1  12
TORSDOF 16
ENDMDL
MODEL 5
REMARK VINA RESULT:     0.674      3.130      6.722
REMARK INTER + INTRA:           0.948
REMARK INTER:                   1.166
REMARK INTRA:                  -0.218
REMARK UNBOUND:                -0.358
REMARK SMILES CCCCCCCCCCCCCCCCCC(=O)[O-]
REMARK SMILES IDX 10 1 11 2 12 3 13 4 14 5 15 6 16 7 17 8 18 9 19 10 20 11
REMARK SMILES IDX 9 12 8 13 7 14 6 15 5 16 4 17 3 18 2 19 1 20
REMARK H PARENT
REMARK Flexibility Score: inf
ROOT
ATOM      1  C   UNL     1     141.363 173.522 177.555  1.00  0.00     0.000 C 
ENDROOT
BRANCH   1   2
ATOM      2  C   UNL     1     141.648 174.443 176.355  1.00  0.00     0.000 C 
BRANCH   2   3
ATOM      3  C   UNL     1     142.104 173.675 175.103  1.00  0.00     0.000 C 
BRANCH   3   4
ATOM      4  C   UNL     1     142.004 174.520 173.823  1.00  0.00     0.000 C 
BRANCH   4   5
ATOM      5  C   UNL     1     142.966 175.719 173.827  1.00  0.00     0.000 C 
BRANCH   5   6
ATOM      6  C   UNL     1     143.797 175.759 172.539  1.00  0.00     0.000 C 
BRANCH   6   7
ATOM      7  C   UNL     1     142.999 175.199 171.351  1.00  0.00     0.006 C 
BRANCH   7   8
ATOM      8  C   UNL     1     141.845 176.122 170.939  1.00  0.00     0.053 C 
BRANCH   8   9
ATOM      9  C   UNL     1     140.901 175.445 169.994  1.00  0.00     0.041 C 
ATOM     10  O   UNL     1     140.081 176.125 169.322  1.00  0.00    -0.550 OA
ATOM     11  O   UNL     1     140.950 174.067 169.828  1.00  0.00    -0.550 OA
ENDBRANCH   8   9
ENDBRANCH   7   8
ENDBRANCH   6   7
ENDBRANCH   5   6
ENDBRANCH   4   5
ENDBRANCH   3   4
ENDBRANCH   2   3
ENDBRANCH   1   2
BRANCH   1  12
ATOM     12  C   UNL     1     142.592 173.142 178.402  1.00  0.00     0.000 C 
BRANCH  12  13
ATOM     13  C   UNL     1     143.843 172.865 177.552  1.00  0.00    -0.000 C 
BRANCH  13  14
ATOM     14  C   UNL     1     144.639 171.640 178.040  1.00  0.00    -0.000 C 
BRANCH  14  15
ATOM     15  C   UNL     1     144.631 170.429 177.085  1.00  0.00    -0.000 C 
BRANCH  15  16
ATOM     16  C   UNL     1     143.241 169.829 176.796  1.00  0.00    -0.000 C 
BRANCH  16  17
ATOM     17  C   UNL     1     142.611 170.266 175.461  1.00  0.00    -0.000 C 
BRANCH  17  18
ATOM     18  C   UNL     1     141.101 170.519 175.568  1.00  0.00    -0.000 C 
BRANCH  18  19
ATOM     19  C   UNL     1     140.536 169.927 176.865  1.00  0.00    -0.003 C 
ATOM     20  C   UNL     1     140.129 171.027 177.841  1.00  0.00     0.004 C 
ENDBRANCH  18  19
ENDBRANCH  17  18
ENDBRANCH  16  17
ENDBRANCH  15  16
ENDBRANCH  14  15
ENDBRANCH  13  14
ENDBRANCH  12  13
ENDBRANCH   1  12
TORSDOF 16
ENDMDL
MODEL 6
REMARK VINA RESULT:     0.896      2.447      3.933
REMARK INTER + INTRA:           1.377
REMARK INTER:                   2.777
REMARK INTRA:                  -1.400
REMARK UNBOUND:                -0.358
REMARK SMILES CCCCCCCCCCCCCCCCCC(=O)[O-]
REMARK SMILES IDX 10 1 11 2 12 3 13 4 14 5 15 6 16 7 17 8 18 9 19 10 20 11
REMARK SMILES IDX 9 12 8 13 7 14 6 15 5 16 4 17 3 18 2 19 1 20
REMARK H PARENT
REMARK Flexibility Score: inf
ROOT
ATOM      1  C   UNL     1     141.925 174.181 174.301  1.00  0.00     0.000 C 
ENDROOT
BRANCH   1   2
ATOM      2  C   UNL     1     141.228 174.204 175.673  1.00  0.00     0.000 C 
BRANCH   2   3
ATOM      3  C   UNL     1     142.218 174.265 176.849  1.00  0.00     0.000 C 
BRANCH   3   4
ATOM      4  C   UNL     1     141.727 173.478 178.075  1.00  0.00     0.000 C 
BRANCH   4   5
ATOM      5  C   UNL     1     142.840 172.642 178.727  1.00  0.00     0.000 C 
BRANCH   5   6
ATOM      6  C   UNL     1     143.846 172.154 177.677  1.00  0.00     0.000 C 
BRANCH   6   7
ATOM      7  C   UNL     1     143.491 170.742 177.188  1.00  0.00     0.006 C 
BRANCH   7   8
ATOM      8  C   UNL     1     142.755 170.761 175.841  1.00  0.00     0.053 C 
BRANCH   8   9
ATOM      9  C   UNL     1     141.288 170.514 176.004  1.00  0.00     0.041 C 
ATOM     10  O   UNL     1     140.572 170.258 175.000  1.00  0.00    -0.550 OA
ATOM     11  O   UNL     1     140.715 170.530 177.270  1.00  0.00    -0.550 OA
ENDBRANCH   8   9
ENDBRANCH   7   8
ENDBRANCH   6   7
ENDBRANCH   5   6
ENDBRANCH   4   5
ENDBRANCH   3   4
ENDBRANCH   2   3
ENDBRANCH   1   2
BRANCH   1  12
ATOM     12  C   UNL     1     143.045 175.221 174.112  1.00  0.00     0.000 C 
BRANCH  12  13
ATOM     13  C   UNL     1     142.823 176.125 172.888  1.00  0.00    -0.000 C 
BRANCH  13  14
ATOM     14  C   UNL     1     143.912 175.953 171.812  1.00  0.00    -0.000 C 
BRANCH  14  15
ATOM     15  C   UNL     1     143.430 176.123 170.357  1.00  0.00    -0.000 C 
BRANCH  15  16
ATOM     16  C   UNL     1     141.953 175.758 170.107  1.00  0.00    -0.000 C 
BRANCH  16  17
ATOM     17  C   UNL     1     141.714 174.310 169.642  1.00  0.00    -0.000 C 
BRANCH  17  18
ATOM     18  C   UNL     1     142.502 173.952 168.374  1.00  0.00    -0.000 C 
BRANCH  18  19
ATOM     19  C   UNL     1     143.517 172.838 168.655  1.00  0.00    -0.003 C 
ATOM     20  C   UNL     1     144.185 172.364 167.367  1.00  0.00     0.004 C 
ENDBRANCH  18  19
ENDBRANCH  17  18
ENDBRANCH  16  17
ENDBRANCH  15  16
ENDBRANCH  14  15
ENDBRANCH  13  14
ENDBRANCH  12  13
ENDBRANCH   1  12
TORSDOF 16
ENDMDL
