MODEL 1
REMARK VINA RESULT:    -8.251      0.000      0.000
REMARK INTER + INTRA:         -10.268
REMARK INTER:                  -9.940
REMARK INTRA:                  -0.328
REMARK UNBOUND:                -0.328
REMARK SMILES O=c1c(O)c(-c2ccc(O)c(O)c2)oc2cc(O)cc(O)c12
REMARK SMILES IDX 5 1 3 2 2 3 1 4 22 5 20 6 19 7 17 8 16 9 15 10 14 11 6 12
REMARK SMILES IDX 7 13 8 14 9 15 13 16 11 17 10 18 12 20 4 22 21 24 18 26
REMARK H PARENT 10 19 12 21 4 23 21 25 18 27
REMARK Flexibility Score: inf
ROOT
ATOM      1  C   UNL     1      24.118  23.804  34.656  1.00  0.00     0.180 A 
ATOM      2  C   UNL     1      22.729  23.969  34.496  1.00  0.00     0.208 A 
ATOM      3  C   UNL     1      22.233  25.230  34.133  1.00  0.00     0.238 A 
ATOM      4  O   UNL     1      20.992  25.387  33.977  1.00  0.00    -0.285 OA
ATOM      5  C   UNL     1      23.127  26.307  33.954  1.00  0.00     0.111 A 
ATOM      6  C   UNL     1      22.708  27.610  33.592  1.00  0.00     0.134 A 
ATOM      7  C   UNL     1      23.659  28.629  33.444  1.00  0.00     0.093 A 
ATOM      8  C   UNL     1      25.016  28.374  33.650  1.00  0.00     0.123 A 
ATOM      9  C   UNL     1      25.436  27.088  34.007  1.00  0.00     0.094 A 
ATOM     10  C   UNL     1      24.504  26.058  34.159  1.00  0.00     0.146 A 
ATOM     11  O   UNL     1      24.930  24.846  34.494  1.00  0.00    -0.452 OA
ENDROOT
BRANCH   1  12
ATOM     12  C   UNL     1      24.719  22.501  35.019  1.00  0.00     0.025 A 
ATOM     13  C   UNL     1      24.896  22.176  36.374  1.00  0.00     0.016 A 
ATOM     14  C   UNL     1      25.479  20.960  36.739  1.00  0.00     0.051 A 
ATOM     15  C   UNL     1      25.911  20.059  35.758  1.00  0.00     0.157 A 
ATOM     16  C   UNL     1      25.173  21.603  34.036  1.00  0.00     0.062 A 
ATOM     17  C   UNL     1      25.761  20.385  34.400  1.00  0.00     0.158 A 
BRANCH  15  18
ATOM     18  O   UNL     1      26.491  18.847  36.125  1.00  0.00    -0.504 OA
ATOM     19  H   UNL     1      27.339  18.810  36.679  1.00  0.00     0.293 HD
ENDBRANCH  15  18
BRANCH  17  20
ATOM     20  O   UNL     1      26.193  19.517  33.398  1.00  0.00    -0.504 OA
ATOM     21  H   UNL     1      26.948  19.757  32.766  1.00  0.00     0.293 HD
ENDBRANCH  17  20
ENDBRANCH   1  12
BRANCH   2  22
ATOM     22  O   UNL     1      21.860  22.899  34.727  1.00  0.00    -0.502 OA
ATOM     23  H   UNL     1      21.259  22.854  35.540  1.00  0.00     0.293 HD
ENDBRANCH   2  22
BRANCH   6  24
ATOM     24  O   UNL     1      21.359  27.897  33.381  1.00  0.00    -0.507 OA
ATOM     25  H   UNL     1      21.057  28.782  32.989  1.00  0.00     0.293 HD
ENDBRANCH   6  24
BRANCH   8  26
ATOM     26  O   UNL     1      25.941  29.405  33.496  1.00  0.00    -0.508 OA
ATOM     27  H   UNL     1      26.534  29.467  32.677  1.00  0.00     0.293 HD
ENDBRANCH   8  26
TORSDOF 6
ENDMDL
MODEL 2
REMARK VINA RESULT:    -7.926      2.463      6.882
REMARK INTER + INTRA:          -9.876
REMARK INTER:                 -10.035
REMARK INTRA:                   0.160
REMARK UNBOUND:                -0.328
REMARK SMILES O=c1c(O)c(-c2ccc(O)c(O)c2)oc2cc(O)cc(O)c12
REMARK SMILES IDX 5 1 3 2 2 3 1 4 22 5 20 6 19 7 17 8 16 9 15 10 14 11 6 12
REMARK SMILES IDX 7 13 8 14 9 15 13 16 11 17 10 18 12 20 4 22 21 24 18 26
REMARK H PARENT 10 19 12 21 4 23 21 25 18 27
REMARK Flexibility Score: inf
ROOT
ATOM      1  C   UNL     1      25.459  24.406  33.517  1.00  0.00     0.180 A 
ATOM      2  C   UNL     1      24.963  23.236  34.123  1.00  0.00     0.208 A 
ATOM      3  C   UNL     1      25.733  22.064  34.066  1.00  0.00     0.238 A 
ATOM      4  O   UNL     1      25.304  21.013  34.615  1.00  0.00    -0.285 OA
ATOM      5  C   UNL     1      26.971  22.075  33.392  1.00  0.00     0.111 A 
ATOM      6  C   UNL     1      27.806  20.936  33.285  1.00  0.00     0.134 A 
ATOM      7  C   UNL     1      29.019  21.026  32.589  1.00  0.00     0.093 A 
ATOM      8  C   UNL     1      29.414  22.228  31.997  1.00  0.00     0.123 A 
ATOM      9  C   UNL     1      28.594  23.357  32.099  1.00  0.00     0.094 A 
ATOM     10  C   UNL     1      27.382  23.288  32.790  1.00  0.00     0.146 A 
ATOM     11  O   UNL     1      26.624  24.375  32.876  1.00  0.00    -0.452 OA
ENDROOT
BRANCH   1  12
ATOM     12  C   UNL     1      24.714  25.685  33.550  1.00  0.00     0.025 A 
ATOM     13  C   UNL     1      23.327  25.683  33.330  1.00  0.00     0.016 A 
ATOM     14  C   UNL     1      22.608  26.881  33.337  1.00  0.00     0.051 A 
ATOM     15  C   UNL     1      23.265  28.100  33.546  1.00  0.00     0.157 A 
ATOM     16  C   UNL     1      25.375  26.913  33.738  1.00  0.00     0.062 A 
ATOM     17  C   UNL     1      24.656  28.115  33.742  1.00  0.00     0.158 A 
BRANCH  15  18
ATOM     18  O   UNL     1      22.545  29.292  33.553  1.00  0.00    -0.504 OA
ATOM     19  H   UNL     1      22.197  29.697  34.415  1.00  0.00     0.293 HD
ENDBRANCH  15  18
BRANCH  17  20
ATOM     20  O   UNL     1      25.343  29.313  33.939  1.00  0.00    -0.504 OA
ATOM     21  H   UNL     1      25.598  29.642  34.862  1.00  0.00     0.293 HD
ENDBRANCH  17  20
ENDBRANCH   1  12
BRANCH   2  22
ATOM     22  O   UNL     1      23.710  23.238  34.743  1.00  0.00    -0.502 OA
ATOM     23  H   UNL     1      23.525  23.762  35.589  1.00  0.00     0.293 HD
ENDBRANCH   2  22
BRANCH   6  24
ATOM     24  O   UNL     1      27.439  19.721  33.865  1.00  0.00    -0.507 OA
ATOM     25  H   UNL     1      27.691  18.833  33.446  1.00  0.00     0.293 HD
ENDBRANCH   6  24
BRANCH   8  26
ATOM     26  O   UNL     1      30.625  22.290  31.310  1.00  0.00    -0.508 OA
ATOM     27  H   UNL     1      30.736  21.873  30.393  1.00  0.00     0.293 HD
ENDBRANCH   8  26
TORSDOF 6
ENDMDL
MODEL 3
REMARK VINA RESULT:    -7.895      2.168      7.441
REMARK INTER + INTRA:          -9.839
REMARK INTER:                  -9.752
REMARK INTRA:                  -0.087
REMARK UNBOUND:                -0.328
REMARK SMILES O=c1c(O)c(-c2ccc(O)c(O)c2)oc2cc(O)cc(O)c12
REMARK SMILES IDX 5 1 3 2 2 3 1 4 22 5 20 6 19 7 17 8 16 9 15 10 14 11 6 12
REMARK SMILES IDX 7 13 8 14 9 15 13 16 11 17 10 18 12 20 4 22 21 24 18 26
REMARK H PARENT 10 19 12 21 4 23 21 25 18 27
REMARK Flexibility Score: inf
ROOT
ATOM      1  C   UNL     1      25.960  24.423  33.482  1.00  0.00     0.180 A 
ATOM      2  C   UNL     1      27.048  24.285  32.598  1.00  0.00     0.208 A 
ATOM      3  C   UNL     1      27.764  23.079  32.588  1.00  0.00     0.238 A 
ATOM      4  O   UNL     1      28.733  22.940  31.793  1.00  0.00    -0.285 OA
ATOM      5  C   UNL     1      27.397  22.042  33.470  1.00  0.00     0.111 A 
ATOM      6  C   UNL     1      28.070  20.797  33.526  1.00  0.00     0.134 A 
ATOM      7  C   UNL     1      27.649  19.820  34.438  1.00  0.00     0.093 A 
ATOM      8  C   UNL     1      26.574  20.060  35.296  1.00  0.00     0.123 A 
ATOM      9  C   UNL     1      25.905  21.288  35.245  1.00  0.00     0.094 A 
ATOM     10  C   UNL     1      26.307  22.275  34.342  1.00  0.00     0.146 A 
ATOM     11  O   UNL     1      25.652  23.429  34.311  1.00  0.00    -0.452 OA
ENDROOT
BRANCH   1  12
ATOM     12  C   UNL     1      25.144  25.657  33.539  1.00  0.00     0.025 A 
ATOM     13  C   UNL     1      23.772  25.592  33.248  1.00  0.00     0.016 A 
ATOM     14  C   UNL     1      22.987  26.747  33.276  1.00  0.00     0.051 A 
ATOM     15  C   UNL     1      23.563  27.988  33.577  1.00  0.00     0.157 A 
ATOM     16  C   UNL     1      25.725  26.908  33.820  1.00  0.00     0.062 A 
ATOM     17  C   UNL     1      24.940  28.068  33.846  1.00  0.00     0.158 A 
BRANCH  15  18
ATOM     18  O   UNL     1      22.778  29.138  33.605  1.00  0.00    -0.504 OA
ATOM     19  H   UNL     1      21.954  29.203  34.191  1.00  0.00     0.293 HD
ENDBRANCH  15  18
BRANCH  17  20
ATOM     20  O   UNL     1      25.549  29.289  34.135  1.00  0.00    -0.504 OA
ATOM     21  H   UNL     1      26.475  29.346  34.540  1.00  0.00     0.293 HD
ENDBRANCH  17  20
ENDBRANCH   1  12
BRANCH   2  22
ATOM     22  O   UNL     1      27.422  25.346  31.769  1.00  0.00    -0.502 OA
ATOM     23  H   UNL     1      26.880  26.198  31.700  1.00  0.00     0.293 HD
ENDBRANCH   2  22
BRANCH   6  24
ATOM     24  O   UNL     1      29.149  20.527  32.683  1.00  0.00    -0.507 OA
ATOM     25  H   UNL     1      29.541  21.235  32.074  1.00  0.00     0.293 HD
ENDBRANCH   6  24
BRANCH   8  26
ATOM     26  O   UNL     1      26.176  19.072  36.194  1.00  0.00    -0.508 OA
ATOM     27  H   UNL     1      26.788  18.754  36.937  1.00  0.00     0.293 HD
ENDBRANCH   8  26
TORSDOF 6
ENDMDL
MODEL 4
REMARK VINA RESULT:    -7.881      3.225      5.597
REMARK INTER + INTRA:          -9.821
REMARK INTER:                  -9.673
REMARK INTRA:                  -0.148
REMARK UNBOUND:                -0.328
REMARK SMILES O=c1c(O)c(-c2ccc(O)c(O)c2)oc2cc(O)cc(O)c12
REMARK SMILES IDX 5 1 3 2 2 3 1 4 22 5 20 6 19 7 17 8 16 9 15 10 14 11 6 12
REMARK SMILES IDX 7 13 8 14 9 15 13 16 11 17 10 18 12 20 4 22 21 24 18 26
REMARK H PARENT 10 19 12 21 4 23 21 25 18 27
REMARK Flexibility Score: inf
ROOT
ATOM      1  C   UNL     1      26.273  25.055  32.884  1.00  0.00     0.180 A 
ATOM      2  C   UNL     1      26.015  23.784  33.431  1.00  0.00     0.208 A 
ATOM      3  C   UNL     1      24.724  23.497  33.900  1.00  0.00     0.238 A 
ATOM      4  O   UNL     1      24.478  22.358  34.382  1.00  0.00    -0.285 OA
ATOM      5  C   UNL     1      23.721  24.486  33.833  1.00  0.00     0.111 A 
ATOM      6  C   UNL     1      22.396  24.279  34.287  1.00  0.00     0.134 A 
ATOM      7  C   UNL     1      21.459  25.318  34.194  1.00  0.00     0.093 A 
ATOM      8  C   UNL     1      21.818  26.556  33.659  1.00  0.00     0.123 A 
ATOM      9  C   UNL     1      23.126  26.767  33.208  1.00  0.00     0.094 A 
ATOM     10  C   UNL     1      24.074  25.745  33.291  1.00  0.00     0.146 A 
ATOM     11  O   UNL     1      25.307  25.969  32.851  1.00  0.00    -0.452 OA
ENDROOT
BRANCH   1  12
ATOM     12  C   UNL     1      27.604  25.428  32.352  1.00  0.00     0.025 A 
ATOM     13  C   UNL     1      28.128  24.727  31.254  1.00  0.00     0.016 A 
ATOM     14  C   UNL     1      29.391  25.048  30.748  1.00  0.00     0.051 A 
ATOM     15  C   UNL     1      30.155  26.060  31.343  1.00  0.00     0.157 A 
ATOM     16  C   UNL     1      28.382  26.429  32.960  1.00  0.00     0.062 A 
ATOM     17  C   UNL     1      29.649  26.751  32.457  1.00  0.00     0.158 A 
BRANCH  15  18
ATOM     18  O   UNL     1      31.413  26.379  30.835  1.00  0.00    -0.504 OA
ATOM     19  H   UNL     1      32.191  25.733  30.900  1.00  0.00     0.293 HD
ENDBRANCH  15  18
BRANCH  17  20
ATOM     20  O   UNL     1      30.390  27.754  33.081  1.00  0.00    -0.504 OA
ATOM     21  H   UNL     1      30.928  28.432  32.555  1.00  0.00     0.293 HD
ENDBRANCH  17  20
ENDBRANCH   1  12
BRANCH   2  22
ATOM     22  O   UNL     1      27.038  22.837  33.531  1.00  0.00    -0.502 OA
ATOM     23  H   UNL     1      27.775  22.760  32.842  1.00  0.00     0.293 HD
ENDBRANCH   2  22
BRANCH   6  24
ATOM     24  O   UNL     1      22.006  23.053  34.828  1.00  0.00    -0.507 OA
ATOM     25  H   UNL     1      21.041  22.744  34.808  1.00  0.00     0.293 HD
ENDBRANCH   6  24
BRANCH   8  26
ATOM     26  O   UNL     1      20.868  27.572  33.579  1.00  0.00    -0.508 OA
ATOM     27  H   UNL     1      20.220  27.752  34.337  1.00  0.00     0.293 HD
ENDBRANCH   8  26
TORSDOF 6
ENDMDL
MODEL 5
REMARK VINA RESULT:    -7.724      1.418      6.713
REMARK INTER + INTRA:          -9.633
REMARK INTER:                  -9.799
REMARK INTRA:                   0.166
REMARK UNBOUND:                -0.328
REMARK SMILES O=c1c(O)c(-c2ccc(O)c(O)c2)oc2cc(O)cc(O)c12
REMARK SMILES IDX 5 1 3 2 2 3 1 4 22 5 20 6 19 7 17 8 16 9 15 10 14 11 6 12
REMARK SMILES IDX 7 13 8 14 9 15 13 16 11 17 10 18 12 20 4 22 21 24 18 26
REMARK H PARENT 10 19 12 21 4 23 21 25 18 27
REMARK Flexibility Score: inf
ROOT
ATOM      1  C   UNL     1      23.868  24.078  34.367  1.00  0.00     0.180 A 
ATOM      2  C   UNL     1      23.215  23.154  35.205  1.00  0.00     0.208 A 
ATOM      3  C   UNL     1      23.805  21.899  35.420  1.00  0.00     0.238 A 
ATOM      4  O   UNL     1      23.236  21.067  36.177  1.00  0.00    -0.285 OA
ATOM      5  C   UNL     1      25.022  21.582  34.781  1.00  0.00     0.111 A 
ATOM      6  C   UNL     1      25.680  20.339  34.941  1.00  0.00     0.134 A 
ATOM      7  C   UNL     1      26.884  20.097  34.263  1.00  0.00     0.093 A 
ATOM      8  C   UNL     1      27.440  21.069  33.430  1.00  0.00     0.123 A 
ATOM      9  C   UNL     1      26.795  22.300  33.269  1.00  0.00     0.094 A 
ATOM     10  C   UNL     1      25.596  22.561  33.936  1.00  0.00     0.146 A 
ATOM     11  O   UNL     1      25.006  23.739  33.769  1.00  0.00    -0.452 OA
ENDROOT
BRANCH   1  12
ATOM     12  C   UNL     1      23.318  25.428  34.107  1.00  0.00     0.025 A 
ATOM     13  C   UNL     1      21.940  25.581  33.883  1.00  0.00     0.016 A 
ATOM     14  C   UNL     1      21.403  26.843  33.615  1.00  0.00     0.051 A 
ATOM     15  C   UNL     1      22.236  27.968  33.549  1.00  0.00     0.157 A 
ATOM     16  C   UNL     1      24.155  26.556  34.019  1.00  0.00     0.062 A 
ATOM     17  C   UNL     1      23.619  27.821  33.748  1.00  0.00     0.158 A 
BRANCH  15  18
ATOM     18  O   UNL     1      21.698  29.225  33.284  1.00  0.00    -0.504 OA
ATOM     19  H   UNL     1      20.846  29.334  32.745  1.00  0.00     0.293 HD
ENDBRANCH  15  18
BRANCH  17  20
ATOM     20  O   UNL     1      24.478  28.917  33.675  1.00  0.00    -0.504 OA
ATOM     21  H   UNL     1      25.469  28.814  33.492  1.00  0.00     0.293 HD
ENDBRANCH  17  20
ENDBRANCH   1  12
BRANCH   2  22
ATOM     22  O   UNL     1      21.986  23.474  35.787  1.00  0.00    -0.502 OA
ATOM     23  H   UNL     1      21.361  24.164  35.390  1.00  0.00     0.293 HD
ENDBRANCH   2  22
BRANCH   6  24
ATOM     24  O   UNL     1      25.149  19.346  35.765  1.00  0.00    -0.507 OA
ATOM     25  H   UNL     1      24.187  19.037  35.677  1.00  0.00     0.293 HD
ENDBRANCH   6  24
BRANCH   8  26
ATOM     26  O   UNL     1      28.637  20.803  32.768  1.00  0.00    -0.508 OA
ATOM     27  H   UNL     1      28.661  20.252  31.918  1.00  0.00     0.293 HD
ENDBRANCH   8  26
TORSDOF 6
ENDMDL
MODEL 6
REMARK VINA RESULT:    -7.712      2.494      4.027
REMARK INTER + INTRA:          -9.619
REMARK INTER:                  -9.692
REMARK INTRA:                   0.073
REMARK UNBOUND:                -0.328
REMARK SMILES O=c1c(O)c(-c2ccc(O)c(O)c2)oc2cc(O)cc(O)c12
REMARK SMILES IDX 5 1 3 2 2 3 1 4 22 5 20 6 19 7 17 8 16 9 15 10 14 11 6 12
REMARK SMILES IDX 7 13 8 14 9 15 13 16 11 17 10 18 12 20 4 22 21 24 18 26
REMARK H PARENT 10 19 12 21 4 23 21 25 18 27
REMARK Flexibility Score: inf
ROOT
ATOM      1  C   UNL     1      25.885  24.866  33.259  1.00  0.00     0.180 A 
ATOM      2  C   UNL     1      26.320  26.204  33.305  1.00  0.00     0.208 A 
ATOM      3  C   UNL     1      25.368  27.221  33.470  1.00  0.00     0.238 A 
ATOM      4  O   UNL     1      25.747  28.423  33.523  1.00  0.00    -0.285 OA
ATOM      5  C   UNL     1      24.001  26.889  33.567  1.00  0.00     0.111 A 
ATOM      6  C   UNL     1      22.978  27.854  33.730  1.00  0.00     0.134 A 
ATOM      7  C   UNL     1      21.640  27.442  33.809  1.00  0.00     0.093 A 
ATOM      8  C   UNL     1      21.304  26.090  33.726  1.00  0.00     0.123 A 
ATOM      9  C   UNL     1      22.310  25.131  33.565  1.00  0.00     0.094 A 
ATOM     10  C   UNL     1      23.650  25.520  33.486  1.00  0.00     0.146 A 
ATOM     11  O   UNL     1      24.586  24.590  33.338  1.00  0.00    -0.452 OA
ENDROOT
BRANCH   1  12
ATOM     12  C   UNL     1      26.830  23.736  33.106  1.00  0.00     0.025 A 
ATOM     13  C   UNL     1      26.731  22.632  33.968  1.00  0.00     0.016 A 
ATOM     14  C   UNL     1      27.625  21.564  33.854  1.00  0.00     0.051 A 
ATOM     15  C   UNL     1      28.641  21.591  32.891  1.00  0.00     0.157 A 
ATOM     16  C   UNL     1      27.864  23.770  32.153  1.00  0.00     0.062 A 
ATOM     17  C   UNL     1      28.763  22.702  32.040  1.00  0.00     0.158 A 
BRANCH  15  18
ATOM     18  O   UNL     1      29.530  20.524  32.779  1.00  0.00    -0.504 OA
ATOM     19  H   UNL     1      29.250  19.575  32.998  1.00  0.00     0.293 HD
ENDBRANCH  15  18
BRANCH  17  20
ATOM     20  O   UNL     1      29.772  22.767  31.079  1.00  0.00    -0.504 OA
ATOM     21  H   UNL     1      29.570  22.798  30.087  1.00  0.00     0.293 HD
ENDBRANCH  17  20
ENDBRANCH   1  12
BRANCH   2  22
ATOM     22  O   UNL     1      27.675  26.511  33.158  1.00  0.00    -0.502 OA
ATOM     23  H   UNL     1      28.039  27.444  33.303  1.00  0.00     0.293 HD
ENDBRANCH   2  22
BRANCH   6  24
ATOM     24  O   UNL     1      23.281  29.213  33.815  1.00  0.00    -0.507 OA
ATOM     25  H   UNL     1      23.301  29.808  32.994  1.00  0.00     0.293 HD
ENDBRANCH   6  24
BRANCH   8  26
ATOM     26  O   UNL     1      19.967  25.708  33.807  1.00  0.00    -0.508 OA
ATOM     27  H   UNL     1      19.317  25.888  33.050  1.00  0.00     0.293 HD
ENDBRANCH   8  26
TORSDOF 6
ENDMDL
MODEL 7
REMARK VINA RESULT:    -7.676      3.267      6.323
REMARK INTER + INTRA:          -9.575
REMARK INTER:                  -9.409
REMARK INTRA:                  -0.166
REMARK UNBOUND:                -0.328
REMARK SMILES O=c1c(O)c(-c2ccc(O)c(O)c2)oc2cc(O)cc(O)c12
REMARK SMILES IDX 5 1 3 2 2 3 1 4 22 5 20 6 19 7 17 8 16 9 15 10 14 11 6 12
REMARK SMILES IDX 7 13 8 14 9 15 13 16 11 17 10 18 12 20 4 22 21 24 18 26
REMARK H PARENT 10 19 12 21 4 23 21 25 18 27
REMARK Flexibility Score: inf
ROOT
ATOM      1  C   UNL     1      26.511  24.523  33.069  1.00  0.00     0.180 A 
ATOM      2  C   UNL     1      25.305  25.247  33.099  1.00  0.00     0.208 A 
ATOM      3  C   UNL     1      24.191  24.682  33.739  1.00  0.00     0.238 A 
ATOM      4  O   UNL     1      23.108  25.326  33.782  1.00  0.00    -0.285 OA
ATOM      5  C   UNL     1      24.294  23.400  34.317  1.00  0.00     0.111 A 
ATOM      6  C   UNL     1      23.218  22.758  34.975  1.00  0.00     0.134 A 
ATOM      7  C   UNL     1      23.399  21.477  35.516  1.00  0.00     0.093 A 
ATOM      8  C   UNL     1      24.629  20.826  35.411  1.00  0.00     0.123 A 
ATOM      9  C   UNL     1      25.697  21.455  34.762  1.00  0.00     0.094 A 
ATOM     10  C   UNL     1      25.538  22.732  34.218  1.00  0.00     0.146 A 
ATOM     11  O   UNL     1      26.568  23.309  33.611  1.00  0.00    -0.452 OA
ENDROOT
BRANCH   1  12
ATOM     12  C   UNL     1      27.735  25.060  32.430  1.00  0.00     0.025 A 
ATOM     13  C   UNL     1      28.327  24.354  31.370  1.00  0.00     0.016 A 
ATOM     14  C   UNL     1      29.493  24.832  30.766  1.00  0.00     0.051 A 
ATOM     15  C   UNL     1      30.096  26.010  31.224  1.00  0.00     0.157 A 
ATOM     16  C   UNL     1      28.354  26.231  32.902  1.00  0.00     0.062 A 
ATOM     17  C   UNL     1      29.525  26.710  32.300  1.00  0.00     0.158 A 
BRANCH  15  18
ATOM     18  O   UNL     1      31.257  26.485  30.620  1.00  0.00    -0.504 OA
ATOM     19  H   UNL     1      32.092  26.685  31.158  1.00  0.00     0.293 HD
ENDBRANCH  15  18
BRANCH  17  20
ATOM     20  O   UNL     1      30.107  27.879  32.790  1.00  0.00    -0.504 OA
ATOM     21  H   UNL     1      29.741  28.364  33.600  1.00  0.00     0.293 HD
ENDBRANCH  17  20
ENDBRANCH   1  12
BRANCH   2  22
ATOM     22  O   UNL     1      25.214  26.495  32.477  1.00  0.00    -0.502 OA
ATOM     23  H   UNL     1      24.916  27.327  32.970  1.00  0.00     0.293 HD
ENDBRANCH   2  22
BRANCH   6  24
ATOM     24  O   UNL     1      21.975  23.381  35.095  1.00  0.00    -0.507 OA
ATOM     25  H   UNL     1      21.125  22.851  35.253  1.00  0.00     0.293 HD
ENDBRANCH   6  24
BRANCH   8  26
ATOM     26  O   UNL     1      24.782  19.553  35.957  1.00  0.00    -0.508 OA
ATOM     27  H   UNL     1      24.353  19.300  36.840  1.00  0.00     0.293 HD
ENDBRANCH   8  26
TORSDOF 6
ENDMDL
MODEL 8
REMARK VINA RESULT:    -7.644      3.170      6.750
REMARK INTER + INTRA:          -9.537
REMARK INTER:                  -9.578
REMARK INTRA:                   0.041
REMARK UNBOUND:                -0.328
REMARK SMILES O=c1c(O)c(-c2ccc(O)c(O)c2)oc2cc(O)cc(O)c12
REMARK SMILES IDX 5 1 3 2 2 3 1 4 22 5 20 6 19 7 17 8 16 9 15 10 14 11 6 12
REMARK SMILES IDX 7 13 8 14 9 15 13 16 11 17 10 18 12 20 4 22 21 24 18 26
REMARK H PARENT 10 19 12 21 4 23 21 25 18 27
REMARK Flexibility Score: inf
ROOT
ATOM      1  C   UNL     1      25.853  25.289  33.300  1.00  0.00     0.180 A 
ATOM      2  C   UNL     1      26.756  26.368  33.341  1.00  0.00     0.208 A 
ATOM      3  C   UNL     1      28.103  26.137  33.025  1.00  0.00     0.238 A 
ATOM      4  O   UNL     1      28.919  27.098  33.047  1.00  0.00    -0.285 OA
ATOM      5  C   UNL     1      28.529  24.834  32.695  1.00  0.00     0.111 A 
ATOM      6  C   UNL     1      29.869  24.516  32.368  1.00  0.00     0.134 A 
ATOM      7  C   UNL     1      30.215  23.192  32.060  1.00  0.00     0.093 A 
ATOM      8  C   UNL     1      29.250  22.182  32.073  1.00  0.00     0.123 A 
ATOM      9  C   UNL     1      27.924  22.490  32.394  1.00  0.00     0.094 A 
ATOM     10  C   UNL     1      27.559  23.804  32.703  1.00  0.00     0.146 A 
ATOM     11  O   UNL     1      26.293  24.070  33.000  1.00  0.00    -0.452 OA
ENDROOT
BRANCH   1  12
ATOM     12  C   UNL     1      24.413  25.456  33.602  1.00  0.00     0.025 A 
ATOM     13  C   UNL     1      23.758  24.500  34.395  1.00  0.00     0.016 A 
ATOM     14  C   UNL     1      22.395  24.628  34.676  1.00  0.00     0.051 A 
ATOM     15  C   UNL     1      21.662  25.701  34.154  1.00  0.00     0.157 A 
ATOM     16  C   UNL     1      23.670  26.522  33.062  1.00  0.00     0.062 A 
ATOM     17  C   UNL     1      22.303  26.650  33.339  1.00  0.00     0.158 A 
BRANCH  15  18
ATOM     18  O   UNL     1      20.304  25.827  34.436  1.00  0.00    -0.504 OA
ATOM     19  H   UNL     1      19.955  26.552  35.052  1.00  0.00     0.293 HD
ENDBRANCH  15  18
BRANCH  17  20
ATOM     20  O   UNL     1      21.600  27.723  32.792  1.00  0.00    -0.504 OA
ATOM     21  H   UNL     1      21.531  28.617  33.263  1.00  0.00     0.293 HD
ENDBRANCH  17  20
ENDBRANCH   1  12
BRANCH   2  22
ATOM     22  O   UNL     1      26.319  27.641  33.718  1.00  0.00    -0.502 OA
ATOM     23  H   UNL     1      25.915  28.293  33.059  1.00  0.00     0.293 HD
ENDBRANCH   2  22
BRANCH   6  24
ATOM     24  O   UNL     1      30.857  25.501  32.348  1.00  0.00    -0.507 OA
ATOM     25  H   UNL     1      30.989  26.108  31.547  1.00  0.00     0.293 HD
ENDBRANCH   6  24
BRANCH   8  26
ATOM     26  O   UNL     1      29.620  20.875  31.763  1.00  0.00    -0.508 OA
ATOM     27  H   UNL     1      30.389  20.677  31.134  1.00  0.00     0.293 HD
ENDBRANCH   8  26
TORSDOF 6
ENDMDL
MODEL 9
REMARK VINA RESULT:    -7.474      1.703      3.492
REMARK INTER + INTRA:          -9.331
REMARK INTER:                  -9.635
REMARK INTRA:                   0.304
REMARK UNBOUND:                -0.328
REMARK SMILES O=c1c(O)c(-c2ccc(O)c(O)c2)oc2cc(O)cc(O)c12
REMARK SMILES IDX 5 1 3 2 2 3 1 4 22 5 20 6 19 7 17 8 16 9 15 10 14 11 6 12
REMARK SMILES IDX 7 13 8 14 9 15 13 16 11 17 10 18 12 20 4 22 21 24 18 26
REMARK H PARENT 10 19 12 21 4 23 21 25 18 27
REMARK Flexibility Score: inf
ROOT
ATOM      1  C   UNL     1      25.236  24.492  33.680  1.00  0.00     0.180 A 
ATOM      2  C   UNL     1      25.845  25.758  33.584  1.00  0.00     0.208 A 
ATOM      3  C   UNL     1      25.035  26.903  33.600  1.00  0.00     0.238 A 
ATOM      4  O   UNL     1      25.569  28.043  33.525  1.00  0.00    -0.285 OA
ATOM      5  C   UNL     1      23.634  26.766  33.691  1.00  0.00     0.111 A 
ATOM      6  C   UNL     1      22.746  27.868  33.708  1.00  0.00     0.134 A 
ATOM      7  C   UNL     1      21.364  27.647  33.791  1.00  0.00     0.093 A 
ATOM      8  C   UNL     1      20.853  26.350  33.856  1.00  0.00     0.123 A 
ATOM      9  C   UNL     1      21.725  25.256  33.840  1.00  0.00     0.094 A 
ATOM     10  C   UNL     1      23.105  25.455  33.759  1.00  0.00     0.146 A 
ATOM     11  O   UNL     1      23.911  24.400  33.749  1.00  0.00    -0.452 OA
ENDROOT
BRANCH   1  12
ATOM     12  C   UNL     1      26.025  23.239  33.690  1.00  0.00     0.025 A 
ATOM     13  C   UNL     1      27.223  23.172  32.961  1.00  0.00     0.016 A 
ATOM     14  C   UNL     1      27.973  21.992  32.940  1.00  0.00     0.051 A 
ATOM     15  C   UNL     1      27.528  20.858  33.630  1.00  0.00     0.157 A 
ATOM     16  C   UNL     1      25.570  22.092  34.365  1.00  0.00     0.062 A 
ATOM     17  C   UNL     1      26.318  20.908  34.343  1.00  0.00     0.158 A 
BRANCH  15  18
ATOM     18  O   UNL     1      28.277  19.684  33.608  1.00  0.00    -0.504 OA
ATOM     19  H   UNL     1      27.838  18.773  33.666  1.00  0.00     0.293 HD
ENDBRANCH  15  18
BRANCH  17  20
ATOM     20  O   UNL     1      25.839  19.793  35.030  1.00  0.00    -0.504 OA
ATOM     21  H   UNL     1      26.367  19.351  35.773  1.00  0.00     0.293 HD
ENDBRANCH  17  20
ENDBRANCH   1  12
BRANCH   2  22
ATOM     22  O   UNL     1      27.232  25.866  33.445  1.00  0.00    -0.502 OA
ATOM     23  H   UNL     1      27.844  25.061  33.475  1.00  0.00     0.293 HD
ENDBRANCH   2  22
BRANCH   6  24
ATOM     24  O   UNL     1      23.226  29.177  33.644  1.00  0.00    -0.507 OA
ATOM     25  H   UNL     1      23.309  29.672  32.763  1.00  0.00     0.293 HD
ENDBRANCH   6  24
BRANCH   8  26
ATOM     26  O   UNL     1      19.475  26.158  33.938  1.00  0.00    -0.508 OA
ATOM     27  H   UNL     1      19.062  25.579  34.660  1.00  0.00     0.293 HD
ENDBRANCH   8  26
TORSDOF 6
ENDMDL
