MODEL 1
REMARK VINA RESULT:    -5.195      0.000      0.000
REMARK INTER + INTRA:          -6.435
REMARK INTER:                  -6.258
REMARK INTRA:                  -0.177
REMARK UNBOUND:                -0.177
REMARK SMILES O=c1c(O)c(-c2ccc(O)c(O)c2)oc2cc(O)cc(O)c12
REMARK SMILES IDX 5 1 3 2 2 3 1 4 22 5 20 6 19 7 17 8 16 9 15 10 14 11 6 12
REMARK SMILES IDX 7 13 8 14 9 15 13 16 11 17 10 18 12 20 4 22 21 24 18 26
REMARK H PARENT 10 19 12 21 4 23 21 25 18 27
REMARK Flexibility Score: inf
ROOT
ATOM      1  C   UNL     1     133.085 138.085 137.535  1.00  0.00     0.180 A 
ATOM      2  C   UNL     1     134.208 138.409 136.753  1.00  0.00     0.208 A 
ATOM      3  C   UNL     1     135.484 138.338 137.333  1.00  0.00     0.238 A 
ATOM      4  O   UNL     1     136.489 138.577 136.613  1.00  0.00    -0.285 OA
ATOM      5  C   UNL     1     135.622 137.959 138.690  1.00  0.00     0.111 A 
ATOM      6  C   UNL     1     136.864 137.892 139.391  1.00  0.00     0.134 A 
ATOM      7  C   UNL     1     136.895 137.380 140.694  1.00  0.00     0.093 A 
ATOM      8  C   UNL     1     135.720 136.993 141.343  1.00  0.00     0.123 A 
ATOM      9  C   UNL     1     134.497 137.111 140.689  1.00  0.00     0.094 A 
ATOM     10  C   UNL     1     134.438 137.584 139.376  1.00  0.00     0.146 A 
ATOM     11  O   UNL     1     133.252 137.670 138.786  1.00  0.00    -0.452 OA
ENDROOT
BRANCH   1  12
ATOM     12  C   UNL     1     131.706 138.160 137.002  1.00  0.00     0.025 A 
ATOM     13  C   UNL     1     130.776 139.088 137.505  1.00  0.00     0.016 A 
ATOM     14  C   UNL     1     129.473 139.124 137.004  1.00  0.00     0.051 A 
ATOM     15  C   UNL     1     129.073 138.229 136.006  1.00  0.00     0.157 A 
ATOM     16  C   UNL     1     131.294 137.249 136.015  1.00  0.00     0.062 A 
ATOM     17  C   UNL     1     129.986 137.285 135.511  1.00  0.00     0.158 A 
BRANCH  15  18
ATOM     18  O   UNL     1     127.766 138.291 135.525  1.00  0.00    -0.504 OA
ATOM     19  H   UNL     1     127.308 139.171 135.323  1.00  0.00     0.293 HD
ENDBRANCH  15  18
BRANCH  17  20
ATOM     20  O   UNL     1     129.592 136.384 134.522  1.00  0.00    -0.504 OA
ATOM     21  H   UNL     1     128.755 135.822 134.618  1.00  0.00     0.293 HD
ENDBRANCH  17  20
ENDBRANCH   1  12
BRANCH   2  22
ATOM     22  O   UNL     1     134.051 138.759 135.409  1.00  0.00    -0.502 OA
ATOM     23  H   UNL     1     134.776 138.608 134.720  1.00  0.00     0.293 HD
ENDBRANCH   2  22
BRANCH   6  24
ATOM     24  O   UNL     1     138.081 138.338 138.867  1.00  0.00    -0.507 OA
ATOM     25  H   UNL     1     138.612 139.117 139.229  1.00  0.00     0.293 HD
ENDBRANCH   6  24
BRANCH   8  26
ATOM     26  O   UNL     1     135.758 136.498 142.646  1.00  0.00    -0.508 OA
ATOM     27  H   UNL     1     135.669 135.508 142.840  1.00  0.00     0.293 HD
ENDBRANCH   8  26
TORSDOF 6
ENDMDL
MODEL 2
REMARK VINA RESULT:    -5.185     13.924     18.452
REMARK INTER + INTRA:          -6.423
REMARK INTER:                  -6.137
REMARK INTRA:                  -0.286
REMARK UNBOUND:                -0.177
REMARK SMILES O=c1c(O)c(-c2ccc(O)c(O)c2)oc2cc(O)cc(O)c12
REMARK SMILES IDX 5 1 3 2 2 3 1 4 22 5 20 6 19 7 17 8 16 9 15 10 14 11 6 12
REMARK SMILES IDX 7 13 8 14 9 15 13 16 11 17 10 18 12 20 4 22 21 24 18 26
REMARK H PARENT 10 19 12 21 4 23 21 25 18 27
REMARK Flexibility Score: inf
ROOT
ATOM      1  C   UNL     1     122.446 128.046 129.509  1.00  0.00     0.180 A 
ATOM      2  C   UNL     1     121.146 128.562 129.657  1.00  0.00     0.208 A 
ATOM      3  C   UNL     1     120.055 127.680 129.617  1.00  0.00     0.238 A 
ATOM      4  O   UNL     1     118.899 128.140 129.804  1.00  0.00    -0.285 OA
ATOM      5  C   UNL     1     120.275 126.296 129.414  1.00  0.00     0.111 A 
ATOM      6  C   UNL     1     119.241 125.317 129.317  1.00  0.00     0.134 A 
ATOM      7  C   UNL     1     119.579 123.959 129.247  1.00  0.00     0.093 A 
ATOM      8  C   UNL     1     120.915 123.552 129.206  1.00  0.00     0.123 A 
ATOM      9  C   UNL     1     121.930 124.504 129.239  1.00  0.00     0.094 A 
ATOM     10  C   UNL     1     121.625 125.863 129.346  1.00  0.00     0.146 A 
ATOM     11  O   UNL     1     122.623 126.736 129.386  1.00  0.00    -0.452 OA
ENDROOT
BRANCH   1  12
ATOM     12  C   UNL     1     123.644 128.917 129.515  1.00  0.00     0.025 A 
ATOM     13  C   UNL     1     124.181 129.413 130.715  1.00  0.00     0.016 A 
ATOM     14  C   UNL     1     125.298 130.252 130.696  1.00  0.00     0.051 A 
ATOM     15  C   UNL     1     125.886 130.620 129.481  1.00  0.00     0.157 A 
ATOM     16  C   UNL     1     124.224 129.305 128.296  1.00  0.00     0.062 A 
ATOM     17  C   UNL     1     125.345 130.147 128.275  1.00  0.00     0.158 A 
BRANCH  15  18
ATOM     18  O   UNL     1     127.000 131.458 129.493  1.00  0.00    -0.504 OA
ATOM     19  H   UNL     1     127.734 131.388 128.799  1.00  0.00     0.293 HD
ENDBRANCH  15  18
BRANCH  17  20
ATOM     20  O   UNL     1     125.921 130.515 127.059  1.00  0.00    -0.504 OA
ATOM     21  H   UNL     1     126.924 130.488 126.917  1.00  0.00     0.293 HD
ENDBRANCH  17  20
ENDBRANCH   1  12
BRANCH   2  22
ATOM     22  O   UNL     1     120.953 129.929 129.878  1.00  0.00    -0.502 OA
ATOM     23  H   UNL     1     120.034 130.335 130.000  1.00  0.00     0.293 HD
ENDBRANCH   2  22
BRANCH   6  24
ATOM     24  O   UNL     1     117.878 125.624 129.259  1.00  0.00    -0.507 OA
ATOM     25  H   UNL     1     117.307 125.547 128.430  1.00  0.00     0.293 HD
ENDBRANCH   6  24
BRANCH   8  26
ATOM     26  O   UNL     1     121.243 122.200 129.120  1.00  0.00    -0.508 OA
ATOM     27  H   UNL     1     122.065 121.824 129.577  1.00  0.00     0.293 HD
ENDBRANCH   8  26
TORSDOF 6
ENDMDL
MODEL 3
REMARK VINA RESULT:    -5.138      2.014      3.811
REMARK INTER + INTRA:          -6.367
REMARK INTER:                  -6.172
REMARK INTRA:                  -0.194
REMARK UNBOUND:                -0.177
REMARK SMILES O=c1c(O)c(-c2ccc(O)c(O)c2)oc2cc(O)cc(O)c12
REMARK SMILES IDX 5 1 3 2 2 3 1 4 22 5 20 6 19 7 17 8 16 9 15 10 14 11 6 12
REMARK SMILES IDX 7 13 8 14 9 15 13 16 11 17 10 18 12 20 4 22 21 24 18 26
REMARK H PARENT 10 19 12 21 4 23 21 25 18 27
REMARK Flexibility Score: inf
ROOT
ATOM      1  C   UNL     1     132.432 137.787 136.534  1.00  0.00     0.180 A 
ATOM      2  C   UNL     1     132.759 138.050 137.876  1.00  0.00     0.208 A 
ATOM      3  C   UNL     1     134.068 138.446 138.192  1.00  0.00     0.238 A 
ATOM      4  O   UNL     1     134.340 138.731 139.388  1.00  0.00    -0.285 OA
ATOM      5  C   UNL     1     135.037 138.560 137.167  1.00  0.00     0.111 A 
ATOM      6  C   UNL     1     136.403 138.915 137.379  1.00  0.00     0.134 A 
ATOM      7  C   UNL     1     137.242 139.125 136.277  1.00  0.00     0.093 A 
ATOM      8  C   UNL     1     136.779 138.929 134.974  1.00  0.00     0.123 A 
ATOM      9  C   UNL     1     135.464 138.525 134.759  1.00  0.00     0.094 A 
ATOM     10  C   UNL     1     134.594 138.342 135.837  1.00  0.00     0.146 A 
ATOM     11  O   UNL     1     133.346 137.967 135.587  1.00  0.00    -0.452 OA
ENDROOT
BRANCH   1  12
ATOM     12  C   UNL     1     131.080 137.342 136.125  1.00  0.00     0.025 A 
ATOM     13  C   UNL     1     130.860 136.053 135.608  1.00  0.00     0.016 A 
ATOM     14  C   UNL     1     129.580 135.662 135.206  1.00  0.00     0.051 A 
ATOM     15  C   UNL     1     128.506 136.553 135.300  1.00  0.00     0.157 A 
ATOM     16  C   UNL     1     130.003 138.240 136.199  1.00  0.00     0.062 A 
ATOM     17  C   UNL     1     128.718 137.850 135.795  1.00  0.00     0.158 A 
BRANCH  15  18
ATOM     18  O   UNL     1     127.240 136.134 134.892  1.00  0.00    -0.504 OA
ATOM     19  H   UNL     1     127.091 135.647 134.017  1.00  0.00     0.293 HD
ENDBRANCH  15  18
BRANCH  17  20
ATOM     20  O   UNL     1     127.653 138.746 135.885  1.00  0.00    -0.504 OA
ATOM     21  H   UNL     1     127.371 139.315 135.096  1.00  0.00     0.293 HD
ENDBRANCH  17  20
ENDBRANCH   1  12
BRANCH   2  22
ATOM     22  O   UNL     1     131.781 137.952 138.870  1.00  0.00    -0.502 OA
ATOM     23  H   UNL     1     131.022 137.284 138.823  1.00  0.00     0.293 HD
ENDBRANCH   2  22
BRANCH   6  24
ATOM     24  O   UNL     1     136.989 139.046 138.642  1.00  0.00    -0.507 OA
ATOM     25  H   UNL     1     137.043 138.309 139.330  1.00  0.00     0.293 HD
ENDBRANCH   6  24
BRANCH   8  26
ATOM     26  O   UNL     1     137.624 139.125 133.883  1.00  0.00    -0.508 OA
ATOM     27  H   UNL     1     138.631 139.169 133.993  1.00  0.00     0.293 HD
ENDBRANCH   8  26
TORSDOF 6
ENDMDL
MODEL 4
REMARK VINA RESULT:    -5.024     14.902     19.542
REMARK INTER + INTRA:          -6.230
REMARK INTER:                  -5.903
REMARK INTRA:                  -0.327
REMARK UNBOUND:                -0.177
REMARK SMILES O=c1c(O)c(-c2ccc(O)c(O)c2)oc2cc(O)cc(O)c12
REMARK SMILES IDX 5 1 3 2 2 3 1 4 22 5 20 6 19 7 17 8 16 9 15 10 14 11 6 12
REMARK SMILES IDX 7 13 8 14 9 15 13 16 11 17 10 18 12 20 4 22 21 24 18 26
REMARK H PARENT 10 19 12 21 4 23 21 25 18 27
REMARK Flexibility Score: inf
ROOT
ATOM      1  C   UNL     1     122.644 126.056 129.623  1.00  0.00     0.180 A 
ATOM      2  C   UNL     1     122.195 124.728 129.728  1.00  0.00     0.208 A 
ATOM      3  C   UNL     1     120.908 124.406 129.271  1.00  0.00     0.238 A 
ATOM      4  O   UNL     1     120.533 123.206 129.319  1.00  0.00    -0.285 OA
ATOM      5  C   UNL     1     120.079 125.418 128.730  1.00  0.00     0.111 A 
ATOM      6  C   UNL     1     118.742 125.212 128.273  1.00  0.00     0.134 A 
ATOM      7  C   UNL     1     118.061 126.257 127.635  1.00  0.00     0.093 A 
ATOM      8  C   UNL     1     118.646 127.518 127.497  1.00  0.00     0.123 A 
ATOM      9  C   UNL     1     119.927 127.745 127.992  1.00  0.00     0.094 A 
ATOM     10  C   UNL     1     120.645 126.713 128.601  1.00  0.00     0.146 A 
ATOM     11  O   UNL     1     121.868 126.969 129.050  1.00  0.00    -0.452 OA
ENDROOT
BRANCH   1  12
ATOM     12  C   UNL     1     123.979 126.478 130.105  1.00  0.00     0.025 A 
ATOM     13  C   UNL     1     124.199 126.811 131.453  1.00  0.00     0.016 A 
ATOM     14  C   UNL     1     125.461 127.229 131.881  1.00  0.00     0.051 A 
ATOM     15  C   UNL     1     126.517 127.335 130.970  1.00  0.00     0.157 A 
ATOM     16  C   UNL     1     125.037 126.605 129.190  1.00  0.00     0.062 A 
ATOM     17  C   UNL     1     126.305 127.025 129.618  1.00  0.00     0.158 A 
BRANCH  15  18
ATOM     18  O   UNL     1     127.766 127.754 131.427  1.00  0.00    -0.504 OA
ATOM     19  H   UNL     1     127.869 128.494 132.111  1.00  0.00     0.293 HD
ENDBRANCH  15  18
BRANCH  17  20
ATOM     20  O   UNL     1     127.352 127.135 128.703  1.00  0.00    -0.504 OA
ATOM     21  H   UNL     1     127.767 128.031 128.477  1.00  0.00     0.293 HD
ENDBRANCH  17  20
ENDBRANCH   1  12
BRANCH   2  22
ATOM     22  O   UNL     1     123.038 123.741 130.246  1.00  0.00    -0.502 OA
ATOM     23  H   UNL     1     124.045 123.783 130.156  1.00  0.00     0.293 HD
ENDBRANCH   2  22
BRANCH   6  24
ATOM     24  O   UNL     1     118.033 124.019 128.444  1.00  0.00    -0.507 OA
ATOM     25  H   UNL     1     117.619 123.717 129.313  1.00  0.00     0.293 HD
ENDBRANCH   6  24
BRANCH   8  26
ATOM     26  O   UNL     1     117.956 128.557 126.875  1.00  0.00    -0.508 OA
ATOM     27  H   UNL     1     116.955 128.671 126.987  1.00  0.00     0.293 HD
ENDBRANCH   8  26
TORSDOF 6
ENDMDL
MODEL 5
REMARK VINA RESULT:    -5.023     18.948     20.312
REMARK INTER + INTRA:          -6.228
REMARK INTER:                  -5.905
REMARK INTRA:                  -0.323
REMARK UNBOUND:                -0.177
REMARK SMILES O=c1c(O)c(-c2ccc(O)c(O)c2)oc2cc(O)cc(O)c12
REMARK SMILES IDX 5 1 3 2 2 3 1 4 22 5 20 6 19 7 17 8 16 9 15 10 14 11 6 12
REMARK SMILES IDX 7 13 8 14 9 15 13 16 11 17 10 18 12 20 4 22 21 24 18 26
REMARK H PARENT 10 19 12 21 4 23 21 25 18 27
REMARK Flexibility Score: inf
ROOT
ATOM      1  C   UNL     1     124.797 120.865 143.486  1.00  0.00     0.180 A 
ATOM      2  C   UNL     1     126.052 120.453 143.967  1.00  0.00     0.208 A 
ATOM      3  C   UNL     1     127.115 120.313 143.061  1.00  0.00     0.238 A 
ATOM      4  O   UNL     1     128.249 119.995 143.506  1.00  0.00    -0.285 OA
ATOM      5  C   UNL     1     126.907 120.571 141.685  1.00  0.00     0.111 A 
ATOM      6  C   UNL     1     127.903 120.422 140.673  1.00  0.00     0.134 A 
ATOM      7  C   UNL     1     127.623 120.831 139.363  1.00  0.00     0.093 A 
ATOM      8  C   UNL     1     126.362 121.322 139.017  1.00  0.00     0.123 A 
ATOM      9  C   UNL     1     125.366 121.415 139.984  1.00  0.00     0.094 A 
ATOM     10  C   UNL     1     125.626 121.049 141.307  1.00  0.00     0.146 A 
ATOM     11  O   UNL     1     124.651 121.163 142.200  1.00  0.00    -0.452 OA
ENDROOT
BRANCH   1  12
ATOM     12  C   UNL     1     123.622 121.012 144.376  1.00  0.00     0.025 A 
ATOM     13  C   UNL     1     123.362 122.218 145.051  1.00  0.00     0.016 A 
ATOM     14  C   UNL     1     122.261 122.326 145.904  1.00  0.00     0.051 A 
ATOM     15  C   UNL     1     121.413 121.232 146.108  1.00  0.00     0.157 A 
ATOM     16  C   UNL     1     122.781 119.910 144.599  1.00  0.00     0.062 A 
ATOM     17  C   UNL     1     121.675 120.017 145.456  1.00  0.00     0.158 A 
BRANCH  15  18
ATOM     18  O   UNL     1     120.322 121.371 146.964  1.00  0.00    -0.504 OA
ATOM     19  H   UNL     1     119.490 121.882 146.696  1.00  0.00     0.293 HD
ENDBRANCH  15  18
BRANCH  17  20
ATOM     20  O   UNL     1     120.839 118.920 145.660  1.00  0.00    -0.504 OA
ATOM     21  H   UNL     1     120.000 118.782 145.110  1.00  0.00     0.293 HD
ENDBRANCH  17  20
ENDBRANCH   1  12
BRANCH   2  22
ATOM     22  O   UNL     1     126.241 120.224 145.333  1.00  0.00    -0.502 OA
ATOM     23  H   UNL     1     127.080 119.795 145.701  1.00  0.00     0.293 HD
ENDBRANCH   2  22
BRANCH   6  24
ATOM     24  O   UNL     1     129.164 119.858 140.895  1.00  0.00    -0.507 OA
ATOM     25  H   UNL     1     129.937 120.335 141.333  1.00  0.00     0.293 HD
ENDBRANCH   6  24
BRANCH   8  26
ATOM     26  O   UNL     1     126.087 121.712 137.707  1.00  0.00    -0.508 OA
ATOM     27  H   UNL     1     125.136 121.780 137.363  1.00  0.00     0.293 HD
ENDBRANCH   8  26
TORSDOF 6
ENDMDL
MODEL 6
REMARK VINA RESULT:    -4.958      1.841      7.111
REMARK INTER + INTRA:          -6.149
REMARK INTER:                  -5.833
REMARK INTRA:                  -0.316
REMARK UNBOUND:                -0.177
REMARK SMILES O=c1c(O)c(-c2ccc(O)c(O)c2)oc2cc(O)cc(O)c12
REMARK SMILES IDX 5 1 3 2 2 3 1 4 22 5 20 6 19 7 17 8 16 9 15 10 14 11 6 12
REMARK SMILES IDX 7 13 8 14 9 15 13 16 11 17 10 18 12 20 4 22 21 24 18 26
REMARK H PARENT 10 19 12 21 4 23 21 25 18 27
REMARK Flexibility Score: inf
ROOT
ATOM      1  C   UNL     1     133.403 136.921 136.200  1.00  0.00     0.180 A 
ATOM      2  C   UNL     1     133.416 135.967 135.168  1.00  0.00     0.208 A 
ATOM      3  C   UNL     1     132.218 135.675 134.497  1.00  0.00     0.238 A 
ATOM      4  O   UNL     1     132.247 134.859 133.538  1.00  0.00    -0.285 OA
ATOM      5  C   UNL     1     131.020 136.327 134.875  1.00  0.00     0.111 A 
ATOM      6  C   UNL     1     129.742 136.080 134.290  1.00  0.00     0.134 A 
ATOM      7  C   UNL     1     128.650 136.877 134.653  1.00  0.00     0.093 A 
ATOM      8  C   UNL     1     128.776 137.871 135.626  1.00  0.00     0.123 A 
ATOM      9  C   UNL     1     130.005 138.080 136.246  1.00  0.00     0.094 A 
ATOM     10  C   UNL     1     131.122 137.325 135.879  1.00  0.00     0.146 A 
ATOM     11  O   UNL     1     132.277 137.564 136.487  1.00  0.00    -0.452 OA
ENDROOT
BRANCH   1  12
ATOM     12  C   UNL     1     134.620 137.265 136.970  1.00  0.00     0.025 A 
ATOM     13  C   UNL     1     135.441 138.345 136.599  1.00  0.00     0.016 A 
ATOM     14  C   UNL     1     136.597 138.636 137.325  1.00  0.00     0.051 A 
ATOM     15  C   UNL     1     136.961 137.848 138.423  1.00  0.00     0.157 A 
ATOM     16  C   UNL     1     134.999 136.464 138.060  1.00  0.00     0.062 A 
ATOM     17  C   UNL     1     136.161 136.754 138.790  1.00  0.00     0.158 A 
BRANCH  15  18
ATOM     18  O   UNL     1     138.120 138.164 139.129  1.00  0.00    -0.504 OA
ATOM     19  H   UNL     1     138.181 138.066 140.135  1.00  0.00     0.293 HD
ENDBRANCH  15  18
BRANCH  17  20
ATOM     20  O   UNL     1     136.521 135.960 139.879  1.00  0.00    -0.504 OA
ATOM     21  H   UNL     1     136.418 136.287 140.832  1.00  0.00     0.293 HD
ENDBRANCH  17  20
ENDBRANCH   1  12
BRANCH   2  22
ATOM     22  O   UNL     1     134.613 135.350 134.796  1.00  0.00    -0.502 OA
ATOM     23  H   UNL     1     134.992 135.417 133.859  1.00  0.00     0.293 HD
ENDBRANCH   2  22
BRANCH   6  24
ATOM     24  O   UNL     1     129.488 135.052 133.376  1.00  0.00    -0.507 OA
ATOM     25  H   UNL     1     128.752 134.368 133.470  1.00  0.00     0.293 HD
ENDBRANCH   6  24
BRANCH   8  26
ATOM     26  O   UNL     1     127.680 138.650 135.993  1.00  0.00    -0.508 OA
ATOM     27  H   UNL     1     127.327 138.655 136.943  1.00  0.00     0.293 HD
ENDBRANCH   8  26
TORSDOF 6
ENDMDL
MODEL 7
REMARK VINA RESULT:    -4.955     13.808     17.595
REMARK INTER + INTRA:          -6.147
REMARK INTER:                  -5.839
REMARK INTRA:                  -0.307
REMARK UNBOUND:                -0.177
REMARK SMILES O=c1c(O)c(-c2ccc(O)c(O)c2)oc2cc(O)cc(O)c12
REMARK SMILES IDX 5 1 3 2 2 3 1 4 22 5 20 6 19 7 17 8 16 9 15 10 14 11 6 12
REMARK SMILES IDX 7 13 8 14 9 15 13 16 11 17 10 18 12 20 4 22 21 24 18 26
REMARK H PARENT 10 19 12 21 4 23 21 25 18 27
REMARK Flexibility Score: inf
ROOT
ATOM      1  C   UNL     1     122.576 126.909 129.686  1.00  0.00     0.180 A 
ATOM      2  C   UNL     1     122.831 127.252 131.025  1.00  0.00     0.208 A 
ATOM      3  C   UNL     1     123.829 128.199 131.306  1.00  0.00     0.238 A 
ATOM      4  O   UNL     1     124.016 128.541 132.503  1.00  0.00    -0.285 OA
ATOM      5  C   UNL     1     124.569 128.778 130.248  1.00  0.00     0.111 A 
ATOM      6  C   UNL     1     125.630 129.718 130.420  1.00  0.00     0.134 A 
ATOM      7  C   UNL     1     126.206 130.324 129.296  1.00  0.00     0.093 A 
ATOM      8  C   UNL     1     125.802 129.975 128.005  1.00  0.00     0.123 A 
ATOM      9  C   UNL     1     124.809 129.016 127.825  1.00  0.00     0.094 A 
ATOM     10  C   UNL     1     124.191 128.420 128.927  1.00  0.00     0.146 A 
ATOM     11  O   UNL     1     123.242 127.518 128.712  1.00  0.00    -0.452 OA
ENDROOT
BRANCH   1  12
ATOM     12  C   UNL     1     121.557 125.901 129.311  1.00  0.00     0.025 A 
ATOM     13  C   UNL     1     120.252 126.280 128.948  1.00  0.00     0.016 A 
ATOM     14  C   UNL     1     119.300 125.312 128.622  1.00  0.00     0.051 A 
ATOM     15  C   UNL     1     119.629 123.953 128.668  1.00  0.00     0.157 A 
ATOM     16  C   UNL     1     121.877 124.535 129.376  1.00  0.00     0.062 A 
ATOM     17  C   UNL     1     120.922 123.561 129.049  1.00  0.00     0.158 A 
BRANCH  15  18
ATOM     18  O   UNL     1     118.658 123.009 128.335  1.00  0.00    -0.504 OA
ATOM     19  H   UNL     1     117.898 122.776 128.962  1.00  0.00     0.293 HD
ENDBRANCH  15  18
BRANCH  17  20
ATOM     20  O   UNL     1     121.255 122.208 129.104  1.00  0.00    -0.504 OA
ATOM     21  H   UNL     1     121.174 121.676 129.962  1.00  0.00     0.293 HD
ENDBRANCH  17  20
ENDBRANCH   1  12
BRANCH   2  22
ATOM     22  O   UNL     1     122.074 126.685 132.053  1.00  0.00    -0.502 OA
ATOM     23  H   UNL     1     121.070 126.570 131.990  1.00  0.00     0.293 HD
ENDBRANCH   2  22
BRANCH   6  24
ATOM     24  O   UNL     1     126.170 130.067 131.662  1.00  0.00    -0.507 OA
ATOM     25  H   UNL     1     125.642 130.133 132.519  1.00  0.00     0.293 HD
ENDBRANCH   6  24
BRANCH   8  26
ATOM     26  O   UNL     1     126.390 130.572 126.891  1.00  0.00    -0.508 OA
ATOM     27  H   UNL     1     127.270 131.070 126.959  1.00  0.00     0.293 HD
ENDBRANCH   8  26
TORSDOF 6
ENDMDL
MODEL 8
REMARK VINA RESULT:    -4.935     12.600     17.178
REMARK INTER + INTRA:          -6.122
REMARK INTER:                  -5.801
REMARK INTRA:                  -0.321
REMARK UNBOUND:                -0.177
REMARK SMILES O=c1c(O)c(-c2ccc(O)c(O)c2)oc2cc(O)cc(O)c12
REMARK SMILES IDX 5 1 3 2 2 3 1 4 22 5 20 6 19 7 17 8 16 9 15 10 14 11 6 12
REMARK SMILES IDX 7 13 8 14 9 15 13 16 11 17 10 18 12 20 4 22 21 24 18 26
REMARK H PARENT 10 19 12 21 4 23 21 25 18 27
REMARK Flexibility Score: inf
ROOT
ATOM      1  C   UNL     1     123.869 128.763 129.745  1.00  0.00     0.180 A 
ATOM      2  C   UNL     1     122.663 129.487 129.724  1.00  0.00     0.208 A 
ATOM      3  C   UNL     1     121.452 128.788 129.605  1.00  0.00     0.238 A 
ATOM      4  O   UNL     1     120.374 129.437 129.642  1.00  0.00    -0.285 OA
ATOM      5  C   UNL     1     121.461 127.377 129.492  1.00  0.00     0.111 A 
ATOM      6  C   UNL     1     120.295 126.569 129.327  1.00  0.00     0.134 A 
ATOM      7  C   UNL     1     120.411 125.174 129.358  1.00  0.00     0.093 A 
ATOM      8  C   UNL     1     121.659 124.558 129.483  1.00  0.00     0.123 A 
ATOM      9  C   UNL     1     122.808 125.337 129.584  1.00  0.00     0.094 A 
ATOM     10  C   UNL     1     122.721 126.731 129.594  1.00  0.00     0.146 A 
ATOM     11  O   UNL     1     123.840 127.436 129.703  1.00  0.00    -0.452 OA
ENDROOT
BRANCH   1  12
ATOM     12  C   UNL     1     125.187 129.431 129.843  1.00  0.00     0.025 A 
ATOM     13  C   UNL     1     125.748 129.763 131.089  1.00  0.00     0.016 A 
ATOM     14  C   UNL     1     126.982 130.414 131.157  1.00  0.00     0.051 A 
ATOM     15  C   UNL     1     127.666 130.758 129.986  1.00  0.00     0.157 A 
ATOM     16  C   UNL     1     125.867 129.797 128.670  1.00  0.00     0.062 A 
ATOM     17  C   UNL     1     127.106 130.451 128.736  1.00  0.00     0.158 A 
BRANCH  15  18
ATOM     18  O   UNL     1     128.896 131.407 130.086  1.00  0.00    -0.504 OA
ATOM     19  H   UNL     1     129.008 132.273 130.599  1.00  0.00     0.293 HD
ENDBRANCH  15  18
BRANCH  17  20
ATOM     20  O   UNL     1     127.779 130.798 127.565  1.00  0.00    -0.504 OA
ATOM     21  H   UNL     1     127.807 131.754 127.232  1.00  0.00     0.293 HD
ENDBRANCH  17  20
ENDBRANCH   1  12
BRANCH   2  22
ATOM     22  O   UNL     1     122.676 130.878 129.859  1.00  0.00    -0.502 OA
ATOM     23  H   UNL     1     122.129 131.487 129.264  1.00  0.00     0.293 HD
ENDBRANCH   2  22
BRANCH   6  24
ATOM     24  O   UNL     1     119.014 127.084 129.104  1.00  0.00    -0.507 OA
ATOM     25  H   UNL     1     118.805 128.061 128.961  1.00  0.00     0.293 HD
ENDBRANCH   6  24
BRANCH   8  26
ATOM     26  O   UNL     1     121.767 123.169 129.497  1.00  0.00    -0.508 OA
ATOM     27  H   UNL     1     121.095 122.580 129.019  1.00  0.00     0.293 HD
ENDBRANCH   8  26
TORSDOF 6
ENDMDL
MODEL 9
REMARK VINA RESULT:    -4.899     14.564     18.097
REMARK INTER + INTRA:          -6.079
REMARK INTER:                  -6.046
REMARK INTRA:                  -0.033
REMARK UNBOUND:                -0.177
REMARK SMILES O=c1c(O)c(-c2ccc(O)c(O)c2)oc2cc(O)cc(O)c12
REMARK SMILES IDX 5 1 3 2 2 3 1 4 22 5 20 6 19 7 17 8 16 9 15 10 14 11 6 12
REMARK SMILES IDX 7 13 8 14 9 15 13 16 11 17 10 18 12 20 4 22 21 24 18 26
REMARK H PARENT 10 19 12 21 4 23 21 25 18 27
REMARK Flexibility Score: inf
ROOT
ATOM      1  C   UNL     1     122.433 127.083 128.432  1.00  0.00     0.180 A 
ATOM      2  C   UNL     1     122.207 128.368 128.954  1.00  0.00     0.208 A 
ATOM      3  C   UNL     1     123.285 129.262 129.051  1.00  0.00     0.238 A 
ATOM      4  O   UNL     1     123.066 130.429 129.469  1.00  0.00    -0.285 OA
ATOM      5  C   UNL     1     124.577 128.855 128.641  1.00  0.00     0.111 A 
ATOM      6  C   UNL     1     125.750 129.664 128.732  1.00  0.00     0.134 A 
ATOM      7  C   UNL     1     126.951 129.207 128.175  1.00  0.00     0.093 A 
ATOM      8  C   UNL     1     127.035 127.942 127.589  1.00  0.00     0.123 A 
ATOM      9  C   UNL     1     125.912 127.121 127.549  1.00  0.00     0.094 A 
ATOM     10  C   UNL     1     124.691 127.564 128.063  1.00  0.00     0.146 A 
ATOM     11  O   UNL     1     123.642 126.753 127.994  1.00  0.00    -0.452 OA
ENDROOT
BRANCH   1  12
ATOM     12  C   UNL     1     121.351 126.077 128.321  1.00  0.00     0.025 A 
ATOM     13  C   UNL     1     120.148 126.367 127.654  1.00  0.00     0.016 A 
ATOM     14  C   UNL     1     119.131 125.411 127.582  1.00  0.00     0.051 A 
ATOM     15  C   UNL     1     119.294 124.160 128.185  1.00  0.00     0.157 A 
ATOM     16  C   UNL     1     121.502 124.827 128.942  1.00  0.00     0.062 A 
ATOM     17  C   UNL     1     120.483 123.866 128.872  1.00  0.00     0.158 A 
BRANCH  15  18
ATOM     18  O   UNL     1     118.262 123.226 128.096  1.00  0.00    -0.504 OA
ATOM     19  H   UNL     1     117.682 123.142 127.270  1.00  0.00     0.293 HD
ENDBRANCH  15  18
BRANCH  17  20
ATOM     20  O   UNL     1     120.649 122.623 129.481  1.00  0.00    -0.504 OA
ATOM     21  H   UNL     1     120.750 122.533 130.485  1.00  0.00     0.293 HD
ENDBRANCH  17  20
ENDBRANCH   1  12
BRANCH   2  22
ATOM     22  O   UNL     1     120.919 128.758 129.333  1.00  0.00    -0.502 OA
ATOM     23  H   UNL     1     120.749 129.508 129.990  1.00  0.00     0.293 HD
ENDBRANCH   2  22
BRANCH   6  24
ATOM     24  O   UNL     1     125.794 130.904 129.378  1.00  0.00    -0.507 OA
ATOM     25  H   UNL     1     126.641 131.373 129.663  1.00  0.00     0.293 HD
ENDBRANCH   6  24
BRANCH   8  26
ATOM     26  O   UNL     1     128.238 127.488 127.051  1.00  0.00    -0.508 OA
ATOM     27  H   UNL     1     129.029 127.256 127.641  1.00  0.00     0.293 HD
ENDBRANCH   8  26
TORSDOF 6
ENDMDL
