MODEL 1
REMARK VINA RESULT:     7.309      0.000      0.000
REMARK INTER + INTRA:          11.826
REMARK INTER:                  12.437
REMARK INTRA:                  -0.611
REMARK UNBOUND:                -0.611
REMARK SMILES CCCCCCCCCCCCCC(=O)[O-]
REMARK SMILES IDX 8 1 9 2 10 3 11 4 12 5 13 6 14 7 15 8 16 9 7 10 6 11 5 12
REMARK SMILES IDX 4 13 3 14 2 15 1 16
REMARK H PARENT
REMARK Flexibility Score: inf
ROOT
ATOM      1  C   UNL     1     -34.708  14.724  17.537  1.00  0.00     0.000 C 
ENDROOT
BRANCH   1   2
ATOM      2  C   UNL     1     -34.165  13.733  16.495  1.00  0.00     0.000 C 
BRANCH   2   3
ATOM      3  C   UNL     1     -33.936  12.349  17.121  1.00  0.00     0.000 C 
BRANCH   3   4
ATOM      4  C   UNL     1     -32.590  12.239  17.859  1.00  0.00     0.000 C 
BRANCH   4   5
ATOM      5  C   UNL     1     -32.661  11.581  19.249  1.00  0.00     0.006 C 
BRANCH   5   6
ATOM      6  C   UNL     1     -33.701  12.234  20.169  1.00  0.00     0.053 C 
BRANCH   6   7
ATOM      7  C   UNL     1     -34.099  11.290  21.260  1.00  0.00     0.041 C 
ATOM      8  O   UNL     1     -34.197  10.056  21.026  1.00  0.00    -0.550 OA
ATOM      9  O   UNL     1     -34.409  11.778  22.522  1.00  0.00    -0.550 OA
ENDBRANCH   6   7
ENDBRANCH   5   6
ENDBRANCH   4   5
ENDBRANCH   3   4
ENDBRANCH   2   3
ENDBRANCH   1   2
BRANCH   1  10
ATOM     10  C   UNL     1     -35.048  16.094  16.927  1.00  0.00     0.000 C 
BRANCH  10  11
ATOM     11  C   UNL     1     -35.222  17.189  17.995  1.00  0.00    -0.000 C 
BRANCH  11  12
ATOM     12  C   UNL     1     -36.691  17.388  18.405  1.00  0.00    -0.000 C 
BRANCH  12  13
ATOM     13  C   UNL     1     -37.614  16.296  17.839  1.00  0.00    -0.000 C 
BRANCH  13  14
ATOM     14  C   UNL     1     -38.482  15.637  18.922  1.00  0.00    -0.000 C 
BRANCH  14  15
ATOM     15  C   UNL     1     -39.977  15.644  18.570  1.00  0.00    -0.003 C 
ATOM     16  C   UNL     1     -40.273  16.641  17.453  1.00  0.00     0.004 C 
ENDBRANCH  14  15
ENDBRANCH  13  14
ENDBRANCH  12  13
ENDBRANCH  11  12
ENDBRANCH  10  11
ENDBRANCH   1  10
TORSDOF 12
ENDMDL
MODEL 2
REMARK VINA RESULT:     7.480      0.570      0.991
REMARK INTER + INTRA:          12.116
REMARK INTER:                  12.802
REMARK INTRA:                  -0.686
REMARK UNBOUND:                -0.611
REMARK SMILES CCCCCCCCCCCCCC(=O)[O-]
REMARK SMILES IDX 8 1 9 2 10 3 11 4 12 5 13 6 14 7 15 8 16 9 7 10 6 11 5 12
REMARK SMILES IDX 4 13 3 14 2 15 1 16
REMARK H PARENT
REMARK Flexibility Score: inf
ROOT
ATOM      1  C   UNL     1     -34.373  14.578  17.657  1.00  0.00     0.000 C 
ENDROOT
BRANCH   1   2
ATOM      2  C   UNL     1     -34.313  13.196  16.989  1.00  0.00     0.000 C 
BRANCH   2   3
ATOM      3  C   UNL     1     -32.860  12.716  16.850  1.00  0.00     0.000 C 
BRANCH   3   4
ATOM      4  C   UNL     1     -32.236  12.297  18.194  1.00  0.00     0.000 C 
BRANCH   4   5
ATOM      5  C   UNL     1     -33.146  11.447  19.098  1.00  0.00     0.006 C 
BRANCH   5   6
ATOM      6  C   UNL     1     -33.684  12.224  20.307  1.00  0.00     0.053 C 
BRANCH   6   7
ATOM      7  C   UNL     1     -34.129  11.279  21.378  1.00  0.00     0.041 C 
ATOM      8  O   UNL     1     -34.395  11.709  22.532  1.00  0.00    -0.550 OA
ATOM      9  O   UNL     1     -34.204   9.917  21.117  1.00  0.00    -0.550 OA
ENDBRANCH   6   7
ENDBRANCH   5   6
ENDBRANCH   4   5
ENDBRANCH   3   4
ENDBRANCH   2   3
ENDBRANCH   1   2
BRANCH   1  10
ATOM     10  C   UNL     1     -34.924  15.665  16.719  1.00  0.00     0.000 C 
BRANCH  10  11
ATOM     11  C   UNL     1     -34.977  17.051  17.387  1.00  0.00    -0.000 C 
BRANCH  11  12
ATOM     12  C   UNL     1     -36.015  17.123  18.519  1.00  0.00    -0.000 C 
BRANCH  12  13
ATOM     13  C   UNL     1     -37.438  16.793  18.036  1.00  0.00    -0.000 C 
BRANCH  13  14
ATOM     14  C   UNL     1     -37.967  15.473  18.618  1.00  0.00    -0.000 C 
BRANCH  14  15
ATOM     15  C   UNL     1     -39.476  15.513  18.902  1.00  0.00    -0.003 C 
ATOM     16  C   UNL     1     -40.223  16.249  17.793  1.00  0.00     0.004 C 
ENDBRANCH  14  15
ENDBRANCH  13  14
ENDBRANCH  12  13
ENDBRANCH  11  12
ENDBRANCH  10  11
ENDBRANCH   1  10
TORSDOF 12
ENDMDL
MODEL 3
REMARK VINA RESULT:     7.948      2.737      6.385
REMARK INTER + INTRA:          12.912
REMARK INTER:                  13.397
REMARK INTRA:                  -0.484
REMARK UNBOUND:                -0.611
REMARK SMILES CCCCCCCCCCCCCC(=O)[O-]
REMARK SMILES IDX 8 1 9 2 10 3 11 4 12 5 13 6 14 7 15 8 16 9 7 10 6 11 5 12
REMARK SMILES IDX 4 13 3 14 2 15 1 16
REMARK H PARENT
REMARK Flexibility Score: inf
ROOT
ATOM      1  C   UNL     1     -34.338  13.708  16.561  1.00  0.00     0.000 C 
ENDROOT
BRANCH   1   2
ATOM      2  C   UNL     1     -34.691  14.748  17.635  1.00  0.00     0.000 C 
BRANCH   2   3
ATOM      3  C   UNL     1     -34.919  16.131  17.006  1.00  0.00     0.000 C 
BRANCH   3   4
ATOM      4  C   UNL     1     -35.337  17.197  18.036  1.00  0.00     0.000 C 
BRANCH   4   5
ATOM      5  C   UNL     1     -36.831  17.190  18.410  1.00  0.00     0.006 C 
BRANCH   5   6
ATOM      6  C   UNL     1     -37.605  16.034  17.764  1.00  0.00     0.053 C 
BRANCH   6   7
ATOM      7  C   UNL     1     -38.879  15.779  18.506  1.00  0.00     0.041 C 
ATOM      8  O   UNL     1     -38.870  15.092  19.562  1.00  0.00    -0.550 OA
ATOM      9  O   UNL     1     -40.082  16.259  18.007  1.00  0.00    -0.550 OA
ENDBRANCH   6   7
ENDBRANCH   5   6
ENDBRANCH   4   5
ENDBRANCH   3   4
ENDBRANCH   2   3
ENDBRANCH   1   2
BRANCH   1  10
ATOM     10  C   UNL     1     -33.919  12.356  17.163  1.00  0.00     0.000 C 
BRANCH  10  11
ATOM     11  C   UNL     1     -32.545  12.418  17.855  1.00  0.00    -0.000 C 
BRANCH  11  12
ATOM     12  C   UNL     1     -32.597  11.948  19.318  1.00  0.00    -0.000 C 
BRANCH  12  13
ATOM     13  C   UNL     1     -33.538  10.747  19.519  1.00  0.00    -0.000 C 
BRANCH  13  14
ATOM     14  C   UNL     1     -33.982  10.584  20.981  1.00  0.00    -0.000 C 
BRANCH  14  15
ATOM     15  C   UNL     1     -34.092  11.926  21.720  1.00  0.00    -0.003 C 
ATOM     16  C   UNL     1     -34.424  11.715  23.195  1.00  0.00     0.004 C 
ENDBRANCH  14  15
ENDBRANCH  13  14
ENDBRANCH  12  13
ENDBRANCH  11  12
ENDBRANCH  10  11
ENDBRANCH   1  10
TORSDOF 12
ENDMDL
