MODEL 1
REMARK VINA RESULT:    -3.665      0.000      0.000
REMARK INTER + INTRA:          -8.832
REMARK INTER:                  -6.665
REMARK INTRA:                  -2.167
REMARK UNBOUND:                -2.167
REMARK SMILES CCCCCCCCCCCCCCCC(=O)[O-]
REMARK SMILES IDX 9 1 10 2 11 3 12 4 13 5 14 6 15 7 16 8 17 9 18 10 8 11 7 12
REMARK SMILES IDX 6 13 5 14 4 15 3 16 2 17 1 18
REMARK H PARENT
REMARK Flexibility Score: inf
ROOT
ATOM      1  C   UNL     1       6.722  -0.095  31.864  1.00  0.00     0.000 C 
ENDROOT
BRANCH   1   2
ATOM      2  C   UNL     1       6.309  -1.200  32.851  1.00  0.00     0.000 C 
BRANCH   2   3
ATOM      3  C   UNL     1       5.116  -2.036  32.351  1.00  0.00     0.000 C 
BRANCH   3   4
ATOM      4  C   UNL     1       3.829  -1.904  33.184  1.00  0.00     0.000 C 
BRANCH   4   5
ATOM      5  C   UNL     1       3.477  -3.185  33.955  1.00  0.00     0.000 C 
BRANCH   5   6
ATOM      6  C   UNL     1       3.646  -2.980  35.467  1.00  0.00     0.006 C 
BRANCH   6   7
ATOM      7  C   UNL     1       5.098  -3.176  35.923  1.00  0.00     0.053 C 
BRANCH   7   8
ATOM      8  C   UNL     1       5.251  -4.388  36.790  1.00  0.00     0.041 C 
ATOM      9  O   UNL     1       5.666  -4.272  37.973  1.00  0.00    -0.550 OA
ATOM     10  O   UNL     1       4.969  -5.650  36.281  1.00  0.00    -0.550 OA
ENDBRANCH   7   8
ENDBRANCH   6   7
ENDBRANCH   5   6
ENDBRANCH   4   5
ENDBRANCH   3   4
ENDBRANCH   2   3
ENDBRANCH   1   2
BRANCH   1  11
ATOM     11  C   UNL     1       6.578   1.314  32.463  1.00  0.00     0.000 C 
BRANCH  11  12
ATOM     12  C   UNL     1       5.489   2.148  31.762  1.00  0.00    -0.000 C 
BRANCH  12  13
ATOM     13  C   UNL     1       4.178   2.204  32.564  1.00  0.00    -0.000 C 
BRANCH  13  14
ATOM     14  C   UNL     1       3.070   1.337  31.941  1.00  0.00    -0.000 C 
BRANCH  14  15
ATOM     15  C   UNL     1       3.220   1.178  30.416  1.00  0.00    -0.000 C 
BRANCH  15  16
ATOM     16  C   UNL     1       3.144  -0.270  29.899  1.00  0.00    -0.000 C 
BRANCH  16  17
ATOM     17  C   UNL     1       4.300  -0.630  28.954  1.00  0.00    -0.003 C 
ATOM     18  C   UNL     1       5.048   0.620  28.501  1.00  0.00     0.004 C 
ENDBRANCH  16  17
ENDBRANCH  15  16
ENDBRANCH  14  15
ENDBRANCH  13  14
ENDBRANCH  12  13
ENDBRANCH  11  12
ENDBRANCH   1  11
TORSDOF 14
ENDMDL
MODEL 2
REMARK VINA RESULT:    -3.660      4.405      6.505
REMARK INTER + INTRA:          -8.822
REMARK INTER:                  -7.657
REMARK INTRA:                  -1.165
REMARK UNBOUND:                -2.167
REMARK SMILES CCCCCCCCCCCCCCCC(=O)[O-]
REMARK SMILES IDX 9 1 10 2 11 3 12 4 13 5 14 6 15 7 16 8 17 9 18 10 8 11 7 12
REMARK SMILES IDX 6 13 5 14 4 15 3 16 2 17 1 18
REMARK H PARENT
REMARK Flexibility Score: inf
ROOT
ATOM      1  C   UNL     1       6.018   4.530  33.591  1.00  0.00     0.000 C 
ENDROOT
BRANCH   1   2
ATOM      2  C   UNL     1       5.797   3.412  32.557  1.00  0.00     0.000 C 
BRANCH   2   3
ATOM      3  C   UNL     1       4.532   2.580  32.835  1.00  0.00     0.000 C 
BRANCH   3   4
ATOM      4  C   UNL     1       4.351   1.345  31.934  1.00  0.00     0.000 C 
BRANCH   4   5
ATOM      5  C   UNL     1       3.081   0.544  32.260  1.00  0.00     0.000 C 
BRANCH   5   6
ATOM      6  C   UNL     1       3.241  -0.929  31.854  1.00  0.00     0.006 C 
BRANCH   6   7
ATOM      7  C   UNL     1       3.896  -1.768  32.959  1.00  0.00     0.053 C 
BRANCH   7   8
ATOM      8  C   UNL     1       2.876  -2.394  33.861  1.00  0.00     0.041 C 
ATOM      9  O   UNL     1       3.188  -2.725  35.035  1.00  0.00    -0.550 OA
ATOM     10  O   UNL     1       1.592  -2.644  33.394  1.00  0.00    -0.550 OA
ENDBRANCH   7   8
ENDBRANCH   6   7
ENDBRANCH   5   6
ENDBRANCH   4   5
ENDBRANCH   3   4
ENDBRANCH   2   3
ENDBRANCH   1   2
BRANCH   1  11
ATOM     11  C   UNL     1       6.395   5.870  32.939  1.00  0.00     0.000 C 
BRANCH  11  12
ATOM     12  C   UNL     1       7.454   6.645  33.746  1.00  0.00    -0.000 C 
BRANCH  12  13
ATOM     13  C   UNL     1       7.936   5.874  34.985  1.00  0.00    -0.000 C 
BRANCH  13  14
ATOM     14  C   UNL     1       7.944   6.744  36.254  1.00  0.00    -0.000 C 
BRANCH  14  15
ATOM     15  C   UNL     1       7.077   6.160  37.386  1.00  0.00    -0.000 C 
BRANCH  15  16
ATOM     16  C   UNL     1       5.607   5.897  37.014  1.00  0.00    -0.000 C 
BRANCH  16  17
ATOM     17  C   UNL     1       4.719   7.141  37.168  1.00  0.00    -0.003 C 
ATOM     18  C   UNL     1       4.428   7.779  35.813  1.00  0.00     0.004 C 
ENDBRANCH  16  17
ENDBRANCH  15  16
ENDBRANCH  14  15
ENDBRANCH  13  14
ENDBRANCH  12  13
ENDBRANCH  11  12
ENDBRANCH   1  11
TORSDOF 14
ENDMDL
MODEL 3
REMARK VINA RESULT:    -3.638      1.771      4.124
REMARK INTER + INTRA:          -8.783
REMARK INTER:                  -7.308
REMARK INTRA:                  -1.474
REMARK UNBOUND:                -2.167
REMARK SMILES CCCCCCCCCCCCCCCC(=O)[O-]
REMARK SMILES IDX 9 1 10 2 11 3 12 4 13 5 14 6 15 7 16 8 17 9 18 10 8 11 7 12
REMARK SMILES IDX 6 13 5 14 4 15 3 16 2 17 1 18
REMARK H PARENT
REMARK Flexibility Score: inf
ROOT
ATOM      1  C   UNL     1       3.104  -3.544  34.289  1.00  0.00     0.000 C 
ENDROOT
BRANCH   1   2
ATOM      2  C   UNL     1       3.882  -3.045  35.518  1.00  0.00     0.000 C 
BRANCH   2   3
ATOM      3  C   UNL     1       5.409  -3.136  35.339  1.00  0.00     0.000 C 
BRANCH   3   4
ATOM      4  C   UNL     1       6.234  -2.854  36.608  1.00  0.00     0.000 C 
BRANCH   4   5
ATOM      5  C   UNL     1       6.755  -4.132  37.282  1.00  0.00     0.000 C 
BRANCH   5   6
ATOM      6  C   UNL     1       5.653  -4.800  38.118  1.00  0.00     0.006 C 
BRANCH   6   7
ATOM      7  C   UNL     1       5.654  -6.327  37.968  1.00  0.00     0.053 C 
BRANCH   7   8
ATOM      8  C   UNL     1       5.589  -6.745  36.531  1.00  0.00     0.041 C 
ATOM      9  O   UNL     1       4.544  -6.542  35.859  1.00  0.00    -0.550 OA
ATOM     10  O   UNL     1       6.670  -7.390  35.943  1.00  0.00    -0.550 OA
ENDBRANCH   7   8
ENDBRANCH   6   7
ENDBRANCH   5   6
ENDBRANCH   4   5
ENDBRANCH   3   4
ENDBRANCH   2   3
ENDBRANCH   1   2
BRANCH   1  11
ATOM     11  C   UNL     1       1.925  -2.626  33.924  1.00  0.00     0.000 C 
BRANCH  11  12
ATOM     12  C   UNL     1       2.284  -1.606  32.828  1.00  0.00    -0.000 C 
BRANCH  12  13
ATOM     13  C   UNL     1       3.115  -2.224  31.692  1.00  0.00    -0.000 C 
BRANCH  13  14
ATOM     14  C   UNL     1       4.213  -1.275  31.181  1.00  0.00    -0.000 C 
BRANCH  14  15
ATOM     15  C   UNL     1       4.818  -0.403  32.298  1.00  0.00    -0.000 C 
BRANCH  15  16
ATOM     16  C   UNL     1       5.341   0.972  31.842  1.00  0.00    -0.000 C 
BRANCH  16  17
ATOM     17  C   UNL     1       4.623   2.143  32.529  1.00  0.00    -0.003 C 
ATOM     18  C   UNL     1       3.112   1.937  32.528  1.00  0.00     0.004 C 
ENDBRANCH  16  17
ENDBRANCH  15  16
ENDBRANCH  14  15
ENDBRANCH  13  14
ENDBRANCH  12  13
ENDBRANCH  11  12
ENDBRANCH   1  11
TORSDOF 14
ENDMDL
MODEL 4
REMARK VINA RESULT:    -3.602      2.109      3.998
REMARK INTER + INTRA:          -8.717
REMARK INTER:                  -7.455
REMARK INTRA:                  -1.262
REMARK UNBOUND:                -2.167
REMARK SMILES CCCCCCCCCCCCCCCC(=O)[O-]
REMARK SMILES IDX 9 1 10 2 11 3 12 4 13 5 14 6 15 7 16 8 17 9 18 10 8 11 7 12
REMARK SMILES IDX 6 13 5 14 4 15 3 16 2 17 1 18
REMARK H PARENT
REMARK Flexibility Score: inf
ROOT
ATOM      1  C   UNL     1       2.997   1.381  32.489  1.00  0.00     0.000 C 
ENDROOT
BRANCH   1   2
ATOM      2  C   UNL     1       3.313   0.022  31.841  1.00  0.00     0.000 C 
BRANCH   2   3
ATOM      3  C   UNL     1       3.399  -1.126  32.865  1.00  0.00     0.000 C 
BRANCH   3   4
ATOM      4  C   UNL     1       2.348  -2.237  32.693  1.00  0.00     0.000 C 
BRANCH   4   5
ATOM      5  C   UNL     1       2.228  -3.146  33.925  1.00  0.00     0.000 C 
BRANCH   5   6
ATOM      6  C   UNL     1       3.180  -2.689  35.040  1.00  0.00     0.006 C 
BRANCH   6   7
ATOM      7  C   UNL     1       4.256  -3.737  35.353  1.00  0.00     0.053 C 
BRANCH   7   8
ATOM      8  C   UNL     1       5.607  -3.114  35.526  1.00  0.00     0.041 C 
ATOM      9  O   UNL     1       5.977  -2.711  36.660  1.00  0.00    -0.550 OA
ATOM     10  O   UNL     1       6.444  -2.946  34.430  1.00  0.00    -0.550 OA
ENDBRANCH   7   8
ENDBRANCH   6   7
ENDBRANCH   5   6
ENDBRANCH   4   5
ENDBRANCH   3   4
ENDBRANCH   2   3
ENDBRANCH   1   2
BRANCH   1  11
ATOM     11  C   UNL     1       4.223   2.306  32.547  1.00  0.00     0.000 C 
BRANCH  11  12
ATOM     12  C   UNL     1       5.516   1.608  32.087  1.00  0.00    -0.000 C 
BRANCH  12  13
ATOM     13  C   UNL     1       6.231   2.368  30.958  1.00  0.00    -0.000 C 
BRANCH  13  14
ATOM     14  C   UNL     1       7.673   2.754  31.329  1.00  0.00    -0.000 C 
BRANCH  14  15
ATOM     15  C   UNL     1       7.744   3.951  32.296  1.00  0.00    -0.000 C 
BRANCH  15  16
ATOM     16  C   UNL     1       6.759   5.094  31.995  1.00  0.00    -0.000 C 
BRANCH  16  17
ATOM     17  C   UNL     1       5.981   5.558  33.236  1.00  0.00    -0.003 C 
ATOM     18  C   UNL     1       6.393   4.762  34.470  1.00  0.00     0.004 C 
ENDBRANCH  16  17
ENDBRANCH  15  16
ENDBRANCH  14  15
ENDBRANCH  13  14
ENDBRANCH  12  13
ENDBRANCH  11  12
ENDBRANCH   1  11
TORSDOF 14
ENDMDL
MODEL 5
REMARK VINA RESULT:    -3.550      4.476      7.506
REMARK INTER + INTRA:          -8.622
REMARK INTER:                  -7.526
REMARK INTRA:                  -1.096
REMARK UNBOUND:                -2.167
REMARK SMILES CCCCCCCCCCCCCCCC(=O)[O-]
REMARK SMILES IDX 9 1 10 2 11 3 12 4 13 5 14 6 15 7 16 8 17 9 18 10 8 11 7 12
REMARK SMILES IDX 6 13 5 14 4 15 3 16 2 17 1 18
REMARK H PARENT
REMARK Flexibility Score: inf
ROOT
ATOM      1  C   UNL     1       4.131   2.224  32.644  1.00  0.00     0.000 C 
ENDROOT
BRANCH   1   2
ATOM      2  C   UNL     1       5.292   2.000  31.660  1.00  0.00     0.000 C 
BRANCH   2   3
ATOM      3  C   UNL     1       6.649   1.816  32.365  1.00  0.00     0.000 C 
BRANCH   3   4
ATOM      4  C   UNL     1       7.243   3.093  32.986  1.00  0.00     0.000 C 
BRANCH   4   5
ATOM      5  C   UNL     1       7.727   4.103  31.935  1.00  0.00     0.000 C 
BRANCH   5   6
ATOM      6  C   UNL     1       6.821   5.343  31.906  1.00  0.00     0.006 C 
BRANCH   6   7
ATOM      7  C   UNL     1       6.043   5.526  33.216  1.00  0.00     0.053 C 
BRANCH   7   8
ATOM      8  C   UNL     1       6.694   6.532  34.115  1.00  0.00     0.041 C 
ATOM      9  O   UNL     1       7.083   6.195  35.264  1.00  0.00    -0.550 OA
ATOM     10  O   UNL     1       6.840   7.849  33.697  1.00  0.00    -0.550 OA
ENDBRANCH   7   8
ENDBRANCH   6   7
ENDBRANCH   5   6
ENDBRANCH   4   5
ENDBRANCH   3   4
ENDBRANCH   2   3
ENDBRANCH   1   2
BRANCH   1  11
ATOM     11  C   UNL     1       2.939   1.293  32.371  1.00  0.00     0.000 C 
BRANCH  11  12
ATOM     12  C   UNL     1       3.367  -0.059  31.772  1.00  0.00    -0.000 C 
BRANCH  12  13
ATOM     13  C   UNL     1       3.465  -1.172  32.828  1.00  0.00    -0.000 C 
BRANCH  13  14
ATOM     14  C   UNL     1       2.220  -2.075  32.849  1.00  0.00    -0.000 C 
BRANCH  14  15
ATOM     15  C   UNL     1       2.138  -2.954  34.112  1.00  0.00    -0.000 C 
BRANCH  15  16
ATOM     16  C   UNL     1       3.310  -2.793  35.098  1.00  0.00    -0.000 C 
BRANCH  16  17
ATOM     17  C   UNL     1       4.218  -4.030  35.155  1.00  0.00    -0.003 C 
ATOM     18  C   UNL     1       5.259  -3.896  36.262  1.00  0.00     0.004 C 
ENDBRANCH  16  17
ENDBRANCH  15  16
ENDBRANCH  14  15
ENDBRANCH  13  14
ENDBRANCH  12  13
ENDBRANCH  11  12
ENDBRANCH   1  11
TORSDOF 14
ENDMDL
MODEL 6
REMARK VINA RESULT:    -3.526     12.918     14.530
REMARK INTER + INTRA:          -8.579
REMARK INTER:                  -6.833
REMARK INTRA:                  -1.746
REMARK UNBOUND:                -2.167
REMARK SMILES CCCCCCCCCCCCCCCC(=O)[O-]
REMARK SMILES IDX 9 1 10 2 11 3 12 4 13 5 14 6 15 7 16 8 17 9 18 10 8 11 7 12
REMARK SMILES IDX 6 13 5 14 4 15 3 16 2 17 1 18
REMARK H PARENT
REMARK Flexibility Score: inf
ROOT
ATOM      1  C   UNL     1       3.352   4.074  18.911  1.00  0.00     0.000 C 
ENDROOT
BRANCH   1   2
ATOM      2  C   UNL     1       2.917   3.276  20.152  1.00  0.00     0.000 C 
BRANCH   2   3
ATOM      3  C   UNL     1       1.538   2.611  19.984  1.00  0.00     0.000 C 
BRANCH   3   4
ATOM      4  C   UNL     1       1.251   2.044  18.583  1.00  0.00     0.000 C 
BRANCH   4   5
ATOM      5  C   UNL     1       1.109   0.515  18.571  1.00  0.00     0.000 C 
BRANCH   5   6
ATOM      6  C   UNL     1       0.249   0.033  19.749  1.00  0.00     0.006 C 
BRANCH   6   7
ATOM      7  C   UNL     1      -1.231  -0.107  19.369  1.00  0.00     0.053 C 
BRANCH   7   8
ATOM      8  C   UNL     1      -2.128   0.560  20.367  1.00  0.00     0.041 C 
ATOM      9  O   UNL     1      -3.373   0.378  20.321  1.00  0.00    -0.550 OA
ATOM     10  O   UNL     1      -1.592   1.410  21.327  1.00  0.00    -0.550 OA
ENDBRANCH   7   8
ENDBRANCH   6   7
ENDBRANCH   5   6
ENDBRANCH   4   5
ENDBRANCH   3   4
ENDBRANCH   2   3
ENDBRANCH   1   2
BRANCH   1  11
ATOM     11  C   UNL     1       4.821   3.822  18.531  1.00  0.00     0.000 C 
BRANCH  11  12
ATOM     12  C   UNL     1       5.491   2.762  19.425  1.00  0.00    -0.000 C 
BRANCH  12  13
ATOM     13  C   UNL     1       6.622   3.344  20.289  1.00  0.00    -0.000 C 
BRANCH  13  14
ATOM     14  C   UNL     1       6.185   3.594  21.742  1.00  0.00    -0.000 C 
BRANCH  14  15
ATOM     15  C   UNL     1       6.330   5.067  22.167  1.00  0.00    -0.000 C 
BRANCH  15  16
ATOM     16  C   UNL     1       5.666   6.088  21.226  1.00  0.00    -0.000 C 
BRANCH  16  17
ATOM     17  C   UNL     1       4.238   6.457  21.654  1.00  0.00    -0.003 C 
ATOM     18  C   UNL     1       3.614   7.455  20.685  1.00  0.00     0.004 C 
ENDBRANCH  16  17
ENDBRANCH  15  16
ENDBRANCH  14  15
ENDBRANCH  13  14
ENDBRANCH  12  13
ENDBRANCH  11  12
ENDBRANCH   1  11
TORSDOF 14
ENDMDL
MODEL 7
REMARK VINA RESULT:    -3.489     11.393     14.161
REMARK INTER + INTRA:          -8.512
REMARK INTER:                  -6.204
REMARK INTRA:                  -2.307
REMARK UNBOUND:                -2.167
REMARK SMILES CCCCCCCCCCCCCCCC(=O)[O-]
REMARK SMILES IDX 9 1 10 2 11 3 12 4 13 5 14 6 15 7 16 8 17 9 18 10 8 11 7 12
REMARK SMILES IDX 6 13 5 14 4 15 3 16 2 17 1 18
REMARK H PARENT
REMARK Flexibility Score: inf
ROOT
ATOM      1  C   UNL     1       3.365   4.392  19.935  1.00  0.00     0.000 C 
ENDROOT
BRANCH   1   2
ATOM      2  C   UNL     1       2.487   3.707  20.996  1.00  0.00     0.000 C 
BRANCH   2   3
ATOM      3  C   UNL     1       1.591   2.600  20.409  1.00  0.00     0.000 C 
BRANCH   3   4
ATOM      4  C   UNL     1       1.771   2.342  18.903  1.00  0.00     0.000 C 
BRANCH   4   5
ATOM      5  C   UNL     1       1.149   1.015  18.442  1.00  0.00     0.000 C 
BRANCH   5   6
ATOM      6  C   UNL     1       0.442   0.306  19.606  1.00  0.00     0.006 C 
BRANCH   6   7
ATOM      7  C   UNL     1      -1.000  -0.086  19.259  1.00  0.00     0.053 C 
BRANCH   7   8
ATOM      8  C   UNL     1      -1.986   0.519  20.211  1.00  0.00     0.041 C 
ATOM      9  O   UNL     1      -1.605   1.357  21.070  1.00  0.00    -0.550 OA
ATOM     10  O   UNL     1      -3.320   0.133  20.172  1.00  0.00    -0.550 OA
ENDBRANCH   7   8
ENDBRANCH   6   7
ENDBRANCH   5   6
ENDBRANCH   4   5
ENDBRANCH   3   4
ENDBRANCH   2   3
ENDBRANCH   1   2
BRANCH   1  11
ATOM     11  C   UNL     1       4.700   4.893  20.508  1.00  0.00     0.000 C 
BRANCH  11  12
ATOM     12  C   UNL     1       5.917   4.178  19.891  1.00  0.00    -0.000 C 
BRANCH  12  13
ATOM     13  C   UNL     1       5.522   2.937  19.073  1.00  0.00    -0.000 C 
BRANCH  13  14
ATOM     14  C   UNL     1       6.015   1.628  19.714  1.00  0.00    -0.000 C 
BRANCH  14  15
ATOM     15  C   UNL     1       5.173   1.203  20.932  1.00  0.00    -0.000 C 
BRANCH  15  16
ATOM     16  C   UNL     1       4.425  -0.134  20.774  1.00  0.00    -0.000 C 
BRANCH  16  17
ATOM     17  C   UNL     1       3.357  -0.353  21.856  1.00  0.00    -0.003 C 
ATOM     18  C   UNL     1       3.520   0.644  22.999  1.00  0.00     0.004 C 
ENDBRANCH  16  17
ENDBRANCH  15  16
ENDBRANCH  14  15
ENDBRANCH  13  14
ENDBRANCH  12  13
ENDBRANCH  11  12
ENDBRANCH   1  11
TORSDOF 14
ENDMDL
MODEL 8
REMARK VINA RESULT:    -3.480     13.090     14.485
REMARK INTER + INTRA:          -8.496
REMARK INTER:                  -7.028
REMARK INTRA:                  -1.467
REMARK UNBOUND:                -2.167
REMARK SMILES CCCCCCCCCCCCCCCC(=O)[O-]
REMARK SMILES IDX 9 1 10 2 11 3 12 4 13 5 14 6 15 7 16 8 17 9 18 10 8 11 7 12
REMARK SMILES IDX 6 13 5 14 4 15 3 16 2 17 1 18
REMARK H PARENT
REMARK Flexibility Score: inf
ROOT
ATOM      1  C   UNL     1       2.351   3.111  20.113  1.00  0.00     0.000 C 
ENDROOT
BRANCH   1   2
ATOM      2  C   UNL     1       1.061   2.309  20.356  1.00  0.00     0.000 C 
BRANCH   2   3
ATOM      3  C   UNL     1       0.722   1.351  19.200  1.00  0.00     0.000 C 
BRANCH   3   4
ATOM      4  C   UNL     1       1.071  -0.128  19.452  1.00  0.00     0.000 C 
BRANCH   4   5
ATOM      5  C   UNL     1      -0.100  -0.929  20.039  1.00  0.00     0.000 C 
BRANCH   5   6
ATOM      6  C   UNL     1      -1.447  -0.368  19.557  1.00  0.00     0.006 C 
BRANCH   6   7
ATOM      7  C   UNL     1      -2.471  -0.257  20.694  1.00  0.00     0.053 C 
BRANCH   7   8
ATOM      8  C   UNL     1      -2.650   1.160  21.146  1.00  0.00     0.041 C 
ATOM      9  O   UNL     1      -3.327   1.964  20.454  1.00  0.00    -0.550 OA
ATOM     10  O   UNL     1      -2.040   1.602  22.313  1.00  0.00    -0.550 OA
ENDBRANCH   7   8
ENDBRANCH   6   7
ENDBRANCH   5   6
ENDBRANCH   4   5
ENDBRANCH   3   4
ENDBRANCH   2   3
ENDBRANCH   1   2
BRANCH   1  11
ATOM     11  C   UNL     1       2.687   3.248  18.619  1.00  0.00     0.000 C 
BRANCH  11  12
ATOM     12  C   UNL     1       3.565   4.477  18.319  1.00  0.00    -0.000 C 
BRANCH  12  13
ATOM     13  C   UNL     1       5.063   4.137  18.262  1.00  0.00    -0.000 C 
BRANCH  13  14
ATOM     14  C   UNL     1       5.813   4.562  19.536  1.00  0.00    -0.000 C 
BRANCH  14  15
ATOM     15  C   UNL     1       6.161   3.374  20.452  1.00  0.00    -0.000 C 
BRANCH  15  16
ATOM     16  C   UNL     1       6.125   1.993  19.773  1.00  0.00    -0.000 C 
BRANCH  16  17
ATOM     17  C   UNL     1       5.440   0.921  20.634  1.00  0.00    -0.003 C 
ATOM     18  C   UNL     1       5.908  -0.478  20.245  1.00  0.00     0.004 C 
ENDBRANCH  16  17
ENDBRANCH  15  16
ENDBRANCH  14  15
ENDBRANCH  13  14
ENDBRANCH  12  13
ENDBRANCH  11  12
ENDBRANCH   1  11
TORSDOF 14
ENDMDL
MODEL 9
REMARK VINA RESULT:    -3.450     11.568     14.477
REMARK INTER + INTRA:          -8.441
REMARK INTER:                  -6.754
REMARK INTRA:                  -1.687
REMARK UNBOUND:                -2.167
REMARK SMILES CCCCCCCCCCCCCCCC(=O)[O-]
REMARK SMILES IDX 9 1 10 2 11 3 12 4 13 5 14 6 15 7 16 8 17 9 18 10 8 11 7 12
REMARK SMILES IDX 6 13 5 14 4 15 3 16 2 17 1 18
REMARK H PARENT
REMARK Flexibility Score: inf
ROOT
ATOM      1  C   UNL     1       2.808   3.742  19.706  1.00  0.00     0.000 C 
ENDROOT
BRANCH   1   2
ATOM      2  C   UNL     1       1.728   2.647  19.667  1.00  0.00     0.000 C 
BRANCH   2   3
ATOM      3  C   UNL     1       1.549   2.030  18.268  1.00  0.00     0.000 C 
BRANCH   3   4
ATOM      4  C   UNL     1       0.748   0.716  18.229  1.00  0.00     0.000 C 
BRANCH   4   5
ATOM      5  C   UNL     1       0.375   0.199  19.626  1.00  0.00     0.000 C 
BRANCH   5   6
ATOM      6  C   UNL     1      -1.149   0.181  19.817  1.00  0.00     0.006 C 
BRANCH   6   7
ATOM      7  C   UNL     1      -1.818  -0.966  19.049  1.00  0.00     0.053 C 
BRANCH   7   8
ATOM      8  C   UNL     1      -2.531  -1.911  19.968  1.00  0.00     0.041 C 
ATOM      9  O   UNL     1      -3.388  -2.712  19.511  1.00  0.00    -0.550 OA
ATOM     10  O   UNL     1      -2.274  -1.881  21.333  1.00  0.00    -0.550 OA
ENDBRANCH   7   8
ENDBRANCH   6   7
ENDBRANCH   5   6
ENDBRANCH   4   5
ENDBRANCH   3   4
ENDBRANCH   2   3
ENDBRANCH   1   2
BRANCH   1  11
ATOM     11  C   UNL     1       3.517   3.920  18.354  1.00  0.00     0.000 C 
BRANCH  11  12
ATOM     12  C   UNL     1       5.044   4.063  18.499  1.00  0.00    -0.000 C 
BRANCH  12  13
ATOM     13  C   UNL     1       5.487   4.233  19.961  1.00  0.00    -0.000 C 
BRANCH  13  14
ATOM     14  C   UNL     1       6.410   3.097  20.433  1.00  0.00    -0.000 C 
BRANCH  14  15
ATOM     15  C   UNL     1       6.073   1.742  19.784  1.00  0.00    -0.000 C 
BRANCH  15  16
ATOM     16  C   UNL     1       5.047   0.887  20.551  1.00  0.00    -0.000 C 
BRANCH  16  17
ATOM     17  C   UNL     1       4.748   1.428  21.956  1.00  0.00    -0.003 C 
ATOM     18  C   UNL     1       3.557   0.707  22.581  1.00  0.00     0.004 C 
ENDBRANCH  16  17
ENDBRANCH  15  16
ENDBRANCH  14  15
ENDBRANCH  13  14
ENDBRANCH  12  13
ENDBRANCH  11  12
ENDBRANCH   1  11
TORSDOF 14
ENDMDL
