MODEL 1
REMARK VINA RESULT:    -5.066      0.000      0.000
REMARK INTER + INTRA:          -5.214
REMARK INTER:                  -5.214
REMARK INTRA:                   0.000
REMARK UNBOUND:                 0.000
REMARK SMILES O=c1ccc2ccc(O)cc2o1
REMARK SMILES IDX 6 1 7 2 8 3 10 4 11 5 5 6 4 7 3 8 2 9 1 10 12 11 9 12
REMARK H PARENT 9 13
REMARK Flexibility Score: inf
ROOT
ATOM      1  C   UNL     1      20.948  -0.777 -21.960  1.00  0.00     0.016 A 
ATOM      2  C   UNL     1      21.508   0.196 -22.795  1.00  0.00     0.047 A 
ATOM      3  C   UNL     1      21.878   1.443 -22.278  1.00  0.00     0.119 A 
ATOM      4  C   UNL     1      21.685   1.722 -20.917  1.00  0.00     0.094 A 
ATOM      5  C   UNL     1      21.125   0.755 -20.075  1.00  0.00     0.142 A 
ATOM      6  C   UNL     1      20.754  -0.503 -20.600  1.00  0.00     0.018 A 
ATOM      7  C   UNL     1      20.197  -1.449 -19.733  1.00  0.00     0.019 A 
ATOM      8  C   UNL     1      20.025  -1.126 -18.388  1.00  0.00     0.094 A 
ATOM      9  C   UNL     1      20.415   0.139 -17.938  1.00  0.00     0.336 A 
ATOM     10  O   UNL     1      20.268   0.449 -16.727  1.00  0.00    -0.246 OA
ATOM     11  O   UNL     1      20.944   1.021 -18.783  1.00  0.00    -0.423 OA
ENDROOT
BRANCH   3  12
ATOM     12  O   UNL     1      22.435   2.399 -23.125  1.00  0.00    -0.508 OA
ATOM     13  H   UNL     1      22.177   3.377 -23.063  1.00  0.00     0.293 HD
ENDBRANCH   3  12
TORSDOF 1
ENDMDL
MODEL 2
REMARK VINA RESULT:    -4.961     16.330     19.080
REMARK INTER + INTRA:          -5.105
REMARK INTER:                  -5.105
REMARK INTRA:                   0.000
REMARK UNBOUND:                 0.000
REMARK SMILES O=c1ccc2ccc(O)cc2o1
REMARK SMILES IDX 6 1 7 2 8 3 10 4 11 5 5 6 4 7 3 8 2 9 1 10 12 11 9 12
REMARK H PARENT 9 13
REMARK Flexibility Score: inf
ROOT
ATOM      1  C   UNL     1       8.173  -7.996  -6.574  1.00  0.00     0.016 A 
ATOM      2  C   UNL     1       7.656  -7.064  -5.668  1.00  0.00     0.047 A 
ATOM      3  C   UNL     1       8.148  -5.752  -5.645  1.00  0.00     0.119 A 
ATOM      4  C   UNL     1       9.164  -5.371  -6.533  1.00  0.00     0.094 A 
ATOM      5  C   UNL     1       9.686  -6.297  -7.443  1.00  0.00     0.142 A 
ATOM      6  C   UNL     1       9.188  -7.619  -7.463  1.00  0.00     0.018 A 
ATOM      7  C   UNL     1       9.730  -8.521  -8.383  1.00  0.00     0.019 A 
ATOM      8  C   UNL     1      10.738  -8.095  -9.246  1.00  0.00     0.094 A 
ATOM      9  C   UNL     1      11.183  -6.771  -9.169  1.00  0.00     0.336 A 
ATOM     10  O   UNL     1      12.093  -6.368  -9.941  1.00  0.00    -0.246 OA
ATOM     11  O   UNL     1      10.650  -5.932  -8.285  1.00  0.00    -0.423 OA
ENDROOT
BRANCH   3  12
ATOM     12  O   UNL     1       7.621  -4.838  -4.736  1.00  0.00    -0.508 OA
ATOM     13  H   UNL     1       6.865  -5.090  -4.109  1.00  0.00     0.293 HD
ENDBRANCH   3  12
TORSDOF 1
ENDMDL
MODEL 3
REMARK VINA RESULT:    -4.937      2.492      3.739
REMARK INTER + INTRA:          -5.081
REMARK INTER:                  -5.081
REMARK INTRA:                   0.000
REMARK UNBOUND:                 0.000
REMARK SMILES O=c1ccc2ccc(O)cc2o1
REMARK SMILES IDX 6 1 7 2 8 3 10 4 11 5 5 6 4 7 3 8 2 9 1 10 12 11 9 12
REMARK H PARENT 9 13
REMARK Flexibility Score: inf
ROOT
ATOM      1  C   UNL     1      21.150   0.846 -20.014  1.00  0.00     0.016 A 
ATOM      2  C   UNL     1      20.019   0.097 -20.358  1.00  0.00     0.047 A 
ATOM      3  C   UNL     1      19.247  -0.516 -19.364  1.00  0.00     0.119 A 
ATOM      4  C   UNL     1      19.609  -0.381 -18.015  1.00  0.00     0.094 A 
ATOM      5  C   UNL     1      20.738   0.365 -17.662  1.00  0.00     0.142 A 
ATOM      6  C   UNL     1      21.514   0.983 -18.668  1.00  0.00     0.018 A 
ATOM      7  C   UNL     1      22.637   1.722 -18.284  1.00  0.00     0.019 A 
ATOM      8  C   UNL     1      22.957   1.828 -16.931  1.00  0.00     0.094 A 
ATOM      9  C   UNL     1      22.143   1.189 -15.990  1.00  0.00     0.336 A 
ATOM     10  O   UNL     1      22.415   1.273 -14.763  1.00  0.00    -0.246 OA
ATOM     11  O   UNL     1      21.079   0.492 -16.381  1.00  0.00    -0.423 OA
ENDROOT
BRANCH   3  12
ATOM     12  O   UNL     1      18.124  -1.256 -19.726  1.00  0.00    -0.508 OA
ATOM     13  H   UNL     1      18.027  -2.231 -19.468  1.00  0.00     0.293 HD
ENDBRANCH   3  12
TORSDOF 1
ENDMDL
MODEL 4
REMARK VINA RESULT:    -4.910     18.501     20.136
REMARK INTER + INTRA:          -5.053
REMARK INTER:                  -5.053
REMARK INTRA:                   0.000
REMARK UNBOUND:                 0.000
REMARK SMILES O=c1ccc2ccc(O)cc2o1
REMARK SMILES IDX 6 1 7 2 8 3 10 4 11 5 5 6 4 7 3 8 2 9 1 10 12 11 9 12
REMARK H PARENT 9 13
REMARK Flexibility Score: inf
ROOT
ATOM      1  C   UNL     1       4.641   4.342  -7.499  1.00  0.00     0.016 A 
ATOM      2  C   UNL     1       5.586   3.317  -7.387  1.00  0.00     0.047 A 
ATOM      3  C   UNL     1       6.691   3.277  -8.246  1.00  0.00     0.119 A 
ATOM      4  C   UNL     1       6.852   4.269  -9.225  1.00  0.00     0.094 A 
ATOM      5  C   UNL     1       5.912   5.298  -9.344  1.00  0.00     0.142 A 
ATOM      6  C   UNL     1       4.798   5.335  -8.475  1.00  0.00     0.018 A 
ATOM      7  C   UNL     1       3.875   6.375  -8.618  1.00  0.00     0.019 A 
ATOM      8  C   UNL     1       4.078   7.338  -9.606  1.00  0.00     0.094 A 
ATOM      9  C   UNL     1       5.203   7.238 -10.431  1.00  0.00     0.336 A 
ATOM     10  O   UNL     1       5.403   8.098 -11.328  1.00  0.00    -0.246 OA
ATOM     11  O   UNL     1       6.067   6.238 -10.273  1.00  0.00    -0.423 OA
ENDROOT
BRANCH   3  12
ATOM     12  O   UNL     1       7.622   2.249  -8.119  1.00  0.00    -0.508 OA
ATOM     13  H   UNL     1       7.393   1.294  -8.368  1.00  0.00     0.293 HD
ENDBRANCH   3  12
TORSDOF 1
ENDMDL
MODEL 5
REMARK VINA RESULT:    -4.885     18.222     19.996
REMARK INTER + INTRA:          -5.027
REMARK INTER:                  -5.027
REMARK INTRA:                   0.000
REMARK UNBOUND:                 0.000
REMARK SMILES O=c1ccc2ccc(O)cc2o1
REMARK SMILES IDX 6 1 7 2 8 3 10 4 11 5 5 6 4 7 3 8 2 9 1 10 12 11 9 12
REMARK H PARENT 9 13
REMARK Flexibility Score: inf
ROOT
ATOM      1  C   UNL     1       7.969  -8.009  -5.869  1.00  0.00     0.016 A 
ATOM      2  C   UNL     1       7.955  -6.912  -5.001  1.00  0.00     0.047 A 
ATOM      3  C   UNL     1       7.962  -5.607  -5.510  1.00  0.00     0.119 A 
ATOM      4  C   UNL     1       7.986  -5.398  -6.897  1.00  0.00     0.094 A 
ATOM      5  C   UNL     1       8.001  -6.489  -7.772  1.00  0.00     0.142 A 
ATOM      6  C   UNL     1       7.993  -7.804  -7.254  1.00  0.00     0.018 A 
ATOM      7  C   UNL     1       8.008  -8.874  -8.154  1.00  0.00     0.019 A 
ATOM      8  C   UNL     1       8.032  -8.616  -9.524  1.00  0.00     0.094 A 
ATOM      9  C   UNL     1       8.039  -7.289  -9.964  1.00  0.00     0.336 A 
ATOM     10  O   UNL     1       8.060  -7.036 -11.198  1.00  0.00    -0.246 OA
ATOM     11  O   UNL     1       8.024  -6.288  -9.088  1.00  0.00    -0.423 OA
ENDROOT
BRANCH   3  12
ATOM     12  O   UNL     1       7.947  -4.527  -4.631  1.00  0.00    -0.508 OA
ATOM     13  H   UNL     1       7.825  -3.577  -4.960  1.00  0.00     0.293 HD
ENDBRANCH   3  12
TORSDOF 1
ENDMDL
MODEL 6
REMARK VINA RESULT:    -4.877     17.258     19.294
REMARK INTER + INTRA:          -5.019
REMARK INTER:                  -5.019
REMARK INTRA:                   0.000
REMARK UNBOUND:                 0.000
REMARK SMILES O=c1ccc2ccc(O)cc2o1
REMARK SMILES IDX 6 1 7 2 8 3 10 4 11 5 5 6 4 7 3 8 2 9 1 10 12 11 9 12
REMARK H PARENT 9 13
REMARK Flexibility Score: inf
ROOT
ATOM      1  C   UNL     1       8.126  -7.979  -7.031  1.00  0.00     0.016 A 
ATOM      2  C   UNL     1       7.933  -7.075  -5.981  1.00  0.00     0.047 A 
ATOM      3  C   UNL     1       7.769  -5.709  -6.246  1.00  0.00     0.119 A 
ATOM      4  C   UNL     1       7.801  -5.244  -7.569  1.00  0.00     0.094 A 
ATOM      5  C   UNL     1       7.993  -6.142  -8.625  1.00  0.00     0.142 A 
ATOM      6  C   UNL     1       8.157  -7.520  -8.354  1.00  0.00     0.018 A 
ATOM      7  C   UNL     1       8.348  -8.392  -9.430  1.00  0.00     0.019 A 
ATOM      8  C   UNL     1       8.371  -7.883 -10.727  1.00  0.00     0.094 A 
ATOM      9  C   UNL     1       8.203  -6.508 -10.920  1.00  0.00     0.336 A 
ATOM     10  O   UNL     1       8.220  -6.030 -12.085  1.00  0.00    -0.246 OA
ATOM     11  O   UNL     1       8.022  -5.699  -9.879  1.00  0.00    -0.423 OA
ENDROOT
BRANCH   3  12
ATOM     12  O   UNL     1       7.578  -4.824  -5.188  1.00  0.00    -0.508 OA
ATOM     13  H   UNL     1       8.349  -4.301  -4.789  1.00  0.00     0.293 HD
ENDBRANCH   3  12
TORSDOF 1
ENDMDL
MODEL 7
REMARK VINA RESULT:    -4.781     16.837     18.568
REMARK INTER + INTRA:          -4.921
REMARK INTER:                  -4.921
REMARK INTRA:                   0.000
REMARK UNBOUND:                 0.000
REMARK SMILES O=c1ccc2ccc(O)cc2o1
REMARK SMILES IDX 6 1 7 2 8 3 10 4 11 5 5 6 4 7 3 8 2 9 1 10 12 11 9 12
REMARK H PARENT 9 13
REMARK Flexibility Score: inf
ROOT
ATOM      1  C   UNL     1       7.979  -4.834 -10.060  1.00  0.00     0.016 A 
ATOM      2  C   UNL     1       8.059  -5.255 -11.391  1.00  0.00     0.047 A 
ATOM      3  C   UNL     1       8.130  -6.620 -11.698  1.00  0.00     0.119 A 
ATOM      4  C   UNL     1       8.122  -7.570 -10.667  1.00  0.00     0.094 A 
ATOM      5  C   UNL     1       8.042  -7.158  -9.332  1.00  0.00     0.142 A 
ATOM      6  C   UNL     1       7.970  -5.780  -9.026  1.00  0.00     0.018 A 
ATOM      7  C   UNL     1       7.891  -5.399  -7.683  1.00  0.00     0.019 A 
ATOM      8  C   UNL     1       7.886  -6.380  -6.693  1.00  0.00     0.094 A 
ATOM      9  C   UNL     1       7.961  -7.725  -7.070  1.00  0.00     0.336 A 
ATOM     10  O   UNL     1       7.957  -8.626  -6.190  1.00  0.00    -0.246 OA
ATOM     11  O   UNL     1       8.035  -8.062  -8.355  1.00  0.00    -0.423 OA
ENDROOT
BRANCH   3  12
ATOM     12  O   UNL     1       8.209  -7.020 -13.030  1.00  0.00    -0.508 OA
ATOM     13  H   UNL     1       9.027  -7.496 -13.393  1.00  0.00     0.293 HD
ENDBRANCH   3  12
TORSDOF 1
ENDMDL
MODEL 8
REMARK VINA RESULT:    -4.775     16.994     19.843
REMARK INTER + INTRA:          -4.915
REMARK INTER:                  -4.915
REMARK INTRA:                   0.000
REMARK UNBOUND:                 0.000
REMARK SMILES O=c1ccc2ccc(O)cc2o1
REMARK SMILES IDX 6 1 7 2 8 3 10 4 11 5 5 6 4 7 3 8 2 9 1 10 12 11 9 12
REMARK H PARENT 9 13
REMARK Flexibility Score: inf
ROOT
ATOM      1  C   UNL     1       8.646  -6.298  -6.337  1.00  0.00     0.016 A 
ATOM      2  C   UNL     1       7.664  -6.969  -5.601  1.00  0.00     0.047 A 
ATOM      3  C   UNL     1       7.388  -8.318  -5.855  1.00  0.00     0.119 A 
ATOM      4  C   UNL     1       8.097  -9.001  -6.854  1.00  0.00     0.094 A 
ATOM      5  C   UNL     1       9.080  -8.337  -7.596  1.00  0.00     0.142 A 
ATOM      6  C   UNL     1       9.357  -6.976  -7.335  1.00  0.00     0.018 A 
ATOM      7  C   UNL     1      10.346  -6.341  -8.093  1.00  0.00     0.019 A 
ATOM      8  C   UNL     1      11.024  -7.061  -9.075  1.00  0.00     0.094 A 
ATOM      9  C   UNL     1      10.697  -8.406  -9.278  1.00  0.00     0.336 A 
ATOM     10  O   UNL     1      11.299  -9.073 -10.160  1.00  0.00    -0.246 OA
ATOM     11  O   UNL     1       9.752  -8.988  -8.543  1.00  0.00    -0.423 OA
ENDROOT
BRANCH   3  12
ATOM     12  O   UNL     1       6.407  -8.969  -5.111  1.00  0.00    -0.508 OA
ATOM     13  H   UNL     1       5.976  -8.532  -4.305  1.00  0.00     0.293 HD
ENDBRANCH   3  12
TORSDOF 1
ENDMDL
