MODEL 1
REMARK VINA RESULT:    -5.028      0.000      0.000
REMARK INTER + INTRA:         -10.180
REMARK INTER:                  -9.144
REMARK INTRA:                  -1.036
REMARK UNBOUND:                -1.036
REMARK SMILES CCCCCCCCCCCCCCCC(=O)[O-]
REMARK SMILES IDX 9 1 10 2 11 3 12 4 13 5 14 6 15 7 16 8 17 9 18 10 8 11 7 12
REMARK SMILES IDX 6 13 5 14 4 15 3 16 2 17 1 18
REMARK H PARENT
REMARK Flexibility Score: inf
ROOT
ATOM      1  C   UNL     1      26.870   3.527  28.779  1.00  0.00     0.000 C 
ENDROOT
BRANCH   1   2
ATOM      2  C   UNL     1      27.600   2.253  29.237  1.00  0.00     0.000 C 
BRANCH   2   3
ATOM      3  C   UNL     1      26.866   0.949  28.860  1.00  0.00     0.000 C 
BRANCH   3   4
ATOM      4  C   UNL     1      26.161   0.306  30.068  1.00  0.00     0.000 C 
BRANCH   4   5
ATOM      5  C   UNL     1      26.799   0.727  31.409  1.00  0.00     0.000 C 
BRANCH   5   6
ATOM      6  C   UNL     1      27.854  -0.264  31.928  1.00  0.00     0.006 C 
BRANCH   6   7
ATOM      7  C   UNL     1      29.281   0.290  31.855  1.00  0.00     0.053 C 
BRANCH   7   8
ATOM      8  C   UNL     1      29.990  -0.247  30.652  1.00  0.00     0.041 C 
ATOM      9  O   UNL     1      31.035   0.313  30.229  1.00  0.00    -0.550 OA
ATOM     10  O   UNL     1      29.470  -1.339  29.968  1.00  0.00    -0.550 OA
ENDBRANCH   7   8
ENDBRANCH   6   7
ENDBRANCH   5   6
ENDBRANCH   4   5
ENDBRANCH   3   4
ENDBRANCH   2   3
ENDBRANCH   1   2
BRANCH   1  11
ATOM     11  C   UNL     1      27.680   4.805  29.034  1.00  0.00     0.000 C 
BRANCH  11  12
ATOM     12  C   UNL     1      27.648   5.191  30.517  1.00  0.00    -0.000 C 
BRANCH  12  13
ATOM     13  C   UNL     1      28.264   6.579  30.737  1.00  0.00    -0.000 C 
BRANCH  13  14
ATOM     14  C   UNL     1      27.309   7.725  30.355  1.00  0.00    -0.000 C 
BRANCH  14  15
ATOM     15  C   UNL     1      27.995   9.056  29.992  1.00  0.00    -0.000 C 
BRANCH  15  16
ATOM     16  C   UNL     1      27.567  10.265  30.844  1.00  0.00    -0.000 C 
BRANCH  16  17
ATOM     17  C   UNL     1      26.424   9.935  31.814  1.00  0.00    -0.003 C 
ATOM     18  C   UNL     1      26.526  10.772  33.086  1.00  0.00     0.004 C 
ENDBRANCH  16  17
ENDBRANCH  15  16
ENDBRANCH  14  15
ENDBRANCH  13  14
ENDBRANCH  12  13
ENDBRANCH  11  12
ENDBRANCH   1  11
TORSDOF 14
ENDMDL
MODEL 2
REMARK VINA RESULT:    -5.010      3.687      8.336
REMARK INTER + INTRA:         -10.146
REMARK INTER:                  -8.865
REMARK INTRA:                  -1.281
REMARK UNBOUND:                -1.036
REMARK SMILES CCCCCCCCCCCCCCCC(=O)[O-]
REMARK SMILES IDX 9 1 10 2 11 3 12 4 13 5 14 6 15 7 16 8 17 9 18 10 8 11 7 12
REMARK SMILES IDX 6 13 5 14 4 15 3 16 2 17 1 18
REMARK H PARENT
REMARK Flexibility Score: inf
ROOT
ATOM      1  C   UNL     1      27.719   2.808  29.549  1.00  0.00     0.000 C 
ENDROOT
BRANCH   1   2
ATOM      2  C   UNL     1      27.651   4.342  29.640  1.00  0.00     0.000 C 
BRANCH   2   3
ATOM      3  C   UNL     1      28.058   4.899  31.021  1.00  0.00     0.000 C 
BRANCH   3   4
ATOM      4  C   UNL     1      28.385   6.403  30.971  1.00  0.00     0.000 C 
BRANCH   4   5
ATOM      5  C   UNL     1      27.485   7.163  29.974  1.00  0.00     0.000 C 
BRANCH   5   6
ATOM      6  C   UNL     1      28.004   8.567  29.622  1.00  0.00     0.006 C 
BRANCH   6   7
ATOM      7  C   UNL     1      27.890   9.555  30.788  1.00  0.00     0.053 C 
BRANCH   7   8
ATOM      8  C   UNL     1      26.472   9.651  31.256  1.00  0.00     0.041 C 
ATOM      9  O   UNL     1      25.667  10.431  30.682  1.00  0.00    -0.550 OA
ATOM     10  O   UNL     1      26.051   8.916  32.357  1.00  0.00    -0.550 OA
ENDBRANCH   7   8
ENDBRANCH   6   7
ENDBRANCH   5   6
ENDBRANCH   4   5
ENDBRANCH   3   4
ENDBRANCH   2   3
ENDBRANCH   1   2
BRANCH   1  11
ATOM     11  C   UNL     1      26.704   2.224  28.556  1.00  0.00     0.000 C 
BRANCH  11  12
ATOM     12  C   UNL     1      26.679   0.693  28.632  1.00  0.00    -0.000 C 
BRANCH  12  13
ATOM     13  C   UNL     1      26.010   0.219  29.930  1.00  0.00    -0.000 C 
BRANCH  13  14
ATOM     14  C   UNL     1      26.555  -1.133  30.425  1.00  0.00    -0.000 C 
BRANCH  14  15
ATOM     15  C   UNL     1      28.006  -1.104  30.945  1.00  0.00    -0.000 C 
BRANCH  15  16
ATOM     16  C   UNL     1      28.317   0.020  31.950  1.00  0.00    -0.000 C 
BRANCH  16  17
ATOM     17  C   UNL     1      29.724   0.608  31.771  1.00  0.00    -0.003 C 
ATOM     18  C   UNL     1      30.301   0.244  30.405  1.00  0.00     0.004 C 
ENDBRANCH  16  17
ENDBRANCH  15  16
ENDBRANCH  14  15
ENDBRANCH  13  14
ENDBRANCH  12  13
ENDBRANCH  11  12
ENDBRANCH   1  11
TORSDOF 14
ENDMDL
MODEL 3
REMARK VINA RESULT:    -4.998      2.235      3.033
REMARK INTER + INTRA:         -10.125
REMARK INTER:                  -9.132
REMARK INTRA:                  -0.993
REMARK UNBOUND:                -1.036
REMARK SMILES CCCCCCCCCCCCCCCC(=O)[O-]
REMARK SMILES IDX 9 1 10 2 11 3 12 4 13 5 14 6 15 7 16 8 17 9 18 10 8 11 7 12
REMARK SMILES IDX 6 13 5 14 4 15 3 16 2 17 1 18
REMARK H PARENT
REMARK Flexibility Score: inf
ROOT
ATOM      1  C   UNL     1      29.150   1.966  31.652  1.00  0.00     0.000 C 
ENDROOT
BRANCH   1   2
ATOM      2  C   UNL     1      29.736   0.970  30.637  1.00  0.00     0.000 C 
BRANCH   2   3
ATOM      3  C   UNL     1      29.123   1.092  29.226  1.00  0.00     0.000 C 
BRANCH   3   4
ATOM      4  C   UNL     1      28.406  -0.198  28.788  1.00  0.00     0.000 C 
BRANCH   4   5
ATOM      5  C   UNL     1      26.885  -0.139  29.049  1.00  0.00     0.000 C 
BRANCH   5   6
ATOM      6  C   UNL     1      26.444  -0.915  30.301  1.00  0.00     0.006 C 
BRANCH   6   7
ATOM      7  C   UNL     1      27.527  -1.864  30.827  1.00  0.00     0.053 C 
BRANCH   7   8
ATOM      8  C   UNL     1      27.041  -3.279  30.798  1.00  0.00     0.041 C 
ATOM      9  O   UNL     1      27.861  -4.231  30.876  1.00  0.00    -0.550 OA
ATOM     10  O   UNL     1      25.688  -3.547  30.635  1.00  0.00    -0.550 OA
ENDBRANCH   7   8
ENDBRANCH   6   7
ENDBRANCH   5   6
ENDBRANCH   4   5
ENDBRANCH   3   4
ENDBRANCH   2   3
ENDBRANCH   1   2
BRANCH   1  11
ATOM     11  C   UNL     1      27.998   2.800  31.074  1.00  0.00     0.000 C 
BRANCH  11  12
ATOM     12  C   UNL     1      27.995   4.216  31.661  1.00  0.00    -0.000 C 
BRANCH  12  13
ATOM     13  C   UNL     1      27.829   5.268  30.556  1.00  0.00    -0.000 C 
BRANCH  13  14
ATOM     14  C   UNL     1      27.252   6.597  31.076  1.00  0.00    -0.000 C 
BRANCH  14  15
ATOM     15  C   UNL     1      27.661   7.848  30.273  1.00  0.00    -0.000 C 
BRANCH  15  16
ATOM     16  C   UNL     1      26.628   8.989  30.271  1.00  0.00    -0.000 C 
BRANCH  16  17
ATOM     17  C   UNL     1      27.141  10.256  29.572  1.00  0.00    -0.003 C 
ATOM     18  C   UNL     1      28.653  10.394  29.726  1.00  0.00     0.004 C 
ENDBRANCH  16  17
ENDBRANCH  15  16
ENDBRANCH  14  15
ENDBRANCH  13  14
ENDBRANCH  12  13
ENDBRANCH  11  12
ENDBRANCH   1  11
TORSDOF 14
ENDMDL
MODEL 4
REMARK VINA RESULT:    -4.963      4.345      9.882
REMARK INTER + INTRA:         -10.060
REMARK INTER:                  -8.988
REMARK INTRA:                  -1.072
REMARK UNBOUND:                -1.036
REMARK SMILES CCCCCCCCCCCCCCCC(=O)[O-]
REMARK SMILES IDX 9 1 10 2 11 3 12 4 13 5 14 6 15 7 16 8 17 9 18 10 8 11 7 12
REMARK SMILES IDX 6 13 5 14 4 15 3 16 2 17 1 18
REMARK H PARENT
REMARK Flexibility Score: inf
ROOT
ATOM      1  C   UNL     1      26.827  -0.159  29.320  1.00  0.00     0.000 C 
ENDROOT
BRANCH   1   2
ATOM      2  C   UNL     1      28.293  -0.239  28.863  1.00  0.00     0.000 C 
BRANCH   2   3
ATOM      3  C   UNL     1      29.097   1.051  29.130  1.00  0.00     0.000 C 
BRANCH   3   4
ATOM      4  C   UNL     1      29.877   0.989  30.456  1.00  0.00     0.000 C 
BRANCH   4   5
ATOM      5  C   UNL     1      29.118   1.674  31.613  1.00  0.00     0.000 C 
BRANCH   5   6
ATOM      6  C   UNL     1      28.070   2.696  31.143  1.00  0.00     0.006 C 
BRANCH   6   7
ATOM      7  C   UNL     1      28.305   4.098  31.718  1.00  0.00     0.053 C 
BRANCH   7   8
ATOM      8  C   UNL     1      27.996   5.142  30.692  1.00  0.00     0.041 C 
ATOM      9  O   UNL     1      27.362   4.836  29.648  1.00  0.00    -0.550 OA
ATOM     10  O   UNL     1      28.450   6.444  30.864  1.00  0.00    -0.550 OA
ENDBRANCH   7   8
ENDBRANCH   6   7
ENDBRANCH   5   6
ENDBRANCH   4   5
ENDBRANCH   3   4
ENDBRANCH   2   3
ENDBRANCH   1   2
BRANCH   1  11
ATOM     11  C   UNL     1      26.462  -1.240  30.347  1.00  0.00     0.000 C 
BRANCH  11  12
ATOM     12  C   UNL     1      27.712  -1.983  30.833  1.00  0.00    -0.000 C 
BRANCH  12  13
ATOM     13  C   UNL     1      27.512  -3.503  30.756  1.00  0.00    -0.000 C 
BRANCH  13  14
ATOM     14  C   UNL     1      28.680  -4.225  30.061  1.00  0.00    -0.000 C 
BRANCH  14  15
ATOM     15  C   UNL     1      29.157  -5.517  30.755  1.00  0.00    -0.000 C 
BRANCH  15  16
ATOM     16  C   UNL     1      28.482  -6.810  30.262  1.00  0.00    -0.000 C 
BRANCH  16  17
ATOM     17  C   UNL     1      29.165  -8.078  30.794  1.00  0.00    -0.003 C 
ATOM     18  C   UNL     1      28.511  -8.551  32.089  1.00  0.00     0.004 C 
ENDBRANCH  16  17
ENDBRANCH  15  16
ENDBRANCH  14  15
ENDBRANCH  13  14
ENDBRANCH  12  13
ENDBRANCH  11  12
ENDBRANCH   1  11
TORSDOF 14
ENDMDL
MODEL 5
REMARK VINA RESULT:    -4.950      4.136      8.510
REMARK INTER + INTRA:         -10.037
REMARK INTER:                  -8.770
REMARK INTRA:                  -1.268
REMARK UNBOUND:                -1.036
REMARK SMILES CCCCCCCCCCCCCCCC(=O)[O-]
REMARK SMILES IDX 9 1 10 2 11 3 12 4 13 5 14 6 15 7 16 8 17 9 18 10 8 11 7 12
REMARK SMILES IDX 6 13 5 14 4 15 3 16 2 17 1 18
REMARK H PARENT
REMARK Flexibility Score: inf
ROOT
ATOM      1  C   UNL     1      28.258   4.074  32.097  1.00  0.00     0.000 C 
ENDROOT
BRANCH   1   2
ATOM      2  C   UNL     1      28.527   5.278  31.179  1.00  0.00     0.000 C 
BRANCH   2   3
ATOM      3  C   UNL     1      27.661   5.288  29.901  1.00  0.00     0.000 C 
BRANCH   3   4
ATOM      4  C   UNL     1      26.825   6.574  29.772  1.00  0.00     0.000 C 
BRANCH   4   5
ATOM      5  C   UNL     1      27.256   7.655  30.787  1.00  0.00     0.000 C 
BRANCH   5   6
ATOM      6  C   UNL     1      27.826   8.924  30.131  1.00  0.00     0.006 C 
BRANCH   6   7
ATOM      7  C   UNL     1      27.846  10.128  31.079  1.00  0.00     0.053 C 
BRANCH   7   8
ATOM      8  C   UNL     1      26.486  10.363  31.656  1.00  0.00     0.041 C 
ATOM      9  O   UNL     1      25.534  10.713  30.910  1.00  0.00    -0.550 OA
ATOM     10  O   UNL     1      26.279  10.242  33.025  1.00  0.00    -0.550 OA
ENDBRANCH   7   8
ENDBRANCH   6   7
ENDBRANCH   5   6
ENDBRANCH   4   5
ENDBRANCH   3   4
ENDBRANCH   2   3
ENDBRANCH   1   2
BRANCH   1  11
ATOM     11  C   UNL     1      28.195   2.743  31.335  1.00  0.00     0.000 C 
BRANCH  11  12
ATOM     12  C   UNL     1      29.316   1.798  31.783  1.00  0.00    -0.000 C 
BRANCH  12  13
ATOM     13  C   UNL     1      29.845   0.974  30.601  1.00  0.00    -0.000 C 
BRANCH  13  14
ATOM     14  C   UNL     1      29.483  -0.519  30.703  1.00  0.00    -0.000 C 
BRANCH  14  15
ATOM     15  C   UNL     1      28.240  -0.948  29.898  1.00  0.00    -0.000 C 
BRANCH  15  16
ATOM     16  C   UNL     1      27.887  -0.039  28.707  1.00  0.00    -0.000 C 
BRANCH  16  17
ATOM     17  C   UNL     1      26.513   0.628  28.853  1.00  0.00    -0.003 C 
ATOM     18  C   UNL     1      25.782   0.114  30.091  1.00  0.00     0.004 C 
ENDBRANCH  16  17
ENDBRANCH  15  16
ENDBRANCH  14  15
ENDBRANCH  13  14
ENDBRANCH  12  13
ENDBRANCH  11  12
ENDBRANCH   1  11
TORSDOF 14
ENDMDL
MODEL 6
REMARK VINA RESULT:    -4.903      3.591      8.360
REMARK INTER + INTRA:          -9.951
REMARK INTER:                  -8.751
REMARK INTRA:                  -1.200
REMARK UNBOUND:                -1.036
REMARK SMILES CCCCCCCCCCCCCCCC(=O)[O-]
REMARK SMILES IDX 9 1 10 2 11 3 12 4 13 5 14 6 15 7 16 8 17 9 18 10 8 11 7 12
REMARK SMILES IDX 6 13 5 14 4 15 3 16 2 17 1 18
REMARK H PARENT
REMARK Flexibility Score: inf
ROOT
ATOM      1  C   UNL     1      26.859   3.957  28.570  1.00  0.00     0.000 C 
ENDROOT
BRANCH   1   2
ATOM      2  C   UNL     1      26.766   5.333  29.252  1.00  0.00     0.000 C 
BRANCH   2   3
ATOM      3  C   UNL     1      28.140   5.957  29.576  1.00  0.00     0.000 C 
BRANCH   3   4
ATOM      4  C   UNL     1      28.051   7.017  30.690  1.00  0.00     0.000 C 
BRANCH   4   5
ATOM      5  C   UNL     1      26.873   7.991  30.477  1.00  0.00     0.000 C 
BRANCH   5   6
ATOM      6  C   UNL     1      27.201   9.447  30.851  1.00  0.00     0.006 C 
BRANCH   6   7
ATOM      7  C   UNL     1      28.496   9.951  30.205  1.00  0.00     0.053 C 
BRANCH   7   8
ATOM      8  C   UNL     1      28.320  10.100  28.727  1.00  0.00     0.041 C 
ATOM      9  O   UNL     1      27.518  10.954  28.267  1.00  0.00    -0.550 OA
ATOM     10  O   UNL     1      29.006   9.262  27.856  1.00  0.00    -0.550 OA
ENDBRANCH   7   8
ENDBRANCH   6   7
ENDBRANCH   5   6
ENDBRANCH   4   5
ENDBRANCH   3   4
ENDBRANCH   2   3
ENDBRANCH   1   2
BRANCH   1  11
ATOM     11  C   UNL     1      27.626   2.926  29.409  1.00  0.00     0.000 C 
BRANCH  11  12
ATOM     12  C   UNL     1      27.409   1.507  28.869  1.00  0.00    -0.000 C 
BRANCH  12  13
ATOM     13  C   UNL     1      26.321   0.776  29.667  1.00  0.00    -0.000 C 
BRANCH  13  14
ATOM     14  C   UNL     1      26.879  -0.375  30.524  1.00  0.00    -0.000 C 
BRANCH  14  15
ATOM     15  C   UNL     1      27.449   0.045  31.893  1.00  0.00    -0.000 C 
BRANCH  15  16
ATOM     16  C   UNL     1      28.964   0.315  31.915  1.00  0.00    -0.000 C 
BRANCH  16  17
ATOM     17  C   UNL     1      29.722  -0.452  30.823  1.00  0.00    -0.003 C 
ATOM     18  C   UNL     1      30.790   0.426  30.176  1.00  0.00     0.004 C 
ENDBRANCH  16  17
ENDBRANCH  15  16
ENDBRANCH  14  15
ENDBRANCH  13  14
ENDBRANCH  12  13
ENDBRANCH  11  12
ENDBRANCH   1  11
TORSDOF 14
ENDMDL
MODEL 7
REMARK VINA RESULT:    -4.901      1.735      2.900
REMARK INTER + INTRA:          -9.947
REMARK INTER:                  -8.699
REMARK INTRA:                  -1.248
REMARK UNBOUND:                -1.036
REMARK SMILES CCCCCCCCCCCCCCCC(=O)[O-]
REMARK SMILES IDX 9 1 10 2 11 3 12 4 13 5 14 6 15 7 16 8 17 9 18 10 8 11 7 12
REMARK SMILES IDX 6 13 5 14 4 15 3 16 2 17 1 18
REMARK H PARENT
REMARK Flexibility Score: inf
ROOT
ATOM      1  C   UNL     1      28.499   3.797  32.160  1.00  0.00     0.000 C 
ENDROOT
BRANCH   1   2
ATOM      2  C   UNL     1      28.260   2.471  31.417  1.00  0.00     0.000 C 
BRANCH   2   3
ATOM      3  C   UNL     1      29.277   1.368  31.777  1.00  0.00     0.000 C 
BRANCH   3   4
ATOM      4  C   UNL     1      29.963   0.778  30.532  1.00  0.00     0.000 C 
BRANCH   4   5
ATOM      5  C   UNL     1      29.229   1.154  29.227  1.00  0.00     0.000 C 
BRANCH   5   6
ATOM      6  C   UNL     1      28.417  -0.003  28.621  1.00  0.00     0.006 C 
BRANCH   6   7
ATOM      7  C   UNL     1      26.903   0.201  28.747  1.00  0.00     0.053 C 
BRANCH   7   8
ATOM      8  C   UNL     1      26.385  -0.474  29.978  1.00  0.00     0.041 C 
ATOM      9  O   UNL     1      27.080  -1.347  30.562  1.00  0.00    -0.550 OA
ATOM     10  O   UNL     1      25.115  -0.175  30.454  1.00  0.00    -0.550 OA
ENDBRANCH   7   8
ENDBRANCH   6   7
ENDBRANCH   5   6
ENDBRANCH   4   5
ENDBRANCH   3   4
ENDBRANCH   2   3
ENDBRANCH   1   2
BRANCH   1  11
ATOM     11  C   UNL     1      28.546   5.009  31.220  1.00  0.00     0.000 C 
BRANCH  11  12
ATOM     12  C   UNL     1      27.589   4.824  30.036  1.00  0.00    -0.000 C 
BRANCH  12  13
ATOM     13  C   UNL     1      26.847   6.131  29.722  1.00  0.00    -0.000 C 
BRANCH  13  14
ATOM     14  C   UNL     1      27.165   7.255  30.723  1.00  0.00    -0.000 C 
BRANCH  14  15
ATOM     15  C   UNL     1      27.782   8.527  30.107  1.00  0.00    -0.000 C 
BRANCH  15  16
ATOM     16  C   UNL     1      26.960   9.813  30.304  1.00  0.00    -0.000 C 
BRANCH  16  17
ATOM     17  C   UNL     1      27.415  10.630  31.522  1.00  0.00    -0.003 C 
ATOM     18  C   UNL     1      26.431  10.484  32.679  1.00  0.00     0.004 C 
ENDBRANCH  16  17
ENDBRANCH  15  16
ENDBRANCH  14  15
ENDBRANCH  13  14
ENDBRANCH  12  13
ENDBRANCH  11  12
ENDBRANCH   1  11
TORSDOF 14
ENDMDL
MODEL 8
REMARK VINA RESULT:    -4.862      4.021      8.743
REMARK INTER + INTRA:          -9.877
REMARK INTER:                  -8.774
REMARK INTRA:                  -1.102
REMARK UNBOUND:                -1.036
REMARK SMILES CCCCCCCCCCCCCCCC(=O)[O-]
REMARK SMILES IDX 9 1 10 2 11 3 12 4 13 5 14 6 15 7 16 8 17 9 18 10 8 11 7 12
REMARK SMILES IDX 6 13 5 14 4 15 3 16 2 17 1 18
REMARK H PARENT
REMARK Flexibility Score: inf
ROOT
ATOM      1  C   UNL     1      27.389   4.123  28.890  1.00  0.00     0.000 C 
ENDROOT
BRANCH   1   2
ATOM      2  C   UNL     1      27.698   5.140  30.002  1.00  0.00     0.000 C 
BRANCH   2   3
ATOM      3  C   UNL     1      26.809   6.401  29.951  1.00  0.00     0.000 C 
BRANCH   3   4
ATOM      4  C   UNL     1      27.543   7.654  30.464  1.00  0.00     0.000 C 
BRANCH   4   5
ATOM      5  C   UNL     1      26.604   8.609  31.231  1.00  0.00     0.000 C 
BRANCH   5   6
ATOM      6  C   UNL     1      26.861  10.096  30.934  1.00  0.00     0.006 C 
BRANCH   6   7
ATOM      7  C   UNL     1      26.627  10.460  29.463  1.00  0.00     0.053 C 
BRANCH   7   8
ATOM      8  C   UNL     1      27.915  10.851  28.810  1.00  0.00     0.041 C 
ATOM      9  O   UNL     1      27.945  11.125  27.582  1.00  0.00    -0.550 OA
ATOM     10  O   UNL     1      29.093  10.864  29.547  1.00  0.00    -0.550 OA
ENDBRANCH   7   8
ENDBRANCH   6   7
ENDBRANCH   5   6
ENDBRANCH   4   5
ENDBRANCH   3   4
ENDBRANCH   2   3
ENDBRANCH   1   2
BRANCH   1  11
ATOM     11  C   UNL     1      27.727   2.680  29.290  1.00  0.00     0.000 C 
BRANCH  11  12
ATOM     12  C   UNL     1      28.096   2.593  30.775  1.00  0.00    -0.000 C 
BRANCH  12  13
ATOM     13  C   UNL     1      29.193   1.544  31.008  1.00  0.00    -0.000 C 
BRANCH  13  14
ATOM     14  C   UNL     1      29.562   0.771  29.729  1.00  0.00    -0.000 C 
BRANCH  14  15
ATOM     15  C   UNL     1      29.073  -0.690  29.682  1.00  0.00    -0.000 C 
BRANCH  15  16
ATOM     16  C   UNL     1      28.132  -1.101  30.829  1.00  0.00    -0.000 C 
BRANCH  16  17
ATOM     17  C   UNL     1      26.718  -1.450  30.343  1.00  0.00    -0.003 C 
ATOM     18  C   UNL     1      25.828  -0.212  30.309  1.00  0.00     0.004 C 
ENDBRANCH  16  17
ENDBRANCH  15  16
ENDBRANCH  14  15
ENDBRANCH  13  14
ENDBRANCH  12  13
ENDBRANCH  11  12
ENDBRANCH   1  11
TORSDOF 14
ENDMDL
MODEL 9
REMARK VINA RESULT:    -4.782      1.521      2.281
REMARK INTER + INTRA:          -9.732
REMARK INTER:                  -8.990
REMARK INTRA:                  -0.742
REMARK UNBOUND:                -1.036
REMARK SMILES CCCCCCCCCCCCCCCC(=O)[O-]
REMARK SMILES IDX 9 1 10 2 11 3 12 4 13 5 14 6 15 7 16 8 17 9 18 10 8 11 7 12
REMARK SMILES IDX 6 13 5 14 4 15 3 16 2 17 1 18
REMARK H PARENT
REMARK Flexibility Score: inf
ROOT
ATOM      1  C   UNL     1      27.667   4.080  28.997  1.00  0.00     0.000 C 
ENDROOT
BRANCH   1   2
ATOM      2  C   UNL     1      27.782   2.578  29.308  1.00  0.00     0.000 C 
BRANCH   2   3
ATOM      3  C   UNL     1      26.547   1.761  28.873  1.00  0.00     0.000 C 
BRANCH   3   4
ATOM      4  C   UNL     1      26.824   0.246  28.864  1.00  0.00     0.000 C 
BRANCH   4   5
ATOM      5  C   UNL     1      26.483  -0.418  30.215  1.00  0.00     0.000 C 
BRANCH   5   6
ATOM      6  C   UNL     1      27.607  -1.314  30.763  1.00  0.00     0.006 C 
BRANCH   6   7
ATOM      7  C   UNL     1      28.959  -1.054  30.089  1.00  0.00     0.053 C 
BRANCH   7   8
ATOM      8  C   UNL     1      29.769  -0.090  30.897  1.00  0.00     0.041 C 
ATOM      9  O   UNL     1      29.409   0.218  32.063  1.00  0.00    -0.550 OA
ATOM     10  O   UNL     1      30.896   0.507  30.344  1.00  0.00    -0.550 OA
ENDBRANCH   7   8
ENDBRANCH   6   7
ENDBRANCH   5   6
ENDBRANCH   4   5
ENDBRANCH   3   4
ENDBRANCH   2   3
ENDBRANCH   1   2
BRANCH   1  11
ATOM     11  C   UNL     1      27.754   4.959  30.253  1.00  0.00     0.000 C 
BRANCH  11  12
ATOM     12  C   UNL     1      26.902   6.224  30.099  1.00  0.00    -0.000 C 
BRANCH  12  13
ATOM     13  C   UNL     1      27.789   7.472  29.983  1.00  0.00    -0.000 C 
BRANCH  13  14
ATOM     14  C   UNL     1      27.079   8.756  30.446  1.00  0.00    -0.000 C 
BRANCH  14  15
ATOM     15  C   UNL     1      27.980  10.003  30.547  1.00  0.00    -0.000 C 
BRANCH  15  16
ATOM     16  C   UNL     1      28.599  10.471  29.218  1.00  0.00    -0.000 C 
BRANCH  16  17
ATOM     17  C   UNL     1      27.573  11.122  28.279  1.00  0.00    -0.003 C 
ATOM     18  C   UNL     1      28.064  11.107  26.834  1.00  0.00     0.004 C 
ENDBRANCH  16  17
ENDBRANCH  15  16
ENDBRANCH  14  15
ENDBRANCH  13  14
ENDBRANCH  12  13
ENDBRANCH  11  12
ENDBRANCH   1  11
TORSDOF 14
ENDMDL
