MODEL 1
REMARK VINA RESULT:    -5.405      0.000      0.000
REMARK INTER + INTRA:         -10.719
REMARK INTER:                  -9.828
REMARK INTRA:                  -0.890
REMARK UNBOUND:                -0.890
REMARK SMILES CCCCCCCCCCCCCCCC(=O)[O-]
REMARK SMILES IDX 9 1 10 2 11 3 12 4 13 5 14 6 15 7 16 8 17 9 18 10 8 11 7 12
REMARK SMILES IDX 6 13 5 14 4 15 3 16 2 17 1 18
REMARK H PARENT
REMARK Flexibility Score: inf
ROOT
ATOM      1  C   UNL     1       0.389  -2.503   3.092  1.00  0.00     0.000 C 
ENDROOT
BRANCH   1   2
ATOM      2  C   UNL     1       0.891  -3.330   1.895  1.00  0.00     0.000 C 
BRANCH   2   3
ATOM      3  C   UNL     1       1.023  -2.492   0.613  1.00  0.00     0.000 C 
BRANCH   3   4
ATOM      4  C   UNL     1       0.287  -1.146   0.709  1.00  0.00     0.000 C 
BRANCH   4   5
ATOM      5  C   UNL     1      -1.054  -1.163  -0.055  1.00  0.00     0.000 C 
BRANCH   5   6
ATOM      6  C   UNL     1      -1.462  -2.557  -0.568  1.00  0.00     0.006 C 
BRANCH   6   7
ATOM      7  C   UNL     1      -2.975  -2.722  -0.802  1.00  0.00     0.053 C 
BRANCH   7   8
ATOM      8  C   UNL     1      -3.444  -2.141  -2.104  1.00  0.00     0.041 C 
ATOM      9  O   UNL     1      -3.391  -2.817  -3.165  1.00  0.00    -0.550 OA
ATOM     10  O   UNL     1      -3.852  -0.814  -2.159  1.00  0.00    -0.550 OA
ENDBRANCH   7   8
ENDBRANCH   6   7
ENDBRANCH   5   6
ENDBRANCH   4   5
ENDBRANCH   3   4
ENDBRANCH   2   3
ENDBRANCH   1   2
BRANCH   1  11
ATOM     11  C   UNL     1      -0.153  -3.379   4.233  1.00  0.00     0.000 C 
BRANCH  11  12
ATOM     12  C   UNL     1      -0.182  -2.639   5.582  1.00  0.00    -0.000 C 
BRANCH  12  13
ATOM     13  C   UNL     1      -0.432  -3.579   6.774  1.00  0.00    -0.000 C 
BRANCH  13  14
ATOM     14  C   UNL     1       0.825  -3.962   7.581  1.00  0.00    -0.000 C 
BRANCH  14  15
ATOM     15  C   UNL     1       1.572  -2.780   8.229  1.00  0.00    -0.000 C 
BRANCH  15  16
ATOM     16  C   UNL     1       1.090  -2.402   9.644  1.00  0.00    -0.000 C 
BRANCH  16  17
ATOM     17  C   UNL     1       0.631  -0.942   9.802  1.00  0.00    -0.003 C 
ATOM     18  C   UNL     1      -0.165  -0.434   8.601  1.00  0.00     0.004 C 
ENDBRANCH  16  17
ENDBRANCH  15  16
ENDBRANCH  14  15
ENDBRANCH  13  14
ENDBRANCH  12  13
ENDBRANCH  11  12
ENDBRANCH   1  11
TORSDOF 14
ENDMDL
MODEL 2
REMARK VINA RESULT:    -5.322      0.608      1.030
REMARK INTER + INTRA:         -10.568
REMARK INTER:                  -9.694
REMARK INTRA:                  -0.874
REMARK UNBOUND:                -0.890
REMARK SMILES CCCCCCCCCCCCCCCC(=O)[O-]
REMARK SMILES IDX 9 1 10 2 11 3 12 4 13 5 14 6 15 7 16 8 17 9 18 10 8 11 7 12
REMARK SMILES IDX 6 13 5 14 4 15 3 16 2 17 1 18
REMARK H PARENT
REMARK Flexibility Score: inf
ROOT
ATOM      1  C   UNL     1       0.373  -2.598   3.520  1.00  0.00     0.000 C 
ENDROOT
BRANCH   1   2
ATOM      2  C   UNL     1       0.420  -3.369   2.189  1.00  0.00     0.000 C 
BRANCH   2   3
ATOM      3  C   UNL     1       1.259  -2.650   1.120  1.00  0.00     0.000 C 
BRANCH   3   4
ATOM      4  C   UNL     1       0.408  -2.141  -0.056  1.00  0.00     0.000 C 
BRANCH   4   5
ATOM      5  C   UNL     1      -0.545  -1.004   0.369  1.00  0.00     0.000 C 
BRANCH   5   6
ATOM      6  C   UNL     1      -1.916  -1.044  -0.331  1.00  0.00     0.006 C 
BRANCH   6   7
ATOM      7  C   UNL     1      -2.349  -2.449  -0.786  1.00  0.00     0.053 C 
BRANCH   7   8
ATOM      8  C   UNL     1      -3.076  -2.453  -2.099  1.00  0.00     0.041 C 
ATOM      9  O   UNL     1      -3.822  -1.492  -2.423  1.00  0.00    -0.550 OA
ATOM     10  O   UNL     1      -3.003  -3.568  -2.925  1.00  0.00    -0.550 OA
ENDBRANCH   7   8
ENDBRANCH   6   7
ENDBRANCH   5   6
ENDBRANCH   4   5
ENDBRANCH   3   4
ENDBRANCH   2   3
ENDBRANCH   1   2
BRANCH   1  11
ATOM     11  C   UNL     1      -0.430  -3.333   4.604  1.00  0.00     0.000 C 
BRANCH  11  12
ATOM     12  C   UNL     1      -0.010  -2.926   6.027  1.00  0.00    -0.000 C 
BRANCH  12  13
ATOM     13  C   UNL     1      -0.024  -4.106   7.015  1.00  0.00    -0.000 C 
BRANCH  13  14
ATOM     14  C   UNL     1       1.123  -4.112   8.046  1.00  0.00    -0.000 C 
BRANCH  14  15
ATOM     15  C   UNL     1       1.653  -2.720   8.442  1.00  0.00    -0.000 C 
BRANCH  15  16
ATOM     16  C   UNL     1       1.276  -2.260   9.865  1.00  0.00    -0.000 C 
BRANCH  16  17
ATOM     17  C   UNL     1       0.518  -0.923   9.933  1.00  0.00    -0.003 C 
ATOM     18  C   UNL     1      -0.047  -0.489   8.582  1.00  0.00     0.004 C 
ENDBRANCH  16  17
ENDBRANCH  15  16
ENDBRANCH  14  15
ENDBRANCH  13  14
ENDBRANCH  12  13
ENDBRANCH  11  12
ENDBRANCH   1  11
TORSDOF 14
ENDMDL
MODEL 3
REMARK VINA RESULT:    -5.052      0.873      1.639
REMARK INTER + INTRA:         -10.076
REMARK INTER:                  -9.761
REMARK INTRA:                  -0.316
REMARK UNBOUND:                -0.890
REMARK SMILES CCCCCCCCCCCCCCCC(=O)[O-]
REMARK SMILES IDX 9 1 10 2 11 3 12 4 13 5 14 6 15 7 16 8 17 9 18 10 8 11 7 12
REMARK SMILES IDX 6 13 5 14 4 15 3 16 2 17 1 18
REMARK H PARENT
REMARK Flexibility Score: inf
ROOT
ATOM      1  C   UNL     1       0.413  -3.616   1.690  1.00  0.00     0.000 C 
ENDROOT
BRANCH   1   2
ATOM      2  C   UNL     1       0.943  -2.888   0.441  1.00  0.00     0.000 C 
BRANCH   2   3
ATOM      3  C   UNL     1       0.934  -1.359   0.602  1.00  0.00     0.000 C 
BRANCH   3   4
ATOM      4  C   UNL     1      -0.479  -0.798   0.836  1.00  0.00     0.000 C 
BRANCH   4   5
ATOM      5  C   UNL     1      -1.282  -0.686  -0.476  1.00  0.00     0.000 C 
BRANCH   5   6
ATOM      6  C   UNL     1      -2.525  -1.594  -0.528  1.00  0.00     0.006 C 
BRANCH   6   7
ATOM      7  C   UNL     1      -2.271  -2.971  -1.168  1.00  0.00     0.053 C 
BRANCH   7   8
ATOM      8  C   UNL     1      -2.870  -3.112  -2.537  1.00  0.00     0.041 C 
ATOM      9  O   UNL     1      -3.783  -2.334  -2.922  1.00  0.00    -0.550 OA
ATOM     10  O   UNL     1      -2.484  -4.168  -3.353  1.00  0.00    -0.550 OA
ENDBRANCH   7   8
ENDBRANCH   6   7
ENDBRANCH   5   6
ENDBRANCH   4   5
ENDBRANCH   3   4
ENDBRANCH   2   3
ENDBRANCH   1   2
BRANCH   1  11
ATOM     11  C   UNL     1       0.392  -2.717   2.936  1.00  0.00     0.000 C 
BRANCH  11  12
ATOM     12  C   UNL     1      -0.238  -3.413   4.155  1.00  0.00    -0.000 C 
BRANCH  12  13
ATOM     13  C   UNL     1       0.048  -2.679   5.477  1.00  0.00    -0.000 C 
BRANCH  13  14
ATOM     14  C   UNL     1      -0.411  -3.418   6.750  1.00  0.00    -0.000 C 
BRANCH  14  15
ATOM     15  C   UNL     1       0.705  -4.158   7.514  1.00  0.00    -0.000 C 
BRANCH  15  16
ATOM     16  C   UNL     1       1.387  -3.337   8.626  1.00  0.00    -0.000 C 
BRANCH  16  17
ATOM     17  C   UNL     1       1.081  -1.829   8.597  1.00  0.00    -0.003 C 
ATOM     18  C   UNL     1       0.662  -1.280   9.960  1.00  0.00     0.004 C 
ENDBRANCH  16  17
ENDBRANCH  15  16
ENDBRANCH  14  15
ENDBRANCH  13  14
ENDBRANCH  12  13
ENDBRANCH  11  12
ENDBRANCH   1  11
TORSDOF 14
ENDMDL
MODEL 4
REMARK VINA RESULT:    -4.688      4.120      9.034
REMARK INTER + INTRA:          -9.415
REMARK INTER:                  -8.522
REMARK INTRA:                  -0.893
REMARK UNBOUND:                -0.890
REMARK SMILES CCCCCCCCCCCCCCCC(=O)[O-]
REMARK SMILES IDX 9 1 10 2 11 3 12 4 13 5 14 6 15 7 16 8 17 9 18 10 8 11 7 12
REMARK SMILES IDX 6 13 5 14 4 15 3 16 2 17 1 18
REMARK H PARENT
REMARK Flexibility Score: inf
ROOT
ATOM      1  C   UNL     1       0.399  -3.382   1.675  1.00  0.00     0.000 C 
ENDROOT
BRANCH   1   2
ATOM      2  C   UNL     1       0.460  -2.626   3.014  1.00  0.00     0.000 C 
BRANCH   2   3
ATOM      3  C   UNL     1      -0.279  -3.364   4.142  1.00  0.00     0.000 C 
BRANCH   3   4
ATOM      4  C   UNL     1      -0.020  -2.742   5.525  1.00  0.00     0.000 C 
BRANCH   4   5
ATOM      5  C   UNL     1      -0.143  -3.780   6.659  1.00  0.00     0.000 C 
BRANCH   5   6
ATOM      6  C   UNL     1       0.775  -3.501   7.864  1.00  0.00     0.006 C 
BRANCH   6   7
ATOM      7  C   UNL     1       1.307  -2.057   7.928  1.00  0.00     0.053 C 
BRANCH   7   8
ATOM      8  C   UNL     1       0.494  -1.160   8.815  1.00  0.00     0.041 C 
ATOM      9  O   UNL     1       0.636  -1.193  10.065  1.00  0.00    -0.550 OA
ATOM     10  O   UNL     1      -0.493  -0.354   8.261  1.00  0.00    -0.550 OA
ENDBRANCH   7   8
ENDBRANCH   6   7
ENDBRANCH   5   6
ENDBRANCH   4   5
ENDBRANCH   3   4
ENDBRANCH   2   3
ENDBRANCH   1   2
BRANCH   1  11
ATOM     11  C   UNL     1       0.434  -2.441   0.461  1.00  0.00     0.000 C 
BRANCH  11  12
ATOM     12  C   UNL     1       0.328  -0.959   0.861  1.00  0.00    -0.000 C 
BRANCH  12  13
ATOM     13  C   UNL     1      -1.095  -0.397   0.702  1.00  0.00    -0.000 C 
BRANCH  13  14
ATOM     14  C   UNL     1      -1.733  -0.611  -0.686  1.00  0.00    -0.000 C 
BRANCH  14  15
ATOM     15  C   UNL     1      -3.016  -1.466  -0.691  1.00  0.00    -0.000 C 
BRANCH  15  16
ATOM     16  C   UNL     1      -2.841  -2.900  -1.231  1.00  0.00    -0.000 C 
BRANCH  16  17
ATOM     17  C   UNL     1      -3.066  -3.052  -2.746  1.00  0.00    -0.003 C 
ATOM     18  C   UNL     1      -2.595  -4.402  -3.285  1.00  0.00     0.004 C 
ENDBRANCH  16  17
ENDBRANCH  15  16
ENDBRANCH  14  15
ENDBRANCH  13  14
ENDBRANCH  12  13
ENDBRANCH  11  12
ENDBRANCH   1  11
TORSDOF 14
ENDMDL
MODEL 5
REMARK VINA RESULT:    -4.517      3.682      8.691
REMARK INTER + INTRA:          -9.104
REMARK INTER:                  -8.125
REMARK INTRA:                  -0.979
REMARK UNBOUND:                -0.890
REMARK SMILES CCCCCCCCCCCCCCCC(=O)[O-]
REMARK SMILES IDX 9 1 10 2 11 3 12 4 13 5 14 6 15 7 16 8 17 9 18 10 8 11 7 12
REMARK SMILES IDX 6 13 5 14 4 15 3 16 2 17 1 18
REMARK H PARENT
REMARK Flexibility Score: inf
ROOT
ATOM      1  C   UNL     1       0.283  -3.021   4.410  1.00  0.00     0.000 C 
ENDROOT
BRANCH   1   2
ATOM      2  C   UNL     1      -0.980  -2.986   5.289  1.00  0.00     0.000 C 
BRANCH   2   3
ATOM      3  C   UNL     1      -0.773  -3.676   6.647  1.00  0.00     0.000 C 
BRANCH   3   4
ATOM      4  C   UNL     1       0.685  -4.110   6.873  1.00  0.00     0.000 C 
BRANCH   4   5
ATOM      5  C   UNL     1       1.086  -4.037   8.361  1.00  0.00     0.000 C 
BRANCH   5   6
ATOM      6  C   UNL     1       1.727  -2.697   8.770  1.00  0.00     0.006 C 
BRANCH   6   7
ATOM      7  C   UNL     1       0.715  -1.631   9.229  1.00  0.00     0.053 C 
BRANCH   7   8
ATOM      8  C   UNL     1       0.240  -0.741   8.117  1.00  0.00     0.041 C 
ATOM      9  O   UNL     1       0.939  -0.579   7.082  1.00  0.00    -0.550 OA
ATOM     10  O   UNL     1      -0.934  -0.015   8.269  1.00  0.00    -0.550 OA
ENDBRANCH   7   8
ENDBRANCH   6   7
ENDBRANCH   5   6
ENDBRANCH   4   5
ENDBRANCH   3   4
ENDBRANCH   2   3
ENDBRANCH   1   2
BRANCH   1  11
ATOM     11  C   UNL     1       0.022  -2.537   2.976  1.00  0.00     0.000 C 
BRANCH  11  12
ATOM     12  C   UNL     1       0.876  -3.285   1.936  1.00  0.00    -0.000 C 
BRANCH  12  13
ATOM     13  C   UNL     1       0.753  -2.689   0.523  1.00  0.00    -0.000 C 
BRANCH  13  14
ATOM     14  C   UNL     1       0.030  -1.329   0.445  1.00  0.00    -0.000 C 
BRANCH  14  15
ATOM     15  C   UNL     1      -1.286  -1.333  -0.358  1.00  0.00    -0.000 C 
BRANCH  15  16
ATOM     16  C   UNL     1      -1.763  -2.725  -0.818  1.00  0.00    -0.000 C 
BRANCH  16  17
ATOM     17  C   UNL     1      -2.973  -2.712  -1.769  1.00  0.00    -0.003 C 
ATOM     18  C   UNL     1      -3.636  -1.340  -1.871  1.00  0.00     0.004 C 
ENDBRANCH  16  17
ENDBRANCH  15  16
ENDBRANCH  14  15
ENDBRANCH  13  14
ENDBRANCH  12  13
ENDBRANCH  11  12
ENDBRANCH   1  11
TORSDOF 14
ENDMDL
MODEL 6
REMARK VINA RESULT:    -3.646      1.174      2.777
REMARK INTER + INTRA:          -7.520
REMARK INTER:                  -6.738
REMARK INTRA:                  -0.783
REMARK UNBOUND:                -0.890
REMARK SMILES CCCCCCCCCCCCCCCC(=O)[O-]
REMARK SMILES IDX 9 1 10 2 11 3 12 4 13 5 14 6 15 7 16 8 17 9 18 10 8 11 7 12
REMARK SMILES IDX 6 13 5 14 4 15 3 16 2 17 1 18
REMARK H PARENT
REMARK Flexibility Score: inf
ROOT
ATOM      1  C   UNL     1       2.324  -2.283   0.305  1.00  0.00     0.000 C 
ENDROOT
BRANCH   1   2
ATOM      2  C   UNL     1       2.193  -1.094   1.274  1.00  0.00     0.000 C 
BRANCH   2   3
ATOM      3  C   UNL     1       1.230  -0.014   0.755  1.00  0.00     0.000 C 
BRANCH   3   4
ATOM      4  C   UNL     1      -0.234  -0.294   1.137  1.00  0.00     0.000 C 
BRANCH   4   5
ATOM      5  C   UNL     1      -1.109  -0.584  -0.100  1.00  0.00     0.000 C 
BRANCH   5   6
ATOM      6  C   UNL     1      -1.315  -2.083  -0.382  1.00  0.00     0.006 C 
BRANCH   6   7
ATOM      7  C   UNL     1      -2.441  -2.385  -1.389  1.00  0.00     0.053 C 
BRANCH   7   8
ATOM      8  C   UNL     1      -3.597  -1.432  -1.295  1.00  0.00     0.041 C 
ATOM      9  O   UNL     1      -3.871  -0.659  -2.250  1.00  0.00    -0.550 OA
ATOM     10  O   UNL     1      -4.313  -1.333  -0.108  1.00  0.00    -0.550 OA
ENDBRANCH   7   8
ENDBRANCH   6   7
ENDBRANCH   5   6
ENDBRANCH   4   5
ENDBRANCH   3   4
ENDBRANCH   2   3
ENDBRANCH   1   2
BRANCH   1  11
ATOM     11  C   UNL     1       1.307  -3.398   0.593  1.00  0.00     0.000 C 
BRANCH  11  12
ATOM     12  C   UNL     1       1.266  -3.788   2.081  1.00  0.00    -0.000 C 
BRANCH  12  13
ATOM     13  C   UNL     1       0.003  -3.277   2.797  1.00  0.00    -0.000 C 
BRANCH  13  14
ATOM     14  C   UNL     1       0.243  -2.662   4.191  1.00  0.00    -0.000 C 
BRANCH  14  15
ATOM     15  C   UNL     1      -0.395  -3.431   5.364  1.00  0.00    -0.000 C 
BRANCH  15  16
ATOM     16  C   UNL     1      -0.245  -2.757   6.743  1.00  0.00    -0.000 C 
BRANCH  16  17
ATOM     17  C   UNL     1       0.928  -3.278   7.592  1.00  0.00    -0.003 C 
ATOM     18  C   UNL     1       1.191  -2.424   8.832  1.00  0.00     0.004 C 
ENDBRANCH  16  17
ENDBRANCH  15  16
ENDBRANCH  14  15
ENDBRANCH  13  14
ENDBRANCH  12  13
ENDBRANCH  11  12
ENDBRANCH   1  11
TORSDOF 14
ENDMDL
MODEL 7
REMARK VINA RESULT:    -3.395      1.198      2.584
REMARK INTER + INTRA:          -7.064
REMARK INTER:                  -6.022
REMARK INTRA:                  -1.042
REMARK UNBOUND:                -0.890
REMARK SMILES CCCCCCCCCCCCCCCC(=O)[O-]
REMARK SMILES IDX 9 1 10 2 11 3 12 4 13 5 14 6 15 7 16 8 17 9 18 10 8 11 7 12
REMARK SMILES IDX 6 13 5 14 4 15 3 16 2 17 1 18
REMARK H PARENT
REMARK Flexibility Score: inf
ROOT
ATOM      1  C   UNL     1      -0.806  -2.801   5.462  1.00  0.00     0.000 C 
ENDROOT
BRANCH   1   2
ATOM      2  C   UNL     1       0.410  -3.053   4.553  1.00  0.00     0.000 C 
BRANCH   2   3
ATOM      3  C   UNL     1       0.162  -2.613   3.100  1.00  0.00     0.000 C 
BRANCH   3   4
ATOM      4  C   UNL     1       0.738  -3.605   2.076  1.00  0.00     0.000 C 
BRANCH   4   5
ATOM      5  C   UNL     1       1.235  -2.896   0.799  1.00  0.00     0.000 C 
BRANCH   5   6
ATOM      6  C   UNL     1       0.400  -1.664   0.403  1.00  0.00     0.006 C 
BRANCH   6   7
ATOM      7  C   UNL     1      -0.878  -1.998  -0.389  1.00  0.00     0.053 C 
BRANCH   7   8
ATOM      8  C   UNL     1      -1.847  -0.855  -0.466  1.00  0.00     0.041 C 
ATOM      9  O   UNL     1      -2.813  -0.886  -1.274  1.00  0.00    -0.550 OA
ATOM     10  O   UNL     1      -1.626   0.289   0.289  1.00  0.00    -0.550 OA
ENDBRANCH   7   8
ENDBRANCH   6   7
ENDBRANCH   5   6
ENDBRANCH   4   5
ENDBRANCH   3   4
ENDBRANCH   2   3
ENDBRANCH   1   2
BRANCH   1  11
ATOM     11  C   UNL     1      -0.675  -3.485   6.831  1.00  0.00     0.000 C 
BRANCH  11  12
ATOM     12  C   UNL     1       0.731  -4.063   7.069  1.00  0.00    -0.000 C 
BRANCH  12  13
ATOM     13  C   UNL     1       1.576  -3.205   8.026  1.00  0.00    -0.000 C 
BRANCH  13  14
ATOM     14  C   UNL     1       0.869  -2.791   9.333  1.00  0.00    -0.000 C 
BRANCH  14  15
ATOM     15  C   UNL     1       0.763  -1.271   9.566  1.00  0.00    -0.000 C 
BRANCH  15  16
ATOM     16  C   UNL     1       0.251  -0.461   8.358  1.00  0.00    -0.000 C 
BRANCH  16  17
ATOM     17  C   UNL     1      -1.269  -0.220   8.340  1.00  0.00    -0.003 C 
ATOM     18  C   UNL     1      -1.639   1.225   8.009  1.00  0.00     0.004 C 
ENDBRANCH  16  17
ENDBRANCH  15  16
ENDBRANCH  14  15
ENDBRANCH  13  14
ENDBRANCH  12  13
ENDBRANCH  11  12
ENDBRANCH   1  11
TORSDOF 14
ENDMDL
MODEL 8
REMARK VINA RESULT:    -3.369      3.345      4.101
REMARK INTER + INTRA:          -7.016
REMARK INTER:                  -6.210
REMARK INTRA:                  -0.806
REMARK UNBOUND:                -0.890
REMARK SMILES CCCCCCCCCCCCCCCC(=O)[O-]
REMARK SMILES IDX 9 1 10 2 11 3 12 4 13 5 14 6 15 7 16 8 17 9 18 10 8 11 7 12
REMARK SMILES IDX 6 13 5 14 4 15 3 16 2 17 1 18
REMARK H PARENT
REMARK Flexibility Score: inf
ROOT
ATOM      1  C   UNL     1       0.426  -2.441   3.526  1.00  0.00     0.000 C 
ENDROOT
BRANCH   1   2
ATOM      2  C   UNL     1      -0.047  -2.656   2.077  1.00  0.00     0.000 C 
BRANCH   2   3
ATOM      3  C   UNL     1       0.860  -3.623   1.298  1.00  0.00     0.000 C 
BRANCH   3   4
ATOM      4  C   UNL     1       1.468  -2.978   0.040  1.00  0.00     0.000 C 
BRANCH   4   5
ATOM      5  C   UNL     1       2.872  -2.398   0.309  1.00  0.00     0.000 C 
BRANCH   5   6
ATOM      6  C   UNL     1       2.894  -1.278   1.366  1.00  0.00     0.006 C 
BRANCH   6   7
ATOM      7  C   UNL     1       2.222   0.030   0.910  1.00  0.00     0.053 C 
BRANCH   7   8
ATOM      8  C   UNL     1       2.512   1.195   1.810  1.00  0.00     0.041 C 
ATOM      9  O   UNL     1       3.532   1.197   2.549  1.00  0.00    -0.550 OA
ATOM     10  O   UNL     1       1.600   2.239   1.903  1.00  0.00    -0.550 OA
ENDBRANCH   7   8
ENDBRANCH   6   7
ENDBRANCH   5   6
ENDBRANCH   4   5
ENDBRANCH   3   4
ENDBRANCH   2   3
ENDBRANCH   1   2
BRANCH   1  11
ATOM     11  C   UNL     1      -0.317  -3.335   4.531  1.00  0.00     0.000 C 
BRANCH  11  12
ATOM     12  C   UNL     1      -0.161  -2.847   5.982  1.00  0.00    -0.000 C 
BRANCH  12  13
ATOM     13  C   UNL     1      -0.208  -3.994   7.006  1.00  0.00    -0.000 C 
BRANCH  13  14
ATOM     14  C   UNL     1       1.008  -4.080   7.951  1.00  0.00    -0.000 C 
BRANCH  14  15
ATOM     15  C   UNL     1       1.668  -2.730   8.292  1.00  0.00    -0.000 C 
BRANCH  15  16
ATOM     16  C   UNL     1       1.454  -2.249   9.742  1.00  0.00    -0.000 C 
BRANCH  16  17
ATOM     17  C   UNL     1       0.432  -1.109   9.901  1.00  0.00    -0.003 C 
ATOM     18  C   UNL     1       0.057  -0.456   8.572  1.00  0.00     0.004 C 
ENDBRANCH  16  17
ENDBRANCH  15  16
ENDBRANCH  14  15
ENDBRANCH  13  14
ENDBRANCH  12  13
ENDBRANCH  11  12
ENDBRANCH   1  11
TORSDOF 14
ENDMDL
MODEL 9
REMARK VINA RESULT:    -3.365      1.566      2.883
REMARK INTER + INTRA:          -7.009
REMARK INTER:                  -6.320
REMARK INTRA:                  -0.690
REMARK UNBOUND:                -0.890
REMARK SMILES CCCCCCCCCCCCCCCC(=O)[O-]
REMARK SMILES IDX 9 1 10 2 11 3 12 4 13 5 14 6 15 7 16 8 17 9 18 10 8 11 7 12
REMARK SMILES IDX 6 13 5 14 4 15 3 16 2 17 1 18
REMARK H PARENT
REMARK Flexibility Score: inf
ROOT
ATOM      1  C   UNL     1       1.193  -1.893   0.661  1.00  0.00     0.000 C 
ENDROOT
BRANCH   1   2
ATOM      2  C   UNL     1       0.017  -0.931   0.907  1.00  0.00     0.000 C 
BRANCH   2   3
ATOM      3  C   UNL     1      -1.113  -1.105  -0.121  1.00  0.00     0.000 C 
BRANCH   3   4
ATOM      4  C   UNL     1      -1.044  -2.456  -0.852  1.00  0.00     0.000 C 
BRANCH   4   5
ATOM      5  C   UNL     1      -2.415  -2.878  -1.419  1.00  0.00     0.000 C 
BRANCH   5   6
ATOM      6  C   UNL     1      -3.598  -2.059  -0.870  1.00  0.00     0.006 C 
BRANCH   6   7
ATOM      7  C   UNL     1      -4.227  -1.099  -1.896  1.00  0.00     0.053 C 
BRANCH   7   8
ATOM      8  C   UNL     1      -5.620  -0.672  -1.536  1.00  0.00     0.041 C 
ATOM      9  O   UNL     1      -5.992  -0.641  -0.334  1.00  0.00    -0.550 OA
ATOM     10  O   UNL     1      -6.539  -0.399  -2.542  1.00  0.00    -0.550 OA
ENDBRANCH   7   8
ENDBRANCH   6   7
ENDBRANCH   5   6
ENDBRANCH   4   5
ENDBRANCH   3   4
ENDBRANCH   2   3
ENDBRANCH   1   2
BRANCH   1  11
ATOM     11  C   UNL     1       1.256  -3.029   1.693  1.00  0.00     0.000 C 
BRANCH  11  12
ATOM     12  C   UNL     1       0.048  -3.025   2.648  1.00  0.00    -0.000 C 
BRANCH  12  13
ATOM     13  C   UNL     1       0.441  -2.724   4.105  1.00  0.00    -0.000 C 
BRANCH  13  14
ATOM     14  C   UNL     1      -0.648  -3.030   5.154  1.00  0.00    -0.000 C 
BRANCH  14  15
ATOM     15  C   UNL     1      -0.122  -3.479   6.531  1.00  0.00    -0.000 C 
BRANCH  15  16
ATOM     16  C   UNL     1       0.503  -2.358   7.386  1.00  0.00    -0.000 C 
BRANCH  16  17
ATOM     17  C   UNL     1       1.442  -2.845   8.505  1.00  0.00    -0.003 C 
ATOM     18  C   UNL     1       1.549  -4.367   8.572  1.00  0.00     0.004 C 
ENDBRANCH  16  17
ENDBRANCH  15  16
ENDBRANCH  14  15
ENDBRANCH  13  14
ENDBRANCH  12  13
ENDBRANCH  11  12
ENDBRANCH   1  11
TORSDOF 14
ENDMDL
