MODEL 1
REMARK VINA RESULT:    -4.351      0.000      0.000
REMARK INTER + INTRA:         -12.169
REMARK INTER:                  -9.438
REMARK INTRA:                  -2.731
REMARK UNBOUND:                -2.731
REMARK SMILES CCCCCCCCCCCCCCCCCCCCCC(=O)[O-]
REMARK SMILES IDX 12 1 11 2 10 3 9 4 8 5 7 6 6 7 5 8 4 9 3 10 2 11 1 12 13 13
REMARK SMILES IDX 14 14 15 15 16 16 17 17 18 18 19 19 20 20 21 21 22 22 23 23
REMARK SMILES IDX 24 24
REMARK H PARENT
REMARK Flexibility Score: inf
ROOT
ATOM      1  C   UNL     1      19.919  24.439  21.391  1.00  0.00     0.000 C 
ENDROOT
BRANCH   1   2
ATOM      2  C   UNL     1      19.054  23.351  22.045  1.00  0.00     0.000 C 
BRANCH   2   3
ATOM      3  C   UNL     1      18.451  22.372  21.025  1.00  0.00     0.000 C 
BRANCH   3   4
ATOM      4  C   UNL     1      17.315  21.552  21.655  1.00  0.00    -0.000 C 
BRANCH   4   5
ATOM      5  C   UNL     1      17.552  20.037  21.547  1.00  0.00    -0.000 C 
BRANCH   5   6
ATOM      6  C   UNL     1      18.818  19.694  20.743  1.00  0.00    -0.000 C 
BRANCH   6   7
ATOM      7  C   UNL     1      18.922  18.197  20.407  1.00  0.00    -0.000 C 
BRANCH   7   8
ATOM      8  C   UNL     1      18.189  17.286  21.416  1.00  0.00    -0.000 C 
BRANCH   8   9
ATOM      9  C   UNL     1      19.121  16.233  22.033  1.00  0.00    -0.000 C 
BRANCH   9  10
ATOM     10  C   UNL     1      19.983  16.847  23.146  1.00  0.00    -0.000 C 
BRANCH  10  11
ATOM     11  C   UNL     1      19.584  16.348  24.544  1.00  0.00    -0.003 C 
ATOM     12  C   UNL     1      18.096  16.533  24.836  1.00  0.00     0.004 C 
ENDBRANCH  10  11
ENDBRANCH   9  10
ENDBRANCH   8   9
ENDBRANCH   7   8
ENDBRANCH   6   7
ENDBRANCH   5   6
ENDBRANCH   4   5
ENDBRANCH   3   4
ENDBRANCH   2   3
ENDBRANCH   1   2
BRANCH   1  13
ATOM     13  C   UNL     1      19.592  24.641  19.901  1.00  0.00     0.000 C 
BRANCH  13  14
ATOM     14  C   UNL     1      20.838  24.959  19.054  1.00  0.00     0.000 C 
BRANCH  14  15
ATOM     15  C   UNL     1      21.248  23.861  18.051  1.00  0.00     0.000 C 
BRANCH  15  16
ATOM     16  C   UNL     1      21.396  22.448  18.650  1.00  0.00     0.000 C 
BRANCH  16  17
ATOM     17  C   UNL     1      22.463  22.320  19.756  1.00  0.00     0.000 C 
BRANCH  17  18
ATOM     18  C   UNL     1      22.043  21.462  20.967  1.00  0.00     0.000 C 
BRANCH  18  19
ATOM     19  C   UNL     1      23.031  20.342  21.347  1.00  0.00     0.000 C 
BRANCH  19  20
ATOM     20  C   UNL     1      22.383  18.977  21.657  1.00  0.00     0.006 C 
BRANCH  20  21
ATOM     21  C   UNL     1      23.003  17.793  20.900  1.00  0.00     0.053 C 
BRANCH  21  22
ATOM     22  C   UNL     1      24.475  17.969  20.694  1.00  0.00     0.041 C 
ATOM     23  O   UNL     1      25.275  17.796  21.651  1.00  0.00    -0.550 OA
ATOM     24  O   UNL     1      24.968  18.291  19.435  1.00  0.00    -0.550 OA
ENDBRANCH  21  22
ENDBRANCH  20  21
ENDBRANCH  19  20
ENDBRANCH  18  19
ENDBRANCH  17  18
ENDBRANCH  16  17
ENDBRANCH  15  16
ENDBRANCH  14  15
ENDBRANCH  13  14
ENDBRANCH   1  13
TORSDOF 20
ENDMDL
MODEL 2
REMARK VINA RESULT:    -4.251      1.366      2.231
REMARK INTER + INTRA:         -11.953
REMARK INTER:                  -9.301
REMARK INTRA:                  -2.652
REMARK UNBOUND:                -2.731
REMARK SMILES CCCCCCCCCCCCCCCCCCCCCC(=O)[O-]
REMARK SMILES IDX 12 1 11 2 10 3 9 4 8 5 7 6 6 7 5 8 4 9 3 10 2 11 1 12 13 13
REMARK SMILES IDX 14 14 15 15 16 16 17 17 18 18 19 19 20 20 21 21 22 22 23 23
REMARK SMILES IDX 24 24
REMARK H PARENT
REMARK Flexibility Score: inf
ROOT
ATOM      1  C   UNL     1      20.784  23.297  17.418  1.00  0.00     0.000 C 
ENDROOT
BRANCH   1   2
ATOM      2  C   UNL     1      19.457  22.570  17.148  1.00  0.00     0.000 C 
BRANCH   2   3
ATOM      3  C   UNL     1      19.095  21.559  18.247  1.00  0.00     0.000 C 
BRANCH   3   4
ATOM      4  C   UNL     1      17.825  20.778  17.879  1.00  0.00    -0.000 C 
BRANCH   4   5
ATOM      5  C   UNL     1      17.415  19.773  18.968  1.00  0.00    -0.000 C 
BRANCH   5   6
ATOM      6  C   UNL     1      18.521  19.553  20.014  1.00  0.00    -0.000 C 
BRANCH   6   7
ATOM      7  C   UNL     1      17.995  19.619  21.459  1.00  0.00    -0.000 C 
BRANCH   7   8
ATOM      8  C   UNL     1      17.887  18.237  22.138  1.00  0.00    -0.000 C 
BRANCH   8   9
ATOM      9  C   UNL     1      19.044  17.304  21.747  1.00  0.00    -0.000 C 
BRANCH   9  10
ATOM     10  C   UNL     1      19.868  16.904  22.980  1.00  0.00    -0.000 C 
BRANCH  10  11
ATOM     11  C   UNL     1      18.992  16.648  24.217  1.00  0.00    -0.003 C 
ATOM     12  C   UNL     1      19.563  17.279  25.486  1.00  0.00     0.004 C 
ENDBRANCH  10  11
ENDBRANCH   9  10
ENDBRANCH   8   9
ENDBRANCH   7   8
ENDBRANCH   6   7
ENDBRANCH   5   6
ENDBRANCH   4   5
ENDBRANCH   3   4
ENDBRANCH   2   3
ENDBRANCH   1   2
BRANCH   1  13
ATOM     13  C   UNL     1      20.579  24.739  17.914  1.00  0.00     0.000 C 
BRANCH  13  14
ATOM     14  C   UNL     1      20.911  24.910  19.407  1.00  0.00     0.000 C 
BRANCH  14  15
ATOM     15  C   UNL     1      19.786  24.504  20.381  1.00  0.00     0.000 C 
BRANCH  15  16
ATOM     16  C   UNL     1      20.147  23.372  21.364  1.00  0.00     0.000 C 
BRANCH  16  17
ATOM     17  C   UNL     1      21.556  22.775  21.178  1.00  0.00     0.000 C 
BRANCH  17  18
ATOM     18  C   UNL     1      21.584  21.272  20.836  1.00  0.00     0.000 C 
BRANCH  18  19
ATOM     19  C   UNL     1      22.745  20.481  21.470  1.00  0.00     0.000 C 
BRANCH  19  20
ATOM     20  C   UNL     1      22.550  18.951  21.504  1.00  0.00     0.006 C 
BRANCH  20  21
ATOM     21  C   UNL     1      23.857  18.145  21.539  1.00  0.00     0.053 C 
BRANCH  21  22
ATOM     22  C   UNL     1      24.307  17.748  20.168  1.00  0.00     0.041 C 
ATOM     23  O   UNL     1      23.932  16.655  19.668  1.00  0.00    -0.550 OA
ATOM     24  O   UNL     1      25.115  18.602  19.427  1.00  0.00    -0.550 OA
ENDBRANCH  21  22
ENDBRANCH  20  21
ENDBRANCH  19  20
ENDBRANCH  18  19
ENDBRANCH  17  18
ENDBRANCH  16  17
ENDBRANCH  15  16
ENDBRANCH  14  15
ENDBRANCH  13  14
ENDBRANCH   1  13
TORSDOF 20
ENDMDL
MODEL 3
REMARK VINA RESULT:    -4.228      2.624      6.981
REMARK INTER + INTRA:         -11.903
REMARK INTER:                  -9.262
REMARK INTRA:                  -2.641
REMARK UNBOUND:                -2.731
REMARK SMILES CCCCCCCCCCCCCCCCCCCCCC(=O)[O-]
REMARK SMILES IDX 12 1 11 2 10 3 9 4 8 5 7 6 6 7 5 8 4 9 3 10 2 11 1 12 13 13
REMARK SMILES IDX 14 14 15 15 16 16 17 17 18 18 19 19 20 20 21 21 22 22 23 23
REMARK SMILES IDX 24 24
REMARK H PARENT
REMARK Flexibility Score: inf
ROOT
ATOM      1  C   UNL     1      23.790  18.381  21.414  1.00  0.00     0.000 C 
ENDROOT
BRANCH   1   2
ATOM      2  C   UNL     1      22.534  19.266  21.382  1.00  0.00     0.000 C 
BRANCH   2   3
ATOM      3  C   UNL     1      22.828  20.734  21.726  1.00  0.00     0.000 C 
BRANCH   3   4
ATOM      4  C   UNL     1      22.043  21.682  20.806  1.00  0.00    -0.000 C 
BRANCH   4   5
ATOM      5  C   UNL     1      20.587  21.233  20.602  1.00  0.00    -0.000 C 
BRANCH   5   6
ATOM      6  C   UNL     1      19.576  22.344  20.933  1.00  0.00    -0.000 C 
BRANCH   6   7
ATOM      7  C   UNL     1      20.236  23.584  21.558  1.00  0.00    -0.000 C 
BRANCH   7   8
ATOM      8  C   UNL     1      19.977  24.885  20.767  1.00  0.00    -0.000 C 
BRANCH   8   9
ATOM      9  C   UNL     1      19.700  24.615  19.280  1.00  0.00    -0.000 C 
BRANCH   9  10
ATOM     10  C   UNL     1      20.980  24.771  18.446  1.00  0.00    -0.000 C 
BRANCH  10  11
ATOM     11  C   UNL     1      21.295  23.521  17.610  1.00  0.00    -0.003 C 
ATOM     12  C   UNL     1      20.037  22.800  17.126  1.00  0.00     0.004 C 
ENDBRANCH  10  11
ENDBRANCH   9  10
ENDBRANCH   8   9
ENDBRANCH   7   8
ENDBRANCH   6   7
ENDBRANCH   5   6
ENDBRANCH   4   5
ENDBRANCH   3   4
ENDBRANCH   2   3
ENDBRANCH   1   2
BRANCH   1  13
ATOM     13  C   UNL     1      24.701  18.599  20.194  1.00  0.00     0.000 C 
BRANCH  13  14
ATOM     14  C   UNL     1      25.316  17.290  19.667  1.00  0.00     0.000 C 
BRANCH  14  15
ATOM     15  C   UNL     1      24.397  16.453  18.755  1.00  0.00     0.000 C 
BRANCH  15  16
ATOM     16  C   UNL     1      23.343  15.600  19.490  1.00  0.00     0.000 C 
BRANCH  16  17
ATOM     17  C   UNL     1      21.879  15.975  19.186  1.00  0.00     0.000 C 
BRANCH  17  18
ATOM     18  C   UNL     1      20.898  15.757  20.355  1.00  0.00     0.000 C 
BRANCH  18  19
ATOM     19  C   UNL     1      21.533  15.203  21.646  1.00  0.00     0.000 C 
BRANCH  19  20
ATOM     20  C   UNL     1      20.745  15.494  22.939  1.00  0.00     0.006 C 
BRANCH  20  21
ATOM     21  C   UNL     1      20.014  16.846  22.947  1.00  0.00     0.053 C 
BRANCH  21  22
ATOM     22  C   UNL     1      19.094  16.977  24.119  1.00  0.00     0.041 C 
ATOM     23  O   UNL     1      17.846  16.999  23.948  1.00  0.00    -0.550 OA
ATOM     24  O   UNL     1      19.612  17.043  25.407  1.00  0.00    -0.550 OA
ENDBRANCH  21  22
ENDBRANCH  20  21
ENDBRANCH  19  20
ENDBRANCH  18  19
ENDBRANCH  17  18
ENDBRANCH  16  17
ENDBRANCH  15  16
ENDBRANCH  14  15
ENDBRANCH  13  14
ENDBRANCH   1  13
TORSDOF 20
ENDMDL
MODEL 4
REMARK VINA RESULT:    -4.226      2.281      5.316
REMARK INTER + INTRA:         -11.898
REMARK INTER:                  -9.164
REMARK INTRA:                  -2.734
REMARK UNBOUND:                -2.731
REMARK SMILES CCCCCCCCCCCCCCCCCCCCCC(=O)[O-]
REMARK SMILES IDX 12 1 11 2 10 3 9 4 8 5 7 6 6 7 5 8 4 9 3 10 2 11 1 12 13 13
REMARK SMILES IDX 14 14 15 15 16 16 17 17 18 18 19 19 20 20 21 21 22 22 23 23
REMARK SMILES IDX 24 24
REMARK H PARENT
REMARK Flexibility Score: inf
ROOT
ATOM      1  C   UNL     1      19.498  23.905  21.683  1.00  0.00     0.000 C 
ENDROOT
BRANCH   1   2
ATOM      2  C   UNL     1      19.284  24.298  20.213  1.00  0.00     0.000 C 
BRANCH   2   3
ATOM      3  C   UNL     1      20.532  24.928  19.575  1.00  0.00     0.000 C 
BRANCH   3   4
ATOM      4  C   UNL     1      21.051  24.063  18.415  1.00  0.00    -0.000 C 
BRANCH   4   5
ATOM      5  C   UNL     1      21.314  22.609  18.837  1.00  0.00    -0.000 C 
BRANCH   5   6
ATOM      6  C   UNL     1      22.524  22.476  19.778  1.00  0.00    -0.000 C 
BRANCH   6   7
ATOM      7  C   UNL     1      22.157  21.850  21.134  1.00  0.00    -0.000 C 
BRANCH   7   8
ATOM      8  C   UNL     1      21.981  20.318  21.078  1.00  0.00    -0.000 C 
BRANCH   8   9
ATOM      9  C   UNL     1      23.062  19.579  21.882  1.00  0.00    -0.000 C 
BRANCH   9  10
ATOM     10  C   UNL     1      23.508  18.301  21.156  1.00  0.00    -0.000 C 
BRANCH  10  11
ATOM     11  C   UNL     1      25.002  18.319  20.794  1.00  0.00    -0.003 C 
ATOM     12  C   UNL     1      25.323  17.468  19.566  1.00  0.00     0.004 C 
ENDBRANCH  10  11
ENDBRANCH   9  10
ENDBRANCH   8   9
ENDBRANCH   7   8
ENDBRANCH   6   7
ENDBRANCH   5   6
ENDBRANCH   4   5
ENDBRANCH   3   4
ENDBRANCH   2   3
ENDBRANCH   1   2
BRANCH   1  13
ATOM     13  C   UNL     1      18.551  22.782  22.141  1.00  0.00     0.000 C 
BRANCH  13  14
ATOM     14  C   UNL     1      17.950  21.992  20.964  1.00  0.00     0.000 C 
BRANCH  14  15
ATOM     15  C   UNL     1      18.218  20.473  20.988  1.00  0.00     0.000 C 
BRANCH  15  16
ATOM     16  C   UNL     1      18.631  19.860  19.634  1.00  0.00     0.000 C 
BRANCH  16  17
ATOM     17  C   UNL     1      18.901  18.342  19.665  1.00  0.00     0.000 C 
BRANCH  17  18
ATOM     18  C   UNL     1      18.673  17.670  21.033  1.00  0.00     0.000 C 
BRANCH  18  19
ATOM     19  C   UNL     1      19.956  17.238  21.770  1.00  0.00     0.000 C 
BRANCH  19  20
ATOM     20  C   UNL     1      19.926  15.810  22.352  1.00  0.00     0.006 C 
BRANCH  20  21
ATOM     21  C   UNL     1      20.446  15.700  23.793  1.00  0.00     0.053 C 
BRANCH  21  22
ATOM     22  C   UNL     1      19.462  16.233  24.786  1.00  0.00     0.041 C 
ATOM     23  O   UNL     1      18.366  15.642  24.975  1.00  0.00    -0.550 OA
ATOM     24  O   UNL     1      19.768  17.367  25.529  1.00  0.00    -0.550 OA
ENDBRANCH  21  22
ENDBRANCH  20  21
ENDBRANCH  19  20
ENDBRANCH  18  19
ENDBRANCH  17  18
ENDBRANCH  16  17
ENDBRANCH  15  16
ENDBRANCH  14  15
ENDBRANCH  13  14
ENDBRANCH   1  13
TORSDOF 20
ENDMDL
MODEL 5
REMARK VINA RESULT:    -4.147      2.309      6.485
REMARK INTER + INTRA:         -11.727
REMARK INTER:                  -8.796
REMARK INTRA:                  -2.931
REMARK UNBOUND:                -2.731
REMARK SMILES CCCCCCCCCCCCCCCCCCCCCC(=O)[O-]
REMARK SMILES IDX 12 1 11 2 10 3 9 4 8 5 7 6 6 7 5 8 4 9 3 10 2 11 1 12 13 13
REMARK SMILES IDX 14 14 15 15 16 16 17 17 18 18 19 19 20 20 21 21 22 22 23 23
REMARK SMILES IDX 24 24
REMARK H PARENT
REMARK Flexibility Score: inf
ROOT
ATOM      1  C   UNL     1      23.652  19.718  20.760  1.00  0.00     0.000 C 
ENDROOT
BRANCH   1   2
ATOM      2  C   UNL     1      22.549  20.404  21.580  1.00  0.00     0.000 C 
BRANCH   2   3
ATOM      3  C   UNL     1      21.660  21.328  20.732  1.00  0.00     0.000 C 
BRANCH   3   4
ATOM      4  C   UNL     1      21.739  22.778  21.232  1.00  0.00    -0.000 C 
BRANCH   4   5
ATOM      5  C   UNL     1      20.352  23.395  21.474  1.00  0.00    -0.000 C 
BRANCH   5   6
ATOM      6  C   UNL     1      20.006  24.488  20.448  1.00  0.00    -0.000 C 
BRANCH   6   7
ATOM      7  C   UNL     1      21.005  24.546  19.280  1.00  0.00    -0.000 C 
BRANCH   7   8
ATOM      8  C   UNL     1      20.332  24.506  17.891  1.00  0.00    -0.000 C 
BRANCH   8   9
ATOM      9  C   UNL     1      20.245  23.079  17.328  1.00  0.00    -0.000 C 
BRANCH   9  10
ATOM     10  C   UNL     1      18.832  22.505  17.506  1.00  0.00    -0.000 C 
BRANCH  10  11
ATOM     11  C   UNL     1      18.808  21.268  18.418  1.00  0.00    -0.003 C 
ATOM     12  C   UNL     1      17.862  21.429  19.608  1.00  0.00     0.004 C 
ENDBRANCH  10  11
ENDBRANCH   9  10
ENDBRANCH   8   9
ENDBRANCH   7   8
ENDBRANCH   6   7
ENDBRANCH   5   6
ENDBRANCH   4   5
ENDBRANCH   3   4
ENDBRANCH   2   3
ENDBRANCH   1   2
BRANCH   1  13
ATOM     13  C   UNL     1      24.051  18.347  21.332  1.00  0.00     0.000 C 
BRANCH  13  14
ATOM     14  C   UNL     1      24.069  17.237  20.266  1.00  0.00     0.000 C 
BRANCH  14  15
ATOM     15  C   UNL     1      22.777  16.402  20.164  1.00  0.00     0.000 C 
BRANCH  15  16
ATOM     16  C   UNL     1      21.658  16.805  21.146  1.00  0.00     0.000 C 
BRANCH  16  17
ATOM     17  C   UNL     1      20.301  17.126  20.488  1.00  0.00     0.000 C 
BRANCH  17  18
ATOM     18  C   UNL     1      19.514  18.274  21.149  1.00  0.00     0.000 C 
BRANCH  18  19
ATOM     19  C   UNL     1      18.092  17.906  21.617  1.00  0.00     0.000 C 
BRANCH  19  20
ATOM     20  C   UNL     1      18.030  16.930  22.809  1.00  0.00     0.006 C 
BRANCH  20  21
ATOM     21  C   UNL     1      18.396  17.555  24.163  1.00  0.00     0.053 C 
BRANCH  21  22
ATOM     22  C   UNL     1      19.544  16.850  24.814  1.00  0.00     0.041 C 
ATOM     23  O   UNL     1      19.934  17.196  25.961  1.00  0.00    -0.550 OA
ATOM     24  O   UNL     1      20.164  15.787  24.168  1.00  0.00    -0.550 OA
ENDBRANCH  21  22
ENDBRANCH  20  21
ENDBRANCH  19  20
ENDBRANCH  18  19
ENDBRANCH  17  18
ENDBRANCH  16  17
ENDBRANCH  15  16
ENDBRANCH  14  15
ENDBRANCH  13  14
ENDBRANCH   1  13
TORSDOF 20
ENDMDL
MODEL 6
REMARK VINA RESULT:    -4.098      2.504      5.178
REMARK INTER + INTRA:         -11.621
REMARK INTER:                  -8.657
REMARK INTRA:                  -2.964
REMARK UNBOUND:                -2.731
REMARK SMILES CCCCCCCCCCCCCCCCCCCCCC(=O)[O-]
REMARK SMILES IDX 12 1 11 2 10 3 9 4 8 5 7 6 6 7 5 8 4 9 3 10 2 11 1 12 13 13
REMARK SMILES IDX 14 14 15 15 16 16 17 17 18 18 19 19 20 20 21 21 22 22 23 23
REMARK SMILES IDX 24 24
REMARK H PARENT
REMARK Flexibility Score: inf
ROOT
ATOM      1  C   UNL     1      19.411  23.254  17.914  1.00  0.00     0.000 C 
ENDROOT
BRANCH   1   2
ATOM      2  C   UNL     1      20.913  23.254  17.593  1.00  0.00     0.000 C 
BRANCH   2   3
ATOM      3  C   UNL     1      21.788  22.976  18.825  1.00  0.00     0.000 C 
BRANCH   3   4
ATOM      4  C   UNL     1      21.114  23.495  20.106  1.00  0.00    -0.000 C 
BRANCH   4   5
ATOM      5  C   UNL     1      21.446  22.634  21.336  1.00  0.00    -0.000 C 
BRANCH   5   6
ATOM      6  C   UNL     1      21.517  21.134  21.004  1.00  0.00    -0.000 C 
BRANCH   6   7
ATOM      7  C   UNL     1      22.864  20.501  21.393  1.00  0.00    -0.000 C 
BRANCH   7   8
ATOM      8  C   UNL     1      22.806  18.965  21.532  1.00  0.00    -0.000 C 
BRANCH   8   9
ATOM      9  C   UNL     1      24.166  18.305  21.261  1.00  0.00    -0.000 C 
BRANCH   9  10
ATOM     10  C   UNL     1      24.025  17.145  20.264  1.00  0.00    -0.000 C 
BRANCH  10  11
ATOM     11  C   UNL     1      22.593  16.594  20.199  1.00  0.00    -0.003 C 
ATOM     12  C   UNL     1      22.403  15.570  19.081  1.00  0.00     0.004 C 
ENDBRANCH  10  11
ENDBRANCH   9  10
ENDBRANCH   8   9
ENDBRANCH   7   8
ENDBRANCH   6   7
ENDBRANCH   5   6
ENDBRANCH   4   5
ENDBRANCH   3   4
ENDBRANCH   2   3
ENDBRANCH   1   2
BRANCH   1  13
ATOM     13  C   UNL     1      18.740  21.902  17.615  1.00  0.00     0.000 C 
BRANCH  13  14
ATOM     14  C   UNL     1      18.478  21.073  18.886  1.00  0.00     0.000 C 
BRANCH  14  15
ATOM     15  C   UNL     1      17.887  21.860  20.074  1.00  0.00     0.000 C 
BRANCH  15  16
ATOM     16  C   UNL     1      17.776  21.069  21.393  1.00  0.00     0.000 C 
BRANCH  16  17
ATOM     17  C   UNL     1      17.315  19.606  21.236  1.00  0.00     0.000 C 
BRANCH  17  18
ATOM     18  C   UNL     1      18.001  18.604  22.185  1.00  0.00     0.000 C 
BRANCH  18  19
ATOM     19  C   UNL     1      19.234  17.889  21.599  1.00  0.00     0.000 C 
BRANCH  19  20
ATOM     20  C   UNL     1      19.355  16.395  21.962  1.00  0.00     0.006 C 
BRANCH  20  21
ATOM     21  C   UNL     1      20.257  16.106  23.172  1.00  0.00     0.053 C 
BRANCH  21  22
ATOM     22  C   UNL     1      19.494  16.143  24.459  1.00  0.00     0.041 C 
ATOM     23  O   UNL     1      19.690  17.072  25.287  1.00  0.00    -0.550 OA
ATOM     24  O   UNL     1      18.542  15.168  24.732  1.00  0.00    -0.550 OA
ENDBRANCH  21  22
ENDBRANCH  20  21
ENDBRANCH  19  20
ENDBRANCH  18  19
ENDBRANCH  17  18
ENDBRANCH  16  17
ENDBRANCH  15  16
ENDBRANCH  14  15
ENDBRANCH  13  14
ENDBRANCH   1  13
TORSDOF 20
ENDMDL
MODEL 7
REMARK VINA RESULT:    -4.085      2.755      6.128
REMARK INTER + INTRA:         -11.591
REMARK INTER:                  -8.415
REMARK INTRA:                  -3.176
REMARK UNBOUND:                -2.731
REMARK SMILES CCCCCCCCCCCCCCCCCCCCCC(=O)[O-]
REMARK SMILES IDX 12 1 11 2 10 3 9 4 8 5 7 6 6 7 5 8 4 9 3 10 2 11 1 12 13 13
REMARK SMILES IDX 14 14 15 15 16 16 17 17 18 18 19 19 20 20 21 21 22 22 23 23
REMARK SMILES IDX 24 24
REMARK H PARENT
REMARK Flexibility Score: inf
ROOT
ATOM      1  C   UNL     1      24.029  18.254  21.378  1.00  0.00     0.000 C 
ENDROOT
BRANCH   1   2
ATOM      2  C   UNL     1      24.817  18.624  20.112  1.00  0.00     0.000 C 
BRANCH   2   3
ATOM      3  C   UNL     1      25.967  17.649  19.817  1.00  0.00     0.000 C 
BRANCH   3   4
ATOM      4  C   UNL     1      25.650  16.781  18.590  1.00  0.00    -0.000 C 
BRANCH   4   5
ATOM      5  C   UNL     1      24.620  15.682  18.895  1.00  0.00    -0.000 C 
BRANCH   5   6
ATOM      6  C   UNL     1      23.493  15.622  17.850  1.00  0.00    -0.000 C 
BRANCH   6   7
ATOM      7  C   UNL     1      22.092  15.618  18.484  1.00  0.00    -0.000 C 
BRANCH   7   8
ATOM      8  C   UNL     1      22.112  15.477  20.021  1.00  0.00    -0.000 C 
BRANCH   8   9
ATOM      9  C   UNL     1      20.813  15.980  20.669  1.00  0.00    -0.000 C 
BRANCH   9  10
ATOM     10  C   UNL     1      19.942  16.724  19.645  1.00  0.00    -0.000 C 
BRANCH  10  11
ATOM     11  C   UNL     1      19.340  18.019  20.213  1.00  0.00    -0.003 C 
ATOM     12  C   UNL     1      19.050  17.929  21.711  1.00  0.00     0.004 C 
ENDBRANCH  10  11
ENDBRANCH   9  10
ENDBRANCH   8   9
ENDBRANCH   7   8
ENDBRANCH   6   7
ENDBRANCH   5   6
ENDBRANCH   4   5
ENDBRANCH   3   4
ENDBRANCH   2   3
ENDBRANCH   1   2
BRANCH   1  13
ATOM     13  C   UNL     1      22.677  18.982  21.470  1.00  0.00     0.000 C 
BRANCH  13  14
ATOM     14  C   UNL     1      22.829  20.502  21.661  1.00  0.00     0.000 C 
BRANCH  14  15
ATOM     15  C   UNL     1      21.992  21.372  20.701  1.00  0.00     0.000 C 
BRANCH  15  16
ATOM     16  C   UNL     1      21.529  22.725  21.278  1.00  0.00     0.000 C 
BRANCH  16  17
ATOM     17  C   UNL     1      20.005  22.862  21.470  1.00  0.00     0.000 C 
BRANCH  17  18
ATOM     18  C   UNL     1      19.179  21.656  20.981  1.00  0.00     0.000 C 
BRANCH  18  19
ATOM     19  C   UNL     1      18.338  21.912  19.714  1.00  0.00     0.000 C 
BRANCH  19  20
ATOM     20  C   UNL     1      18.990  21.451  18.394  1.00  0.00     0.006 C 
BRANCH  20  21
ATOM     21  C   UNL     1      19.267  22.582  17.393  1.00  0.00     0.053 C 
BRANCH  21  22
ATOM     22  C   UNL     1      20.491  23.364  17.757  1.00  0.00     0.041 C 
ATOM     23  O   UNL     1      21.636  22.875  17.569  1.00  0.00    -0.550 OA
ATOM     24  O   UNL     1      20.368  24.648  18.274  1.00  0.00    -0.550 OA
ENDBRANCH  21  22
ENDBRANCH  20  21
ENDBRANCH  19  20
ENDBRANCH  18  19
ENDBRANCH  17  18
ENDBRANCH  16  17
ENDBRANCH  15  16
ENDBRANCH  14  15
ENDBRANCH  13  14
ENDBRANCH   1  13
TORSDOF 20
ENDMDL
MODEL 8
REMARK VINA RESULT:    -4.023      2.577      5.200
REMARK INTER + INTRA:         -11.457
REMARK INTER:                  -8.830
REMARK INTRA:                  -2.627
REMARK UNBOUND:                -2.731
REMARK SMILES CCCCCCCCCCCCCCCCCCCCCC(=O)[O-]
REMARK SMILES IDX 12 1 11 2 10 3 9 4 8 5 7 6 6 7 5 8 4 9 3 10 2 11 1 12 13 13
REMARK SMILES IDX 14 14 15 15 16 16 17 17 18 18 19 19 20 20 21 21 22 22 23 23
REMARK SMILES IDX 24 24
REMARK H PARENT
REMARK Flexibility Score: inf
ROOT
ATOM      1  C   UNL     1      20.435  23.498  21.453  1.00  0.00     0.000 C 
ENDROOT
BRANCH   1   2
ATOM      2  C   UNL     1      21.757  22.788  21.123  1.00  0.00     0.000 C 
BRANCH   2   3
ATOM      3  C   UNL     1      21.599  21.265  20.984  1.00  0.00     0.000 C 
BRANCH   3   4
ATOM      4  C   UNL     1      22.854  20.534  21.485  1.00  0.00    -0.000 C 
BRANCH   4   5
ATOM      5  C   UNL     1      22.705  19.005  21.433  1.00  0.00    -0.000 C 
BRANCH   5   6
ATOM      6  C   UNL     1      24.062  18.282  21.377  1.00  0.00    -0.000 C 
BRANCH   6   7
ATOM      7  C   UNL     1      24.856  18.605  20.101  1.00  0.00    -0.000 C 
BRANCH   7   8
ATOM      8  C   UNL     1      25.842  17.490  19.690  1.00  0.00    -0.000 C 
BRANCH   8   9
ATOM      9  C   UNL     1      25.365  16.720  18.449  1.00  0.00    -0.000 C 
BRANCH   9  10
ATOM     10  C   UNL     1      24.491  15.522  18.849  1.00  0.00    -0.000 C 
BRANCH  10  11
ATOM     11  C   UNL     1      23.035  15.671  18.383  1.00  0.00    -0.003 C 
ATOM     12  C   UNL     1      22.053  15.810  19.545  1.00  0.00     0.004 C 
ENDBRANCH  10  11
ENDBRANCH   9  10
ENDBRANCH   8   9
ENDBRANCH   7   8
ENDBRANCH   6   7
ENDBRANCH   5   6
ENDBRANCH   4   5
ENDBRANCH   3   4
ENDBRANCH   2   3
ENDBRANCH   1   2
BRANCH   1  13
ATOM     13  C   UNL     1      19.916  24.357  20.287  1.00  0.00     0.000 C 
BRANCH  13  14
ATOM     14  C   UNL     1      21.004  24.668  19.244  1.00  0.00     0.000 C 
BRANCH  14  15
ATOM     15  C   UNL     1      20.659  24.267  17.795  1.00  0.00     0.000 C 
BRANCH  15  16
ATOM     16  C   UNL     1      20.368  22.768  17.582  1.00  0.00     0.000 C 
BRANCH  16  17
ATOM     17  C   UNL     1      18.922  22.442  17.157  1.00  0.00     0.000 C 
BRANCH  17  18
ATOM     18  C   UNL     1      18.028  21.880  18.280  1.00  0.00     0.000 C 
BRANCH  18  19
ATOM     19  C   UNL     1      18.717  20.872  19.221  1.00  0.00     0.000 C 
BRANCH  19  20
ATOM     20  C   UNL     1      17.978  20.608  20.548  1.00  0.00     0.006 C 
BRANCH  20  21
ATOM     21  C   UNL     1      17.436  19.179  20.699  1.00  0.00     0.053 C 
BRANCH  21  22
ATOM     22  C   UNL     1      18.276  18.356  21.625  1.00  0.00     0.041 C 
ATOM     23  O   UNL     1      17.959  18.244  22.839  1.00  0.00    -0.550 OA
ATOM     24  O   UNL     1      19.392  17.685  21.141  1.00  0.00    -0.550 OA
ENDBRANCH  21  22
ENDBRANCH  20  21
ENDBRANCH  19  20
ENDBRANCH  18  19
ENDBRANCH  17  18
ENDBRANCH  16  17
ENDBRANCH  15  16
ENDBRANCH  14  15
ENDBRANCH  13  14
ENDBRANCH   1  13
TORSDOF 20
ENDMDL
MODEL 9
REMARK VINA RESULT:    -4.017      2.432      5.186
REMARK INTER + INTRA:         -11.444
REMARK INTER:                  -8.671
REMARK INTRA:                  -2.773
REMARK UNBOUND:                -2.731
REMARK SMILES CCCCCCCCCCCCCCCCCCCCCC(=O)[O-]
REMARK SMILES IDX 12 1 11 2 10 3 9 4 8 5 7 6 6 7 5 8 4 9 3 10 2 11 1 12 13 13
REMARK SMILES IDX 14 14 15 15 16 16 17 17 18 18 19 19 20 20 21 21 22 22 23 23
REMARK SMILES IDX 24 24
REMARK H PARENT
REMARK Flexibility Score: inf
ROOT
ATOM      1  C   UNL     1      20.599  22.729  21.375  1.00  0.00     0.000 C 
ENDROOT
BRANCH   1   2
ATOM      2  C   UNL     1      20.249  24.225  21.343  1.00  0.00     0.000 C 
BRANCH   2   3
ATOM      3  C   UNL     1      19.793  24.702  19.955  1.00  0.00     0.000 C 
BRANCH   3   4
ATOM      4  C   UNL     1      21.000  24.998  19.052  1.00  0.00    -0.000 C 
BRANCH   4   5
ATOM      5  C   UNL     1      20.958  24.206  17.735  1.00  0.00    -0.000 C 
BRANCH   5   6
ATOM      6  C   UNL     1      19.534  24.080  17.167  1.00  0.00    -0.000 C 
BRANCH   6   7
ATOM      7  C   UNL     1      19.125  22.621  16.904  1.00  0.00    -0.000 C 
BRANCH   7   8
ATOM      8  C   UNL     1      19.483  21.662  18.059  1.00  0.00    -0.000 C 
BRANCH   8   9
ATOM      9  C   UNL     1      18.292  20.786  18.478  1.00  0.00    -0.000 C 
BRANCH   9  10
ATOM     10  C   UNL     1      17.718  21.247  19.825  1.00  0.00    -0.000 C 
BRANCH  10  11
ATOM     11  C   UNL     1      17.973  20.235  20.953  1.00  0.00    -0.003 C 
ATOM     12  C   UNL     1      19.121  19.276  20.639  1.00  0.00     0.004 C 
ENDBRANCH  10  11
ENDBRANCH   9  10
ENDBRANCH   8   9
ENDBRANCH   7   8
ENDBRANCH   6   7
ENDBRANCH   5   6
ENDBRANCH   4   5
ENDBRANCH   3   4
ENDBRANCH   2   3
ENDBRANCH   1   2
BRANCH   1  13
ATOM     13  C   UNL     1      22.116  22.474  21.365  1.00  0.00     0.000 C 
BRANCH  13  14
ATOM     14  C   UNL     1      22.498  21.175  20.632  1.00  0.00     0.000 C 
BRANCH  14  15
ATOM     15  C   UNL     1      22.850  19.984  21.546  1.00  0.00     0.000 C 
BRANCH  15  16
ATOM     16  C   UNL     1      23.938  19.037  20.999  1.00  0.00     0.000 C 
BRANCH  16  17
ATOM     17  C   UNL     1      23.464  17.596  20.722  1.00  0.00     0.000 C 
BRANCH  17  18
ATOM     18  C   UNL     1      22.122  17.217  21.378  1.00  0.00     0.000 C 
BRANCH  18  19
ATOM     19  C   UNL     1      21.696  15.747  21.192  1.00  0.00     0.000 C 
BRANCH  19  20
ATOM     20  C   UNL     1      20.777  15.188  22.297  1.00  0.00     0.006 C 
BRANCH  20  21
ATOM     21  C   UNL     1      19.368  15.800  22.320  1.00  0.00     0.053 C 
BRANCH  21  22
ATOM     22  C   UNL     1      19.117  16.578  23.574  1.00  0.00     0.041 C 
ATOM     23  O   UNL     1      19.871  16.436  24.572  1.00  0.00    -0.550 OA
ATOM     24  O   UNL     1      18.067  17.487  23.629  1.00  0.00    -0.550 OA
ENDBRANCH  21  22
ENDBRANCH  20  21
ENDBRANCH  19  20
ENDBRANCH  18  19
ENDBRANCH  17  18
ENDBRANCH  16  17
ENDBRANCH  15  16
ENDBRANCH  14  15
ENDBRANCH  13  14
ENDBRANCH   1  13
TORSDOF 20
ENDMDL
