MODEL 1
REMARK VINA RESULT:    -2.816      0.000      0.000
REMARK INTER + INTRA:          -8.046
REMARK INTER:                  -7.426
REMARK INTRA:                  -0.620
REMARK UNBOUND:                -0.620
REMARK SMILES CCCCCCCCCCCCCCCCCCCCCCCCCCCCCC(=O)[O-]
REMARK SMILES IDX 16 1 17 2 18 3 19 4 20 5 21 6 22 7 23 8 24 9 25 10 26 11
REMARK SMILES IDX 27 12 28 13 29 14 30 15 31 16 32 17 15 18 14 19 13 20 12 21
REMARK SMILES IDX 11 22 10 23 9 24 8 25 7 26 6 27 5 28 4 29 3 30 2 31 1 32
REMARK H PARENT
REMARK Flexibility Score: inf
ROOT
ATOM      1  C   UNL     1      11.771  21.438  67.486  1.00  0.00     0.000 C 
ENDROOT
BRANCH   1   2
ATOM      2  C   UNL     1      10.742  22.005  68.477  1.00  0.00     0.000 C 
BRANCH   2   3
ATOM      3  C   UNL     1      10.853  21.360  69.866  1.00  0.00     0.000 C 
BRANCH   3   4
ATOM      4  C   UNL     1       9.835  20.226  70.036  1.00  0.00     0.000 C 
BRANCH   4   5
ATOM      5  C   UNL     1       8.400  20.770  70.027  1.00  0.00     0.000 C 
BRANCH   5   6
ATOM      6  C   UNL     1       8.117  21.564  68.747  1.00  0.00     0.000 C 
BRANCH   6   7
ATOM      7  C   UNL     1       6.704  21.269  68.222  1.00  0.00     0.000 C 
BRANCH   7   8
ATOM      8  C   UNL     1       5.623  21.411  69.305  1.00  0.00     0.000 C 
BRANCH   8   9
ATOM      9  C   UNL     1       4.475  20.399  69.135  1.00  0.00     0.000 C 
BRANCH   9  10
ATOM     10  C   UNL     1       4.681  19.474  67.915  1.00  0.00     0.000 C 
BRANCH  10  11
ATOM     11  C   UNL     1       3.658  18.327  67.827  1.00  0.00     0.000 C 
BRANCH  11  12
ATOM     12  C   UNL     1       4.147  17.156  66.965  1.00  0.00     0.000 C 
BRANCH  12  13
ATOM     13  C   UNL     1       5.425  16.534  67.546  1.00  0.00     0.006 C 
BRANCH  13  14
ATOM     14  C   UNL     1       5.186  15.895  68.920  1.00  0.00     0.053 C 
BRANCH  14  15
ATOM     15  C   UNL     1       3.994  14.985  68.908  1.00  0.00     0.041 C 
ATOM     16  O   UNL     1       3.979  13.970  68.163  1.00  0.00    -0.550 OA
ATOM     17  O   UNL     1       2.881  15.283  69.683  1.00  0.00    -0.550 OA
ENDBRANCH  14  15
ENDBRANCH  13  14
ENDBRANCH  12  13
ENDBRANCH  11  12
ENDBRANCH  10  11
ENDBRANCH   9  10
ENDBRANCH   8   9
ENDBRANCH   7   8
ENDBRANCH   6   7
ENDBRANCH   5   6
ENDBRANCH   4   5
ENDBRANCH   3   4
ENDBRANCH   2   3
ENDBRANCH   1   2
BRANCH   1  18
ATOM     18  C   UNL     1      11.522  21.908  66.044  1.00  0.00     0.000 C 
BRANCH  18  19
ATOM     19  C   UNL     1      11.575  20.745  65.038  1.00  0.00     0.000 C 
BRANCH  19  20
ATOM     20  C   UNL     1      12.986  20.153  64.906  1.00  0.00     0.000 C 
BRANCH  20  21
ATOM     21  C   UNL     1      12.985  18.930  63.975  1.00  0.00     0.000 C 
BRANCH  21  22
ATOM     22  C   UNL     1      11.586  18.315  63.812  1.00  0.00     0.000 C 
BRANCH  22  23
ATOM     23  C   UNL     1      11.624  16.927  63.145  1.00  0.00     0.000 C 
BRANCH  23  24
ATOM     24  C   UNL     1      11.610  15.785  64.173  1.00  0.00    -0.000 C 
BRANCH  24  25
ATOM     25  C   UNL     1      12.987  15.119  64.344  1.00  0.00    -0.000 C 
BRANCH  25  26
ATOM     26  C   UNL     1      12.934  13.585  64.197  1.00  0.00    -0.000 C 
BRANCH  26  27
ATOM     27  C   UNL     1      13.728  12.800  65.262  1.00  0.00    -0.000 C 
BRANCH  27  28
ATOM     28  C   UNL     1      13.569  11.272  65.174  1.00  0.00    -0.000 C 
BRANCH  28  29
ATOM     29  C   UNL     1      13.616  10.757  63.724  1.00  0.00    -0.000 C 
BRANCH  29  30
ATOM     30  C   UNL     1      12.567   9.664  63.464  1.00  0.00    -0.000 C 
BRANCH  30  31
ATOM     31  C   UNL     1      11.738   9.347  64.719  1.00  0.00    -0.003 C 
ATOM     32  C   UNL     1      10.575  10.323  64.870  1.00  0.00     0.004 C 
ENDBRANCH  30  31
ENDBRANCH  29  30
ENDBRANCH  28  29
ENDBRANCH  27  28
ENDBRANCH  26  27
ENDBRANCH  25  26
ENDBRANCH  24  25
ENDBRANCH  23  24
ENDBRANCH  22  23
ENDBRANCH  21  22
ENDBRANCH  20  21
ENDBRANCH  19  20
ENDBRANCH  18  19
ENDBRANCH   1  18
TORSDOF 28
ENDMDL
MODEL 2
REMARK VINA RESULT:    -2.607     19.375     21.735
REMARK INTER + INTRA:          -7.494
REMARK INTER:                  -7.569
REMARK INTRA:                   0.076
REMARK UNBOUND:                -0.620
REMARK SMILES CCCCCCCCCCCCCCCCCCCCCCCCCCCCCC(=O)[O-]
REMARK SMILES IDX 16 1 17 2 18 3 19 4 20 5 21 6 22 7 23 8 24 9 25 10 26 11
REMARK SMILES IDX 27 12 28 13 29 14 30 15 31 16 32 17 15 18 14 19 13 20 12 21
REMARK SMILES IDX 11 22 10 23 9 24 8 25 7 26 6 27 5 28 4 29 3 30 2 31 1 32
REMARK H PARENT
REMARK Flexibility Score: inf
ROOT
ATOM      1  C   UNL     1       3.495   6.607  51.136  1.00  0.00     0.000 C 
ENDROOT
BRANCH   1   2
ATOM      2  C   UNL     1       2.212   6.178  50.407  1.00  0.00     0.000 C 
BRANCH   2   3
ATOM      3  C   UNL     1       1.775   4.754  50.784  1.00  0.00     0.000 C 
BRANCH   3   4
ATOM      4  C   UNL     1       0.290   4.528  50.476  1.00  0.00     0.000 C 
BRANCH   4   5
ATOM      5  C   UNL     1      -0.143   3.110  50.870  1.00  0.00     0.000 C 
BRANCH   5   6
ATOM      6  C   UNL     1      -1.296   2.618  49.987  1.00  0.00     0.000 C 
BRANCH   6   7
ATOM      7  C   UNL     1      -2.473   3.605  50.025  1.00  0.00     0.000 C 
BRANCH   7   8
ATOM      8  C   UNL     1      -3.838   2.904  50.110  1.00  0.00     0.000 C 
BRANCH   8   9
ATOM      9  C   UNL     1      -4.789   3.577  51.116  1.00  0.00     0.000 C 
BRANCH   9  10
ATOM     10  C   UNL     1      -5.766   4.561  50.436  1.00  0.00     0.000 C 
BRANCH  10  11
ATOM     11  C   UNL     1      -5.614   6.016  50.915  1.00  0.00     0.000 C 
BRANCH  11  12
ATOM     12  C   UNL     1      -4.936   6.919  49.876  1.00  0.00     0.000 C 
BRANCH  12  13
ATOM     13  C   UNL     1      -3.507   7.285  50.307  1.00  0.00     0.006 C 
BRANCH  13  14
ATOM     14  C   UNL     1      -3.119   8.705  49.875  1.00  0.00     0.053 C 
BRANCH  14  15
ATOM     15  C   UNL     1      -1.825   9.139  50.497  1.00  0.00     0.041 C 
ATOM     16  O   UNL     1      -1.780  10.180  51.204  1.00  0.00    -0.550 OA
ATOM     17  O   UNL     1      -0.661   8.422  50.257  1.00  0.00    -0.550 OA
ENDBRANCH  14  15
ENDBRANCH  13  14
ENDBRANCH  12  13
ENDBRANCH  11  12
ENDBRANCH  10  11
ENDBRANCH   9  10
ENDBRANCH   8   9
ENDBRANCH   7   8
ENDBRANCH   6   7
ENDBRANCH   5   6
ENDBRANCH   4   5
ENDBRANCH   3   4
ENDBRANCH   2   3
ENDBRANCH   1   2
BRANCH   1  18
ATOM     18  C   UNL     1       4.763   6.033  50.484  1.00  0.00     0.000 C 
BRANCH  18  19
ATOM     19  C   UNL     1       5.209   4.717  51.146  1.00  0.00     0.000 C 
BRANCH  19  20
ATOM     20  C   UNL     1       5.890   4.950  52.503  1.00  0.00     0.000 C 
BRANCH  20  21
ATOM     21  C   UNL     1       6.840   3.792  52.849  1.00  0.00     0.000 C 
BRANCH  21  22
ATOM     22  C   UNL     1       7.956   3.616  51.806  1.00  0.00     0.000 C 
BRANCH  22  23
ATOM     23  C   UNL     1       7.753   2.366  50.929  1.00  0.00     0.000 C 
BRANCH  23  24
ATOM     24  C   UNL     1       8.860   2.207  49.875  1.00  0.00    -0.000 C 
BRANCH  24  25
ATOM     25  C   UNL     1      10.270   2.425  50.453  1.00  0.00    -0.000 C 
BRANCH  25  26
ATOM     26  C   UNL     1      10.286   2.478  51.993  1.00  0.00    -0.000 C 
BRANCH  26  27
ATOM     27  C   UNL     1      10.659   3.849  52.595  1.00  0.00    -0.000 C 
BRANCH  27  28
ATOM     28  C   UNL     1      12.013   4.404  52.119  1.00  0.00    -0.000 C 
BRANCH  28  29
ATOM     29  C   UNL     1      11.910   5.123  50.762  1.00  0.00    -0.000 C 
BRANCH  29  30
ATOM     30  C   UNL     1      11.287   6.522  50.895  1.00  0.00    -0.000 C 
BRANCH  30  31
ATOM     31  C   UNL     1      10.039   6.687  50.014  1.00  0.00    -0.003 C 
ATOM     32  C   UNL     1       8.791   6.180  50.730  1.00  0.00     0.004 C 
ENDBRANCH  30  31
ENDBRANCH  29  30
ENDBRANCH  28  29
ENDBRANCH  27  28
ENDBRANCH  26  27
ENDBRANCH  25  26
ENDBRANCH  24  25
ENDBRANCH  23  24
ENDBRANCH  22  23
ENDBRANCH  21  22
ENDBRANCH  20  21
ENDBRANCH  19  20
ENDBRANCH  18  19
ENDBRANCH   1  18
TORSDOF 28
ENDMDL
MODEL 3
REMARK VINA RESULT:    -1.168      1.100      2.279
REMARK INTER + INTRA:          -3.700
REMARK INTER:                  -2.182
REMARK INTRA:                  -1.517
REMARK UNBOUND:                -0.620
REMARK SMILES CCCCCCCCCCCCCCCCCCCCCCCCCCCCCC(=O)[O-]
REMARK SMILES IDX 16 1 17 2 18 3 19 4 20 5 21 6 22 7 23 8 24 9 25 10 26 11
REMARK SMILES IDX 27 12 28 13 29 14 30 15 31 16 32 17 15 18 14 19 13 20 12 21
REMARK SMILES IDX 11 22 10 23 9 24 8 25 7 26 6 27 5 28 4 29 3 30 2 31 1 32
REMARK H PARENT
REMARK Flexibility Score: inf
ROOT
ATOM      1  C   UNL     1      11.486  20.181  66.008  1.00  0.00     0.000 C 
ENDROOT
BRANCH   1   2
ATOM      2  C   UNL     1      11.827  21.630  66.391  1.00  0.00     0.000 C 
BRANCH   2   3
ATOM      3  C   UNL     1      12.819  21.705  67.562  1.00  0.00     0.000 C 
BRANCH   3   4
ATOM      4  C   UNL     1      12.088  21.843  68.902  1.00  0.00     0.000 C 
BRANCH   4   5
ATOM      5  C   UNL     1      10.740  21.110  68.872  1.00  0.00     0.000 C 
BRANCH   5   6
ATOM      6  C   UNL     1       9.571  22.096  68.973  1.00  0.00     0.000 C 
BRANCH   6   7
ATOM      7  C   UNL     1       8.506  21.791  67.908  1.00  0.00     0.000 C 
BRANCH   7   8
ATOM      8  C   UNL     1       7.074  22.048  68.405  1.00  0.00     0.000 C 
BRANCH   8   9
ATOM      9  C   UNL     1       6.751  21.285  69.703  1.00  0.00     0.000 C 
BRANCH   9  10
ATOM     10  C   UNL     1       6.617  19.764  69.474  1.00  0.00     0.000 C 
BRANCH  10  11
ATOM     11  C   UNL     1       5.166  19.253  69.527  1.00  0.00     0.000 C 
BRANCH  11  12
ATOM     12  C   UNL     1       4.424  19.423  68.195  1.00  0.00     0.000 C 
BRANCH  12  13
ATOM     13  C   UNL     1       4.714  18.250  67.246  1.00  0.00     0.006 C 
BRANCH  13  14
ATOM     14  C   UNL     1       3.556  17.246  67.195  1.00  0.00     0.053 C 
BRANCH  14  15
ATOM     15  C   UNL     1       3.787  16.085  68.115  1.00  0.00     0.041 C 
ATOM     16  O   UNL     1       3.463  16.164  69.329  1.00  0.00    -0.550 OA
ATOM     17  O   UNL     1       4.404  14.934  67.643  1.00  0.00    -0.550 OA
ENDBRANCH  14  15
ENDBRANCH  13  14
ENDBRANCH  12  13
ENDBRANCH  11  12
ENDBRANCH  10  11
ENDBRANCH   9  10
ENDBRANCH   8   9
ENDBRANCH   7   8
ENDBRANCH   6   7
ENDBRANCH   5   6
ENDBRANCH   4   5
ENDBRANCH   3   4
ENDBRANCH   2   3
ENDBRANCH   1   2
BRANCH   1  18
ATOM     18  C   UNL     1      12.302  19.681  64.806  1.00  0.00     0.000 C 
BRANCH  18  19
ATOM     19  C   UNL     1      11.460  18.816  63.853  1.00  0.00     0.000 C 
BRANCH  19  20
ATOM     20  C   UNL     1      12.329  18.011  62.875  1.00  0.00     0.000 C 
BRANCH  20  21
ATOM     21  C   UNL     1      12.583  16.590  63.403  1.00  0.00     0.000 C 
BRANCH  21  22
ATOM     22  C   UNL     1      11.498  16.127  64.389  1.00  0.00     0.000 C 
BRANCH  22  23
ATOM     23  C   UNL     1      11.162  14.631  64.238  1.00  0.00     0.000 C 
BRANCH  23  24
ATOM     24  C   UNL     1      11.859  13.767  65.300  1.00  0.00    -0.000 C 
BRANCH  24  25
ATOM     25  C   UNL     1      13.272  13.325  64.878  1.00  0.00    -0.000 C 
BRANCH  25  26
ATOM     26  C   UNL     1      13.693  11.981  65.505  1.00  0.00    -0.000 C 
BRANCH  26  27
ATOM     27  C   UNL     1      14.118  10.895  64.495  1.00  0.00    -0.000 C 
BRANCH  27  28
ATOM     28  C   UNL     1      13.100  10.643  63.369  1.00  0.00    -0.000 C 
BRANCH  28  29
ATOM     29  C   UNL     1      12.630   9.178  63.316  1.00  0.00    -0.000 C 
BRANCH  29  30
ATOM     30  C   UNL     1      11.337   8.957  64.116  1.00  0.00    -0.000 C 
BRANCH  30  31
ATOM     31  C   UNL     1      10.678  10.282  64.530  1.00  0.00    -0.003 C 
ATOM     32  C   UNL     1      10.836  10.529  66.027  1.00  0.00     0.004 C 
ENDBRANCH  30  31
ENDBRANCH  29  30
ENDBRANCH  28  29
ENDBRANCH  27  28
ENDBRANCH  26  27
ENDBRANCH  25  26
ENDBRANCH  24  25
ENDBRANCH  23  24
ENDBRANCH  22  23
ENDBRANCH  21  22
ENDBRANCH  20  21
ENDBRANCH  19  20
ENDBRANCH  18  19
ENDBRANCH   1  18
TORSDOF 28
ENDMDL
MODEL 4
REMARK VINA RESULT:    -1.090     18.878     21.543
REMARK INTER + INTRA:          -3.496
REMARK INTER:                  -1.470
REMARK INTRA:                  -2.026
REMARK UNBOUND:                -0.620
REMARK SMILES CCCCCCCCCCCCCCCCCCCCCCCCCCCCCC(=O)[O-]
REMARK SMILES IDX 16 1 17 2 18 3 19 4 20 5 21 6 22 7 23 8 24 9 25 10 26 11
REMARK SMILES IDX 27 12 28 13 29 14 30 15 31 16 32 17 15 18 14 19 13 20 12 21
REMARK SMILES IDX 11 22 10 23 9 24 8 25 7 26 6 27 5 28 4 29 3 30 2 31 1 32
REMARK H PARENT
REMARK Flexibility Score: inf
ROOT
ATOM      1  C   UNL     1       2.157   9.535  50.771  1.00  0.00     0.000 C 
ENDROOT
BRANCH   1   2
ATOM      2  C   UNL     1       0.896   9.552  49.893  1.00  0.00     0.000 C 
BRANCH   2   3
ATOM      3  C   UNL     1      -0.390   9.699  50.720  1.00  0.00     0.000 C 
BRANCH   3   4
ATOM      4  C   UNL     1      -1.632   9.396  49.875  1.00  0.00     0.000 C 
BRANCH   4   5
ATOM      5  C   UNL     1      -2.083   7.941  50.061  1.00  0.00     0.000 C 
BRANCH   5   6
ATOM      6  C   UNL     1      -3.608   7.818  49.968  1.00  0.00     0.000 C 
BRANCH   6   7
ATOM      7  C   UNL     1      -4.121   6.691  50.877  1.00  0.00     0.000 C 
BRANCH   7   8
ATOM      8  C   UNL     1      -5.516   6.187  50.474  1.00  0.00     0.000 C 
BRANCH   8   9
ATOM      9  C   UNL     1      -5.504   4.724  49.996  1.00  0.00     0.000 C 
BRANCH   9  10
ATOM     10  C   UNL     1      -5.346   3.724  51.161  1.00  0.00     0.000 C 
BRANCH  10  11
ATOM     11  C   UNL     1      -3.885   3.340  51.455  1.00  0.00     0.000 C 
BRANCH  11  12
ATOM     12  C   UNL     1      -3.020   3.271  50.191  1.00  0.00     0.000 C 
BRANCH  12  13
ATOM     13  C   UNL     1      -1.566   2.910  50.532  1.00  0.00     0.006 C 
BRANCH  13  14
ATOM     14  C   UNL     1      -0.564   3.877  49.888  1.00  0.00     0.053 C 
BRANCH  14  15
ATOM     15  C   UNL     1       0.756   3.864  50.600  1.00  0.00     0.041 C 
ATOM     16  O   UNL     1       1.497   4.882  50.583  1.00  0.00    -0.550 OA
ATOM     17  O   UNL     1       1.190   2.711  51.242  1.00  0.00    -0.550 OA
ENDBRANCH  14  15
ENDBRANCH  13  14
ENDBRANCH  12  13
ENDBRANCH  11  12
ENDBRANCH  10  11
ENDBRANCH   9  10
ENDBRANCH   8   9
ENDBRANCH   7   8
ENDBRANCH   6   7
ENDBRANCH   5   6
ENDBRANCH   4   5
ENDBRANCH   3   4
ENDBRANCH   2   3
ENDBRANCH   1   2
BRANCH   1  18
ATOM     18  C   UNL     1       3.446   9.369  49.950  1.00  0.00     0.000 C 
BRANCH  18  19
ATOM     19  C   UNL     1       3.907   7.903  49.886  1.00  0.00     0.000 C 
BRANCH  19  20
ATOM     20  C   UNL     1       5.435   7.769  49.971  1.00  0.00     0.000 C 
BRANCH  20  21
ATOM     21  C   UNL     1       5.842   6.341  50.367  1.00  0.00     0.000 C 
BRANCH  21  22
ATOM     22  C   UNL     1       4.760   5.304  50.024  1.00  0.00     0.000 C 
BRANCH  22  23
ATOM     23  C   UNL     1       4.743   4.121  51.010  1.00  0.00     0.000 C 
BRANCH  23  24
ATOM     24  C   UNL     1       6.103   3.912  51.694  1.00  0.00    -0.000 C 
BRANCH  24  25
ATOM     25  C   UNL     1       6.550   2.439  51.697  1.00  0.00    -0.000 C 
BRANCH  25  26
ATOM     26  C   UNL     1       7.869   2.210  50.933  1.00  0.00    -0.000 C 
BRANCH  26  27
ATOM     27  C   UNL     1       8.901   3.350  51.057  1.00  0.00    -0.000 C 
BRANCH  27  28
ATOM     28  C   UNL     1      10.343   2.943  50.705  1.00  0.00    -0.000 C 
BRANCH  28  29
ATOM     29  C   UNL     1      11.384   3.942  51.239  1.00  0.00    -0.000 C 
BRANCH  29  30
ATOM     30  C   UNL     1      10.752   5.001  52.157  1.00  0.00    -0.000 C 
BRANCH  30  31
ATOM     31  C   UNL     1      11.181   6.427  51.778  1.00  0.00    -0.003 C 
ATOM     32  C   UNL     1      11.482   6.531  50.286  1.00  0.00     0.004 C 
ENDBRANCH  30  31
ENDBRANCH  29  30
ENDBRANCH  28  29
ENDBRANCH  27  28
ENDBRANCH  26  27
ENDBRANCH  25  26
ENDBRANCH  24  25
ENDBRANCH  23  24
ENDBRANCH  22  23
ENDBRANCH  21  22
ENDBRANCH  20  21
ENDBRANCH  19  20
ENDBRANCH  18  19
ENDBRANCH   1  18
TORSDOF 28
ENDMDL
MODEL 5
REMARK VINA RESULT:    -0.624      5.139     11.165
REMARK INTER + INTRA:          -2.265
REMARK INTER:                  -0.632
REMARK INTRA:                  -1.633
REMARK UNBOUND:                -0.620
REMARK SMILES CCCCCCCCCCCCCCCCCCCCCCCCCCCCCC(=O)[O-]
REMARK SMILES IDX 16 1 17 2 18 3 19 4 20 5 21 6 22 7 23 8 24 9 25 10 26 11
REMARK SMILES IDX 27 12 28 13 29 14 30 15 31 16 32 17 15 18 14 19 13 20 12 21
REMARK SMILES IDX 11 22 10 23 9 24 8 25 7 26 6 27 5 28 4 29 3 30 2 31 1 32
REMARK H PARENT
REMARK Flexibility Score: inf
ROOT
ATOM      1  C   UNL     1       5.262  18.714  69.068  1.00  0.00     0.000 C 
ENDROOT
BRANCH   1   2
ATOM      2  C   UNL     1       6.587  19.438  69.357  1.00  0.00     0.000 C 
BRANCH   2   3
ATOM      3  C   UNL     1       6.730  20.737  68.550  1.00  0.00     0.000 C 
BRANCH   3   4
ATOM      4  C   UNL     1       7.834  21.631  69.127  1.00  0.00     0.000 C 
BRANCH   4   5
ATOM      5  C   UNL     1       9.007  21.758  68.145  1.00  0.00     0.000 C 
BRANCH   5   6
ATOM      6  C   UNL     1      10.344  21.855  68.891  1.00  0.00     0.000 C 
BRANCH   6   7
ATOM      7  C   UNL     1      11.490  21.303  68.029  1.00  0.00     0.000 C 
BRANCH   7   8
ATOM      8  C   UNL     1      11.640  22.043  66.691  1.00  0.00     0.000 C 
BRANCH   8   9
ATOM      9  C   UNL     1      11.557  21.099  65.478  1.00  0.00     0.000 C 
BRANCH   9  10
ATOM     10  C   UNL     1      12.890  20.369  65.206  1.00  0.00     0.000 C 
BRANCH  10  11
ATOM     11  C   UNL     1      12.810  19.336  64.067  1.00  0.00     0.000 C 
BRANCH  11  12
ATOM     12  C   UNL     1      11.480  18.573  64.045  1.00  0.00     0.000 C 
BRANCH  12  13
ATOM     13  C   UNL     1      11.575  17.317  63.165  1.00  0.00     0.006 C 
BRANCH  13  14
ATOM     14  C   UNL     1      12.610  16.316  63.695  1.00  0.00     0.053 C 
BRANCH  14  15
ATOM     15  C   UNL     1      11.957  15.115  64.311  1.00  0.00     0.041 C 
ATOM     16  O   UNL     1      10.708  15.081  64.462  1.00  0.00    -0.550 OA
ATOM     17  O   UNL     1      12.732  14.055  64.763  1.00  0.00    -0.550 OA
ENDBRANCH  14  15
ENDBRANCH  13  14
ENDBRANCH  12  13
ENDBRANCH  11  12
ENDBRANCH  10  11
ENDBRANCH   9  10
ENDBRANCH   8   9
ENDBRANCH   7   8
ENDBRANCH   6   7
ENDBRANCH   5   6
ENDBRANCH   4   5
ENDBRANCH   3   4
ENDBRANCH   2   3
ENDBRANCH   1   2
BRANCH   1  18
ATOM     18  C   UNL     1       4.762  18.950  67.634  1.00  0.00     0.000 C 
BRANCH  18  19
ATOM     19  C   UNL     1       4.433  17.632  66.911  1.00  0.00     0.000 C 
BRANCH  19  20
ATOM     20  C   UNL     1       4.402  16.434  67.871  1.00  0.00     0.000 C 
BRANCH  20  21
ATOM     21  C   UNL     1       3.065  15.683  67.772  1.00  0.00     0.000 C 
BRANCH  21  22
ATOM     22  C   UNL     1       1.864  16.634  67.637  1.00  0.00     0.000 C 
BRANCH  22  23
ATOM     23  C   UNL     1       0.704  16.011  66.838  1.00  0.00     0.000 C 
BRANCH  23  24
ATOM     24  C   UNL     1      -0.627  16.740  67.079  1.00  0.00    -0.000 C 
BRANCH  24  25
ATOM     25  C   UNL     1      -1.618  16.575  65.913  1.00  0.00    -0.000 C 
BRANCH  25  26
ATOM     26  C   UNL     1      -1.762  15.112  65.450  1.00  0.00    -0.000 C 
BRANCH  26  27
ATOM     27  C   UNL     1      -3.184  14.704  65.011  1.00  0.00    -0.000 C 
BRANCH  27  28
ATOM     28  C   UNL     1      -3.540  15.101  63.567  1.00  0.00    -0.000 C 
BRANCH  28  29
ATOM     29  C   UNL     1      -4.989  15.604  63.434  1.00  0.00    -0.000 C 
BRANCH  29  30
ATOM     30  C   UNL     1      -5.225  16.342  62.107  1.00  0.00    -0.000 C 
BRANCH  30  31
ATOM     31  C   UNL     1      -3.910  16.655  61.376  1.00  0.00    -0.003 C 
ATOM     32  C   UNL     1      -4.025  16.354  59.885  1.00  0.00     0.004 C 
ENDBRANCH  30  31
ENDBRANCH  29  30
ENDBRANCH  28  29
ENDBRANCH  27  28
ENDBRANCH  26  27
ENDBRANCH  25  26
ENDBRANCH  24  25
ENDBRANCH  23  24
ENDBRANCH  22  23
ENDBRANCH  21  22
ENDBRANCH  20  21
ENDBRANCH  19  20
ENDBRANCH  18  19
ENDBRANCH   1  18
TORSDOF 28
ENDMDL
MODEL 6
REMARK VINA RESULT:    -0.567     17.279     21.057
REMARK INTER + INTRA:          -2.116
REMARK INTER:                  -0.800
REMARK INTRA:                  -1.316
REMARK UNBOUND:                -0.620
REMARK SMILES CCCCCCCCCCCCCCCCCCCCCCCCCCCCCC(=O)[O-]
REMARK SMILES IDX 16 1 17 2 18 3 19 4 20 5 21 6 22 7 23 8 24 9 25 10 26 11
REMARK SMILES IDX 27 12 28 13 29 14 30 15 31 16 32 17 15 18 14 19 13 20 12 21
REMARK SMILES IDX 11 22 10 23 9 24 8 25 7 26 6 27 5 28 4 29 3 30 2 31 1 32
REMARK H PARENT
REMARK Flexibility Score: inf
ROOT
ATOM      1  C   UNL     1       3.847   5.188  49.919  1.00  0.00     0.000 C 
ENDROOT
BRANCH   1   2
ATOM      2  C   UNL     1       2.380   4.731  49.893  1.00  0.00     0.000 C 
BRANCH   2   3
ATOM      3  C   UNL     1       2.140   3.490  50.766  1.00  0.00     0.000 C 
BRANCH   3   4
ATOM      4  C   UNL     1       0.731   3.500  51.371  1.00  0.00     0.000 C 
BRANCH   4   5
ATOM      5  C   UNL     1      -0.083   2.292  50.888  1.00  0.00     0.000 C 
BRANCH   5   6
ATOM      6  C   UNL     1      -1.580   2.622  50.831  1.00  0.00     0.000 C 
BRANCH   6   7
ATOM      7  C   UNL     1      -1.831   3.871  49.973  1.00  0.00     0.000 C 
BRANCH   7   8
ATOM      8  C   UNL     1      -1.630   5.181  50.753  1.00  0.00     0.000 C 
BRANCH   8   9
ATOM      9  C   UNL     1      -2.233   6.400  50.032  1.00  0.00     0.000 C 
BRANCH   9  10
ATOM     10  C   UNL     1      -3.775   6.421  50.098  1.00  0.00     0.000 C 
BRANCH  10  11
ATOM     11  C   UNL     1      -4.372   7.835  50.219  1.00  0.00     0.000 C 
BRANCH  11  12
ATOM     12  C   UNL     1      -3.356   8.940  49.907  1.00  0.00     0.000 C 
BRANCH  12  13
ATOM     13  C   UNL     1      -2.406   9.172  51.093  1.00  0.00     0.006 C 
BRANCH  13  14
ATOM     14  C   UNL     1      -1.283  10.159  50.750  1.00  0.00     0.053 C 
BRANCH  14  15
ATOM     15  C   UNL     1      -0.833  10.928  51.957  1.00  0.00     0.041 C 
ATOM     16  O   UNL     1      -0.552  12.151  51.860  1.00  0.00    -0.550 OA
ATOM     17  O   UNL     1      -0.680  10.283  53.177  1.00  0.00    -0.550 OA
ENDBRANCH  14  15
ENDBRANCH  13  14
ENDBRANCH  12  13
ENDBRANCH  11  12
ENDBRANCH  10  11
ENDBRANCH   9  10
ENDBRANCH   8   9
ENDBRANCH   7   8
ENDBRANCH   6   7
ENDBRANCH   5   6
ENDBRANCH   4   5
ENDBRANCH   3   4
ENDBRANCH   2   3
ENDBRANCH   1   2
BRANCH   1  18
ATOM     18  C   UNL     1       4.372   5.404  51.347  1.00  0.00     0.000 C 
BRANCH  18  19
ATOM     19  C   UNL     1       5.046   4.142  51.914  1.00  0.00     0.000 C 
BRANCH  19  20
ATOM     20  C   UNL     1       6.077   3.547  50.942  1.00  0.00     0.000 C 
BRANCH  20  21
ATOM     21  C   UNL     1       7.065   2.630  51.680  1.00  0.00     0.000 C 
BRANCH  21  22
ATOM     22  C   UNL     1       8.153   2.068  50.750  1.00  0.00     0.000 C 
BRANCH  22  23
ATOM     23  C   UNL     1       9.550   2.634  51.066  1.00  0.00     0.000 C 
BRANCH  23  24
ATOM     24  C   UNL     1      10.151   3.399  49.876  1.00  0.00    -0.000 C 
BRANCH  24  25
ATOM     25  C   UNL     1      10.292   4.908  50.146  1.00  0.00    -0.000 C 
BRANCH  25  26
ATOM     26  C   UNL     1      11.374   5.231  51.196  1.00  0.00    -0.000 C 
BRANCH  26  27
ATOM     27  C   UNL     1      10.844   5.845  52.509  1.00  0.00    -0.000 C 
BRANCH  27  28
ATOM     28  C   UNL     1       9.313   5.803  52.657  1.00  0.00    -0.000 C 
BRANCH  28  29
ATOM     29  C   UNL     1       8.849   4.748  53.677  1.00  0.00    -0.000 C 
BRANCH  29  30
ATOM     30  C   UNL     1       8.625   5.353  55.073  1.00  0.00    -0.000 C 
BRANCH  30  31
ATOM     31  C   UNL     1       7.132   5.489  55.412  1.00  0.00    -0.003 C 
ATOM     32  C   UNL     1       6.526   4.137  55.773  1.00  0.00     0.004 C 
ENDBRANCH  30  31
ENDBRANCH  29  30
ENDBRANCH  28  29
ENDBRANCH  27  28
ENDBRANCH  26  27
ENDBRANCH  25  26
ENDBRANCH  24  25
ENDBRANCH  23  24
ENDBRANCH  22  23
ENDBRANCH  21  22
ENDBRANCH  20  21
ENDBRANCH  19  20
ENDBRANCH  18  19
ENDBRANCH   1  18
TORSDOF 28
ENDMDL
MODEL 7
REMARK VINA RESULT:    -0.478     19.607     22.171
REMARK INTER + INTRA:          -1.881
REMARK INTER:                  -2.366
REMARK INTRA:                   0.485
REMARK UNBOUND:                -0.620
REMARK SMILES CCCCCCCCCCCCCCCCCCCCCCCCCCCCCC(=O)[O-]
REMARK SMILES IDX 16 1 17 2 18 3 19 4 20 5 21 6 22 7 23 8 24 9 25 10 26 11
REMARK SMILES IDX 27 12 28 13 29 14 30 15 31 16 32 17 15 18 14 19 13 20 12 21
REMARK SMILES IDX 11 22 10 23 9 24 8 25 7 26 6 27 5 28 4 29 3 30 2 31 1 32
REMARK H PARENT
REMARK Flexibility Score: inf
ROOT
ATOM      1  C   UNL     1       7.246   2.517  49.968  1.00  0.00     0.000 C 
ENDROOT
BRANCH   1   2
ATOM      2  C   UNL     1       5.861   1.882  50.169  1.00  0.00     0.000 C 
BRANCH   2   3
ATOM      3  C   UNL     1       4.720   2.867  49.876  1.00  0.00     0.000 C 
BRANCH   3   4
ATOM      4  C   UNL     1       3.503   2.590  50.766  1.00  0.00     0.000 C 
BRANCH   4   5
ATOM      5  C   UNL     1       2.309   2.109  49.931  1.00  0.00     0.000 C 
BRANCH   5   6
ATOM      6  C   UNL     1       1.086   3.011  50.144  1.00  0.00     0.000 C 
BRANCH   6   7
ATOM      7  C   UNL     1      -0.128   2.186  50.594  1.00  0.00     0.000 C 
BRANCH   7   8
ATOM      8  C   UNL     1      -1.425   2.591  49.875  1.00  0.00     0.000 C 
BRANCH   8   9
ATOM      9  C   UNL     1      -2.679   1.969  50.517  1.00  0.00     0.000 C 
BRANCH   9  10
ATOM     10  C   UNL     1      -3.561   3.020  51.225  1.00  0.00     0.000 C 
BRANCH  10  11
ATOM     11  C   UNL     1      -3.857   4.263  50.366  1.00  0.00     0.000 C 
BRANCH  11  12
ATOM     12  C   UNL     1      -5.262   4.830  50.600  1.00  0.00     0.000 C 
BRANCH  12  13
ATOM     13  C   UNL     1      -5.216   6.349  50.829  1.00  0.00     0.006 C 
BRANCH  13  14
ATOM     14  C   UNL     1      -4.144   7.032  49.972  1.00  0.00     0.053 C 
BRANCH  14  15
ATOM     15  C   UNL     1      -3.199   7.844  50.807  1.00  0.00     0.041 C 
ATOM     16  O   UNL     1      -2.169   8.349  50.290  1.00  0.00    -0.550 OA
ATOM     17  O   UNL     1      -3.432   8.003  52.167  1.00  0.00    -0.550 OA
ENDBRANCH  14  15
ENDBRANCH  13  14
ENDBRANCH  12  13
ENDBRANCH  11  12
ENDBRANCH  10  11
ENDBRANCH   9  10
ENDBRANCH   8   9
ENDBRANCH   7   8
ENDBRANCH   6   7
ENDBRANCH   5   6
ENDBRANCH   4   5
ENDBRANCH   3   4
ENDBRANCH   2   3
ENDBRANCH   1   2
BRANCH   1  18
ATOM     18  C   UNL     1       7.903   2.931  51.294  1.00  0.00     0.000 C 
BRANCH  18  19
ATOM     19  C   UNL     1       8.943   1.902  51.772  1.00  0.00     0.000 C 
BRANCH  19  20
ATOM     20  C   UNL     1      10.289   2.554  52.123  1.00  0.00     0.000 C 
BRANCH  20  21
ATOM     21  C   UNL     1      10.544   3.793  51.251  1.00  0.00     0.000 C 
BRANCH  21  22
ATOM     22  C   UNL     1      11.968   3.821  50.670  1.00  0.00     0.000 C 
BRANCH  22  23
ATOM     23  C   UNL     1      12.885   4.817  51.403  1.00  0.00     0.000 C 
BRANCH  23  24
ATOM     24  C   UNL     1      12.550   6.278  51.062  1.00  0.00    -0.000 C 
BRANCH  24  25
ATOM     25  C   UNL     1      11.360   6.408  50.096  1.00  0.00    -0.000 C 
BRANCH  25  26
ATOM     26  C   UNL     1      10.001   6.463  50.821  1.00  0.00    -0.000 C 
BRANCH  26  27
ATOM     27  C   UNL     1       8.782   6.087  49.952  1.00  0.00    -0.000 C 
BRANCH  27  28
ATOM     28  C   UNL     1       7.548   5.634  50.751  1.00  0.00    -0.000 C 
BRANCH  28  29
ATOM     29  C   UNL     1       6.400   6.658  50.694  1.00  0.00    -0.000 C 
BRANCH  29  30
ATOM     30  C   UNL     1       5.025   5.996  50.878  1.00  0.00    -0.000 C 
BRANCH  30  31
ATOM     31  C   UNL     1       3.884   6.869  50.332  1.00  0.00    -0.003 C 
ATOM     32  C   UNL     1       2.704   6.012  49.886  1.00  0.00     0.004 C 
ENDBRANCH  30  31
ENDBRANCH  29  30
ENDBRANCH  28  29
ENDBRANCH  27  28
ENDBRANCH  26  27
ENDBRANCH  25  26
ENDBRANCH  24  25
ENDBRANCH  23  24
ENDBRANCH  22  23
ENDBRANCH  21  22
ENDBRANCH  20  21
ENDBRANCH  19  20
ENDBRANCH  18  19
ENDBRANCH   1  18
TORSDOF 28
ENDMDL
