MODEL 1
REMARK VINA RESULT:    -4.159      0.000      0.000
REMARK INTER + INTRA:          -8.038
REMARK INTER:                  -7.076
REMARK INTRA:                  -0.962
REMARK UNBOUND:                -0.962
REMARK SMILES CCCCCCCCCCCCCC(=O)[O-]
REMARK SMILES IDX 8 1 9 2 10 3 11 4 12 5 13 6 14 7 15 8 16 9 7 10 6 11 5 12
REMARK SMILES IDX 4 13 3 14 2 15 1 16
REMARK H PARENT
REMARK Flexibility Score: inf
ROOT
ATOM      1  C   UNL     1      26.120   0.176  43.988  1.00  0.00     0.000 C 
ENDROOT
BRANCH   1   2
ATOM      2  C   UNL     1      25.397   1.491  43.669  1.00  0.00     0.000 C 
BRANCH   2   3
ATOM      3  C   UNL     1      26.223   2.352  42.701  1.00  0.00     0.000 C 
BRANCH   3   4
ATOM      4  C   UNL     1      25.437   2.749  41.442  1.00  0.00     0.000 C 
BRANCH   4   5
ATOM      5  C   UNL     1      26.322   2.821  40.188  1.00  0.00     0.006 C 
BRANCH   5   6
ATOM      6  C   UNL     1      25.625   2.173  38.989  1.00  0.00     0.053 C 
BRANCH   6   7
ATOM      7  C   UNL     1      26.234   0.840  38.686  1.00  0.00     0.041 C 
ATOM      8  O   UNL     1      25.707   0.083  37.831  1.00  0.00    -0.550 OA
ATOM      9  O   UNL     1      27.412   0.456  39.315  1.00  0.00    -0.550 OA
ENDBRANCH   6   7
ENDBRANCH   5   6
ENDBRANCH   4   5
ENDBRANCH   3   4
ENDBRANCH   2   3
ENDBRANCH   1   2
BRANCH   1  10
ATOM     10  C   UNL     1      26.722  -0.444  42.719  1.00  0.00     0.000 C 
BRANCH  10  11
ATOM     11  C   UNL     1      27.867  -1.427  43.019  1.00  0.00    -0.000 C 
BRANCH  11  12
ATOM     12  C   UNL     1      27.813  -2.084  44.414  1.00  0.00    -0.000 C 
BRANCH  12  13
ATOM     13  C   UNL     1      28.052  -3.606  44.428  1.00  0.00    -0.000 C 
BRANCH  13  14
ATOM     14  C   UNL     1      27.186  -4.412  43.438  1.00  0.00    -0.000 C 
BRANCH  14  15
ATOM     15  C   UNL     1      25.730  -4.633  43.885  1.00  0.00    -0.003 C 
ATOM     16  C   UNL     1      25.622  -5.226  45.289  1.00  0.00     0.004 C 
ENDBRANCH  14  15
ENDBRANCH  13  14
ENDBRANCH  12  13
ENDBRANCH  11  12
ENDBRANCH  10  11
ENDBRANCH   1  10
TORSDOF 12
ENDMDL
MODEL 2
REMARK VINA RESULT:    -4.154      2.765      6.579
REMARK INTER + INTRA:          -8.030
REMARK INTER:                  -6.897
REMARK INTRA:                  -1.133
REMARK UNBOUND:                -0.962
REMARK SMILES CCCCCCCCCCCCCC(=O)[O-]
REMARK SMILES IDX 8 1 9 2 10 3 11 4 12 5 13 6 14 7 15 8 16 9 7 10 6 11 5 12
REMARK SMILES IDX 4 13 3 14 2 15 1 16
REMARK H PARENT
REMARK Flexibility Score: inf
ROOT
ATOM      1  C   UNL     1      26.402   0.608  43.878  1.00  0.00     0.000 C 
ENDROOT
BRANCH   1   2
ATOM      2  C   UNL     1      26.528  -0.474  42.799  1.00  0.00     0.000 C 
BRANCH   2   3
ATOM      3  C   UNL     1      27.726  -1.395  43.080  1.00  0.00     0.000 C 
BRANCH   3   4
ATOM      4  C   UNL     1      28.085  -1.461  44.572  1.00  0.00     0.000 C 
BRANCH   4   5
ATOM      5  C   UNL     1      28.165  -2.902  45.100  1.00  0.00     0.006 C 
BRANCH   5   6
ATOM      6  C   UNL     1      27.680  -3.899  44.045  1.00  0.00     0.053 C 
BRANCH   6   7
ATOM      7  C   UNL     1      26.297  -4.370  44.365  1.00  0.00     0.041 C 
ATOM      8  O   UNL     1      25.360  -4.188  43.545  1.00  0.00    -0.550 OA
ATOM      9  O   UNL     1      26.052  -5.053  45.550  1.00  0.00    -0.550 OA
ENDBRANCH   6   7
ENDBRANCH   5   6
ENDBRANCH   4   5
ENDBRANCH   3   4
ENDBRANCH   2   3
ENDBRANCH   1   2
BRANCH   1  10
ATOM     10  C   UNL     1      25.574   1.798  43.372  1.00  0.00     0.000 C 
BRANCH  10  11
ATOM     11  C   UNL     1      26.442   2.928  42.791  1.00  0.00    -0.000 C 
BRANCH  11  12
ATOM     12  C   UNL     1      25.915   3.546  41.479  1.00  0.00    -0.000 C 
BRANCH  12  13
ATOM     13  C   UNL     1      25.229   2.554  40.521  1.00  0.00    -0.000 C 
BRANCH  13  14
ATOM     14  C   UNL     1      25.930   2.369  39.160  1.00  0.00    -0.000 C 
BRANCH  14  15
ATOM     15  C   UNL     1      26.187   0.905  38.759  1.00  0.00    -0.003 C 
ATOM     16  C   UNL     1      27.521   0.371  39.277  1.00  0.00     0.004 C 
ENDBRANCH  14  15
ENDBRANCH  13  14
ENDBRANCH  12  13
ENDBRANCH  11  12
ENDBRANCH  10  11
ENDBRANCH   1  10
TORSDOF 12
ENDMDL
MODEL 3
REMARK VINA RESULT:    -4.082      1.720      3.194
REMARK INTER + INTRA:          -7.907
REMARK INTER:                  -6.977
REMARK INTRA:                  -0.930
REMARK UNBOUND:                -0.962
REMARK SMILES CCCCCCCCCCCCCC(=O)[O-]
REMARK SMILES IDX 8 1 9 2 10 3 11 4 12 5 13 6 14 7 15 8 16 9 7 10 6 11 5 12
REMARK SMILES IDX 4 13 3 14 2 15 1 16
REMARK H PARENT
REMARK Flexibility Score: inf
ROOT
ATOM      1  C   UNL     1      27.951  -1.519  44.454  1.00  0.00     0.000 C 
ENDROOT
BRANCH   1   2
ATOM      2  C   UNL     1      27.492  -1.150  43.038  1.00  0.00     0.000 C 
BRANCH   2   3
ATOM      3  C   UNL     1      26.360  -0.112  43.080  1.00  0.00     0.000 C 
BRANCH   3   4
ATOM      4  C   UNL     1      26.589   0.972  44.144  1.00  0.00     0.000 C 
BRANCH   4   5
ATOM      5  C   UNL     1      26.415   2.395  43.590  1.00  0.00     0.006 C 
BRANCH   5   6
ATOM      6  C   UNL     1      25.481   2.399  42.377  1.00  0.00     0.053 C 
BRANCH   6   7
ATOM      7  C   UNL     1      26.106   3.138  41.237  1.00  0.00     0.041 C 
ATOM      8  O   UNL     1      26.017   2.688  40.065  1.00  0.00    -0.550 OA
ATOM      9  O   UNL     1      26.745   4.351  41.462  1.00  0.00    -0.550 OA
ENDBRANCH   6   7
ENDBRANCH   5   6
ENDBRANCH   4   5
ENDBRANCH   3   4
ENDBRANCH   2   3
ENDBRANCH   1   2
BRANCH   1  10
ATOM     10  C   UNL     1      27.839  -3.032  44.693  1.00  0.00     0.000 C 
BRANCH  10  11
ATOM     11  C   UNL     1      26.943  -3.736  43.659  1.00  0.00    -0.000 C 
BRANCH  11  12
ATOM     12  C   UNL     1      27.268  -5.226  43.423  1.00  0.00    -0.000 C 
BRANCH  12  13
ATOM     13  C   UNL     1      26.616  -6.202  44.422  1.00  0.00    -0.000 C 
BRANCH  13  14
ATOM     14  C   UNL     1      25.291  -5.714  45.041  1.00  0.00    -0.000 C 
BRANCH  14  15
ATOM     15  C   UNL     1      25.198  -5.860  46.570  1.00  0.00    -0.003 C 
ATOM     16  C   UNL     1      26.283  -5.079  47.310  1.00  0.00     0.004 C 
ENDBRANCH  14  15
ENDBRANCH  13  14
ENDBRANCH  12  13
ENDBRANCH  11  12
ENDBRANCH  10  11
ENDBRANCH   1  10
TORSDOF 12
ENDMDL
MODEL 4
REMARK VINA RESULT:    -4.077      3.667      7.665
REMARK INTER + INTRA:          -7.899
REMARK INTER:                  -7.125
REMARK INTRA:                  -0.774
REMARK UNBOUND:                -0.962
REMARK SMILES CCCCCCCCCCCCCC(=O)[O-]
REMARK SMILES IDX 8 1 9 2 10 3 11 4 12 5 13 6 14 7 15 8 16 9 7 10 6 11 5 12
REMARK SMILES IDX 4 13 3 14 2 15 1 16
REMARK H PARENT
REMARK Flexibility Score: inf
ROOT
ATOM      1  C   UNL     1      27.829  -1.479  43.935  1.00  0.00     0.000 C 
ENDROOT
BRANCH   1   2
ATOM      2  C   UNL     1      27.324  -2.879  44.306  1.00  0.00     0.000 C 
BRANCH   2   3
ATOM      3  C   UNL     1      27.790  -3.921  43.278  1.00  0.00     0.000 C 
BRANCH   3   4
ATOM      4  C   UNL     1      27.036  -5.254  43.403  1.00  0.00     0.000 C 
BRANCH   4   5
ATOM      5  C   UNL     1      25.663  -5.099  44.076  1.00  0.00     0.006 C 
BRANCH   5   6
ATOM      6  C   UNL     1      25.393  -6.254  45.043  1.00  0.00     0.053 C 
BRANCH   6   7
ATOM      7  C   UNL     1      25.271  -5.747  46.445  1.00  0.00     0.041 C 
ATOM      8  O   UNL     1      26.150  -4.983  46.921  1.00  0.00    -0.550 OA
ATOM      9  O   UNL     1      24.159  -6.080  47.209  1.00  0.00    -0.550 OA
ENDBRANCH   6   7
ENDBRANCH   5   6
ENDBRANCH   4   5
ENDBRANCH   3   4
ENDBRANCH   2   3
ENDBRANCH   1   2
BRANCH   1  10
ATOM     10  C   UNL     1      26.787  -0.721  43.100  1.00  0.00     0.000 C 
BRANCH  10  11
ATOM     11  C   UNL     1      26.088   0.400  43.889  1.00  0.00    -0.000 C 
BRANCH  11  12
ATOM     12  C   UNL     1      26.437   1.832  43.433  1.00  0.00    -0.000 C 
BRANCH  12  13
ATOM     13  C   UNL     1      25.547   2.395  42.309  1.00  0.00    -0.000 C 
BRANCH  13  14
ATOM     14  C   UNL     1      26.245   3.387  41.358  1.00  0.00    -0.000 C 
BRANCH  14  15
ATOM     15  C   UNL     1      26.557   2.830  39.957  1.00  0.00    -0.003 C 
ATOM     16  C   UNL     1      26.212   1.348  39.815  1.00  0.00     0.004 C 
ENDBRANCH  14  15
ENDBRANCH  13  14
ENDBRANCH  12  13
ENDBRANCH  11  12
ENDBRANCH  10  11
ENDBRANCH   1  10
TORSDOF 12
ENDMDL
MODEL 5
REMARK VINA RESULT:    -4.055      1.323      2.025
REMARK INTER + INTRA:          -7.861
REMARK INTER:                  -7.025
REMARK INTRA:                  -0.837
REMARK UNBOUND:                -0.962
REMARK SMILES CCCCCCCCCCCCCC(=O)[O-]
REMARK SMILES IDX 8 1 9 2 10 3 11 4 12 5 13 6 14 7 15 8 16 9 7 10 6 11 5 12
REMARK SMILES IDX 4 13 3 14 2 15 1 16
REMARK H PARENT
REMARK Flexibility Score: inf
ROOT
ATOM      1  C   UNL     1      26.504   0.520  44.110  1.00  0.00     0.000 C 
ENDROOT
BRANCH   1   2
ATOM      2  C   UNL     1      25.559   1.551  43.479  1.00  0.00     0.000 C 
BRANCH   2   3
ATOM      3  C   UNL     1      26.344   2.751  42.927  1.00  0.00     0.000 C 
BRANCH   3   4
ATOM      4  C   UNL     1      25.709   3.341  41.658  1.00  0.00     0.000 C 
BRANCH   4   5
ATOM      5  C   UNL     1      26.484   2.977  40.382  1.00  0.00     0.006 C 
BRANCH   5   6
ATOM      6  C   UNL     1      26.055   1.606  39.853  1.00  0.00     0.053 C 
BRANCH   6   7
ATOM      7  C   UNL     1      25.533   1.725  38.455  1.00  0.00     0.041 C 
ATOM      8  O   UNL     1      26.094   1.104  37.515  1.00  0.00    -0.550 OA
ATOM      9  O   UNL     1      24.397   2.483  38.200  1.00  0.00    -0.550 OA
ENDBRANCH   6   7
ENDBRANCH   5   6
ENDBRANCH   4   5
ENDBRANCH   3   4
ENDBRANCH   2   3
ENDBRANCH   1   2
BRANCH   1  10
ATOM     10  C   UNL     1      26.513  -0.786  43.303  1.00  0.00     0.000 C 
BRANCH  10  11
ATOM     11  C   UNL     1      27.858  -1.529  43.381  1.00  0.00    -0.000 C 
BRANCH  11  12
ATOM     12  C   UNL     1      27.767  -3.060  43.222  1.00  0.00    -0.000 C 
BRANCH  12  13
ATOM     13  C   UNL     1      26.868  -3.771  44.252  1.00  0.00    -0.000 C 
BRANCH  13  14
ATOM     14  C   UNL     1      27.425  -3.808  45.689  1.00  0.00    -0.000 C 
BRANCH  14  15
ATOM     15  C   UNL     1      28.872  -4.322  45.809  1.00  0.00    -0.003 C 
ATOM     16  C   UNL     1      29.800  -3.330  46.507  1.00  0.00     0.004 C 
ENDBRANCH  14  15
ENDBRANCH  13  14
ENDBRANCH  12  13
ENDBRANCH  11  12
ENDBRANCH  10  11
ENDBRANCH   1  10
TORSDOF 12
ENDMDL
MODEL 6
REMARK VINA RESULT:    -4.006      7.227      9.281
REMARK INTER + INTRA:          -7.778
REMARK INTER:                  -6.148
REMARK INTRA:                  -1.630
REMARK UNBOUND:                -0.962
REMARK SMILES CCCCCCCCCCCCCC(=O)[O-]
REMARK SMILES IDX 8 1 9 2 10 3 11 4 12 5 13 6 14 7 15 8 16 9 7 10 6 11 5 12
REMARK SMILES IDX 4 13 3 14 2 15 1 16
REMARK H PARENT
REMARK Flexibility Score: inf
ROOT
ATOM      1  C   UNL     1      25.668  -6.016  35.909  1.00  0.00     0.000 C 
ENDROOT
BRANCH   1   2
ATOM      2  C   UNL     1      26.008  -5.546  34.489  1.00  0.00     0.000 C 
BRANCH   2   3
ATOM      3  C   UNL     1      27.382  -4.860  34.451  1.00  0.00     0.000 C 
BRANCH   3   4
ATOM      4  C   UNL     1      28.087  -4.870  35.816  1.00  0.00     0.000 C 
BRANCH   4   5
ATOM      5  C   UNL     1      28.880  -3.581  36.083  1.00  0.00     0.006 C 
BRANCH   5   6
ATOM      6  C   UNL     1      30.320  -3.710  35.581  1.00  0.00     0.053 C 
BRANCH   6   7
ATOM      7  C   UNL     1      30.623  -2.641  34.578  1.00  0.00     0.041 C 
ATOM      8  O   UNL     1      31.786  -2.168  34.489  1.00  0.00    -0.550 OA
ATOM      9  O   UNL     1      29.632  -2.202  33.710  1.00  0.00    -0.550 OA
ENDBRANCH   6   7
ENDBRANCH   5   6
ENDBRANCH   4   5
ENDBRANCH   3   4
ENDBRANCH   2   3
ENDBRANCH   1   2
BRANCH   1  10
ATOM     10  C   UNL     1      24.196  -6.444  36.010  1.00  0.00     0.000 C 
BRANCH  10  11
ATOM     11  C   UNL     1      23.377  -6.068  34.763  1.00  0.00    -0.000 C 
BRANCH  11  12
ATOM     12  C   UNL     1      22.527  -4.788  34.904  1.00  0.00    -0.000 C 
BRANCH  12  13
ATOM     13  C   UNL     1      22.265  -4.335  36.353  1.00  0.00    -0.000 C 
BRANCH  13  14
ATOM     14  C   UNL     1      22.993  -3.043  36.774  1.00  0.00    -0.000 C 
BRANCH  14  15
ATOM     15  C   UNL     1      24.086  -2.569  35.799  1.00  0.00    -0.003 C 
ATOM     16  C   UNL     1      25.422  -2.297  36.488  1.00  0.00     0.004 C 
ENDBRANCH  14  15
ENDBRANCH  13  14
ENDBRANCH  12  13
ENDBRANCH  11  12
ENDBRANCH  10  11
ENDBRANCH   1  10
TORSDOF 12
ENDMDL
MODEL 7
REMARK VINA RESULT:    -3.967      3.879      7.404
REMARK INTER + INTRA:          -7.712
REMARK INTER:                  -6.918
REMARK INTRA:                  -0.794
REMARK UNBOUND:                -0.962
REMARK SMILES CCCCCCCCCCCCCC(=O)[O-]
REMARK SMILES IDX 8 1 9 2 10 3 11 4 12 5 13 6 14 7 15 8 16 9 7 10 6 11 5 12
REMARK SMILES IDX 4 13 3 14 2 15 1 16
REMARK H PARENT
REMARK Flexibility Score: inf
ROOT
ATOM      1  C   UNL     1      26.741   0.245  43.929  1.00  0.00     0.000 C 
ENDROOT
BRANCH   1   2
ATOM      2  C   UNL     1      26.975  -0.802  42.833  1.00  0.00     0.000 C 
BRANCH   2   3
ATOM      3  C   UNL     1      27.534  -2.105  43.426  1.00  0.00     0.000 C 
BRANCH   3   4
ATOM      4  C   UNL     1      28.330  -1.873  44.719  1.00  0.00     0.000 C 
BRANCH   4   5
ATOM      5  C   UNL     1      28.243  -3.061  45.690  1.00  0.00     0.006 C 
BRANCH   5   6
ATOM      6  C   UNL     1      29.601  -3.338  46.340  1.00  0.00     0.053 C 
BRANCH   6   7
ATOM      7  C   UNL     1      29.919  -4.799  46.287  1.00  0.00     0.041 C 
ATOM      8  O   UNL     1      31.108  -5.183  46.141  1.00  0.00    -0.550 OA
ATOM      9  O   UNL     1      28.906  -5.736  46.447  1.00  0.00    -0.550 OA
ENDBRANCH   6   7
ENDBRANCH   5   6
ENDBRANCH   4   5
ENDBRANCH   3   4
ENDBRANCH   2   3
ENDBRANCH   1   2
BRANCH   1  10
ATOM     10  C   UNL     1      25.604   1.202  43.544  1.00  0.00     0.000 C 
BRANCH  10  11
ATOM     11  C   UNL     1      26.107   2.482  42.854  1.00  0.00    -0.000 C 
BRANCH  11  12
ATOM     12  C   UNL     1      25.410   2.821  41.520  1.00  0.00    -0.000 C 
BRANCH  12  13
ATOM     13  C   UNL     1      26.340   2.876  40.293  1.00  0.00    -0.000 C 
BRANCH  13  14
ATOM     14  C   UNL     1      25.753   2.275  39.001  1.00  0.00    -0.000 C 
BRANCH  14  15
ATOM     15  C   UNL     1      26.060   0.781  38.786  1.00  0.00    -0.003 C 
ATOM     16  C   UNL     1      27.459   0.387  39.255  1.00  0.00     0.004 C 
ENDBRANCH  14  15
ENDBRANCH  13  14
ENDBRANCH  12  13
ENDBRANCH  11  12
ENDBRANCH  10  11
ENDBRANCH   1  10
TORSDOF 12
ENDMDL
MODEL 8
REMARK VINA RESULT:    -3.940      1.387      2.491
REMARK INTER + INTRA:          -7.666
REMARK INTER:                  -6.858
REMARK INTRA:                  -0.808
REMARK UNBOUND:                -0.962
REMARK SMILES CCCCCCCCCCCCCC(=O)[O-]
REMARK SMILES IDX 8 1 9 2 10 3 11 4 12 5 13 6 14 7 15 8 16 9 7 10 6 11 5 12
REMARK SMILES IDX 4 13 3 14 2 15 1 16
REMARK H PARENT
REMARK Flexibility Score: inf
ROOT
ATOM      1  C   UNL     1      27.780  -1.485  43.132  1.00  0.00     0.000 C 
ENDROOT
BRANCH   1   2
ATOM      2  C   UNL     1      27.200  -0.353  43.989  1.00  0.00     0.000 C 
BRANCH   2   3
ATOM      3  C   UNL     1      26.039   0.346  43.264  1.00  0.00     0.000 C 
BRANCH   3   4
ATOM      4  C   UNL     1      26.124   1.878  43.351  1.00  0.00     0.000 C 
BRANCH   4   5
ATOM      5  C   UNL     1      25.238   2.581  42.310  1.00  0.00     0.006 C 
BRANCH   5   6
ATOM      6  C   UNL     1      26.048   2.959  41.068  1.00  0.00     0.053 C 
BRANCH   6   7
ATOM      7  C   UNL     1      25.724   2.041  39.931  1.00  0.00     0.041 C 
ATOM      8  O   UNL     1      26.354   0.961  39.790  1.00  0.00    -0.550 OA
ATOM      9  O   UNL     1      24.693   2.357  39.056  1.00  0.00    -0.550 OA
ENDBRANCH   6   7
ENDBRANCH   5   6
ENDBRANCH   4   5
ENDBRANCH   3   4
ENDBRANCH   2   3
ENDBRANCH   1   2
BRANCH   1  10
ATOM     10  C   UNL     1      27.600  -2.846  43.820  1.00  0.00     0.000 C 
BRANCH  10  11
ATOM     11  C   UNL     1      27.908  -2.799  45.327  1.00  0.00    -0.000 C 
BRANCH  11  12
ATOM     12  C   UNL     1      28.789  -3.953  45.847  1.00  0.00    -0.000 C 
BRANCH  12  13
ATOM     13  C   UNL     1      28.022  -5.110  46.515  1.00  0.00    -0.000 C 
BRANCH  13  14
ATOM     14  C   UNL     1      26.522  -4.847  46.754  1.00  0.00    -0.000 C 
BRANCH  14  15
ATOM     15  C   UNL     1      25.574  -5.874  46.106  1.00  0.00    -0.003 C 
ATOM     16  C   UNL     1      25.283  -5.572  44.637  1.00  0.00     0.004 C 
ENDBRANCH  14  15
ENDBRANCH  13  14
ENDBRANCH  12  13
ENDBRANCH  11  12
ENDBRANCH  10  11
ENDBRANCH   1  10
TORSDOF 12
ENDMDL
MODEL 9
REMARK VINA RESULT:    -3.878      6.555      8.962
REMARK INTER + INTRA:          -7.560
REMARK INTER:                  -5.944
REMARK INTRA:                  -1.616
REMARK UNBOUND:                -0.962
REMARK SMILES CCCCCCCCCCCCCC(=O)[O-]
REMARK SMILES IDX 8 1 9 2 10 3 11 4 12 5 13 6 14 7 15 8 16 9 7 10 6 11 5 12
REMARK SMILES IDX 4 13 3 14 2 15 1 16
REMARK H PARENT
REMARK Flexibility Score: inf
ROOT
ATOM      1  C   UNL     1      25.261  -6.521  45.485  1.00  0.00     0.000 C 
ENDROOT
BRANCH   1   2
ATOM      2  C   UNL     1      26.585  -7.015  46.080  1.00  0.00     0.000 C 
BRANCH   2   3
ATOM      3  C   UNL     1      26.806  -6.437  47.486  1.00  0.00     0.000 C 
BRANCH   3   4
ATOM      4  C   UNL     1      25.918  -5.216  47.771  1.00  0.00     0.000 C 
BRANCH   4   5
ATOM      5  C   UNL     1      25.176  -5.322  49.112  1.00  0.00     0.006 C 
BRANCH   5   6
ATOM      6  C   UNL     1      23.857  -6.082  48.949  1.00  0.00     0.053 C 
BRANCH   6   7
ATOM      7  C   UNL     1      22.734  -5.326  49.584  1.00  0.00     0.041 C 
ATOM      8  O   UNL     1      22.967  -4.280  50.244  1.00  0.00    -0.550 OA
ATOM      9  O   UNL     1      21.423  -5.750  49.406  1.00  0.00    -0.550 OA
ENDBRANCH   6   7
ENDBRANCH   5   6
ENDBRANCH   4   5
ENDBRANCH   3   4
ENDBRANCH   2   3
ENDBRANCH   1   2
BRANCH   1  10
ATOM     10  C   UNL     1      25.479  -5.893  44.100  1.00  0.00     0.000 C 
BRANCH  10  11
ATOM     11  C   UNL     1      26.945  -5.499  43.847  1.00  0.00    -0.000 C 
BRANCH  11  12
ATOM     12  C   UNL     1      27.219  -3.981  43.843  1.00  0.00    -0.000 C 
BRANCH  12  13
ATOM     13  C   UNL     1      27.473  -3.359  45.230  1.00  0.00    -0.000 C 
BRANCH  13  14
ATOM     14  C   UNL     1      28.906  -2.841  45.461  1.00  0.00    -0.000 C 
BRANCH  14  15
ATOM     15  C   UNL     1      29.705  -3.606  46.532  1.00  0.00    -0.003 C 
ATOM     16  C   UNL     1      29.998  -5.052  46.136  1.00  0.00     0.004 C 
ENDBRANCH  14  15
ENDBRANCH  13  14
ENDBRANCH  12  13
ENDBRANCH  11  12
ENDBRANCH  10  11
ENDBRANCH   1  10
TORSDOF 12
ENDMDL
