MODEL 1
REMARK VINA RESULT:    -5.300      0.000      0.000
REMARK INTER + INTRA:          -6.296
REMARK INTER:                  -6.074
REMARK INTRA:                  -0.222
REMARK UNBOUND:                -0.222
REMARK SMILES O=C([O-])C=Cc1ccc(O)cc1
REMARK SMILES IDX 6 1 7 2 12 3 8 4 11 5 9 6 5 7 4 8 2 9 1 10 3 11 10 12
REMARK H PARENT 10 13
REMARK Flexibility Score: inf
ROOT
ATOM      1  C   UNL     1      -3.001   7.767  -0.431  1.00  0.00    -0.025 A 
ATOM      2  C   UNL     1      -4.128   7.954   0.389  1.00  0.00     0.012 A 
ATOM      3  C   UNL     1      -3.005   8.289  -1.733  1.00  0.00     0.012 A 
ATOM      4  C   UNL     1      -5.260   8.608  -0.109  1.00  0.00     0.047 A 
ATOM      5  C   UNL     1      -4.138   8.943  -2.227  1.00  0.00     0.047 A 
ATOM      6  C   UNL     1      -5.270   9.101  -1.417  1.00  0.00     0.115 A 
ENDROOT
BRANCH   1   7
ATOM      7  C   UNL     1      -1.775   7.127   0.089  1.00  0.00     0.010 C 
ATOM      8  C   UNL     1      -0.743   7.771   0.655  1.00  0.00     0.025 C 
BRANCH   8   9
ATOM      9  C   UNL     1      -0.726   9.197   1.031  1.00  0.00     0.064 C 
ATOM     10  O   UNL     1      -1.467   9.594   1.968  1.00  0.00    -0.545 OA
ATOM     11  O   UNL     1       0.035  10.123   0.330  1.00  0.00    -0.545 OA
ENDBRANCH   8   9
ENDBRANCH   1   7
BRANCH   6  12
ATOM     12  O   UNL     1      -6.405   9.749  -1.900  1.00  0.00    -0.508 OA
ATOM     13  H   UNL     1      -6.938   9.375  -2.676  1.00  0.00     0.293 HD
ENDBRANCH   6  12
TORSDOF 3
ENDMDL
MODEL 2
REMARK VINA RESULT:    -5.204      2.024      2.587
REMARK INTER + INTRA:          -6.187
REMARK INTER:                  -5.927
REMARK INTRA:                  -0.260
REMARK UNBOUND:                -0.222
REMARK SMILES O=C([O-])C=Cc1ccc(O)cc1
REMARK SMILES IDX 6 1 7 2 12 3 8 4 11 5 9 6 5 7 4 8 2 9 1 10 3 11 10 12
REMARK H PARENT 10 13
REMARK Flexibility Score: inf
ROOT
ATOM      1  C   UNL     1      -1.855   9.205   0.453  1.00  0.00    -0.025 A 
ATOM      2  C   UNL     1      -2.096   7.834   0.260  1.00  0.00     0.012 A 
ATOM      3  C   UNL     1      -2.319  10.125  -0.500  1.00  0.00     0.012 A 
ATOM      4  C   UNL     1      -2.747   7.389  -0.896  1.00  0.00     0.047 A 
ATOM      5  C   UNL     1      -2.970   9.678  -1.653  1.00  0.00     0.047 A 
ATOM      6  C   UNL     1      -3.182   8.308  -1.856  1.00  0.00     0.115 A 
ENDROOT
BRANCH   1   7
ATOM      7  C   UNL     1      -1.217   9.703   1.689  1.00  0.00     0.010 C 
ATOM      8  C   UNL     1       0.094   9.638   1.968  1.00  0.00     0.025 C 
BRANCH   8   9
ATOM      9  C   UNL     1       1.151   9.237   1.021  1.00  0.00     0.064 C 
ATOM     10  O   UNL     1       1.772  10.125   0.380  1.00  0.00    -0.545 OA
ATOM     11  O   UNL     1       1.428   7.900   0.766  1.00  0.00    -0.545 OA
ENDBRANCH   8   9
ENDBRANCH   1   7
BRANCH   6  12
ATOM     12  O   UNL     1      -3.828   7.850  -3.003  1.00  0.00    -0.508 OA
ATOM     13  H   UNL     1      -3.569   8.183  -3.924  1.00  0.00     0.293 HD
ENDBRANCH   6  12
TORSDOF 3
ENDMDL
MODEL 3
REMARK VINA RESULT:    -5.126      2.090      2.808
REMARK INTER + INTRA:          -6.097
REMARK INTER:                  -5.834
REMARK INTRA:                  -0.263
REMARK UNBOUND:                -0.222
REMARK SMILES O=C([O-])C=Cc1ccc(O)cc1
REMARK SMILES IDX 6 1 7 2 12 3 8 4 11 5 9 6 5 7 4 8 2 9 1 10 3 11 10 12
REMARK H PARENT 10 13
REMARK Flexibility Score: inf
ROOT
ATOM      1  C   UNL     1      -1.832   9.266   0.454  1.00  0.00    -0.025 A 
ATOM      2  C   UNL     1      -2.194  10.125  -0.599  1.00  0.00     0.012 A 
ATOM      3  C   UNL     1      -2.049   7.886   0.320  1.00  0.00     0.012 A 
ATOM      4  C   UNL     1      -2.812   9.612  -1.744  1.00  0.00     0.047 A 
ATOM      5  C   UNL     1      -2.667   7.377  -0.826  1.00  0.00     0.047 A 
ATOM      6  C   UNL     1      -3.054   8.240  -1.860  1.00  0.00     0.115 A 
ENDROOT
BRANCH   1   7
ATOM      7  C   UNL     1      -1.130   9.776   1.650  1.00  0.00     0.010 C 
ATOM      8  C   UNL     1       0.191   9.697   1.868  1.00  0.00     0.025 C 
BRANCH   8   9
ATOM      9  C   UNL     1       1.197   9.266   0.879  1.00  0.00     0.064 C 
ATOM     10  O   UNL     1       1.735  10.125   0.133  1.00  0.00    -0.545 OA
ATOM     11  O   UNL     1       1.512   7.924   0.703  1.00  0.00    -0.545 OA
ENDBRANCH   8   9
ENDBRANCH   1   7
BRANCH   6  12
ATOM     12  O   UNL     1      -3.672   7.744  -3.006  1.00  0.00    -0.508 OA
ATOM     13  H   UNL     1      -4.675   7.610  -3.050  1.00  0.00     0.293 HD
ENDBRANCH   6  12
TORSDOF 3
ENDMDL
MODEL 4
REMARK VINA RESULT:    -4.914      8.474      9.961
REMARK INTER + INTRA:          -5.853
REMARK INTER:                  -5.764
REMARK INTRA:                  -0.090
REMARK UNBOUND:                -0.222
REMARK SMILES O=C([O-])C=Cc1ccc(O)cc1
REMARK SMILES IDX 6 1 7 2 12 3 8 4 11 5 9 6 5 7 4 8 2 9 1 10 3 11 10 12
REMARK H PARENT 10 13
REMARK Flexibility Score: inf
ROOT
ATOM      1  C   UNL     1       1.198  -0.266   0.436  1.00  0.00    -0.025 A 
ATOM      2  C   UNL     1       0.562  -0.785   1.577  1.00  0.00     0.012 A 
ATOM      3  C   UNL     1       1.111   1.108   0.166  1.00  0.00     0.012 A 
ATOM      4  C   UNL     1      -0.192   0.053   2.405  1.00  0.00     0.047 A 
ATOM      5  C   UNL     1       0.356   1.943   0.996  1.00  0.00     0.047 A 
ATOM      6  C   UNL     1      -0.301   1.416   2.116  1.00  0.00     0.115 A 
ENDROOT
BRANCH   1   7
ATOM      7  C   UNL     1       2.044  -1.120  -0.423  1.00  0.00     0.010 C 
ATOM      8  C   UNL     1       1.795  -1.420  -1.707  1.00  0.00     0.025 C 
BRANCH   8   9
ATOM      9  C   UNL     1       0.746  -0.803  -2.542  1.00  0.00     0.064 C 
ATOM     10  O   UNL     1      -0.422  -1.272  -2.508  1.00  0.00    -0.545 OA
ATOM     11  O   UNL     1       1.033   0.237  -3.417  1.00  0.00    -0.545 OA
ENDBRANCH   8   9
ENDBRANCH   1   7
BRANCH   6  12
ATOM     12  O   UNL     1      -1.057   2.238   2.948  1.00  0.00    -0.508 OA
ATOM     13  H   UNL     1      -1.161   2.039   3.936  1.00  0.00     0.293 HD
ENDBRANCH   6  12
TORSDOF 3
ENDMDL
MODEL 5
REMARK VINA RESULT:    -4.824      1.564      1.839
REMARK INTER + INTRA:          -5.750
REMARK INTER:                  -5.762
REMARK INTRA:                   0.011
REMARK UNBOUND:                -0.222
REMARK SMILES O=C([O-])C=Cc1ccc(O)cc1
REMARK SMILES IDX 6 1 7 2 12 3 8 4 11 5 9 6 5 7 4 8 2 9 1 10 3 11 10 12
REMARK H PARENT 10 13
REMARK Flexibility Score: inf
ROOT
ATOM      1  C   UNL     1      -2.890   9.593   0.418  1.00  0.00    -0.025 A 
ATOM      2  C   UNL     1      -4.026   8.826   0.729  1.00  0.00     0.012 A 
ATOM      3  C   UNL     1      -2.644   9.945  -0.918  1.00  0.00     0.012 A 
ATOM      4  C   UNL     1      -4.873   8.376  -0.289  1.00  0.00     0.047 A 
ATOM      5  C   UNL     1      -3.493   9.494  -1.934  1.00  0.00     0.047 A 
ATOM      6  C   UNL     1      -4.608   8.704  -1.622  1.00  0.00     0.115 A 
ENDROOT
BRANCH   1   7
ATOM      7  C   UNL     1      -2.011  10.125   1.479  1.00  0.00     0.010 C 
ATOM      8  C   UNL     1      -0.827   9.608   1.840  1.00  0.00     0.025 C 
BRANCH   8   9
ATOM      9  C   UNL     1      -0.105   8.541   1.120  1.00  0.00     0.064 C 
ATOM     10  O   UNL     1      -0.702   7.465   0.856  1.00  0.00    -0.545 OA
ATOM     11  O   UNL     1       1.239   8.669   0.792  1.00  0.00    -0.545 OA
ENDBRANCH   8   9
ENDBRANCH   1   7
BRANCH   6  12
ATOM     12  O   UNL     1      -5.459   8.247  -2.626  1.00  0.00    -0.508 OA
ATOM     13  H   UNL     1      -6.187   7.570  -2.434  1.00  0.00     0.293 HD
ENDBRANCH   6  12
TORSDOF 3
ENDMDL
MODEL 6
REMARK VINA RESULT:    -4.815     11.201     12.699
REMARK INTER + INTRA:          -5.741
REMARK INTER:                  -5.577
REMARK INTRA:                  -0.164
REMARK UNBOUND:                -0.222
REMARK SMILES O=C([O-])C=Cc1ccc(O)cc1
REMARK SMILES IDX 6 1 7 2 12 3 8 4 11 5 9 6 5 7 4 8 2 9 1 10 3 11 10 12
REMARK H PARENT 10 13
REMARK Flexibility Score: inf
ROOT
ATOM      1  C   UNL     1      -4.800   0.803  -9.375  1.00  0.00    -0.025 A 
ATOM      2  C   UNL     1      -4.798  -0.603  -9.361  1.00  0.00     0.012 A 
ATOM      3  C   UNL     1      -3.591   1.493  -9.203  1.00  0.00     0.012 A 
ATOM      4  C   UNL     1      -3.610  -1.303  -9.126  1.00  0.00     0.047 A 
ATOM      5  C   UNL     1      -2.405   0.790  -8.969  1.00  0.00     0.047 A 
ATOM      6  C   UNL     1      -2.412  -0.610  -8.925  1.00  0.00     0.115 A 
ENDROOT
BRANCH   1   7
ATOM      7  C   UNL     1      -6.031   1.563  -9.674  1.00  0.00     0.010 C 
ATOM      8  C   UNL     1      -7.130   1.597  -8.905  1.00  0.00     0.025 C 
BRANCH   8   9
ATOM      9  C   UNL     1      -7.238   1.042  -7.542  1.00  0.00     0.064 C 
ATOM     10  O   UNL     1      -7.653  -0.136  -7.389  1.00  0.00    -0.545 OA
ATOM     11  O   UNL     1      -6.960   1.814  -6.421  1.00  0.00    -0.545 OA
ENDBRANCH   8   9
ENDBRANCH   1   7
BRANCH   6  12
ATOM     12  O   UNL     1      -1.237  -1.320  -8.691  1.00  0.00    -0.508 OA
ATOM     13  H   UNL     1      -1.185  -2.321  -8.841  1.00  0.00     0.293 HD
ENDBRANCH   6  12
TORSDOF 3
ENDMDL
MODEL 7
REMARK VINA RESULT:    -4.718      2.205      4.811
REMARK INTER + INTRA:          -5.629
REMARK INTER:                  -5.817
REMARK INTRA:                   0.188
REMARK UNBOUND:                -0.222
REMARK SMILES O=C([O-])C=Cc1ccc(O)cc1
REMARK SMILES IDX 6 1 7 2 12 3 8 4 11 5 9 6 5 7 4 8 2 9 1 10 3 11 10 12
REMARK H PARENT 10 13
REMARK Flexibility Score: inf
ROOT
ATOM      1  C   UNL     1      -2.154   9.047  -0.004  1.00  0.00    -0.025 A 
ATOM      2  C   UNL     1      -2.271   7.692  -0.360  1.00  0.00     0.012 A 
ATOM      3  C   UNL     1      -1.036   9.470   0.730  1.00  0.00     0.012 A 
ATOM      4  C   UNL     1      -1.309   6.768   0.060  1.00  0.00     0.047 A 
ATOM      5  C   UNL     1      -0.076   8.545   1.149  1.00  0.00     0.047 A 
ATOM      6  C   UNL     1      -0.211   7.190   0.818  1.00  0.00     0.115 A 
ENDROOT
BRANCH   1   7
ATOM      7  C   UNL     1      -3.129  10.050  -0.481  1.00  0.00     0.010 C 
ATOM      8  C   UNL     1      -4.450  10.021  -0.250  1.00  0.00     0.025 C 
BRANCH   8   9
ATOM      9  C   UNL     1      -5.137   9.098   0.674  1.00  0.00     0.064 C 
ATOM     10  O   UNL     1      -5.293   7.895   0.338  1.00  0.00    -0.545 OA
ATOM     11  O   UNL     1      -5.677   9.542   1.874  1.00  0.00    -0.545 OA
ENDBRANCH   8   9
ENDBRANCH   1   7
BRANCH   6  12
ATOM     12  O   UNL     1       0.738   6.258   1.231  1.00  0.00    -0.508 OA
ATOM     13  H   UNL     1       1.649   6.200   0.790  1.00  0.00     0.293 HD
ENDBRANCH   6  12
TORSDOF 3
ENDMDL
MODEL 8
REMARK VINA RESULT:    -4.710      2.286      5.287
REMARK INTER + INTRA:          -5.620
REMARK INTER:                  -5.517
REMARK INTRA:                  -0.103
REMARK UNBOUND:                -0.222
REMARK SMILES O=C([O-])C=Cc1ccc(O)cc1
REMARK SMILES IDX 6 1 7 2 12 3 8 4 11 5 9 6 5 7 4 8 2 9 1 10 3 11 10 12
REMARK H PARENT 10 13
REMARK Flexibility Score: inf
ROOT
ATOM      1  C   UNL     1      -0.878   9.110   1.141  1.00  0.00    -0.025 A 
ATOM      2  C   UNL     1       0.396   9.698   1.059  1.00  0.00     0.012 A 
ATOM      3  C   UNL     1      -1.002   7.719   1.012  1.00  0.00     0.012 A 
ATOM      4  C   UNL     1       1.521   8.908   0.800  1.00  0.00     0.047 A 
ATOM      5  C   UNL     1       0.124   6.931   0.752  1.00  0.00     0.047 A 
ATOM      6  C   UNL     1       1.389   7.525   0.642  1.00  0.00     0.115 A 
ENDROOT
BRANCH   1   7
ATOM      7  C   UNL     1      -2.072   9.916   1.467  1.00  0.00     0.010 C 
ATOM      8  C   UNL     1      -3.116  10.125   0.650  1.00  0.00     0.025 C 
BRANCH   8   9
ATOM      9  C   UNL     1      -3.346   9.439  -0.636  1.00  0.00     0.064 C 
ATOM     10  O   UNL     1      -2.882   9.940  -1.693  1.00  0.00    -0.545 OA
ATOM     11  O   UNL     1      -4.125   8.292  -0.716  1.00  0.00    -0.545 OA
ENDBRANCH   8   9
ENDBRANCH   1   7
BRANCH   6  12
ATOM     12  O   UNL     1       2.517   6.750   0.382  1.00  0.00    -0.508 OA
ATOM     13  H   UNL     1       3.443   7.160   0.349  1.00  0.00     0.293 HD
ENDBRANCH   6  12
TORSDOF 3
ENDMDL
MODEL 9
REMARK VINA RESULT:    -4.613      1.426      4.673
REMARK INTER + INTRA:          -5.508
REMARK INTER:                  -5.503
REMARK INTRA:                  -0.005
REMARK UNBOUND:                -0.222
REMARK SMILES O=C([O-])C=Cc1ccc(O)cc1
REMARK SMILES IDX 6 1 7 2 12 3 8 4 11 5 9 6 5 7 4 8 2 9 1 10 3 11 10 12
REMARK H PARENT 10 13
REMARK Flexibility Score: inf
ROOT
ATOM      1  C   UNL     1      -2.313   7.972   0.406  1.00  0.00    -0.025 A 
ATOM      2  C   UNL     1      -2.181   9.305   0.832  1.00  0.00     0.012 A 
ATOM      3  C   UNL     1      -1.180   7.145   0.377  1.00  0.00     0.012 A 
ATOM      4  C   UNL     1      -0.923   9.814   1.172  1.00  0.00     0.047 A 
ATOM      5  C   UNL     1       0.076   7.656   0.718  1.00  0.00     0.047 A 
ATOM      6  C   UNL     1       0.208   8.994   1.114  1.00  0.00     0.115 A 
ENDROOT
BRANCH   1   7
ATOM      7  C   UNL     1      -3.637   7.397   0.092  1.00  0.00     0.010 C 
ATOM      8  C   UNL     1      -4.540   7.935  -0.741  1.00  0.00     0.025 C 
BRANCH   8   9
ATOM      9  C   UNL     1      -4.303   9.085  -1.633  1.00  0.00     0.064 C 
ATOM     10  O   UNL     1      -5.002  10.123  -1.499  1.00  0.00    -0.545 OA
ATOM     11  O   UNL     1      -3.374   9.023  -2.664  1.00  0.00    -0.545 OA
ENDBRANCH   8   9
ENDBRANCH   1   7
BRANCH   6  12
ATOM     12  O   UNL     1       1.454   9.515   1.454  1.00  0.00    -0.508 OA
ATOM     13  H   UNL     1       2.283   9.305   0.910  1.00  0.00     0.293 HD
ENDBRANCH   6  12
TORSDOF 3
ENDMDL
