MODEL 1
REMARK VINA RESULT:    -3.733      0.000      0.000
REMARK INTER + INTRA:          -6.805
REMARK INTER:                  -5.915
REMARK INTRA:                  -0.890
REMARK UNBOUND:                -0.890
REMARK SMILES CCCCCCCCCCCC(=O)[O-]
REMARK SMILES IDX 7 1 8 2 9 3 10 4 11 5 12 6 13 7 14 8 6 9 5 10 4 11 3 12 2 13
REMARK SMILES IDX 1 14
REMARK H PARENT
REMARK Flexibility Score: inf
ROOT
ATOM      1  C   UNL     1      -9.342  16.176 -12.585  1.00  0.00     0.000 C 
ENDROOT
BRANCH   1   2
ATOM      2  C   UNL     1      -8.993  17.590 -13.081  1.00  0.00     0.000 C 
BRANCH   2   3
ATOM      3  C   UNL     1      -8.212  17.583 -14.409  1.00  0.00     0.000 C 
BRANCH   3   4
ATOM      4  C   UNL     1      -6.712  17.912 -14.288  1.00  0.00     0.006 C 
BRANCH   4   5
ATOM      5  C   UNL     1      -6.370  19.331 -14.758  1.00  0.00     0.053 C 
BRANCH   5   6
ATOM      6  C   UNL     1      -6.931  20.344 -13.811  1.00  0.00     0.041 C 
ATOM      7  O   UNL     1      -7.845  21.125 -14.187  1.00  0.00    -0.550 OA
ATOM      8  O   UNL     1      -6.479  20.395 -12.498  1.00  0.00    -0.550 OA
ENDBRANCH   5   6
ENDBRANCH   4   5
ENDBRANCH   3   4
ENDBRANCH   2   3
ENDBRANCH   1   2
BRANCH   1   9
ATOM      9  C   UNL     1      -8.120  15.429 -12.028  1.00  0.00     0.000 C 
BRANCH   9  10
ATOM     10  C   UNL     1      -8.000  13.995 -12.574  1.00  0.00    -0.000 C 
BRANCH  10  11
ATOM     11  C   UNL     1      -7.291  13.941 -13.936  1.00  0.00    -0.000 C 
BRANCH  11  12
ATOM     12  C   UNL     1      -7.968  12.969 -14.917  1.00  0.00    -0.000 C 
BRANCH  12  13
ATOM     13  C   UNL     1      -9.471  13.245 -15.076  1.00  0.00    -0.003 C 
ATOM     14  C   UNL     1     -10.193  12.148 -15.857  1.00  0.00     0.004 C 
ENDBRANCH  12  13
ENDBRANCH  11  12
ENDBRANCH  10  11
ENDBRANCH   9  10
ENDBRANCH   1   9
TORSDOF 10
ENDMDL
MODEL 2
REMARK VINA RESULT:    -3.651      2.255      3.238
REMARK INTER + INTRA:          -6.675
REMARK INTER:                  -6.060
REMARK INTRA:                  -0.615
REMARK UNBOUND:                -0.890
REMARK SMILES CCCCCCCCCCCC(=O)[O-]
REMARK SMILES IDX 7 1 8 2 9 3 10 4 11 5 12 6 13 7 14 8 6 9 5 10 4 11 3 12 2 13
REMARK SMILES IDX 1 14
REMARK H PARENT
REMARK Flexibility Score: inf
ROOT
ATOM      1  C   UNL     1      -6.274  15.251 -15.026  1.00  0.00     0.000 C 
ENDROOT
BRANCH   1   2
ATOM      2  C   UNL     1      -6.678  16.538 -15.766  1.00  0.00     0.000 C 
BRANCH   2   3
ATOM      3  C   UNL     1      -8.006  17.131 -15.256  1.00  0.00     0.000 C 
BRANCH   3   4
ATOM      4  C   UNL     1      -7.863  18.316 -14.284  1.00  0.00     0.006 C 
BRANCH   4   5
ATOM      5  C   UNL     1      -8.869  18.266 -13.127  1.00  0.00     0.053 C 
BRANCH   5   6
ATOM      6  C   UNL     1      -9.010  16.865 -12.618  1.00  0.00     0.041 C 
ATOM      7  O   UNL     1     -10.097  16.246 -12.761  1.00  0.00    -0.550 OA
ATOM      8  O   UNL     1      -7.926  16.226 -12.030  1.00  0.00    -0.550 OA
ENDBRANCH   5   6
ENDBRANCH   4   5
ENDBRANCH   3   4
ENDBRANCH   2   3
ENDBRANCH   1   2
BRANCH   1   9
ATOM      9  C   UNL     1      -6.457  13.993 -15.890  1.00  0.00     0.000 C 
BRANCH   9  10
ATOM     10  C   UNL     1      -6.599  12.711 -15.051  1.00  0.00    -0.000 C 
BRANCH  10  11
ATOM     11  C   UNL     1      -7.910  12.675 -14.249  1.00  0.00    -0.000 C 
BRANCH  11  12
ATOM     12  C   UNL     1      -9.102  13.237 -15.042  1.00  0.00    -0.000 C 
BRANCH  12  13
ATOM     13  C   UNL     1      -9.604  12.264 -16.119  1.00  0.00    -0.003 C 
ATOM     14  C   UNL     1     -11.117  12.056 -16.068  1.00  0.00     0.004 C 
ENDBRANCH  12  13
ENDBRANCH  11  12
ENDBRANCH  10  11
ENDBRANCH   9  10
ENDBRANCH   1   9
TORSDOF 10
ENDMDL
MODEL 3
REMARK VINA RESULT:    -3.527      1.172      2.879
REMARK INTER + INTRA:          -6.479
REMARK INTER:                  -5.103
REMARK INTRA:                  -1.376
REMARK UNBOUND:                -0.890
REMARK SMILES CCCCCCCCCCCC(=O)[O-]
REMARK SMILES IDX 7 1 8 2 9 3 10 4 11 5 12 6 13 7 14 8 6 9 5 10 4 11 3 12 2 13
REMARK SMILES IDX 1 14
REMARK H PARENT
REMARK Flexibility Score: inf
ROOT
ATOM      1  C   UNL     1      -6.651  14.934 -15.529  1.00  0.00     0.000 C 
ENDROOT
BRANCH   1   2
ATOM      2  C   UNL     1      -6.678  16.400 -15.996  1.00  0.00     0.000 C 
BRANCH   2   3
ATOM      3  C   UNL     1      -8.086  17.020 -15.941  1.00  0.00     0.000 C 
BRANCH   3   4
ATOM      4  C   UNL     1      -8.143  18.472 -15.433  1.00  0.00     0.006 C 
BRANCH   4   5
ATOM      5  C   UNL     1      -7.052  18.789 -14.402  1.00  0.00     0.053 C 
BRANCH   5   6
ATOM      6  C   UNL     1      -7.301  20.123 -13.771  1.00  0.00     0.041 C 
ATOM      7  O   UNL     1      -7.920  21.017 -14.405  1.00  0.00    -0.550 OA
ATOM      8  O   UNL     1      -6.893  20.361 -12.465  1.00  0.00    -0.550 OA
ENDBRANCH   5   6
ENDBRANCH   4   5
ENDBRANCH   3   4
ENDBRANCH   2   3
ENDBRANCH   1   2
BRANCH   1   9
ATOM      9  C   UNL     1      -8.002  14.228 -15.726  1.00  0.00     0.000 C 
BRANCH   9  10
ATOM     10  C   UNL     1      -8.439  13.424 -14.489  1.00  0.00    -0.000 C 
BRANCH  10  11
ATOM     11  C   UNL     1      -7.485  13.613 -13.298  1.00  0.00    -0.000 C 
BRANCH  11  12
ATOM     12  C   UNL     1      -8.136  14.386 -12.138  1.00  0.00    -0.000 C 
BRANCH  12  13
ATOM     13  C   UNL     1      -8.148  15.903 -12.375  1.00  0.00    -0.003 C 
ATOM     14  C   UNL     1      -9.559  16.461 -12.560  1.00  0.00     0.004 C 
ENDBRANCH  12  13
ENDBRANCH  11  12
ENDBRANCH  10  11
ENDBRANCH   9  10
ENDBRANCH   1   9
TORSDOF 10
ENDMDL
MODEL 4
REMARK VINA RESULT:    -3.488      1.310      2.012
REMARK INTER + INTRA:          -6.417
REMARK INTER:                  -5.645
REMARK INTRA:                  -0.772
REMARK UNBOUND:                -0.890
REMARK SMILES CCCCCCCCCCCC(=O)[O-]
REMARK SMILES IDX 7 1 8 2 9 3 10 4 11 5 12 6 13 7 14 8 6 9 5 10 4 11 3 12 2 13
REMARK SMILES IDX 1 14
REMARK H PARENT
REMARK Flexibility Score: inf
ROOT
ATOM      1  C   UNL     1      -8.125  16.657 -15.553  1.00  0.00     0.000 C 
ENDROOT
BRANCH   1   2
ATOM      2  C   UNL     1      -6.772  17.339 -15.282  1.00  0.00     0.000 C 
BRANCH   2   3
ATOM      3  C   UNL     1      -6.693  18.764 -15.862  1.00  0.00     0.000 C 
BRANCH   3   4
ATOM      4  C   UNL     1      -7.909  19.661 -15.564  1.00  0.00     0.006 C 
BRANCH   4   5
ATOM      5  C   UNL     1      -7.599  20.777 -14.559  1.00  0.00     0.053 C 
BRANCH   5   6
ATOM      6  C   UNL     1      -7.478  20.216 -13.177  1.00  0.00     0.041 C 
ATOM      7  O   UNL     1      -6.613  20.671 -12.382  1.00  0.00    -0.550 OA
ATOM      8  O   UNL     1      -8.353  19.226 -12.749  1.00  0.00    -0.550 OA
ENDBRANCH   5   6
ENDBRANCH   4   5
ENDBRANCH   3   4
ENDBRANCH   2   3
ENDBRANCH   1   2
BRANCH   1   9
ATOM      9  C   UNL     1      -8.792  16.142 -14.268  1.00  0.00     0.000 C 
BRANCH   9  10
ATOM     10  C   UNL     1      -7.905  15.150 -13.494  1.00  0.00    -0.000 C 
BRANCH  10  11
ATOM     11  C   UNL     1      -7.550  13.906 -14.325  1.00  0.00    -0.000 C 
BRANCH  11  12
ATOM     12  C   UNL     1      -8.734  12.936 -14.469  1.00  0.00    -0.000 C 
BRANCH  12  13
ATOM     13  C   UNL     1      -9.344  12.956 -15.879  1.00  0.00    -0.003 C 
ATOM     14  C   UNL     1     -10.602  12.096 -15.990  1.00  0.00     0.004 C 
ENDBRANCH  12  13
ENDBRANCH  11  12
ENDBRANCH  10  11
ENDBRANCH   9  10
ENDBRANCH   1   9
TORSDOF 10
ENDMDL
MODEL 5
REMARK VINA RESULT:    -3.410      2.969      5.985
REMARK INTER + INTRA:          -6.294
REMARK INTER:                  -5.508
REMARK INTRA:                  -0.786
REMARK UNBOUND:                -0.890
REMARK SMILES CCCCCCCCCCCC(=O)[O-]
REMARK SMILES IDX 7 1 8 2 9 3 10 4 11 5 12 6 13 7 14 8 6 9 5 10 4 11 3 12 2 13
REMARK SMILES IDX 1 14
REMARK H PARENT
REMARK Flexibility Score: inf
ROOT
ATOM      1  C   UNL     1      -9.199  16.154 -12.639  1.00  0.00     0.000 C 
ENDROOT
BRANCH   1   2
ATOM      2  C   UNL     1      -8.017  15.235 -12.284  1.00  0.00     0.000 C 
BRANCH   2   3
ATOM      3  C   UNL     1      -8.087  13.869 -12.993  1.00  0.00     0.000 C 
BRANCH   3   4
ATOM      4  C   UNL     1      -7.045  13.656 -14.106  1.00  0.00     0.006 C 
BRANCH   4   5
ATOM      5  C   UNL     1      -7.638  13.011 -15.365  1.00  0.00     0.053 C 
BRANCH   5   6
ATOM      6  C   UNL     1      -9.011  13.544 -15.629  1.00  0.00     0.041 C 
ATOM      7  O   UNL     1     -10.024  12.846 -15.359  1.00  0.00    -0.550 OA
ATOM      8  O   UNL     1      -9.174  14.831 -16.125  1.00  0.00    -0.550 OA
ENDBRANCH   5   6
ENDBRANCH   4   5
ENDBRANCH   3   4
ENDBRANCH   2   3
ENDBRANCH   1   2
BRANCH   1   9
ATOM      9  C   UNL     1      -8.743  17.495 -13.238  1.00  0.00     0.000 C 
BRANCH   9  10
ATOM     10  C   UNL     1      -7.814  17.318 -14.453  1.00  0.00    -0.000 C 
BRANCH  10  11
ATOM     11  C   UNL     1      -6.429  17.945 -14.231  1.00  0.00    -0.000 C 
BRANCH  11  12
ATOM     12  C   UNL     1      -6.296  19.330 -14.886  1.00  0.00    -0.000 C 
BRANCH  12  13
ATOM     13  C   UNL     1      -6.008  20.440 -13.864  1.00  0.00    -0.003 C 
ATOM     14  C   UNL     1      -7.256  20.875 -13.097  1.00  0.00     0.004 C 
ENDBRANCH  12  13
ENDBRANCH  11  12
ENDBRANCH  10  11
ENDBRANCH   9  10
ENDBRANCH   1   9
TORSDOF 10
ENDMDL
MODEL 6
REMARK VINA RESULT:    -3.329      2.548      6.085
REMARK INTER + INTRA:          -6.166
REMARK INTER:                  -5.612
REMARK INTRA:                  -0.554
REMARK UNBOUND:                -0.890
REMARK SMILES CCCCCCCCCCCC(=O)[O-]
REMARK SMILES IDX 7 1 8 2 9 3 10 4 11 5 12 6 13 7 14 8 6 9 5 10 4 11 3 12 2 13
REMARK SMILES IDX 1 14
REMARK H PARENT
REMARK Flexibility Score: inf
ROOT
ATOM      1  C   UNL     1      -7.011  16.388 -15.587  1.00  0.00     0.000 C 
ENDROOT
BRANCH   1   2
ATOM      2  C   UNL     1      -8.063  15.340 -15.992  1.00  0.00     0.000 C 
BRANCH   2   3
ATOM      3  C   UNL     1      -7.676  13.910 -15.572  1.00  0.00     0.000 C 
BRANCH   3   4
ATOM      4  C   UNL     1      -8.132  13.496 -14.161  1.00  0.00     0.006 C 
BRANCH   4   5
ATOM      5  C   UNL     1      -8.866  14.617 -13.415  1.00  0.00     0.053 C 
BRANCH   5   6
ATOM      6  C   UNL     1      -8.058  15.080 -12.243  1.00  0.00     0.041 C 
ATOM      7  O   UNL     1      -7.658  16.273 -12.181  1.00  0.00    -0.550 OA
ATOM      8  O   UNL     1      -7.789  14.209 -11.195  1.00  0.00    -0.550 OA
ENDBRANCH   5   6
ENDBRANCH   4   5
ENDBRANCH   3   4
ENDBRANCH   2   3
ENDBRANCH   1   2
BRANCH   1   9
ATOM      9  C   UNL     1      -7.369  17.801 -16.075  1.00  0.00     0.000 C 
BRANCH   9  10
ATOM     10  C   UNL     1      -8.277  18.559 -15.090  1.00  0.00    -0.000 C 
BRANCH  10  11
ATOM     11  C   UNL     1      -8.519  20.016 -15.514  1.00  0.00    -0.000 C 
BRANCH  11  12
ATOM     12  C   UNL     1      -7.784  21.022 -14.612  1.00  0.00    -0.000 C 
BRANCH  12  13
ATOM     13  C   UNL     1      -7.455  20.443 -13.228  1.00  0.00    -0.003 C 
ATOM     14  C   UNL     1      -6.255  21.125 -12.573  1.00  0.00     0.004 C 
ENDBRANCH  12  13
ENDBRANCH  11  12
ENDBRANCH  10  11
ENDBRANCH   9  10
ENDBRANCH   1   9
TORSDOF 10
ENDMDL
MODEL 7
REMARK VINA RESULT:    -3.221      3.688      5.762
REMARK INTER + INTRA:          -5.994
REMARK INTER:                  -4.908
REMARK INTRA:                  -1.086
REMARK UNBOUND:                -0.890
REMARK SMILES CCCCCCCCCCCC(=O)[O-]
REMARK SMILES IDX 7 1 8 2 9 3 10 4 11 5 12 6 13 7 14 8 6 9 5 10 4 11 3 12 2 13
REMARK SMILES IDX 1 14
REMARK H PARENT
REMARK Flexibility Score: inf
ROOT
ATOM      1  C   UNL     1      -8.084  13.972 -12.469  1.00  0.00     0.000 C 
ENDROOT
BRANCH   1   2
ATOM      2  C   UNL     1      -7.029  13.475 -13.473  1.00  0.00     0.000 C 
BRANCH   2   3
ATOM      3  C   UNL     1      -6.704  14.513 -14.563  1.00  0.00     0.000 C 
BRANCH   3   4
ATOM      4  C   UNL     1      -7.353  14.249 -15.933  1.00  0.00     0.006 C 
BRANCH   4   5
ATOM      5  C   UNL     1      -8.886  14.236 -15.878  1.00  0.00     0.053 C 
BRANCH   5   6
ATOM      6  C   UNL     1      -9.398  12.831 -15.944  1.00  0.00     0.041 C 
ATOM      7  O   UNL     1      -8.600  11.874 -16.125  1.00  0.00    -0.550 OA
ATOM      8  O   UNL     1     -10.750  12.574 -15.758  1.00  0.00    -0.550 OA
ENDBRANCH   5   6
ENDBRANCH   4   5
ENDBRANCH   3   4
ENDBRANCH   2   3
ENDBRANCH   1   2
BRANCH   1   9
ATOM      9  C   UNL     1      -8.016  15.492 -12.247  1.00  0.00     0.000 C 
BRANCH   9  10
ATOM     10  C   UNL     1      -9.216  16.236 -12.859  1.00  0.00    -0.000 C 
BRANCH  10  11
ATOM     11  C   UNL     1      -9.236  17.728 -12.487  1.00  0.00    -0.000 C 
BRANCH  11  12
ATOM     12  C   UNL     1      -8.498  18.602 -13.516  1.00  0.00    -0.000 C 
BRANCH  12  13
ATOM     13  C   UNL     1      -8.405  17.935 -14.896  1.00  0.00    -0.003 C 
ATOM     14  C   UNL     1      -6.997  17.996 -15.487  1.00  0.00     0.004 C 
ENDBRANCH  12  13
ENDBRANCH  11  12
ENDBRANCH  10  11
ENDBRANCH   9  10
ENDBRANCH   1   9
TORSDOF 10
ENDMDL
MODEL 8
REMARK VINA RESULT:    -3.168      3.512      5.791
REMARK INTER + INTRA:          -5.910
REMARK INTER:                  -4.605
REMARK INTRA:                  -1.305
REMARK UNBOUND:                -0.890
REMARK SMILES CCCCCCCCCCCC(=O)[O-]
REMARK SMILES IDX 7 1 8 2 9 3 10 4 11 5 12 6 13 7 14 8 6 9 5 10 4 11 3 12 2 13
REMARK SMILES IDX 1 14
REMARK H PARENT
REMARK Flexibility Score: inf
ROOT
ATOM      1  C   UNL     1      -6.364  17.865 -15.262  1.00  0.00     0.000 C 
ENDROOT
BRANCH   1   2
ATOM      2  C   UNL     1      -6.081  16.608 -16.102  1.00  0.00     0.000 C 
BRANCH   2   3
ATOM      3  C   UNL     1      -6.112  15.311 -15.271  1.00  0.00     0.000 C 
BRANCH   3   4
ATOM      4  C   UNL     1      -6.878  14.140 -15.913  1.00  0.00     0.006 C 
BRANCH   4   5
ATOM      5  C   UNL     1      -8.400  14.320 -15.859  1.00  0.00     0.053 C 
BRANCH   5   6
ATOM      6  C   UNL     1      -9.034  13.186 -15.116  1.00  0.00     0.041 C 
ATOM      7  O   UNL     1      -8.402  12.599 -14.198  1.00  0.00    -0.550 OA
ATOM      8  O   UNL     1     -10.340  12.810 -15.402  1.00  0.00    -0.550 OA
ENDBRANCH   5   6
ENDBRANCH   4   5
ENDBRANCH   3   4
ENDBRANCH   2   3
ENDBRANCH   1   2
BRANCH   1   9
ATOM      9  C   UNL     1      -7.452  18.756 -15.883  1.00  0.00     0.000 C 
BRANCH   9  10
ATOM     10  C   UNL     1      -8.415  19.338 -14.833  1.00  0.00    -0.000 C 
BRANCH  10  11
ATOM     11  C   UNL     1      -8.030  18.942 -13.398  1.00  0.00    -0.000 C 
BRANCH  11  12
ATOM     12  C   UNL     1      -9.140  18.149 -12.688  1.00  0.00    -0.000 C 
BRANCH  12  13
ATOM     13  C   UNL     1      -9.240  16.700 -13.185  1.00  0.00    -0.003 C 
ATOM     14  C   UNL     1      -8.451  15.721 -12.316  1.00  0.00     0.004 C 
ENDBRANCH  12  13
ENDBRANCH  11  12
ENDBRANCH  10  11
ENDBRANCH   9  10
ENDBRANCH   1   9
TORSDOF 10
ENDMDL
MODEL 9
REMARK VINA RESULT:    -3.150      2.121      5.310
REMARK INTER + INTRA:          -5.882
REMARK INTER:                  -4.920
REMARK INTRA:                  -0.962
REMARK UNBOUND:                -0.890
REMARK SMILES CCCCCCCCCCCC(=O)[O-]
REMARK SMILES IDX 7 1 8 2 9 3 10 4 11 5 12 6 13 7 14 8 6 9 5 10 4 11 3 12 2 13
REMARK SMILES IDX 1 14
REMARK H PARENT
REMARK Flexibility Score: inf
ROOT
ATOM      1  C   UNL     1      -6.811  14.767 -15.787  1.00  0.00     0.000 C 
ENDROOT
BRANCH   1   2
ATOM      2  C   UNL     1      -8.163  14.049 -15.625  1.00  0.00     0.000 C 
BRANCH   2   3
ATOM      3  C   UNL     1      -8.455  13.643 -14.168  1.00  0.00     0.000 C 
BRANCH   3   4
ATOM      4  C   UNL     1      -7.639  14.397 -13.102  1.00  0.00     0.006 C 
BRANCH   4   5
ATOM      5  C   UNL     1      -8.517  15.055 -12.030  1.00  0.00     0.053 C 
BRANCH   5   6
ATOM      6  C   UNL     1      -9.016  16.382 -12.507  1.00  0.00     0.041 C 
ATOM      7  O   UNL     1      -8.572  17.445 -11.998  1.00  0.00    -0.550 OA
ATOM      8  O   UNL     1      -9.935  16.448 -13.546  1.00  0.00    -0.550 OA
ENDBRANCH   5   6
ENDBRANCH   4   5
ENDBRANCH   3   4
ENDBRANCH   2   3
ENDBRANCH   1   2
BRANCH   1   9
ATOM      9  C   UNL     1      -6.973  16.258 -16.124  1.00  0.00     0.000 C 
BRANCH   9  10
ATOM     10  C   UNL     1      -5.875  17.132 -15.492  1.00  0.00    -0.000 C 
BRANCH  10  11
ATOM     11  C   UNL     1      -6.449  18.341 -14.735  1.00  0.00    -0.000 C 
BRANCH  11  12
ATOM     12  C   UNL     1      -7.865  18.713 -15.205  1.00  0.00    -0.000 C 
BRANCH  12  13
ATOM     13  C   UNL     1      -8.323  20.078 -14.671  1.00  0.00    -0.003 C 
ATOM     14  C   UNL     1      -7.545  20.520 -13.432  1.00  0.00     0.004 C 
ENDBRANCH  12  13
ENDBRANCH  11  12
ENDBRANCH  10  11
ENDBRANCH   9  10
ENDBRANCH   1   9
TORSDOF 10
ENDMDL
