MODEL 1
REMARK VINA RESULT:    -6.298      0.000      0.000
REMARK INTER + INTRA:          -7.914
REMARK INTER:                  -7.586
REMARK INTRA:                  -0.327
REMARK UNBOUND:                -0.327
REMARK SMILES O=c1c(O)c(-c2ccc(O)c(O)c2)oc2cc(O)cc(O)c12
REMARK SMILES IDX 5 1 3 2 2 3 1 4 22 5 20 6 19 7 17 8 16 9 15 10 14 11 6 12
REMARK SMILES IDX 7 13 8 14 9 15 13 16 11 17 10 18 12 20 4 22 21 24 18 26
REMARK H PARENT 10 19 12 21 4 23 21 25 18 27
REMARK Flexibility Score: inf
ROOT
ATOM      1  C   UNL     1      -9.125   9.061   6.425  1.00  0.00     0.180 A 
ATOM      2  C   UNL     1     -10.404   9.644   6.449  1.00  0.00     0.208 A 
ATOM      3  C   UNL     1     -11.532   8.808   6.477  1.00  0.00     0.238 A 
ATOM      4  O   UNL     1     -12.673   9.334   6.552  1.00  0.00    -0.285 OA
ATOM      5  C   UNL     1     -11.368   7.402   6.466  1.00  0.00     0.111 A 
ATOM      6  C   UNL     1     -12.441   6.460   6.453  1.00  0.00     0.134 A 
ATOM      7  C   UNL     1     -12.162   5.093   6.575  1.00  0.00     0.093 A 
ATOM      8  C   UNL     1     -10.848   4.630   6.644  1.00  0.00     0.123 A 
ATOM      9  C   UNL     1      -9.789   5.537   6.598  1.00  0.00     0.094 A 
ATOM     10  C   UNL     1     -10.037   6.910   6.513  1.00  0.00     0.146 A 
ATOM     11  O   UNL     1      -9.002   7.741   6.483  1.00  0.00    -0.452 OA
ENDROOT
BRANCH   1  12
ATOM     12  C   UNL     1      -7.890   9.876   6.370  1.00  0.00     0.025 A 
ATOM     13  C   UNL     1      -7.288  10.210   5.144  1.00  0.00     0.016 A 
ATOM     14  C   UNL     1      -6.109  10.959   5.117  1.00  0.00     0.051 A 
ATOM     15  C   UNL     1      -5.507  11.374   6.312  1.00  0.00     0.157 A 
ATOM     16  C   UNL     1      -7.271  10.277   7.566  1.00  0.00     0.062 A 
ATOM     17  C   UNL     1      -6.088  11.029   7.539  1.00  0.00     0.158 A 
BRANCH  15  18
ATOM     18  O   UNL     1      -4.332  12.123   6.289  1.00  0.00    -0.504 OA
ATOM     19  H   UNL     1      -3.639  12.044   7.024  1.00  0.00     0.293 HD
ENDBRANCH  15  18
BRANCH  17  20
ATOM     20  O   UNL     1      -5.483  11.437   8.727  1.00  0.00    -0.504 OA
ATOM     21  H   UNL     1      -5.922  12.115   9.340  1.00  0.00     0.293 HD
ENDBRANCH  17  20
ENDBRANCH   1  12
BRANCH   2  22
ATOM     22  O   UNL     1     -10.544  11.034   6.480  1.00  0.00    -0.502 OA
ATOM     23  H   UNL     1     -10.600  11.555   7.347  1.00  0.00     0.293 HD
ENDBRANCH   2  22
BRANCH   6  24
ATOM     24  O   UNL     1     -13.785   6.811   6.295  1.00  0.00    -0.507 OA
ATOM     25  H   UNL     1     -14.537   6.484   6.882  1.00  0.00     0.293 HD
ENDBRANCH   6  24
BRANCH   8  26
ATOM     26  O   UNL     1     -10.608   3.262   6.749  1.00  0.00    -0.508 OA
ATOM     27  H   UNL     1     -10.964   2.607   6.062  1.00  0.00     0.293 HD
ENDBRANCH   8  26
TORSDOF 6
ENDMDL
MODEL 2
REMARK VINA RESULT:    -6.128      1.308      1.453
REMARK INTER + INTRA:          -7.709
REMARK INTER:                  -7.639
REMARK INTRA:                  -0.070
REMARK UNBOUND:                -0.327
REMARK SMILES O=c1c(O)c(-c2ccc(O)c(O)c2)oc2cc(O)cc(O)c12
REMARK SMILES IDX 5 1 3 2 2 3 1 4 22 5 20 6 19 7 17 8 16 9 15 10 14 11 6 12
REMARK SMILES IDX 7 13 8 14 9 15 13 16 11 17 10 18 12 20 4 22 21 24 18 26
REMARK H PARENT 10 19 12 21 4 23 21 25 18 27
REMARK Flexibility Score: inf
ROOT
ATOM      1  C   UNL     1     -10.028   8.486   6.330  1.00  0.00     0.180 A 
ATOM      2  C   UNL     1     -11.233   8.943   6.892  1.00  0.00     0.208 A 
ATOM      3  C   UNL     1     -12.306   8.048   7.023  1.00  0.00     0.238 A 
ATOM      4  O   UNL     1     -13.363   8.448   7.576  1.00  0.00    -0.285 OA
ATOM      5  C   UNL     1     -12.167   6.711   6.577  1.00  0.00     0.111 A 
ATOM      6  C   UNL     1     -13.202   5.729   6.624  1.00  0.00     0.134 A 
ATOM      7  C   UNL     1     -12.913   4.404   6.275  1.00  0.00     0.093 A 
ATOM      8  C   UNL     1     -11.646   4.039   5.820  1.00  0.00     0.123 A 
ATOM      9  C   UNL     1     -10.643   5.003   5.713  1.00  0.00     0.094 A 
ATOM     10  C   UNL     1     -10.891   6.326   6.089  1.00  0.00     0.146 A 
ATOM     11  O   UNL     1      -9.907   7.211   5.982  1.00  0.00    -0.452 OA
ENDROOT
BRANCH   1  12
ATOM     12  C   UNL     1      -8.861   9.377   6.137  1.00  0.00     0.025 A 
ATOM     13  C   UNL     1      -8.976  10.592   5.438  1.00  0.00     0.016 A 
ATOM     14  C   UNL     1      -7.855  11.405   5.247  1.00  0.00     0.051 A 
ATOM     15  C   UNL     1      -6.604  11.011   5.737  1.00  0.00     0.157 A 
ATOM     16  C   UNL     1      -7.599   8.976   6.608  1.00  0.00     0.062 A 
ATOM     17  C   UNL     1      -6.475   9.792   6.417  1.00  0.00     0.158 A 
BRANCH  15  18
ATOM     18  O   UNL     1      -5.484  11.820   5.550  1.00  0.00    -0.504 OA
ATOM     19  H   UNL     1      -5.571  12.780   5.238  1.00  0.00     0.293 HD
ENDBRANCH  15  18
BRANCH  17  20
ATOM     20  O   UNL     1      -5.227   9.399   6.898  1.00  0.00    -0.504 OA
ATOM     21  H   UNL     1      -5.093   9.130   7.865  1.00  0.00     0.293 HD
ENDBRANCH  17  20
ENDBRANCH   1  12
BRANCH   2  22
ATOM     22  O   UNL     1     -11.341  10.261   7.346  1.00  0.00    -0.502 OA
ATOM     23  H   UNL     1     -10.532  10.839   7.536  1.00  0.00     0.293 HD
ENDBRANCH   2  22
BRANCH   6  24
ATOM     24  O   UNL     1     -14.526   6.007   6.976  1.00  0.00    -0.507 OA
ATOM     25  H   UNL     1     -15.314   5.933   6.351  1.00  0.00     0.293 HD
ENDBRANCH   6  24
BRANCH   8  26
ATOM     26  O   UNL     1     -11.399   2.714   5.468  1.00  0.00    -0.508 OA
ATOM     27  H   UNL     1     -10.454   2.365   5.351  1.00  0.00     0.293 HD
ENDBRANCH   8  26
TORSDOF 6
ENDMDL
MODEL 3
REMARK VINA RESULT:    -5.428      1.725      3.087
REMARK INTER + INTRA:          -6.866
REMARK INTER:                  -6.769
REMARK INTRA:                  -0.097
REMARK UNBOUND:                -0.327
REMARK SMILES O=c1c(O)c(-c2ccc(O)c(O)c2)oc2cc(O)cc(O)c12
REMARK SMILES IDX 5 1 3 2 2 3 1 4 22 5 20 6 19 7 17 8 16 9 15 10 14 11 6 12
REMARK SMILES IDX 7 13 8 14 9 15 13 16 11 17 10 18 12 20 4 22 21 24 18 26
REMARK H PARENT 10 19 12 21 4 23 21 25 18 27
REMARK Flexibility Score: inf
ROOT
ATOM      1  C   UNL     1      -9.819   7.823   6.138  1.00  0.00     0.180 A 
ATOM      2  C   UNL     1      -9.617   6.611   5.455  1.00  0.00     0.208 A 
ATOM      3  C   UNL     1     -10.566   5.586   5.594  1.00  0.00     0.238 A 
ATOM      4  O   UNL     1     -10.409   4.523   4.939  1.00  0.00    -0.285 OA
ATOM      5  C   UNL     1     -11.696   5.778   6.425  1.00  0.00     0.111 A 
ATOM      6  C   UNL     1     -12.700   4.794   6.671  1.00  0.00     0.134 A 
ATOM      7  C   UNL     1     -13.840   5.139   7.407  1.00  0.00     0.093 A 
ATOM      8  C   UNL     1     -13.982   6.410   7.961  1.00  0.00     0.123 A 
ATOM      9  C   UNL     1     -12.979   7.363   7.778  1.00  0.00     0.094 A 
ATOM     10  C   UNL     1     -11.847   7.060   7.017  1.00  0.00     0.146 A 
ATOM     11  O   UNL     1     -10.921   7.998   6.858  1.00  0.00    -0.452 OA
ENDROOT
BRANCH   1  12
ATOM     12  C   UNL     1      -8.850   8.941   6.062  1.00  0.00     0.025 A 
ATOM     13  C   UNL     1      -9.217  10.193   5.538  1.00  0.00     0.016 A 
ATOM     14  C   UNL     1      -8.279  11.225   5.453  1.00  0.00     0.051 A 
ATOM     15  C   UNL     1      -6.961  11.019   5.876  1.00  0.00     0.157 A 
ATOM     16  C   UNL     1      -7.520   8.732   6.466  1.00  0.00     0.062 A 
ATOM     17  C   UNL     1      -6.579   9.769   6.381  1.00  0.00     0.158 A 
BRANCH  15  18
ATOM     18  O   UNL     1      -6.023  12.047   5.795  1.00  0.00    -0.504 OA
ATOM     19  H   UNL     1      -5.561  12.274   4.922  1.00  0.00     0.293 HD
ENDBRANCH  15  18
BRANCH  17  20
ATOM     20  O   UNL     1      -5.264   9.564   6.795  1.00  0.00    -0.504 OA
ATOM     21  H   UNL     1      -4.488  10.037   6.348  1.00  0.00     0.293 HD
ENDBRANCH  17  20
ENDBRANCH   1  12
BRANCH   2  22
ATOM     22  O   UNL     1      -8.507   6.449   4.623  1.00  0.00    -0.502 OA
ATOM     23  H   UNL     1      -8.565   6.532   3.615  1.00  0.00     0.293 HD
ENDBRANCH   2  22
BRANCH   6  24
ATOM     24  O   UNL     1     -12.612   3.466   6.242  1.00  0.00    -0.507 OA
ATOM     25  H   UNL     1     -12.210   2.714   6.780  1.00  0.00     0.293 HD
ENDBRANCH   6  24
BRANCH   8  26
ATOM     26  O   UNL     1     -15.124   6.713   8.700  1.00  0.00    -0.508 OA
ATOM     27  H   UNL     1     -15.740   7.474   8.435  1.00  0.00     0.293 HD
ENDBRANCH   8  26
TORSDOF 6
ENDMDL
MODEL 4
REMARK VINA RESULT:    -5.091      1.544      6.704
REMARK INTER + INTRA:          -6.459
REMARK INTER:                  -6.280
REMARK INTRA:                  -0.180
REMARK UNBOUND:                -0.327
REMARK SMILES O=c1c(O)c(-c2ccc(O)c(O)c2)oc2cc(O)cc(O)c12
REMARK SMILES IDX 5 1 3 2 2 3 1 4 22 5 20 6 19 7 17 8 16 9 15 10 14 11 6 12
REMARK SMILES IDX 7 13 8 14 9 15 13 16 11 17 10 18 12 20 4 22 21 24 18 26
REMARK H PARENT 10 19 12 21 4 23 21 25 18 27
REMARK Flexibility Score: inf
ROOT
ATOM      1  C   UNL     1     -10.296   7.498   6.758  1.00  0.00     0.180 A 
ATOM      2  C   UNL     1     -11.069   8.500   6.146  1.00  0.00     0.208 A 
ATOM      3  C   UNL     1     -10.430   9.653   5.663  1.00  0.00     0.238 A 
ATOM      4  O   UNL     1     -11.119  10.522   5.069  1.00  0.00    -0.285 OA
ATOM      5  C   UNL     1      -9.029   9.797   5.811  1.00  0.00     0.111 A 
ATOM      6  C   UNL     1      -8.283  10.940   5.395  1.00  0.00     0.134 A 
ATOM      7  C   UNL     1      -6.885  10.919   5.473  1.00  0.00     0.093 A 
ATOM      8  C   UNL     1      -6.211   9.823   6.012  1.00  0.00     0.123 A 
ATOM      9  C   UNL     1      -6.933   8.724   6.477  1.00  0.00     0.094 A 
ATOM     10  C   UNL     1      -8.327   8.701   6.379  1.00  0.00     0.146 A 
ATOM     11  O   UNL     1      -8.977   7.632   6.823  1.00  0.00    -0.452 OA
ENDROOT
BRANCH   1  12
ATOM     12  C   UNL     1     -10.901   6.266   7.314  1.00  0.00     0.025 A 
ATOM     13  C   UNL     1     -11.810   6.316   8.386  1.00  0.00     0.016 A 
ATOM     14  C   UNL     1     -12.349   5.138   8.910  1.00  0.00     0.051 A 
ATOM     15  C   UNL     1     -11.979   3.895   8.382  1.00  0.00     0.157 A 
ATOM     16  C   UNL     1     -10.517   5.015   6.801  1.00  0.00     0.062 A 
ATOM     17  C   UNL     1     -11.059   3.833   7.327  1.00  0.00     0.158 A 
BRANCH  15  18
ATOM     18  O   UNL     1     -12.517   2.718   8.901  1.00  0.00    -0.504 OA
ATOM     19  H   UNL     1     -13.502   2.502   8.812  1.00  0.00     0.293 HD
ENDBRANCH  15  18
BRANCH  17  20
ATOM     20  O   UNL     1     -10.687   2.594   6.808  1.00  0.00    -0.504 OA
ATOM     21  H   UNL     1     -10.617   1.772   7.396  1.00  0.00     0.293 HD
ENDBRANCH  17  20
ENDBRANCH   1  12
BRANCH   2  22
ATOM     22  O   UNL     1     -12.447   8.328   5.991  1.00  0.00    -0.502 OA
ATOM     23  H   UNL     1     -13.110   9.077   6.152  1.00  0.00     0.293 HD
ENDBRANCH   2  22
BRANCH   6  24
ATOM     24  O   UNL     1      -8.864  12.123   4.928  1.00  0.00    -0.507 OA
ATOM     25  H   UNL     1      -9.620  12.168   4.263  1.00  0.00     0.293 HD
ENDBRANCH   6  24
BRANCH   8  26
ATOM     26  O   UNL     1      -4.820   9.843   6.088  1.00  0.00    -0.508 OA
ATOM     27  H   UNL     1      -4.338   9.880   6.979  1.00  0.00     0.293 HD
ENDBRANCH   8  26
TORSDOF 6
ENDMDL
MODEL 5
REMARK VINA RESULT:    -5.069      2.573      6.887
REMARK INTER + INTRA:          -6.433
REMARK INTER:                  -6.106
REMARK INTRA:                  -0.327
REMARK UNBOUND:                -0.327
REMARK SMILES O=c1c(O)c(-c2ccc(O)c(O)c2)oc2cc(O)cc(O)c12
REMARK SMILES IDX 5 1 3 2 2 3 1 4 22 5 20 6 19 7 17 8 16 9 15 10 14 11 6 12
REMARK SMILES IDX 7 13 8 14 9 15 13 16 11 17 10 18 12 20 4 22 21 24 18 26
REMARK H PARENT 10 19 12 21 4 23 21 25 18 27
REMARK Flexibility Score: inf
ROOT
ATOM      1  C   UNL     1     -12.258   7.504   6.547  1.00  0.00     0.180 A 
ATOM      2  C   UNL     1     -13.450   7.971   5.967  1.00  0.00     0.208 A 
ATOM      3  C   UNL     1     -13.471   9.253   5.395  1.00  0.00     0.238 A 
ATOM      4  O   UNL     1     -14.525   9.645   4.829  1.00  0.00    -0.285 OA
ATOM      5  C   UNL     1     -12.307  10.058   5.424  1.00  0.00     0.111 A 
ATOM      6  C   UNL     1     -12.226  11.387   4.910  1.00  0.00     0.134 A 
ATOM      7  C   UNL     1     -10.988  12.040   4.875  1.00  0.00     0.093 A 
ATOM      8  C   UNL     1      -9.842  11.439   5.394  1.00  0.00     0.123 A 
ATOM      9  C   UNL     1      -9.920  10.163   5.954  1.00  0.00     0.094 A 
ATOM     10  C   UNL     1     -11.135   9.471   5.969  1.00  0.00     0.146 A 
ATOM     11  O   UNL     1     -11.165   8.255   6.501  1.00  0.00    -0.452 OA
ENDROOT
BRANCH   1  12
ATOM     12  C   UNL     1     -12.165   6.174   7.192  1.00  0.00     0.025 A 
ATOM     13  C   UNL     1     -12.549   5.980   8.531  1.00  0.00     0.016 A 
ATOM     14  C   UNL     1     -12.429   4.721   9.125  1.00  0.00     0.051 A 
ATOM     15  C   UNL     1     -11.912   3.643   8.397  1.00  0.00     0.157 A 
ATOM     16  C   UNL     1     -11.628   5.093   6.472  1.00  0.00     0.062 A 
ATOM     17  C   UNL     1     -11.507   3.829   7.068  1.00  0.00     0.158 A 
BRANCH  15  18
ATOM     18  O   UNL     1     -11.793   2.385   8.986  1.00  0.00    -0.504 OA
ATOM     19  H   UNL     1     -12.503   1.673   8.862  1.00  0.00     0.293 HD
ENDBRANCH  15  18
BRANCH  17  20
ATOM     20  O   UNL     1     -10.987   2.756   6.348  1.00  0.00    -0.504 OA
ATOM     21  H   UNL     1     -10.525   2.890   5.456  1.00  0.00     0.293 HD
ENDBRANCH  17  20
ENDBRANCH   1  12
BRANCH   2  22
ATOM     22  O   UNL     1     -14.582   7.153   5.929  1.00  0.00    -0.502 OA
ATOM     23  H   UNL     1     -15.301   7.185   6.642  1.00  0.00     0.293 HD
ENDBRANCH   2  22
BRANCH   6  24
ATOM     24  O   UNL     1     -13.329  12.115   4.452  1.00  0.00    -0.507 OA
ATOM     25  H   UNL     1     -13.502  12.348   3.487  1.00  0.00     0.293 HD
ENDBRANCH   6  24
BRANCH   8  26
ATOM     26  O   UNL     1      -8.630  12.125   5.356  1.00  0.00    -0.508 OA
ATOM     27  H   UNL     1      -8.538  13.061   5.736  1.00  0.00     0.293 HD
ENDBRANCH   8  26
TORSDOF 6
ENDMDL
MODEL 6
REMARK VINA RESULT:    -5.053      2.441      6.853
REMARK INTER + INTRA:          -6.414
REMARK INTER:                  -6.121
REMARK INTRA:                  -0.294
REMARK UNBOUND:                -0.327
REMARK SMILES O=c1c(O)c(-c2ccc(O)c(O)c2)oc2cc(O)cc(O)c12
REMARK SMILES IDX 5 1 3 2 2 3 1 4 22 5 20 6 19 7 17 8 16 9 15 10 14 11 6 12
REMARK SMILES IDX 7 13 8 14 9 15 13 16 11 17 10 18 12 20 4 22 21 24 18 26
REMARK H PARENT 10 19 12 21 4 23 21 25 18 27
REMARK Flexibility Score: inf
ROOT
ATOM      1  C   UNL     1     -10.794   7.553   6.673  1.00  0.00     0.180 A 
ATOM      2  C   UNL     1      -9.524   8.129   6.495  1.00  0.00     0.208 A 
ATOM      3  C   UNL     1      -9.434   9.429   5.974  1.00  0.00     0.238 A 
ATOM      4  O   UNL     1      -8.298   9.961   5.867  1.00  0.00    -0.285 OA
ATOM      5  C   UNL     1     -10.612  10.132   5.623  1.00  0.00     0.111 A 
ATOM      6  C   UNL     1     -10.637  11.438   5.049  1.00  0.00     0.134 A 
ATOM      7  C   UNL     1     -11.863  12.088   4.862  1.00  0.00     0.093 A 
ATOM      8  C   UNL     1     -13.067  11.454   5.167  1.00  0.00     0.123 A 
ATOM      9  C   UNL     1     -13.058  10.153   5.673  1.00  0.00     0.094 A 
ATOM     10  C   UNL     1     -11.849   9.493   5.904  1.00  0.00     0.146 A 
ATOM     11  O   UNL     1     -11.883   8.261   6.396  1.00  0.00    -0.452 OA
ENDROOT
BRANCH   1  12
ATOM     12  C   UNL     1     -10.969   6.177   7.194  1.00  0.00     0.025 A 
ATOM     13  C   UNL     1     -10.889   5.900   8.570  1.00  0.00     0.016 A 
ATOM     14  C   UNL     1     -11.032   4.590   9.035  1.00  0.00     0.051 A 
ATOM     15  C   UNL     1     -11.245   3.539   8.135  1.00  0.00     0.157 A 
ATOM     16  C   UNL     1     -11.162   5.116   6.292  1.00  0.00     0.062 A 
ATOM     17  C   UNL     1     -11.307   3.802   6.760  1.00  0.00     0.158 A 
BRANCH  15  18
ATOM     18  O   UNL     1     -11.392   2.232   8.596  1.00  0.00    -0.504 OA
ATOM     19  H   UNL     1     -10.643   1.554   8.511  1.00  0.00     0.293 HD
ENDBRANCH  15  18
BRANCH  17  20
ATOM     20  O   UNL     1     -11.512   2.753   5.865  1.00  0.00    -0.504 OA
ATOM     21  H   UNL     1     -11.744   2.923   4.893  1.00  0.00     0.293 HD
ENDBRANCH  17  20
ENDBRANCH   1  12
BRANCH   2  22
ATOM     22  O   UNL     1      -8.375   7.427   6.869  1.00  0.00    -0.502 OA
ATOM     23  H   UNL     1      -7.759   6.992   6.193  1.00  0.00     0.293 HD
ENDBRANCH   2  22
BRANCH   6  24
ATOM     24  O   UNL     1      -9.496  12.125   4.622  1.00  0.00    -0.507 OA
ATOM     25  H   UNL     1      -8.815  12.543   5.237  1.00  0.00     0.293 HD
ENDBRANCH   6  24
BRANCH   8  26
ATOM     26  O   UNL     1     -14.270  12.125   4.954  1.00  0.00    -0.508 OA
ATOM     27  H   UNL     1     -15.153  11.629   4.911  1.00  0.00     0.293 HD
ENDBRANCH   8  26
TORSDOF 6
ENDMDL
MODEL 7
REMARK VINA RESULT:    -4.796      1.590      3.440
REMARK INTER + INTRA:          -6.105
REMARK INTER:                  -5.782
REMARK INTRA:                  -0.323
REMARK UNBOUND:                -0.327
REMARK SMILES O=c1c(O)c(-c2ccc(O)c(O)c2)oc2cc(O)cc(O)c12
REMARK SMILES IDX 5 1 3 2 2 3 1 4 22 5 20 6 19 7 17 8 16 9 15 10 14 11 6 12
REMARK SMILES IDX 7 13 8 14 9 15 13 16 11 17 10 18 12 20 4 22 21 24 18 26
REMARK H PARENT 10 19 12 21 4 23 21 25 18 27
REMARK Flexibility Score: inf
ROOT
ATOM      1  C   UNL     1      -9.536   9.557   6.306  1.00  0.00     0.180 A 
ATOM      2  C   UNL     1      -9.777   8.187   6.508  1.00  0.00     0.208 A 
ATOM      3  C   UNL     1     -11.100   7.717   6.473  1.00  0.00     0.238 A 
ATOM      4  O   UNL     1     -11.306   6.481   6.600  1.00  0.00    -0.285 OA
ATOM      5  C   UNL     1     -12.165   8.623   6.252  1.00  0.00     0.111 A 
ATOM      6  C   UNL     1     -13.546   8.262   6.237  1.00  0.00     0.134 A 
ATOM      7  C   UNL     1     -14.505   9.218   5.880  1.00  0.00     0.093 A 
ATOM      8  C   UNL     1     -14.141  10.535   5.602  1.00  0.00     0.123 A 
ATOM      9  C   UNL     1     -12.800  10.913   5.673  1.00  0.00     0.094 A 
ATOM     10  C   UNL     1     -11.816   9.973   5.990  1.00  0.00     0.146 A 
ATOM     11  O   UNL     1     -10.550  10.371   6.036  1.00  0.00    -0.452 OA
ENDROOT
BRANCH   1  12
ATOM     12  C   UNL     1      -8.172  10.132   6.353  1.00  0.00     0.025 A 
ATOM     13  C   UNL     1      -7.378  10.229   5.197  1.00  0.00     0.016 A 
ATOM     14  C   UNL     1      -6.085  10.752   5.271  1.00  0.00     0.051 A 
ATOM     15  C   UNL     1      -5.562  11.174   6.499  1.00  0.00     0.157 A 
ATOM     16  C   UNL     1      -7.635  10.538   7.587  1.00  0.00     0.062 A 
ATOM     17  C   UNL     1      -6.337  11.064   7.661  1.00  0.00     0.158 A 
BRANCH  15  18
ATOM     18  O   UNL     1      -4.273  11.699   6.576  1.00  0.00    -0.504 OA
ATOM     19  H   UNL     1      -3.868  12.223   5.809  1.00  0.00     0.293 HD
ENDBRANCH  15  18
BRANCH  17  20
ATOM     20  O   UNL     1      -5.812  11.478   8.883  1.00  0.00    -0.504 OA
ATOM     21  H   UNL     1      -6.196  12.272   9.384  1.00  0.00     0.293 HD
ENDBRANCH  17  20
ENDBRANCH   1  12
BRANCH   2  22
ATOM     22  O   UNL     1      -8.710   7.307   6.702  1.00  0.00    -0.502 OA
ATOM     23  H   UNL     1      -7.975   7.483   7.376  1.00  0.00     0.293 HD
ENDBRANCH   2  22
BRANCH   6  24
ATOM     24  O   UNL     1     -14.026   6.997   6.588  1.00  0.00    -0.507 OA
ATOM     25  H   UNL     1     -14.842   6.560   6.186  1.00  0.00     0.293 HD
ENDBRANCH   6  24
BRANCH   8  26
ATOM     26  O   UNL     1     -15.124  11.463   5.265  1.00  0.00    -0.508 OA
ATOM     27  H   UNL     1     -16.110  11.253   5.374  1.00  0.00     0.293 HD
ENDBRANCH   8  26
TORSDOF 6
ENDMDL
MODEL 8
REMARK VINA RESULT:    -4.666      4.953      6.852
REMARK INTER + INTRA:          -5.948
REMARK INTER:                  -5.733
REMARK INTRA:                  -0.215
REMARK UNBOUND:                -0.327
REMARK SMILES O=c1c(O)c(-c2ccc(O)c(O)c2)oc2cc(O)cc(O)c12
REMARK SMILES IDX 5 1 3 2 2 3 1 4 22 5 20 6 19 7 17 8 16 9 15 10 14 11 6 12
REMARK SMILES IDX 7 13 8 14 9 15 13 16 11 17 10 18 12 20 4 22 21 24 18 26
REMARK H PARENT 10 19 12 21 4 23 21 25 18 27
REMARK Flexibility Score: inf
ROOT
ATOM      1  C   UNL     1     -13.296   7.390   6.686  1.00  0.00     0.180 A 
ATOM      2  C   UNL     1     -13.837   8.349   7.559  1.00  0.00     0.208 A 
ATOM      3  C   UNL     1     -14.337   9.548   7.027  1.00  0.00     0.238 A 
ATOM      4  O   UNL     1     -14.869  10.380   7.808  1.00  0.00    -0.285 OA
ATOM      5  C   UNL     1     -14.279   9.779   5.632  1.00  0.00     0.111 A 
ATOM      6  C   UNL     1     -14.720  10.975   4.988  1.00  0.00     0.134 A 
ATOM      7  C   UNL     1     -14.734  11.041   3.590  1.00  0.00     0.093 A 
ATOM      8  C   UNL     1     -14.262   9.983   2.814  1.00  0.00     0.123 A 
ATOM      9  C   UNL     1     -13.772   8.833   3.433  1.00  0.00     0.094 A 
ATOM     10  C   UNL     1     -13.780   8.722   4.826  1.00  0.00     0.146 A 
ATOM     11  O   UNL     1     -13.315   7.607   5.376  1.00  0.00    -0.452 OA
ENDROOT
BRANCH   1  12
ATOM     12  C   UNL     1     -12.726   6.113   7.174  1.00  0.00     0.025 A 
ATOM     13  C   UNL     1     -13.387   4.889   6.966  1.00  0.00     0.016 A 
ATOM     14  C   UNL     1     -12.841   3.700   7.457  1.00  0.00     0.051 A 
ATOM     15  C   UNL     1     -11.638   3.717   8.173  1.00  0.00     0.157 A 
ATOM     16  C   UNL     1     -11.529   6.127   7.911  1.00  0.00     0.062 A 
ATOM     17  C   UNL     1     -10.982   4.933   8.403  1.00  0.00     0.158 A 
BRANCH  15  18
ATOM     18  O   UNL     1     -11.090   2.532   8.662  1.00  0.00    -0.504 OA
ATOM     19  H   UNL     1     -11.647   1.867   9.185  1.00  0.00     0.293 HD
ENDBRANCH  15  18
BRANCH  17  20
ATOM     20  O   UNL     1      -9.788   4.948   9.122  1.00  0.00    -0.504 OA
ATOM     21  H   UNL     1      -9.030   5.576   8.878  1.00  0.00     0.293 HD
ENDBRANCH  17  20
ENDBRANCH   1  12
BRANCH   2  22
ATOM     22  O   UNL     1     -13.905   8.092   8.931  1.00  0.00    -0.502 OA
ATOM     23  H   UNL     1     -14.227   7.206   9.303  1.00  0.00     0.293 HD
ENDBRANCH   2  22
BRANCH   6  24
ATOM     24  O   UNL     1     -15.125  12.125   5.673  1.00  0.00    -0.507 OA
ATOM     25  H   UNL     1     -14.563  12.619   6.348  1.00  0.00     0.293 HD
ENDBRANCH   6  24
BRANCH   8  26
ATOM     26  O   UNL     1     -14.277  10.091   1.425  1.00  0.00    -0.508 OA
ATOM     27  H   UNL     1     -15.011   9.668   0.868  1.00  0.00     0.293 HD
ENDBRANCH   8  26
TORSDOF 6
ENDMDL
MODEL 9
REMARK VINA RESULT:    -4.504      2.568      6.864
REMARK INTER + INTRA:          -5.752
REMARK INTER:                  -5.763
REMARK INTRA:                   0.010
REMARK UNBOUND:                -0.327
REMARK SMILES O=c1c(O)c(-c2ccc(O)c(O)c2)oc2cc(O)cc(O)c12
REMARK SMILES IDX 5 1 3 2 2 3 1 4 22 5 20 6 19 7 17 8 16 9 15 10 14 11 6 12
REMARK SMILES IDX 7 13 8 14 9 15 13 16 11 17 10 18 12 20 4 22 21 24 18 26
REMARK H PARENT 10 19 12 21 4 23 21 25 18 27
REMARK Flexibility Score: inf
ROOT
ATOM      1  C   UNL     1     -11.769   7.200   6.882  1.00  0.00     0.180 A 
ATOM      2  C   UNL     1     -12.811   7.779   7.626  1.00  0.00     0.208 A 
ATOM      3  C   UNL     1     -12.813   9.168   7.827  1.00  0.00     0.238 A 
ATOM      4  O   UNL     1     -13.776   9.688   8.448  1.00  0.00    -0.285 OA
ATOM      5  C   UNL     1     -11.767   9.960   7.294  1.00  0.00     0.111 A 
ATOM      6  C   UNL     1     -11.647  11.371   7.469  1.00  0.00     0.134 A 
ATOM      7  C   UNL     1     -10.642  12.069   6.788  1.00  0.00     0.093 A 
ATOM      8  C   UNL     1      -9.714  11.399   5.992  1.00  0.00     0.123 A 
ATOM      9  C   UNL     1      -9.785  10.012   5.860  1.00  0.00     0.094 A 
ATOM     10  C   UNL     1     -10.799   9.292   6.498  1.00  0.00     0.146 A 
ATOM     11  O   UNL     1     -10.837   7.975   6.339  1.00  0.00    -0.452 OA
ENDROOT
BRANCH   1  12
ATOM     12  C   UNL     1     -11.684   5.740   6.649  1.00  0.00     0.025 A 
ATOM     13  C   UNL     1     -11.843   4.820   7.701  1.00  0.00     0.016 A 
ATOM     14  C   UNL     1     -11.735   3.448   7.462  1.00  0.00     0.051 A 
ATOM     15  C   UNL     1     -11.453   2.975   6.174  1.00  0.00     0.157 A 
ATOM     16  C   UNL     1     -11.382   5.261   5.363  1.00  0.00     0.062 A 
ATOM     17  C   UNL     1     -11.273   3.883   5.123  1.00  0.00     0.158 A 
BRANCH  15  18
ATOM     18  O   UNL     1     -11.347   1.606   5.931  1.00  0.00    -0.504 OA
ATOM     19  H   UNL     1     -10.512   1.205   5.520  1.00  0.00     0.293 HD
ENDBRANCH  15  18
BRANCH  17  20
ATOM     20  O   UNL     1     -10.987   3.410   3.843  1.00  0.00    -0.504 OA
ATOM     21  H   UNL     1     -10.151   2.870   3.653  1.00  0.00     0.293 HD
ENDBRANCH  17  20
ENDBRANCH   1  12
BRANCH   2  22
ATOM     22  O   UNL     1     -13.845   6.983   8.125  1.00  0.00    -0.502 OA
ATOM     23  H   UNL     1     -13.941   6.770   9.111  1.00  0.00     0.293 HD
ENDBRANCH   2  22
BRANCH   6  24
ATOM     24  O   UNL     1     -12.465  12.124   8.317  1.00  0.00    -0.507 OA
ATOM     25  H   UNL     1     -12.196  12.455   9.231  1.00  0.00     0.293 HD
ENDBRANCH   6  24
BRANCH   8  26
ATOM     26  O   UNL     1      -8.718  12.125   5.340  1.00  0.00    -0.508 OA
ATOM     27  H   UNL     1      -7.822  12.306   5.779  1.00  0.00     0.293 HD
ENDBRANCH   8  26
TORSDOF 6
ENDMDL
