MODEL 1
REMARK VINA RESULT:    -4.684      0.000      0.000
REMARK INTER + INTRA:          -6.136
REMARK INTER:                  -5.779
REMARK INTRA:                  -0.357
REMARK UNBOUND:                -0.357
REMARK SMILES Oc1cc(O)c2cc(O)c(-c3cc(O)c(O)c(O)c3)[o+]c2c1
REMARK SMILES IDX 10 1 20 2 21 3 22 4 2 5 3 6 4 7 6 8 7 9 8 10 11 11 12 12
REMARK SMILES IDX 13 13 19 14 15 15 17 16 14 17 16 19 18 21 9 23 1 25 5 27
REMARK H PARENT 14 18 16 20 18 22 9 24 1 26 5 28
REMARK Flexibility Score: inf
ROOT
ATOM      1  C   UNL     1       6.726  -2.587  23.997  1.00  0.00     0.402 A 
ATOM      2  O   UNL     1       8.028  -2.548  24.272  1.00  0.00    -0.202 OA
ATOM      3  C   UNL     1       8.725  -3.615  24.647  1.00  0.00     0.368 A 
ATOM      4  C   UNL     1      10.089  -3.475  24.918  1.00  0.00     0.162 A 
ATOM      5  C   UNL     1      10.846  -4.576  25.318  1.00  0.00     0.128 A 
ATOM      6  C   UNL     1      10.237  -5.829  25.449  1.00  0.00     0.093 A 
ATOM      7  C   UNL     1       8.872  -5.996  25.184  1.00  0.00     0.136 A 
ATOM      8  C   UNL     1       8.099  -4.879  24.775  1.00  0.00     0.125 A 
ATOM      9  C   UNL     1       6.730  -4.955  24.476  1.00  0.00     0.078 A 
ATOM     10  C   UNL     1       6.035  -3.809  24.074  1.00  0.00     0.223 A 
ENDROOT
BRANCH   1  11
ATOM     11  C   UNL     1       6.058  -1.327  23.597  1.00  0.00     0.091 A 
ATOM     12  C   UNL     1       5.880  -1.042  22.235  1.00  0.00     0.068 A 
ATOM     13  C   UNL     1       5.270   0.149  21.829  1.00  0.00     0.162 A 
ATOM     14  C   UNL     1       5.647  -0.382  24.553  1.00  0.00     0.068 A 
ATOM     15  C   UNL     1       4.841   1.082  22.789  1.00  0.00     0.200 A 
ATOM     16  C   UNL     1       5.036   0.815  24.155  1.00  0.00     0.162 A 
BRANCH  13  17
ATOM     17  O   UNL     1       5.099   0.389  20.466  1.00  0.00    -0.504 OA
ATOM     18  H   UNL     1       4.249   0.136  19.975  1.00  0.00     0.293 HD
ENDBRANCH  13  17
BRANCH  15  19
ATOM     19  O   UNL     1       4.231   2.267  22.375  1.00  0.00    -0.502 OA
ATOM     20  H   UNL     1       4.595   2.824  21.612  1.00  0.00     0.293 HD
ENDBRANCH  15  19
BRANCH  16  21
ATOM     21  O   UNL     1       4.626   1.742  25.112  1.00  0.00    -0.504 OA
ATOM     22  H   UNL     1       5.030   1.759  26.041  1.00  0.00     0.293 HD
ENDBRANCH  16  21
ENDBRANCH   1  11
BRANCH  10  23
ATOM     23  O   UNL     1       4.686  -3.895  23.728  1.00  0.00    -0.500 OA
ATOM     24  H   UNL     1       4.135  -3.070  23.525  1.00  0.00     0.294 HD
ENDBRANCH  10  23
BRANCH   5  25
ATOM     25  O   UNL     1      12.205  -4.416  25.583  1.00  0.00    -0.507 OA
ATOM     26  H   UNL     1      12.536  -3.743  26.263  1.00  0.00     0.293 HD
ENDBRANCH   5  25
BRANCH   7  27
ATOM     27  O   UNL     1       8.338  -7.279  25.342  1.00  0.00    -0.507 OA
ATOM     28  H   UNL     1       8.115  -7.698  26.232  1.00  0.00     0.293 HD
ENDBRANCH   7  27
TORSDOF 7
ENDMDL
MODEL 2
REMARK VINA RESULT:    -4.632      1.155      2.647
REMARK INTER + INTRA:          -6.071
REMARK INTER:                  -5.711
REMARK INTRA:                  -0.360
REMARK UNBOUND:                -0.357
REMARK SMILES Oc1cc(O)c2cc(O)c(-c3cc(O)c(O)c(O)c3)[o+]c2c1
REMARK SMILES IDX 10 1 20 2 21 3 22 4 2 5 3 6 4 7 6 8 7 9 8 10 11 11 12 12
REMARK SMILES IDX 13 13 19 14 15 15 17 16 14 17 16 19 18 21 9 23 1 25 5 27
REMARK H PARENT 14 18 16 20 18 22 9 24 1 26 5 28
REMARK Flexibility Score: inf
ROOT
ATOM      1  C   UNL     1       7.280  -2.643  24.206  1.00  0.00     0.402 A 
ATOM      2  O   UNL     1       6.752  -3.865  24.221  1.00  0.00    -0.202 OA
ATOM      3  C   UNL     1       7.457  -4.960  24.484  1.00  0.00     0.368 A 
ATOM      4  C   UNL     1       6.814  -6.201  24.473  1.00  0.00     0.162 A 
ATOM      5  C   UNL     1       7.529  -7.368  24.741  1.00  0.00     0.128 A 
ATOM      6  C   UNL     1       8.898  -7.297  25.023  1.00  0.00     0.093 A 
ATOM      7  C   UNL     1       9.566  -6.067  25.040  1.00  0.00     0.136 A 
ATOM      8  C   UNL     1       8.841  -4.877  24.769  1.00  0.00     0.125 A 
ATOM      9  C   UNL     1       9.423  -3.599  24.778  1.00  0.00     0.078 A 
ATOM     10  C   UNL     1       8.643  -2.471  24.506  1.00  0.00     0.223 A 
ENDROOT
BRANCH   1  11
ATOM     11  C   UNL     1       6.392  -1.501  23.890  1.00  0.00     0.091 A 
ATOM     12  C   UNL     1       6.154  -1.163  22.548  1.00  0.00     0.068 A 
ATOM     13  C   UNL     1       5.335  -0.078  22.220  1.00  0.00     0.162 A 
ATOM     14  C   UNL     1       5.825  -0.712  24.904  1.00  0.00     0.068 A 
ATOM     15  C   UNL     1       4.753   0.696  23.239  1.00  0.00     0.200 A 
ATOM     16  C   UNL     1       5.004   0.379  24.585  1.00  0.00     0.162 A 
BRANCH  13  17
ATOM     17  O   UNL     1       5.111   0.217  20.876  1.00  0.00    -0.504 OA
ATOM     18  H   UNL     1       5.856   0.207  20.189  1.00  0.00     0.293 HD
ENDBRANCH  13  17
BRANCH  15  19
ATOM     19  O   UNL     1       3.935   1.776  22.903  1.00  0.00    -0.502 OA
ATOM     20  H   UNL     1       3.830   2.582  23.506  1.00  0.00     0.293 HD
ENDBRANCH  15  19
BRANCH  16  21
ATOM     21  O   UNL     1       4.442   1.152  25.600  1.00  0.00    -0.504 OA
ATOM     22  H   UNL     1       4.483   0.864  26.571  1.00  0.00     0.293 HD
ENDBRANCH  16  21
ENDBRANCH   1  11
BRANCH  10  23
ATOM     23  O   UNL     1       9.211  -1.198  24.563  1.00  0.00    -0.500 OA
ATOM     24  H   UNL     1       9.992  -0.989  25.174  1.00  0.00     0.294 HD
ENDBRANCH  10  23
BRANCH   5  25
ATOM     25  O   UNL     1       6.870  -8.596  24.726  1.00  0.00    -0.507 OA
ATOM     26  H   UNL     1       6.524  -9.023  25.576  1.00  0.00     0.293 HD
ENDBRANCH   5  25
BRANCH   7  27
ATOM     27  O   UNL     1      10.934  -6.080  25.326  1.00  0.00    -0.507 OA
ATOM     28  H   UNL     1      11.563  -6.825  25.069  1.00  0.00     0.293 HD
ENDBRANCH   7  27
TORSDOF 7
ENDMDL
MODEL 3
REMARK VINA RESULT:    -4.491      1.171      3.201
REMARK INTER + INTRA:          -5.897
REMARK INTER:                  -5.554
REMARK INTRA:                  -0.343
REMARK UNBOUND:                -0.357
REMARK SMILES Oc1cc(O)c2cc(O)c(-c3cc(O)c(O)c(O)c3)[o+]c2c1
REMARK SMILES IDX 10 1 20 2 21 3 22 4 2 5 3 6 4 7 6 8 7 9 8 10 11 11 12 12
REMARK SMILES IDX 13 13 19 14 15 15 17 16 14 17 16 19 18 21 9 23 1 25 5 27
REMARK H PARENT 14 18 16 20 18 22 9 24 1 26 5 28
REMARK Flexibility Score: inf
ROOT
ATOM      1  C   UNL     1       7.442  -2.694  24.233  1.00  0.00     0.402 A 
ATOM      2  O   UNL     1       6.918  -3.916  24.290  1.00  0.00    -0.202 OA
ATOM      3  C   UNL     1       7.628  -5.000  24.588  1.00  0.00     0.368 A 
ATOM      4  C   UNL     1       6.990  -6.243  24.620  1.00  0.00     0.162 A 
ATOM      5  C   UNL     1       7.710  -7.398  24.925  1.00  0.00     0.128 A 
ATOM      6  C   UNL     1       9.079  -7.313  25.200  1.00  0.00     0.093 A 
ATOM      7  C   UNL     1       9.742  -6.080  25.174  1.00  0.00     0.136 A 
ATOM      8  C   UNL     1       9.013  -4.902  24.866  1.00  0.00     0.125 A 
ATOM      9  C   UNL     1       9.590  -3.623  24.830  1.00  0.00     0.078 A 
ATOM     10  C   UNL     1       8.805  -2.507  24.523  1.00  0.00     0.223 A 
ENDROOT
BRANCH   1  11
ATOM     11  C   UNL     1       6.549  -1.567  23.881  1.00  0.00     0.091 A 
ATOM     12  C   UNL     1       6.033  -0.750  24.900  1.00  0.00     0.068 A 
ATOM     13  C   UNL     1       5.172   0.309  24.598  1.00  0.00     0.162 A 
ATOM     14  C   UNL     1       6.160  -1.329  22.552  1.00  0.00     0.068 A 
ATOM     15  C   UNL     1       4.802   0.557  23.264  1.00  0.00     0.200 A 
ATOM     16  C   UNL     1       5.296  -0.270  22.240  1.00  0.00     0.162 A 
BRANCH  13  17
ATOM     17  O   UNL     1       4.693   1.107  25.637  1.00  0.00    -0.504 OA
ATOM     18  H   UNL     1       3.736   1.049  25.965  1.00  0.00     0.293 HD
ENDBRANCH  13  17
BRANCH  15  19
ATOM     19  O   UNL     1       3.945   1.618  22.972  1.00  0.00    -0.502 OA
ATOM     20  H   UNL     1       4.045   2.177  22.134  1.00  0.00     0.293 HD
ENDBRANCH  15  19
BRANCH  16  21
ATOM     21  O   UNL     1       4.922  -0.040  20.917  1.00  0.00    -0.504 OA
ATOM     22  H   UNL     1       4.129   0.547  20.684  1.00  0.00     0.293 HD
ENDBRANCH  16  21
ENDBRANCH   1  11
BRANCH  10  23
ATOM     23  O   UNL     1       9.369  -1.231  24.536  1.00  0.00    -0.500 OA
ATOM     24  H   UNL     1       9.726  -0.815  25.387  1.00  0.00     0.294 HD
ENDBRANCH  10  23
BRANCH   5  25
ATOM     25  O   UNL     1       7.056  -8.628  24.953  1.00  0.00    -0.507 OA
ATOM     26  H   UNL     1       6.404  -8.865  25.690  1.00  0.00     0.293 HD
ENDBRANCH   5  25
BRANCH   7  27
ATOM     27  O   UNL     1      11.112  -6.078  25.457  1.00  0.00    -0.507 OA
ATOM     28  H   UNL     1      11.622  -5.278  25.799  1.00  0.00     0.293 HD
ENDBRANCH   7  27
TORSDOF 7
ENDMDL
MODEL 4
REMARK VINA RESULT:    -4.306      1.772      7.433
REMARK INTER + INTRA:          -5.669
REMARK INTER:                  -5.295
REMARK INTRA:                  -0.374
REMARK UNBOUND:                -0.357
REMARK SMILES Oc1cc(O)c2cc(O)c(-c3cc(O)c(O)c(O)c3)[o+]c2c1
REMARK SMILES IDX 10 1 20 2 21 3 22 4 2 5 3 6 4 7 6 8 7 9 8 10 11 11 12 12
REMARK SMILES IDX 13 13 19 14 15 15 17 16 14 17 16 19 18 21 9 23 1 25 5 27
REMARK H PARENT 14 18 16 20 18 22 9 24 1 26 5 28
REMARK Flexibility Score: inf
ROOT
ATOM      1  C   UNL     1       5.856  -0.962  23.601  1.00  0.00     0.402 A 
ATOM      2  O   UNL     1       5.182  -0.297  24.537  1.00  0.00    -0.202 OA
ATOM      3  C   UNL     1       4.355   0.707  24.264  1.00  0.00     0.368 A 
ATOM      4  C   UNL     1       3.693   1.347  25.315  1.00  0.00     0.162 A 
ATOM      5  C   UNL     1       2.822   2.406  25.060  1.00  0.00     0.128 A 
ATOM      6  C   UNL     1       2.610   2.831  23.743  1.00  0.00     0.093 A 
ATOM      7  C   UNL     1       3.261   2.207  22.673  1.00  0.00     0.136 A 
ATOM      8  C   UNL     1       4.146   1.128  22.928  1.00  0.00     0.125 A 
ATOM      9  C   UNL     1       4.831   0.435  21.918  1.00  0.00     0.078 A 
ATOM     10  C   UNL     1       5.684  -0.624  22.247  1.00  0.00     0.223 A 
ENDROOT
BRANCH   1  11
ATOM     11  C   UNL     1       6.756  -2.056  24.033  1.00  0.00     0.091 A 
ATOM     12  C   UNL     1       6.267  -3.371  24.089  1.00  0.00     0.068 A 
ATOM     13  C   UNL     1       7.088  -4.421  24.511  1.00  0.00     0.162 A 
ATOM     14  C   UNL     1       8.076  -1.800  24.442  1.00  0.00     0.068 A 
ATOM     15  C   UNL     1       8.414  -4.163  24.899  1.00  0.00     0.200 A 
ATOM     16  C   UNL     1       8.906  -2.847  24.867  1.00  0.00     0.162 A 
BRANCH  13  17
ATOM     17  O   UNL     1       6.569  -5.714  24.538  1.00  0.00    -0.504 OA
ATOM     18  H   UNL     1       6.336  -6.222  23.693  1.00  0.00     0.293 HD
ENDBRANCH  13  17
BRANCH  15  19
ATOM     19  O   UNL     1       9.228  -5.217  25.316  1.00  0.00    -0.502 OA
ATOM     20  H   UNL     1       8.988  -6.185  25.143  1.00  0.00     0.293 HD
ENDBRANCH  15  19
BRANCH  16  21
ATOM     21  O   UNL     1      10.216  -2.582  25.265  1.00  0.00    -0.504 OA
ATOM     22  H   UNL     1      10.469  -1.707  25.709  1.00  0.00     0.293 HD
ENDBRANCH  16  21
ENDBRANCH   1  11
BRANCH  10  23
ATOM     23  O   UNL     1       6.326  -1.344  21.239  1.00  0.00    -0.500 OA
ATOM     24  H   UNL     1       7.298  -1.183  21.005  1.00  0.00     0.294 HD
ENDBRANCH  10  23
BRANCH   5  25
ATOM     25  O   UNL     1       2.172   3.031  26.121  1.00  0.00    -0.507 OA
ATOM     26  H   UNL     1       2.505   3.906  26.506  1.00  0.00     0.293 HD
ENDBRANCH   5  25
BRANCH   7  27
ATOM     27  O   UNL     1       2.998   2.692  21.388  1.00  0.00    -0.507 OA
ATOM     28  H   UNL     1       3.228   2.203  20.536  1.00  0.00     0.293 HD
ENDBRANCH   7  27
TORSDOF 7
ENDMDL
MODEL 5
REMARK VINA RESULT:    -4.253     12.551     13.596
REMARK INTER + INTRA:          -5.604
REMARK INTER:                  -5.222
REMARK INTRA:                  -0.382
REMARK UNBOUND:                -0.357
REMARK SMILES Oc1cc(O)c2cc(O)c(-c3cc(O)c(O)c(O)c3)[o+]c2c1
REMARK SMILES IDX 10 1 20 2 21 3 22 4 2 5 3 6 4 7 6 8 7 9 8 10 11 11 12 12
REMARK SMILES IDX 13 13 19 14 15 15 17 16 14 17 16 19 18 21 9 23 1 25 5 27
REMARK H PARENT 14 18 16 20 18 22 9 24 1 26 5 28
REMARK Flexibility Score: inf
ROOT
ATOM      1  C   UNL     1       6.093   4.911  13.133  1.00  0.00     0.402 A 
ATOM      2  O   UNL     1       5.798   3.658  12.795  1.00  0.00    -0.202 OA
ATOM      3  C   UNL     1       6.705   2.784  12.375  1.00  0.00     0.368 A 
ATOM      4  C   UNL     1       6.298   1.489  12.039  1.00  0.00     0.162 A 
ATOM      5  C   UNL     1       7.228   0.551  11.591  1.00  0.00     0.128 A 
ATOM      6  C   UNL     1       8.577   0.907  11.477  1.00  0.00     0.093 A 
ATOM      7  C   UNL     1       9.010   2.196  11.807  1.00  0.00     0.136 A 
ATOM      8  C   UNL     1       8.068   3.153  12.265  1.00  0.00     0.125 A 
ATOM      9  C   UNL     1       8.413   4.464  12.630  1.00  0.00     0.078 A 
ATOM     10  C   UNL     1       7.428   5.350  13.078  1.00  0.00     0.223 A 
ENDROOT
BRANCH   1  11
ATOM     11  C   UNL     1       4.990   5.794  13.577  1.00  0.00     0.091 A 
ATOM     12  C   UNL     1       4.531   5.712  14.901  1.00  0.00     0.068 A 
ATOM     13  C   UNL     1       3.478   6.520  15.342  1.00  0.00     0.162 A 
ATOM     14  C   UNL     1       4.354   6.675  12.686  1.00  0.00     0.068 A 
ATOM     15  C   UNL     1       2.858   7.415  14.453  1.00  0.00     0.200 A 
ATOM     16  C   UNL     1       3.297   7.487  13.119  1.00  0.00     0.162 A 
BRANCH  13  17
ATOM     17  O   UNL     1       3.061   6.420  16.669  1.00  0.00    -0.504 OA
ATOM     18  H   UNL     1       2.790   7.230  17.213  1.00  0.00     0.293 HD
ENDBRANCH  13  17
BRANCH  15  19
ATOM     19  O   UNL     1       1.810   8.219  14.902  1.00  0.00    -0.502 OA
ATOM     20  H   UNL     1       1.923   8.878  15.662  1.00  0.00     0.293 HD
ENDBRANCH  15  19
BRANCH  16  21
ATOM     21  O   UNL     1       2.677   8.362  12.228  1.00  0.00    -0.504 OA
ATOM     22  H   UNL     1       2.422   8.072  11.291  1.00  0.00     0.293 HD
ENDBRANCH  16  21
ENDBRANCH   1  11
BRANCH  10  23
ATOM     23  O   UNL     1       7.778   6.637  13.488  1.00  0.00    -0.500 OA
ATOM     24  H   UNL     1       8.746   6.929  13.558  1.00  0.00     0.294 HD
ENDBRANCH  10  23
BRANCH   5  25
ATOM     25  O   UNL     1       6.803  -0.734  11.262  1.00  0.00    -0.507 OA
ATOM     26  H   UNL     1       7.355  -1.551  11.491  1.00  0.00     0.293 HD
ENDBRANCH   5  25
BRANCH   7  27
ATOM     27  O   UNL     1      10.373   2.474  11.663  1.00  0.00    -0.507 OA
ATOM     28  H   UNL     1      11.088   2.169  12.306  1.00  0.00     0.293 HD
ENDBRANCH   7  27
TORSDOF 7
ENDMDL
MODEL 6
REMARK VINA RESULT:    -4.237      1.765      3.650
REMARK INTER + INTRA:          -5.584
REMARK INTER:                  -5.201
REMARK INTRA:                  -0.384
REMARK UNBOUND:                -0.357
REMARK SMILES Oc1cc(O)c2cc(O)c(-c3cc(O)c(O)c(O)c3)[o+]c2c1
REMARK SMILES IDX 10 1 20 2 21 3 22 4 2 5 3 6 4 7 6 8 7 9 8 10 11 11 12 12
REMARK SMILES IDX 13 13 19 14 15 15 17 16 14 17 16 19 18 21 9 23 1 25 5 27
REMARK H PARENT 14 18 16 20 18 22 9 24 1 26 5 28
REMARK Flexibility Score: inf
ROOT
ATOM      1  C   UNL     1       5.985  -3.021  23.714  1.00  0.00     0.402 A 
ATOM      2  O   UNL     1       5.367  -4.149  23.371  1.00  0.00    -0.202 OA
ATOM      3  C   UNL     1       5.806  -5.355  23.716  1.00  0.00     0.368 A 
ATOM      4  C   UNL     1       5.090  -6.482  23.306  1.00  0.00     0.162 A 
ATOM      5  C   UNL     1       5.528  -7.761  23.650  1.00  0.00     0.128 A 
ATOM      6  C   UNL     1       6.693  -7.916  24.411  1.00  0.00     0.093 A 
ATOM      7  C   UNL     1       7.428  -6.803  24.834  1.00  0.00     0.136 A 
ATOM      8  C   UNL     1       6.984  -5.501  24.488  1.00  0.00     0.125 A 
ATOM      9  C   UNL     1       7.650  -4.328  24.879  1.00  0.00     0.078 A 
ATOM     10  C   UNL     1       7.148  -3.078  24.503  1.00  0.00     0.223 A 
ENDROOT
BRANCH   1  11
ATOM     11  C   UNL     1       5.403  -1.738  23.259  1.00  0.00     0.091 A 
ATOM     12  C   UNL     1       4.341  -1.169  23.978  1.00  0.00     0.068 A 
ATOM     13  C   UNL     1       3.758   0.032  23.561  1.00  0.00     0.162 A 
ATOM     14  C   UNL     1       5.853  -1.104  22.088  1.00  0.00     0.068 A 
ATOM     15  C   UNL     1       4.226   0.674  22.401  1.00  0.00     0.200 A 
ATOM     16  C   UNL     1       5.274   0.099  21.661  1.00  0.00     0.162 A 
BRANCH  13  17
ATOM     17  O   UNL     1       2.715   0.573  24.311  1.00  0.00    -0.504 OA
ATOM     18  H   UNL     1       2.504   0.257  25.250  1.00  0.00     0.293 HD
ENDBRANCH  13  17
BRANCH  15  19
ATOM     19  O   UNL     1       3.641   1.873  21.993  1.00  0.00    -0.502 OA
ATOM     20  H   UNL     1       4.028   2.775  22.241  1.00  0.00     0.293 HD
ENDBRANCH  15  19
BRANCH  16  21
ATOM     21  O   UNL     1       5.733   0.722  20.502  1.00  0.00    -0.504 OA
ATOM     22  H   UNL     1       6.272   0.220  19.807  1.00  0.00     0.293 HD
ENDBRANCH  16  21
ENDBRANCH   1  11
BRANCH  10  23
ATOM     23  O   UNL     1       7.781  -1.912  24.934  1.00  0.00    -0.500 OA
ATOM     24  H   UNL     1       7.260  -1.069  25.143  1.00  0.00     0.294 HD
ENDBRANCH  10  23
BRANCH   5  25
ATOM     25  O   UNL     1       4.800  -8.873  23.231  1.00  0.00    -0.507 OA
ATOM     26  H   UNL     1       4.917  -9.778  23.670  1.00  0.00     0.293 HD
ENDBRANCH   5  25
BRANCH   7  27
ATOM     27  O   UNL     1       8.582  -7.042  25.589  1.00  0.00    -0.507 OA
ATOM     28  H   UNL     1       9.503  -7.168  25.197  1.00  0.00     0.293 HD
ENDBRANCH   7  27
TORSDOF 7
ENDMDL
MODEL 7
REMARK VINA RESULT:    -4.162     12.129     15.098
REMARK INTER + INTRA:          -5.491
REMARK INTER:                  -5.128
REMARK INTRA:                  -0.363
REMARK UNBOUND:                -0.357
REMARK SMILES Oc1cc(O)c2cc(O)c(-c3cc(O)c(O)c(O)c3)[o+]c2c1
REMARK SMILES IDX 10 1 20 2 21 3 22 4 2 5 3 6 4 7 6 8 7 9 8 10 11 11 12 12
REMARK SMILES IDX 13 13 19 14 15 15 17 16 14 17 16 19 18 21 9 23 1 25 5 27
REMARK H PARENT 14 18 16 20 18 22 9 24 1 26 5 28
REMARK Flexibility Score: inf
ROOT
ATOM      1  C   UNL     1       6.116   4.003  12.833  1.00  0.00     0.402 A 
ATOM      2  O   UNL     1       5.798   4.923  11.925  1.00  0.00    -0.202 OA
ATOM      3  C   UNL     1       5.001   5.954  12.182  1.00  0.00     0.368 A 
ATOM      4  C   UNL     1       4.721   6.868  11.162  1.00  0.00     0.162 A 
ATOM      5  C   UNL     1       3.885   7.959  11.401  1.00  0.00     0.128 A 
ATOM      6  C   UNL     1       3.322   8.140  12.670  1.00  0.00     0.093 A 
ATOM      7  C   UNL     1       3.586   7.239  13.708  1.00  0.00     0.136 A 
ATOM      8  C   UNL     1       4.438   6.129  13.470  1.00  0.00     0.125 A 
ATOM      9  C   UNL     1       4.769   5.184  14.453  1.00  0.00     0.078 A 
ATOM     10  C   UNL     1       5.621   4.119  14.144  1.00  0.00     0.223 A 
ENDROOT
BRANCH   1  11
ATOM     11  C   UNL     1       7.007   2.894  12.422  1.00  0.00     0.091 A 
ATOM     12  C   UNL     1       8.381   3.133  12.266  1.00  0.00     0.068 A 
ATOM     13  C   UNL     1       9.243   2.109  11.860  1.00  0.00     0.162 A 
ATOM     14  C   UNL     1       6.498   1.617  12.129  1.00  0.00     0.068 A 
ATOM     15  C   UNL     1       8.732   0.828  11.588  1.00  0.00     0.200 A 
ATOM     16  C   UNL     1       7.354   0.585  11.720  1.00  0.00     0.162 A 
BRANCH  13  17
ATOM     17  O   UNL     1      10.604   2.383  11.730  1.00  0.00    -0.504 OA
ATOM     18  H   UNL     1      11.294   2.005  12.368  1.00  0.00     0.293 HD
ENDBRANCH  13  17
BRANCH  15  19
ATOM     19  O   UNL     1       9.599  -0.189  11.186  1.00  0.00    -0.502 OA
ATOM     20  H   UNL     1       9.301  -1.153  11.106  1.00  0.00     0.293 HD
ENDBRANCH  15  19
BRANCH  16  21
ATOM     21  O   UNL     1       6.839  -0.680  11.438  1.00  0.00    -0.504 OA
ATOM     22  H   UNL     1       7.180  -1.230  10.659  1.00  0.00     0.293 HD
ENDBRANCH  16  21
ENDBRANCH   1  11
BRANCH  10  23
ATOM     23  O   UNL     1       5.989   3.207  15.134  1.00  0.00    -0.500 OA
ATOM     24  H   UNL     1       5.312   2.595  15.573  1.00  0.00     0.294 HD
ENDBRANCH  10  23
BRANCH   5  25
ATOM     25  O   UNL     1       3.618   8.858  10.371  1.00  0.00    -0.507 OA
ATOM     26  H   UNL     1       3.522   8.552   9.411  1.00  0.00     0.293 HD
ENDBRANCH   5  25
BRANCH   7  27
ATOM     27  O   UNL     1       2.984   7.488  14.946  1.00  0.00    -0.507 OA
ATOM     28  H   UNL     1       3.084   8.346  15.466  1.00  0.00     0.293 HD
ENDBRANCH   7  27
TORSDOF 7
ENDMDL
MODEL 8
REMARK VINA RESULT:    -4.127     11.249     13.629
REMARK INTER + INTRA:          -5.449
REMARK INTER:                  -5.065
REMARK INTRA:                  -0.384
REMARK UNBOUND:                -0.357
REMARK SMILES Oc1cc(O)c2cc(O)c(-c3cc(O)c(O)c(O)c3)[o+]c2c1
REMARK SMILES IDX 10 1 20 2 21 3 22 4 2 5 3 6 4 7 6 8 7 9 8 10 11 11 12 12
REMARK SMILES IDX 13 13 19 14 15 15 17 16 14 17 16 19 18 21 9 23 1 25 5 27
REMARK H PARENT 14 18 16 20 18 22 9 24 1 26 5 28
REMARK Flexibility Score: inf
ROOT
ATOM      1  C   UNL     1       6.185   4.973  13.307  1.00  0.00     0.402 A 
ATOM      2  O   UNL     1       6.101   4.128  12.282  1.00  0.00    -0.202 OA
ATOM      3  C   UNL     1       6.596   2.895  12.312  1.00  0.00     0.368 A 
ATOM      4  C   UNL     1       6.462   2.081  11.183  1.00  0.00     0.162 A 
ATOM      5  C   UNL     1       6.974   0.784  11.184  1.00  0.00     0.128 A 
ATOM      6  C   UNL     1       7.627   0.294  12.320  1.00  0.00     0.093 A 
ATOM      7  C   UNL     1       7.776   1.088  13.463  1.00  0.00     0.136 A 
ATOM      8  C   UNL     1       7.253   2.408  13.467  1.00  0.00     0.125 A 
ATOM      9  C   UNL     1       7.343   3.271  14.571  1.00  0.00     0.078 A 
ATOM     10  C   UNL     1       6.799   4.557  14.502  1.00  0.00     0.223 A 
ENDROOT
BRANCH   1  11
ATOM     11  C   UNL     1       5.603   6.325  13.148  1.00  0.00     0.091 A 
ATOM     12  C   UNL     1       4.246   6.531  13.442  1.00  0.00     0.068 A 
ATOM     13  C   UNL     1       3.665   7.793  13.283  1.00  0.00     0.162 A 
ATOM     14  C   UNL     1       6.366   7.397  12.655  1.00  0.00     0.068 A 
ATOM     15  C   UNL     1       4.438   8.868  12.809  1.00  0.00     0.200 A 
ATOM     16  C   UNL     1       5.792   8.665  12.491  1.00  0.00     0.162 A 
BRANCH  13  17
ATOM     17  O   UNL     1       2.318   7.961  13.600  1.00  0.00    -0.504 OA
ATOM     18  H   UNL     1       1.587   7.413  13.161  1.00  0.00     0.293 HD
ENDBRANCH  13  17
BRANCH  15  19
ATOM     19  O   UNL     1       3.851  10.125  12.656  1.00  0.00    -0.502 OA
ATOM     20  H   UNL     1       4.363  10.983  12.818  1.00  0.00     0.293 HD
ENDBRANCH  15  19
BRANCH  16  21
ATOM     21  O   UNL     1       6.561   9.723  12.006  1.00  0.00    -0.504 OA
ATOM     22  H   UNL     1       7.453   9.964  12.421  1.00  0.00     0.293 HD
ENDBRANCH  16  21
ENDBRANCH   1  11
BRANCH  10  23
ATOM     23  O   UNL     1       6.845   5.397  15.616  1.00  0.00    -0.500 OA
ATOM     24  H   UNL     1       7.189   6.348  15.553  1.00  0.00     0.294 HD
ENDBRANCH  10  23
BRANCH   5  25
ATOM     25  O   UNL     1       6.830  -0.012  10.049  1.00  0.00    -0.507 OA
ATOM     26  H   UNL     1       5.918  -0.233   9.669  1.00  0.00     0.293 HD
ENDBRANCH   5  25
BRANCH   7  27
ATOM     27  O   UNL     1       8.443   0.527  14.556  1.00  0.00    -0.507 OA
ATOM     28  H   UNL     1       8.967   1.056  15.237  1.00  0.00     0.293 HD
ENDBRANCH   7  27
TORSDOF 7
ENDMDL
MODEL 9
REMARK VINA RESULT:    -4.109     11.268     13.558
REMARK INTER + INTRA:          -5.426
REMARK INTER:                  -5.046
REMARK INTRA:                  -0.380
REMARK UNBOUND:                -0.357
REMARK SMILES Oc1cc(O)c2cc(O)c(-c3cc(O)c(O)c(O)c3)[o+]c2c1
REMARK SMILES IDX 10 1 20 2 21 3 22 4 2 5 3 6 4 7 6 8 7 9 8 10 11 11 12 12
REMARK SMILES IDX 13 13 19 14 15 15 17 16 14 17 16 19 18 21 9 23 1 25 5 27
REMARK H PARENT 14 18 16 20 18 22 9 24 1 26 5 28
REMARK Flexibility Score: inf
ROOT
ATOM      1  C   UNL     1       6.158   4.916  13.308  1.00  0.00     0.402 A 
ATOM      2  O   UNL     1       6.092   4.084  12.271  1.00  0.00    -0.202 OA
ATOM      3  C   UNL     1       6.611   2.861  12.284  1.00  0.00     0.368 A 
ATOM      4  C   UNL     1       6.494   2.061  11.144  1.00  0.00     0.162 A 
ATOM      5  C   UNL     1       7.032   0.774  11.127  1.00  0.00     0.128 A 
ATOM      6  C   UNL     1       7.693   0.281  12.258  1.00  0.00     0.093 A 
ATOM      7  C   UNL     1       7.824   1.062  13.412  1.00  0.00     0.136 A 
ATOM      8  C   UNL     1       7.276   2.371  13.434  1.00  0.00     0.125 A 
ATOM      9  C   UNL     1       7.347   3.220  14.550  1.00  0.00     0.078 A 
ATOM     10  C   UNL     1       6.778   4.496  14.498  1.00  0.00     0.223 A 
ENDROOT
BRANCH   1  11
ATOM     11  C   UNL     1       5.549   6.259  13.167  1.00  0.00     0.091 A 
ATOM     12  C   UNL     1       6.342   7.335  12.739  1.00  0.00     0.068 A 
ATOM     13  C   UNL     1       5.799   8.617  12.615  1.00  0.00     0.162 A 
ATOM     14  C   UNL     1       4.206   6.493  13.506  1.00  0.00     0.068 A 
ATOM     15  C   UNL     1       4.449   8.843  12.936  1.00  0.00     0.200 A 
ATOM     16  C   UNL     1       3.653   7.775  13.387  1.00  0.00     0.162 A 
BRANCH  13  17
ATOM     17  O   UNL     1       6.616   9.657  12.173  1.00  0.00    -0.504 OA
ATOM     18  H   UNL     1       7.259   9.547  11.398  1.00  0.00     0.293 HD
ENDBRANCH  13  17
BRANCH  15  19
ATOM     19  O   UNL     1       3.914  10.125  12.808  1.00  0.00    -0.502 OA
ATOM     20  H   UNL     1       3.516  10.625  13.593  1.00  0.00     0.293 HD
ENDBRANCH  15  19
BRANCH  16  21
ATOM     21  O   UNL     1       2.317   7.994  13.721  1.00  0.00    -0.504 OA
ATOM     22  H   UNL     1       1.711   7.235  14.008  1.00  0.00     0.293 HD
ENDBRANCH  16  21
ENDBRANCH   1  11
BRANCH  10  23
ATOM     23  O   UNL     1       6.805   5.320  15.623  1.00  0.00    -0.500 OA
ATOM     24  H   UNL     1       5.993   5.851  15.915  1.00  0.00     0.294 HD
ENDBRANCH  10  23
BRANCH   5  25
ATOM     25  O   UNL     1       6.905  -0.008   9.981  1.00  0.00    -0.507 OA
ATOM     26  H   UNL     1       6.440  -0.907  10.002  1.00  0.00     0.293 HD
ENDBRANCH   5  25
BRANCH   7  27
ATOM     27  O   UNL     1       8.500   0.499  14.498  1.00  0.00    -0.507 OA
ATOM     28  H   UNL     1       8.437   0.837  15.447  1.00  0.00     0.293 HD
ENDBRANCH   7  27
TORSDOF 7
ENDMDL
