MODEL 1
REMARK VINA RESULT:    -8.016      0.000      0.000
REMARK INTER + INTRA:          -8.953
REMARK INTER:                  -9.422
REMARK INTRA:                   0.468
REMARK UNBOUND:                 0.468
REMARK SMILES O=c1c(O)c(-c2ccc(O)cc2)oc2cc(O)cc(O)c12
REMARK SMILES IDX 5 1 3 2 2 3 1 4 21 5 19 6 18 7 16 8 15 9 14 10 13 11 6 12
REMARK SMILES IDX 7 13 8 14 9 15 12 16 11 17 10 18 4 20 20 22 17 24
REMARK H PARENT 10 19 4 21 20 23 17 25
REMARK Flexibility Score: inf
ROOT
ATOM      1  C   UNL     1      15.168  23.425  41.357  1.00  0.00     0.180 A 
ATOM      2  C   UNL     1      15.291  24.394  40.344  1.00  0.00     0.208 A 
ATOM      3  C   UNL     1      16.328  24.271  39.407  1.00  0.00     0.238 A 
ATOM      4  O   UNL     1      16.399  25.111  38.471  1.00  0.00    -0.285 OA
ATOM      5  C   UNL     1      17.240  23.193  39.501  1.00  0.00     0.111 A 
ATOM      6  C   UNL     1      18.352  22.993  38.629  1.00  0.00     0.134 A 
ATOM      7  C   UNL     1      19.110  21.820  38.735  1.00  0.00     0.093 A 
ATOM      8  C   UNL     1      18.838  20.872  39.720  1.00  0.00     0.123 A 
ATOM      9  C   UNL     1      17.789  21.087  40.617  1.00  0.00     0.094 A 
ATOM     10  C   UNL     1      16.993  22.229  40.513  1.00  0.00     0.146 A 
ATOM     11  O   UNL     1      15.999  22.389  41.379  1.00  0.00    -0.452 OA
ENDROOT
BRANCH   1  12
ATOM     12  C   UNL     1      14.116  23.499  42.395  1.00  0.00     0.021 A 
ATOM     13  C   UNL     1      14.239  22.725  43.562  1.00  0.00     0.016 A 
ATOM     14  C   UNL     1      13.269  22.798  44.565  1.00  0.00     0.047 A 
ATOM     15  C   UNL     1      12.171  23.657  44.423  1.00  0.00     0.115 A 
ATOM     16  C   UNL     1      13.022  24.375  42.268  1.00  0.00     0.016 A 
ATOM     17  C   UNL     1      12.052  24.445  43.275  1.00  0.00     0.047 A 
BRANCH  15  18
ATOM     18  O   UNL     1      11.197  23.736  45.416  1.00  0.00    -0.508 OA
ATOM     19  H   UNL     1      11.086  24.569  45.983  1.00  0.00     0.293 HD
ENDBRANCH  15  18
ENDBRANCH   1  12
BRANCH   2  20
ATOM     20  O   UNL     1      14.366  25.439  40.257  1.00  0.00    -0.502 OA
ATOM     21  H   UNL     1      13.974  25.744  39.374  1.00  0.00     0.293 HD
ENDBRANCH   2  20
BRANCH   6  22
ATOM     22  O   UNL     1      18.767  23.920  37.669  1.00  0.00    -0.507 OA
ATOM     23  H   UNL     1      18.865  23.723  36.684  1.00  0.00     0.293 HD
ENDBRANCH   6  22
BRANCH   8  24
ATOM     24  O   UNL     1      19.623  19.725  39.806  1.00  0.00    -0.508 OA
ATOM     25  H   UNL     1      20.628  19.779  39.933  1.00  0.00     0.293 HD
ENDBRANCH   8  24
TORSDOF 5
ENDMDL
MODEL 2
REMARK VINA RESULT:    -7.871     15.556     16.085
REMARK INTER + INTRA:          -8.783
REMARK INTER:                  -9.144
REMARK INTRA:                   0.361
REMARK UNBOUND:                 0.468
REMARK SMILES O=c1c(O)c(-c2ccc(O)cc2)oc2cc(O)cc(O)c12
REMARK SMILES IDX 5 1 3 2 2 3 1 4 21 5 19 6 18 7 16 8 15 9 14 10 13 11 6 12
REMARK SMILES IDX 7 13 8 14 9 15 12 16 11 17 10 18 4 20 20 22 17 24
REMARK H PARENT 10 19 4 21 20 23 17 25
REMARK Flexibility Score: inf
ROOT
ATOM      1  C   UNL     1      24.797  12.052  35.142  1.00  0.00     0.180 A 
ATOM      2  C   UNL     1      25.344  13.069  34.339  1.00  0.00     0.208 A 
ATOM      3  C   UNL     1      26.505  13.728  34.772  1.00  0.00     0.238 A 
ATOM      4  O   UNL     1      27.021  14.599  34.023  1.00  0.00    -0.285 OA
ATOM      5  C   UNL     1      27.096  13.377  36.009  1.00  0.00     0.111 A 
ATOM      6  C   UNL     1      28.249  14.006  36.565  1.00  0.00     0.134 A 
ATOM      7  C   UNL     1      28.824  13.488  37.733  1.00  0.00     0.093 A 
ATOM      8  C   UNL     1      28.250  12.407  38.400  1.00  0.00     0.123 A 
ATOM      9  C   UNL     1      27.086  11.822  37.898  1.00  0.00     0.094 A 
ATOM     10  C   UNL     1      26.511  12.292  36.715  1.00  0.00     0.146 A 
ATOM     11  O   UNL     1      25.412  11.700  36.266  1.00  0.00    -0.452 OA
ENDROOT
BRANCH   1  12
ATOM     12  C   UNL     1      23.562  11.329  34.765  1.00  0.00     0.021 A 
ATOM     13  C   UNL     1      23.262  11.131  33.406  1.00  0.00     0.016 A 
ATOM     14  C   UNL     1      22.114  10.431  33.029  1.00  0.00     0.047 A 
ATOM     15  C   UNL     1      21.257   9.905  34.004  1.00  0.00     0.115 A 
ATOM     16  C   UNL     1      22.707  10.781  35.739  1.00  0.00     0.016 A 
ATOM     17  C   UNL     1      21.558  10.080  35.358  1.00  0.00     0.047 A 
BRANCH  15  18
ATOM     18  O   UNL     1      20.108   9.207  33.640  1.00  0.00    -0.508 OA
ATOM     19  H   UNL     1      19.603   8.633  34.306  1.00  0.00     0.293 HD
ENDBRANCH  15  18
ENDBRANCH   1  12
BRANCH   2  20
ATOM     20  O   UNL     1      24.757  13.385  33.110  1.00  0.00    -0.502 OA
ATOM     21  H   UNL     1      25.277  13.371  32.241  1.00  0.00     0.293 HD
ENDBRANCH   2  20
BRANCH   6  22
ATOM     22  O   UNL     1      28.849  15.150  36.029  1.00  0.00    -0.507 OA
ATOM     23  H   UNL     1      28.889  16.047  36.489  1.00  0.00     0.293 HD
ENDBRANCH   6  22
BRANCH   8  24
ATOM     24  O   UNL     1      28.839  11.929  39.568  1.00  0.00    -0.508 OA
ATOM     25  H   UNL     1      28.860  12.484  40.416  1.00  0.00     0.293 HD
ENDBRANCH   8  24
TORSDOF 5
ENDMDL
MODEL 3
REMARK VINA RESULT:    -7.729      1.336      6.512
REMARK INTER + INTRA:          -8.616
REMARK INTER:                  -8.629
REMARK INTRA:                   0.013
REMARK UNBOUND:                 0.468
REMARK SMILES O=c1c(O)c(-c2ccc(O)cc2)oc2cc(O)cc(O)c12
REMARK SMILES IDX 5 1 3 2 2 3 1 4 21 5 19 6 18 7 16 8 15 9 14 10 13 11 6 12
REMARK SMILES IDX 7 13 8 14 9 15 12 16 11 17 10 18 4 20 20 22 17 24
REMARK H PARENT 10 19 4 21 20 23 17 25
REMARK Flexibility Score: inf
ROOT
ATOM      1  C   UNL     1      15.720  23.222  40.719  1.00  0.00     0.180 A 
ATOM      2  C   UNL     1      15.064  24.402  40.326  1.00  0.00     0.208 A 
ATOM      3  C   UNL     1      14.055  24.926  41.149  1.00  0.00     0.238 A 
ATOM      4  O   UNL     1      13.509  26.012  40.819  1.00  0.00    -0.285 OA
ATOM      5  C   UNL     1      13.702  24.257  42.346  1.00  0.00     0.111 A 
ATOM      6  C   UNL     1      12.668  24.677  43.235  1.00  0.00     0.134 A 
ATOM      7  C   UNL     1      12.495  24.012  44.455  1.00  0.00     0.093 A 
ATOM      8  C   UNL     1      13.273  22.905  44.790  1.00  0.00     0.123 A 
ATOM      9  C   UNL     1      14.247  22.449  43.900  1.00  0.00     0.094 A 
ATOM     10  C   UNL     1      14.469  23.113  42.692  1.00  0.00     0.146 A 
ATOM     11  O   UNL     1      15.413  22.654  41.880  1.00  0.00    -0.452 OA
ENDROOT
BRANCH   1  12
ATOM     12  C   UNL     1      16.776  22.595  39.893  1.00  0.00     0.021 A 
ATOM     13  C   UNL     1      17.898  23.351  39.512  1.00  0.00     0.016 A 
ATOM     14  C   UNL     1      18.918  22.772  38.752  1.00  0.00     0.047 A 
ATOM     15  C   UNL     1      18.837  21.426  38.375  1.00  0.00     0.115 A 
ATOM     16  C   UNL     1      16.712  21.238  39.527  1.00  0.00     0.016 A 
ATOM     17  C   UNL     1      17.735  20.661  38.766  1.00  0.00     0.047 A 
BRANCH  15  18
ATOM     18  O   UNL     1      19.847  20.838  37.615  1.00  0.00    -0.508 OA
ATOM     19  H   UNL     1      20.815  20.856  37.917  1.00  0.00     0.293 HD
ENDBRANCH  15  18
ENDBRANCH   1  12
BRANCH   2  20
ATOM     20  O   UNL     1      15.443  25.058  39.151  1.00  0.00    -0.502 OA
ATOM     21  H   UNL     1      14.913  24.980  38.291  1.00  0.00     0.293 HD
ENDBRANCH   2  20
BRANCH   6  22
ATOM     22  O   UNL     1      11.773  25.715  42.956  1.00  0.00    -0.507 OA
ATOM     23  H   UNL     1      11.988  26.523  42.392  1.00  0.00     0.293 HD
ENDBRANCH   6  22
BRANCH   8  24
ATOM     24  O   UNL     1      13.061  22.259  46.005  1.00  0.00    -0.508 OA
ATOM     25  H   UNL     1      13.650  21.491  46.306  1.00  0.00     0.293 HD
ENDBRANCH   8  24
TORSDOF 5
ENDMDL
MODEL 4
REMARK VINA RESULT:    -7.676     18.042     19.669
REMARK INTER + INTRA:          -8.554
REMARK INTER:                  -9.013
REMARK INTRA:                   0.459
REMARK UNBOUND:                 0.468
REMARK SMILES O=c1c(O)c(-c2ccc(O)cc2)oc2cc(O)cc(O)c12
REMARK SMILES IDX 5 1 3 2 2 3 1 4 21 5 19 6 18 7 16 8 15 9 14 10 13 11 6 12
REMARK SMILES IDX 7 13 8 14 9 15 12 16 11 17 10 18 4 20 20 22 17 24
REMARK H PARENT 10 19 4 21 20 23 17 25
REMARK Flexibility Score: inf
ROOT
ATOM      1  C   UNL     1      30.611  10.741  39.743  1.00  0.00     0.180 A 
ATOM      2  C   UNL     1      30.833   9.571  38.995  1.00  0.00     0.208 A 
ATOM      3  C   UNL     1      30.795   9.643  37.593  1.00  0.00     0.238 A 
ATOM      4  O   UNL     1      31.049   8.604  36.929  1.00  0.00    -0.285 OA
ATOM      5  C   UNL     1      30.520  10.877  36.957  1.00  0.00     0.111 A 
ATOM      6  C   UNL     1      30.418  11.056  35.545  1.00  0.00     0.134 A 
ATOM      7  C   UNL     1      30.273  12.347  35.021  1.00  0.00     0.093 A 
ATOM      8  C   UNL     1      30.160  13.455  35.858  1.00  0.00     0.123 A 
ATOM      9  C   UNL     1      30.198  13.285  37.243  1.00  0.00     0.094 A 
ATOM     10  C   UNL     1      30.380  12.014  37.794  1.00  0.00     0.146 A 
ATOM     11  O   UNL     1      30.421  11.897  39.116  1.00  0.00    -0.452 OA
ENDROOT
BRANCH   1  12
ATOM     12  C   UNL     1      30.611  10.742  41.223  1.00  0.00     0.021 A 
ATOM     13  C   UNL     1      30.034  11.820  41.916  1.00  0.00     0.016 A 
ATOM     14  C   UNL     1      30.002  11.829  43.313  1.00  0.00     0.047 A 
ATOM     15  C   UNL     1      30.533  10.754  44.036  1.00  0.00     0.115 A 
ATOM     16  C   UNL     1      31.124   9.656  41.957  1.00  0.00     0.016 A 
ATOM     17  C   UNL     1      31.090   9.668  43.355  1.00  0.00     0.047 A 
BRANCH  15  18
ATOM     18  O   UNL     1      30.508  10.753  45.429  1.00  0.00    -0.508 OA
ATOM     19  H   UNL     1      29.912  10.117  45.948  1.00  0.00     0.293 HD
ENDBRANCH  15  18
ENDBRANCH   1  12
BRANCH   2  20
ATOM     20  O   UNL     1      31.125   8.368  39.643  1.00  0.00    -0.502 OA
ATOM     21  H   UNL     1      30.837   8.182  40.597  1.00  0.00     0.293 HD
ENDBRANCH   2  20
BRANCH   6  22
ATOM     22  O   UNL     1      30.426  10.005  34.623  1.00  0.00    -0.507 OA
ATOM     23  H   UNL     1      29.822   9.944  33.816  1.00  0.00     0.293 HD
ENDBRANCH   6  22
BRANCH   8  24
ATOM     24  O   UNL     1      30.000  14.722  35.302  1.00  0.00    -0.508 OA
ATOM     25  H   UNL     1      30.016  15.558  35.876  1.00  0.00     0.293 HD
ENDBRANCH   8  24
TORSDOF 5
ENDMDL
MODEL 5
REMARK VINA RESULT:    -7.465      1.570      6.699
REMARK INTER + INTRA:          -8.306
REMARK INTER:                  -8.795
REMARK INTRA:                   0.489
REMARK UNBOUND:                 0.468
REMARK SMILES O=c1c(O)c(-c2ccc(O)cc2)oc2cc(O)cc(O)c12
REMARK SMILES IDX 5 1 3 2 2 3 1 4 21 5 19 6 18 7 16 8 15 9 14 10 13 11 6 12
REMARK SMILES IDX 7 13 8 14 9 15 12 16 11 17 10 18 4 20 20 22 17 24
REMARK H PARENT 10 19 4 21 20 23 17 25
REMARK Flexibility Score: inf
ROOT
ATOM      1  C   UNL     1      18.048  22.408  39.792  1.00  0.00     0.180 A 
ATOM      2  C   UNL     1      17.799  23.514  38.960  1.00  0.00     0.208 A 
ATOM      3  C   UNL     1      16.655  24.294  39.189  1.00  0.00     0.238 A 
ATOM      4  O   UNL     1      16.467  25.315  38.475  1.00  0.00    -0.285 OA
ATOM      5  C   UNL     1      15.764  23.951  40.234  1.00  0.00     0.111 A 
ATOM      6  C   UNL     1      14.554  24.647  40.529  1.00  0.00     0.134 A 
ATOM      7  C   UNL     1      13.818  24.299  41.669  1.00  0.00     0.093 A 
ATOM      8  C   UNL     1      14.211  23.240  42.485  1.00  0.00     0.123 A 
ATOM      9  C   UNL     1      15.361  22.513  42.171  1.00  0.00     0.094 A 
ATOM     10  C   UNL     1      16.136  22.860  41.063  1.00  0.00     0.146 A 
ATOM     11  O   UNL     1      17.229  22.150  40.806  1.00  0.00    -0.452 OA
ENDROOT
BRANCH   1  12
ATOM     12  C   UNL     1      19.219  21.524  39.599  1.00  0.00     0.021 A 
ATOM     13  C   UNL     1      20.326  21.990  38.869  1.00  0.00     0.016 A 
ATOM     14  C   UNL     1      21.451  21.180  38.695  1.00  0.00     0.047 A 
ATOM     15  C   UNL     1      21.492  19.899  39.260  1.00  0.00     0.115 A 
ATOM     16  C   UNL     1      19.275  20.244  40.180  1.00  0.00     0.016 A 
ATOM     17  C   UNL     1      20.403  19.436  40.003  1.00  0.00     0.047 A 
BRANCH  15  18
ATOM     18  O   UNL     1      22.608  19.082  39.091  1.00  0.00    -0.508 OA
ATOM     19  H   UNL     1      23.546  19.424  39.270  1.00  0.00     0.293 HD
ENDBRANCH  15  18
ENDBRANCH   1  12
BRANCH   2  20
ATOM     20  O   UNL     1      18.703  23.848  37.947  1.00  0.00    -0.502 OA
ATOM     21  H   UNL     1      18.520  24.585  37.277  1.00  0.00     0.293 HD
ENDBRANCH   2  20
BRANCH   6  22
ATOM     22  O   UNL     1      14.022  25.661  39.728  1.00  0.00    -0.507 OA
ATOM     23  H   UNL     1      13.783  26.585  40.053  1.00  0.00     0.293 HD
ENDBRANCH   6  22
BRANCH   8  24
ATOM     24  O   UNL     1      13.445  22.911  43.601  1.00  0.00    -0.508 OA
ATOM     25  H   UNL     1      13.329  23.558  44.373  1.00  0.00     0.293 HD
ENDBRANCH   8  24
TORSDOF 5
ENDMDL
MODEL 6
REMARK VINA RESULT:    -7.285      1.313      2.085
REMARK INTER + INTRA:          -8.095
REMARK INTER:                  -7.878
REMARK INTRA:                  -0.216
REMARK UNBOUND:                 0.468
REMARK SMILES O=c1c(O)c(-c2ccc(O)cc2)oc2cc(O)cc(O)c12
REMARK SMILES IDX 5 1 3 2 2 3 1 4 21 5 19 6 18 7 16 8 15 9 14 10 13 11 6 12
REMARK SMILES IDX 7 13 8 14 9 15 12 16 11 17 10 18 4 20 20 22 17 24
REMARK H PARENT 10 19 4 21 20 23 17 25
REMARK Flexibility Score: inf
ROOT
ATOM      1  C   UNL     1      14.024  23.663  42.609  1.00  0.00     0.180 A 
ATOM      2  C   UNL     1      13.792  24.746  41.742  1.00  0.00     0.208 A 
ATOM      3  C   UNL     1      14.576  24.872  40.585  1.00  0.00     0.238 A 
ATOM      4  O   UNL     1      14.326  25.813  39.786  1.00  0.00    -0.285 OA
ATOM      5  C   UNL     1      15.592  23.925  40.314  1.00  0.00     0.111 A 
ATOM      6  C   UNL     1      16.472  23.978  39.192  1.00  0.00     0.134 A 
ATOM      7  C   UNL     1      17.352  22.914  38.954  1.00  0.00     0.093 A 
ATOM      8  C   UNL     1      17.432  21.835  39.832  1.00  0.00     0.123 A 
ATOM      9  C   UNL     1      16.618  21.802  40.966  1.00  0.00     0.094 A 
ATOM     10  C   UNL     1      15.703  22.829  41.210  1.00  0.00     0.146 A 
ATOM     11  O   UNL     1      14.941  22.754  42.293  1.00  0.00    -0.452 OA
ENDROOT
BRANCH   1  12
ATOM     12  C   UNL     1      13.257  23.476  43.860  1.00  0.00     0.021 A 
ATOM     13  C   UNL     1      12.370  22.392  43.974  1.00  0.00     0.016 A 
ATOM     14  C   UNL     1      11.653  22.184  45.155  1.00  0.00     0.047 A 
ATOM     15  C   UNL     1      11.824  23.048  46.244  1.00  0.00     0.115 A 
ATOM     16  C   UNL     1      13.439  24.328  44.966  1.00  0.00     0.016 A 
ATOM     17  C   UNL     1      12.719  24.117  46.147  1.00  0.00     0.047 A 
BRANCH  15  18
ATOM     18  O   UNL     1      11.113  22.851  47.426  1.00  0.00    -0.508 OA
ATOM     19  H   UNL     1      10.106  22.967  47.464  1.00  0.00     0.293 HD
ENDBRANCH  15  18
ENDBRANCH   1  12
BRANCH   2  20
ATOM     20  O   UNL     1      12.769  25.658  42.018  1.00  0.00    -0.502 OA
ATOM     21  H   UNL     1      12.795  26.279  42.818  1.00  0.00     0.293 HD
ENDBRANCH   2  20
BRANCH   6  22
ATOM     22  O   UNL     1      16.539  25.054  38.303  1.00  0.00    -0.507 OA
ATOM     23  H   UNL     1      15.819  25.752  38.190  1.00  0.00     0.293 HD
ENDBRANCH   6  22
BRANCH   8  24
ATOM     24  O   UNL     1      18.331  20.803  39.572  1.00  0.00    -0.508 OA
ATOM     25  H   UNL     1      19.260  20.989  39.209  1.00  0.00     0.293 HD
ENDBRANCH   8  24
TORSDOF 5
ENDMDL
MODEL 7
REMARK VINA RESULT:    -7.276     15.335     16.323
REMARK INTER + INTRA:          -8.084
REMARK INTER:                  -8.431
REMARK INTRA:                   0.347
REMARK UNBOUND:                 0.468
REMARK SMILES O=c1c(O)c(-c2ccc(O)cc2)oc2cc(O)cc(O)c12
REMARK SMILES IDX 5 1 3 2 2 3 1 4 21 5 19 6 18 7 16 8 15 9 14 10 13 11 6 12
REMARK SMILES IDX 7 13 8 14 9 15 12 16 11 17 10 18 4 20 20 22 17 24
REMARK H PARENT 10 19 4 21 20 23 17 25
REMARK Flexibility Score: inf
ROOT
ATOM      1  C   UNL     1      24.777  12.198  35.080  1.00  0.00     0.180 A 
ATOM      2  C   UNL     1      24.568  12.494  33.721  1.00  0.00     0.208 A 
ATOM      3  C   UNL     1      23.592  11.778  33.010  1.00  0.00     0.238 A 
ATOM      4  O   UNL     1      23.372  12.086  31.809  1.00  0.00    -0.285 OA
ATOM      5  C   UNL     1      22.848  10.764  33.660  1.00  0.00     0.111 A 
ATOM      6  C   UNL     1      21.864   9.948  33.026  1.00  0.00     0.134 A 
ATOM      7  C   UNL     1      21.097   9.066  33.798  1.00  0.00     0.093 A 
ATOM      8  C   UNL     1      21.324   8.921  35.166  1.00  0.00     0.123 A 
ATOM      9  C   UNL     1      22.326   9.671  35.785  1.00  0.00     0.094 A 
ATOM     10  C   UNL     1      23.082  10.586  35.049  1.00  0.00     0.146 A 
ATOM     11  O   UNL     1      24.017  11.287  35.678  1.00  0.00    -0.452 OA
ENDROOT
BRANCH   1  12
ATOM     12  C   UNL     1      25.803  12.892  35.889  1.00  0.00     0.021 A 
ATOM     13  C   UNL     1      25.691  12.901  37.290  1.00  0.00     0.016 A 
ATOM     14  C   UNL     1      26.662  13.531  38.074  1.00  0.00     0.047 A 
ATOM     15  C   UNL     1      27.765  14.147  37.469  1.00  0.00     0.115 A 
ATOM     16  C   UNL     1      26.924  13.496  35.290  1.00  0.00     0.016 A 
ATOM     17  C   UNL     1      27.894  14.125  36.077  1.00  0.00     0.047 A 
BRANCH  15  18
ATOM     18  O   UNL     1      28.738  14.779  38.240  1.00  0.00    -0.508 OA
ATOM     19  H   UNL     1      28.841  14.581  39.229  1.00  0.00     0.293 HD
ENDBRANCH  15  18
ENDBRANCH   1  12
BRANCH   2  20
ATOM     20  O   UNL     1      25.298  13.515  33.105  1.00  0.00    -0.502 OA
ATOM     21  H   UNL     1      24.913  14.084  32.360  1.00  0.00     0.293 HD
ENDBRANCH   2  20
BRANCH   6  22
ATOM     22  O   UNL     1      21.620   9.947  31.650  1.00  0.00    -0.507 OA
ATOM     23  H   UNL     1      22.205   9.496  30.963  1.00  0.00     0.293 HD
ENDBRANCH   6  22
BRANCH   8  24
ATOM     24  O   UNL     1      20.554   8.022  35.899  1.00  0.00    -0.508 OA
ATOM     25  H   UNL     1      20.368   8.165  36.885  1.00  0.00     0.293 HD
ENDBRANCH   8  24
TORSDOF 5
ENDMDL
MODEL 8
REMARK VINA RESULT:    -7.255     16.909     19.817
REMARK INTER + INTRA:          -8.059
REMARK INTER:                  -7.912
REMARK INTRA:                  -0.147
REMARK UNBOUND:                 0.468
REMARK SMILES O=c1c(O)c(-c2ccc(O)cc2)oc2cc(O)cc(O)c12
REMARK SMILES IDX 5 1 3 2 2 3 1 4 21 5 19 6 18 7 16 8 15 9 14 10 13 11 6 12
REMARK SMILES IDX 7 13 8 14 9 15 12 16 11 17 10 18 4 20 20 22 17 24
REMARK H PARENT 10 19 4 21 20 23 17 25
REMARK Flexibility Score: inf
ROOT
ATOM      1  C   UNL     1      30.214  11.764  37.821  1.00  0.00     0.180 A 
ATOM      2  C   UNL     1      30.480  12.222  39.124  1.00  0.00     0.208 A 
ATOM      3  C   UNL     1      30.769  11.286  40.128  1.00  0.00     0.238 A 
ATOM      4  O   UNL     1      31.060  11.706  41.280  1.00  0.00    -0.285 OA
ATOM      5  C   UNL     1      30.774   9.903  39.825  1.00  0.00     0.111 A 
ATOM      6  C   UNL     1      31.015   8.865  40.774  1.00  0.00     0.134 A 
ATOM      7  C   UNL     1      31.125   7.540  40.334  1.00  0.00     0.093 A 
ATOM      8  C   UNL     1      30.939   7.207  38.994  1.00  0.00     0.123 A 
ATOM      9  C   UNL     1      30.643   8.208  38.066  1.00  0.00     0.094 A 
ATOM     10  C   UNL     1      30.563   9.543  38.468  1.00  0.00     0.146 A 
ATOM     11  O   UNL     1      30.291  10.465  37.552  1.00  0.00    -0.452 OA
ENDROOT
BRANCH   1  12
ATOM     12  C   UNL     1      29.877  12.687  36.714  1.00  0.00     0.021 A 
ATOM     13  C   UNL     1      30.702  12.736  35.577  1.00  0.00     0.016 A 
ATOM     14  C   UNL     1      30.388  13.584  34.511  1.00  0.00     0.047 A 
ATOM     15  C   UNL     1      29.239  14.382  34.560  1.00  0.00     0.115 A 
ATOM     16  C   UNL     1      28.712  13.477  36.748  1.00  0.00     0.016 A 
ATOM     17  C   UNL     1      28.402  14.324  35.679  1.00  0.00     0.047 A 
BRANCH  15  18
ATOM     18  O   UNL     1      28.917  15.233  33.505  1.00  0.00    -0.508 OA
ATOM     19  H   UNL     1      29.637  15.670  32.939  1.00  0.00     0.293 HD
ENDBRANCH  15  18
ENDBRANCH   1  12
BRANCH   2  20
ATOM     20  O   UNL     1      30.491  13.593  39.397  1.00  0.00    -0.502 OA
ATOM     21  H   UNL     1      30.794  13.966  40.289  1.00  0.00     0.293 HD
ENDBRANCH   2  20
BRANCH   6  22
ATOM     22  O   UNL     1      31.125   9.078  42.151  1.00  0.00    -0.507 OA
ATOM     23  H   UNL     1      30.875   9.934  42.622  1.00  0.00     0.293 HD
ENDBRANCH   6  22
BRANCH   8  24
ATOM     24  O   UNL     1      31.039   5.876  38.596  1.00  0.00    -0.508 OA
ATOM     25  H   UNL     1      31.794   5.282  38.921  1.00  0.00     0.293 HD
ENDBRANCH   8  24
TORSDOF 5
ENDMDL
MODEL 9
REMARK VINA RESULT:    -6.769      1.857      3.534
REMARK INTER + INTRA:          -7.488
REMARK INTER:                  -7.350
REMARK INTRA:                  -0.137
REMARK UNBOUND:                 0.468
REMARK SMILES O=c1c(O)c(-c2ccc(O)cc2)oc2cc(O)cc(O)c12
REMARK SMILES IDX 5 1 3 2 2 3 1 4 21 5 19 6 18 7 16 8 15 9 14 10 13 11 6 12
REMARK SMILES IDX 7 13 8 14 9 15 12 16 11 17 10 18 4 20 20 22 17 24
REMARK H PARENT 10 19 4 21 20 23 17 25
REMARK Flexibility Score: inf
ROOT
ATOM      1  C   UNL     1      16.984  22.236  40.747  1.00  0.00     0.180 A 
ATOM      2  C   UNL     1      17.131  20.863  40.479  1.00  0.00     0.208 A 
ATOM      3  C   UNL     1      18.335  20.403  39.923  1.00  0.00     0.238 A 
ATOM      4  O   UNL     1      18.480  19.166  39.737  1.00  0.00    -0.285 OA
ATOM      5  C   UNL     1      19.371  21.320  39.626  1.00  0.00     0.111 A 
ATOM      6  C   UNL     1      20.616  20.970  39.024  1.00  0.00     0.134 A 
ATOM      7  C   UNL     1      21.619  21.940  38.897  1.00  0.00     0.093 A 
ATOM      8  C   UNL     1      21.399  23.259  39.288  1.00  0.00     0.123 A 
ATOM      9  C   UNL     1      20.162  23.626  39.823  1.00  0.00     0.094 A 
ATOM     10  C   UNL     1      19.156  22.674  39.996  1.00  0.00     0.146 A 
ATOM     11  O   UNL     1      17.999  23.062  40.519  1.00  0.00    -0.452 OA
ENDROOT
BRANCH   1  12
ATOM     12  C   UNL     1      15.737  22.800  41.310  1.00  0.00     0.021 A 
ATOM     13  C   UNL     1      15.364  22.479  42.626  1.00  0.00     0.016 A 
ATOM     14  C   UNL     1      14.202  23.019  43.185  1.00  0.00     0.047 A 
ATOM     15  C   UNL     1      13.406  23.899  42.440  1.00  0.00     0.115 A 
ATOM     16  C   UNL     1      14.943  23.700  40.575  1.00  0.00     0.016 A 
ATOM     17  C   UNL     1      13.781  24.239  41.138  1.00  0.00     0.047 A 
BRANCH  15  18
ATOM     18  O   UNL     1      12.245  24.442  42.986  1.00  0.00    -0.508 OA
ATOM     19  H   UNL     1      11.689  23.931  43.663  1.00  0.00     0.293 HD
ENDBRANCH  15  18
ENDBRANCH   1  12
BRANCH   2  20
ATOM     20  O   UNL     1      16.104  19.971  40.801  1.00  0.00    -0.502 OA
ATOM     21  H   UNL     1      15.779  19.837  41.751  1.00  0.00     0.293 HD
ENDBRANCH   2  20
BRANCH   6  22
ATOM     22  O   UNL     1      20.907  19.701  38.514  1.00  0.00    -0.507 OA
ATOM     23  H   UNL     1      20.219  18.990  38.317  1.00  0.00     0.293 HD
ENDBRANCH   6  22
BRANCH   8  24
ATOM     24  O   UNL     1      22.413  24.201  39.131  1.00  0.00    -0.508 OA
ATOM     25  H   UNL     1      22.674  24.828  39.883  1.00  0.00     0.293 HD
ENDBRANCH   8  24
TORSDOF 5
ENDMDL
