MODEL 1
REMARK VINA RESULT:    -6.976      0.000      0.000
REMARK INTER + INTRA:         -11.672
REMARK INTER:                 -10.238
REMARK INTRA:                  -1.434
REMARK UNBOUND:                -1.434
REMARK SMILES O=c1c(O[C@@H]2O[C@@H](CO)[C@@H](O)[C@@H](O)[C@@H]2O)c(-c2ccc(O)c(O)c2)oc2cc(O)cc(O)c12
REMARK SMILES IDX 4 1 3 2 16 3 25 4 2 5 26 6 1 7 33 8 27 9 31 10 28 11 30 12
REMARK SMILES IDX 17 13 18 14 19 15 20 16 24 17 22 18 21 19 23 21 32 23 29 25
REMARK SMILES IDX 5 27 14 28 6 29 12 30 7 31 10 32 15 33 13 35 8 37 9 38 11 40
REMARK H PARENT 21 20 23 22 32 24 29 26 15 34 13 36 9 39 11 41
REMARK Flexibility Score: inf
ROOT
ATOM      1  O   UNL     1     -37.484   5.066  81.948  1.00  0.00    -0.454 OA
ENDROOT
BRANCH   1   2
ATOM      2  C   UNL     1     -38.359   4.664  80.917  1.00  0.00     0.214 A 
ATOM      3  C   UNL     1     -37.883   4.718  79.595  1.00  0.00     0.180 A 
ATOM      4  O   UNL     1     -38.635   4.275  78.595  1.00  0.00    -0.452 OA
ATOM      5  C   UNL     1     -39.669   4.175  81.137  1.00  0.00     0.239 A 
ATOM      6  C   UNL     1     -39.868   3.818  78.755  1.00  0.00     0.146 A 
ATOM      7  O   UNL     1     -40.097   4.032  82.310  1.00  0.00    -0.285 OA
ATOM      8  C   UNL     1     -40.472   3.793  80.036  1.00  0.00     0.111 A 
ATOM      9  C   UNL     1     -40.559   3.349  77.634  1.00  0.00     0.094 A 
ATOM     10  C   UNL     1     -41.820   3.340  80.141  1.00  0.00     0.134 A 
ATOM     11  C   UNL     1     -41.848   2.838  77.760  1.00  0.00     0.123 A 
ATOM     12  C   UNL     1     -42.473   2.833  79.012  1.00  0.00     0.093 A 
BRANCH   3  13
ATOM     13  C   UNL     1     -36.529   5.224  79.272  1.00  0.00     0.025 A 
ATOM     14  C   UNL     1     -35.377   4.569  79.728  1.00  0.00     0.016 A 
ATOM     15  C   UNL     1     -34.109   5.065  79.413  1.00  0.00     0.051 A 
ATOM     16  C   UNL     1     -33.967   6.232  78.652  1.00  0.00     0.157 A 
ATOM     17  C   UNL     1     -36.391   6.408  78.532  1.00  0.00     0.062 A 
ATOM     18  C   UNL     1     -35.124   6.916  78.214  1.00  0.00     0.158 A 
BRANCH  16  19
ATOM     19  O   UNL     1     -32.674   6.669  78.362  1.00  0.00    -0.504 OA
ATOM     20  H   UNL     1     -31.992   6.910  79.064  1.00  0.00     0.293 HD
ENDBRANCH  16  19
BRANCH  18  21
ATOM     21  O   UNL     1     -35.064   8.097  77.469  1.00  0.00    -0.504 OA
ATOM     22  H   UNL     1     -34.245   8.686  77.405  1.00  0.00     0.293 HD
ENDBRANCH  18  21
ENDBRANCH   3  13
BRANCH  10  23
ATOM     23  O   UNL     1     -42.566   3.400  81.321  1.00  0.00    -0.507 OA
ATOM     24  H   UNL     1     -42.167   3.417  82.246  1.00  0.00     0.293 HD
ENDBRANCH  10  23
BRANCH  11  25
ATOM     25  O   UNL     1     -42.507   2.352  76.635  1.00  0.00    -0.508 OA
ATOM     26  H   UNL     1     -43.518   2.302  76.593  1.00  0.00     0.293 HD
ENDBRANCH  11  25
ENDBRANCH   1   2
BRANCH   1  27
ATOM     27  C   UNL     1     -37.682   6.111  82.909  1.00  0.00     0.339 C 
ATOM     28  C   UNL     1     -36.876   5.816  84.187  1.00  0.00     0.214 C 
ATOM     29  O   UNL     1     -37.353   7.386  82.376  1.00  0.00    -0.332 OA
ATOM     30  C   UNL     1     -35.367   5.954  83.914  1.00  0.00     0.180 C 
ATOM     31  C   UNL     1     -35.987   7.458  82.000  1.00  0.00     0.179 C 
ATOM     32  C   UNL     1     -35.071   7.300  83.234  1.00  0.00     0.177 C 
BRANCH  28  33
ATOM     33  O   UNL     1     -37.171   4.518  84.632  1.00  0.00    -0.384 OA
ATOM     34  H   UNL     1     -37.111   3.921  83.843  1.00  0.00     0.211 HD
ENDBRANCH  28  33
BRANCH  30  35
ATOM     35  O   UNL     1     -34.658   5.857  85.125  1.00  0.00    -0.387 OA
ATOM     36  H   UNL     1     -33.978   5.145  85.002  1.00  0.00     0.211 HD
ENDBRANCH  30  35
BRANCH  31  37
ATOM     37  C   UNL     1     -35.735   8.792  81.291  1.00  0.00     0.191 C 
BRANCH  37  38
ATOM     38  O   UNL     1     -34.370   9.102  81.349  1.00  0.00    -0.394 OA
ATOM     39  H   UNL     1     -33.975   8.486  82.018  1.00  0.00     0.210 HD
ENDBRANCH  37  38
ENDBRANCH  31  37
BRANCH  32  40
ATOM     40  O   UNL     1     -35.301   8.350  84.143  1.00  0.00    -0.387 OA
ATOM     41  H   UNL     1     -34.437   8.565  84.578  1.00  0.00     0.211 HD
ENDBRANCH  32  40
ENDBRANCH   1  27
TORSDOF 12
ENDMDL
MODEL 2
REMARK VINA RESULT:    -6.893      1.171      2.490
REMARK INTER + INTRA:         -11.551
REMARK INTER:                 -10.264
REMARK INTRA:                  -1.287
REMARK UNBOUND:                -1.434
REMARK SMILES O=c1c(O[C@@H]2O[C@@H](CO)[C@@H](O)[C@@H](O)[C@@H]2O)c(-c2ccc(O)c(O)c2)oc2cc(O)cc(O)c12
REMARK SMILES IDX 4 1 3 2 16 3 25 4 2 5 26 6 1 7 33 8 27 9 31 10 28 11 30 12
REMARK SMILES IDX 17 13 18 14 19 15 20 16 24 17 22 18 21 19 23 21 32 23 29 25
REMARK SMILES IDX 5 27 14 28 6 29 12 30 7 31 10 32 15 33 13 35 8 37 9 38 11 40
REMARK H PARENT 21 20 23 22 32 24 29 26 15 34 13 36 9 39 11 41
REMARK Flexibility Score: inf
ROOT
ATOM      1  O   UNL     1     -37.777   5.845  81.410  1.00  0.00    -0.454 OA
ENDROOT
BRANCH   1   2
ATOM      2  C   UNL     1     -38.664   5.242  80.494  1.00  0.00     0.214 A 
ATOM      3  C   UNL     1     -38.312   5.259  79.132  1.00  0.00     0.180 A 
ATOM      4  O   UNL     1     -39.068   4.636  78.238  1.00  0.00    -0.452 OA
ATOM      5  C   UNL     1     -39.864   4.589  80.866  1.00  0.00     0.239 A 
ATOM      6  C   UNL     1     -40.202   4.021  78.542  1.00  0.00     0.146 A 
ATOM      7  O   UNL     1     -40.168   4.479  82.081  1.00  0.00    -0.285 OA
ATOM      8  C   UNL     1     -40.688   4.010  79.871  1.00  0.00     0.111 A 
ATOM      9  C   UNL     1     -40.905   3.371  77.522  1.00  0.00     0.094 A 
ATOM     10  C   UNL     1     -41.940   3.379  80.131  1.00  0.00     0.134 A 
ATOM     11  C   UNL     1     -42.088   2.693  77.801  1.00  0.00     0.123 A 
ATOM     12  C   UNL     1     -42.600   2.697  79.102  1.00  0.00     0.093 A 
BRANCH   3  13
ATOM     13  C   UNL     1     -37.080   5.926  78.653  1.00  0.00     0.025 A 
ATOM     14  C   UNL     1     -35.856   5.244  78.591  1.00  0.00     0.016 A 
ATOM     15  C   UNL     1     -34.706   5.895  78.137  1.00  0.00     0.051 A 
ATOM     16  C   UNL     1     -34.750   7.240  77.752  1.00  0.00     0.157 A 
ATOM     17  C   UNL     1     -37.122   7.282  78.294  1.00  0.00     0.062 A 
ATOM     18  C   UNL     1     -35.973   7.945  77.842  1.00  0.00     0.158 A 
BRANCH  16  19
ATOM     19  O   UNL     1     -33.569   7.829  77.297  1.00  0.00    -0.504 OA
ATOM     20  H   UNL     1     -32.783   8.042  77.891  1.00  0.00     0.293 HD
ENDBRANCH  16  19
BRANCH  18  21
ATOM     21  O   UNL     1     -36.091   9.294  77.496  1.00  0.00    -0.504 OA
ATOM     22  H   UNL     1     -35.488   9.766  76.838  1.00  0.00     0.293 HD
ENDBRANCH  18  21
ENDBRANCH   3  13
BRANCH  10  23
ATOM     23  O   UNL     1     -42.588   3.424  81.368  1.00  0.00    -0.507 OA
ATOM     24  H   UNL     1     -43.341   2.812  81.638  1.00  0.00     0.293 HD
ENDBRANCH  10  23
BRANCH  11  25
ATOM     25  O   UNL     1     -42.757   2.030  76.776  1.00  0.00    -0.508 OA
ATOM     26  H   UNL     1     -42.645   2.304  75.806  1.00  0.00     0.293 HD
ENDBRANCH  11  25
ENDBRANCH   1   2
BRANCH   1  27
ATOM     27  C   UNL     1     -36.501   5.358  81.845  1.00  0.00     0.339 C 
ATOM     28  C   UNL     1     -35.704   6.488  82.521  1.00  0.00     0.214 C 
ATOM     29  O   UNL     1     -36.631   4.234  82.705  1.00  0.00    -0.332 OA
ATOM     30  C   UNL     1     -36.345   6.867  83.868  1.00  0.00     0.180 C 
ATOM     31  C   UNL     1     -37.345   4.562  83.886  1.00  0.00     0.179 C 
ATOM     32  C   UNL     1     -36.572   5.608  84.721  1.00  0.00     0.177 C 
BRANCH  28  33
ATOM     33  O   UNL     1     -35.670   7.604  81.670  1.00  0.00    -0.384 OA
ATOM     34  H   UNL     1     -36.464   7.541  81.080  1.00  0.00     0.211 HD
ENDBRANCH  28  33
BRANCH  30  35
ATOM     35  O   UNL     1     -35.511   7.769  84.551  1.00  0.00    -0.387 OA
ATOM     36  H   UNL     1     -34.577   7.479  84.382  1.00  0.00     0.211 HD
ENDBRANCH  30  35
BRANCH  31  37
ATOM     37  C   UNL     1     -37.588   3.282  84.693  1.00  0.00     0.191 C 
BRANCH  37  38
ATOM     38  O   UNL     1     -36.563   2.364  84.434  1.00  0.00    -0.394 OA
ATOM     39  H   UNL     1     -36.962   1.657  83.865  1.00  0.00     0.210 HD
ENDBRANCH  37  38
ENDBRANCH  31  37
BRANCH  32  40
ATOM     40  O   UNL     1     -35.331   5.080  85.125  1.00  0.00    -0.387 OA
ATOM     41  H   UNL     1     -34.885   5.763  85.689  1.00  0.00     0.211 HD
ENDBRANCH  32  40
ENDBRANCH   1  27
TORSDOF 12
ENDMDL
MODEL 3
REMARK VINA RESULT:    -6.608      2.136      6.354
REMARK INTER + INTRA:         -11.133
REMARK INTER:                  -9.761
REMARK INTRA:                  -1.371
REMARK UNBOUND:                -1.434
REMARK SMILES O=c1c(O[C@@H]2O[C@@H](CO)[C@@H](O)[C@@H](O)[C@@H]2O)c(-c2ccc(O)c(O)c2)oc2cc(O)cc(O)c12
REMARK SMILES IDX 4 1 3 2 16 3 25 4 2 5 26 6 1 7 33 8 27 9 31 10 28 11 30 12
REMARK SMILES IDX 17 13 18 14 19 15 20 16 24 17 22 18 21 19 23 21 32 23 29 25
REMARK SMILES IDX 5 27 14 28 6 29 12 30 7 31 10 32 15 33 13 35 8 37 9 38 11 40
REMARK H PARENT 21 20 23 22 32 24 29 26 15 34 13 36 9 39 11 41
REMARK Flexibility Score: inf
ROOT
ATOM      1  O   UNL     1     -38.023   5.051  81.117  1.00  0.00    -0.454 OA
ENDROOT
BRANCH   1   2
ATOM      2  C   UNL     1     -37.921   5.878  79.979  1.00  0.00     0.214 A 
ATOM      3  C   UNL     1     -38.838   5.671  78.933  1.00  0.00     0.180 A 
ATOM      4  O   UNL     1     -38.840   6.473  77.875  1.00  0.00    -0.452 OA
ATOM      5  C   UNL     1     -36.979   6.926  79.844  1.00  0.00     0.239 A 
ATOM      6  C   UNL     1     -37.970   7.459  77.706  1.00  0.00     0.146 A 
ATOM      7  O   UNL     1     -36.201   7.196  80.794  1.00  0.00    -0.285 OA
ATOM      8  C   UNL     1     -36.956   7.705  78.663  1.00  0.00     0.111 A 
ATOM      9  C   UNL     1     -38.082   8.261  76.566  1.00  0.00     0.094 A 
ATOM     10  C   UNL     1     -36.016   8.746  78.402  1.00  0.00     0.134 A 
ATOM     11  C   UNL     1     -37.206   9.323  76.360  1.00  0.00     0.123 A 
ATOM     12  C   UNL     1     -36.178   9.562  77.278  1.00  0.00     0.093 A 
BRANCH   3  13
ATOM     13  C   UNL     1     -39.852   4.593  78.985  1.00  0.00     0.025 A 
ATOM     14  C   UNL     1     -39.948   3.631  77.969  1.00  0.00     0.016 A 
ATOM     15  C   UNL     1     -40.914   2.623  78.038  1.00  0.00     0.051 A 
ATOM     16  C   UNL     1     -41.811   2.565  79.111  1.00  0.00     0.157 A 
ATOM     17  C   UNL     1     -40.766   4.553  80.048  1.00  0.00     0.062 A 
ATOM     18  C   UNL     1     -41.741   3.550  80.124  1.00  0.00     0.158 A 
BRANCH  16  19
ATOM     19  O   UNL     1     -42.744   1.527  79.127  1.00  0.00    -0.504 OA
ATOM     20  H   UNL     1     -43.740   1.667  79.062  1.00  0.00     0.293 HD
ENDBRANCH  16  19
BRANCH  18  21
ATOM     21  O   UNL     1     -42.615   3.570  81.215  1.00  0.00    -0.504 OA
ATOM     22  H   UNL     1     -43.387   2.929  81.336  1.00  0.00     0.293 HD
ENDBRANCH  18  21
ENDBRANCH   3  13
BRANCH  10  23
ATOM     23  O   UNL     1     -34.894   8.991  79.198  1.00  0.00    -0.507 OA
ATOM     24  H   UNL     1     -34.732   8.568  80.098  1.00  0.00     0.293 HD
ENDBRANCH  10  23
BRANCH  11  25
ATOM     25  O   UNL     1     -37.353  10.124  75.232  1.00  0.00    -0.508 OA
ATOM     26  H   UNL     1     -37.383   9.728  74.299  1.00  0.00     0.293 HD
ENDBRANCH  11  25
ENDBRANCH   1   2
BRANCH   1  27
ATOM     27  C   UNL     1     -37.426   3.765  81.322  1.00  0.00     0.339 C 
ATOM     28  C   UNL     1     -36.279   3.869  82.344  1.00  0.00     0.214 C 
ATOM     29  O   UNL     1     -38.385   2.796  81.723  1.00  0.00    -0.332 OA
ATOM     30  C   UNL     1     -36.836   4.159  83.749  1.00  0.00     0.180 C 
ATOM     31  C   UNL     1     -38.993   3.143  82.957  1.00  0.00     0.179 C 
ATOM     32  C   UNL     1     -37.950   3.158  84.096  1.00  0.00     0.177 C 
BRANCH  28  33
ATOM     33  O   UNL     1     -35.400   4.891  81.951  1.00  0.00    -0.384 OA
ATOM     34  H   UNL     1     -34.551   4.455  81.682  1.00  0.00     0.211 HD
ENDBRANCH  28  33
BRANCH  30  35
ATOM     35  O   UNL     1     -35.799   4.076  84.694  1.00  0.00    -0.387 OA
ATOM     36  H   UNL     1     -35.166   4.814  84.492  1.00  0.00     0.211 HD
ENDBRANCH  30  35
BRANCH  31  37
ATOM     37  C   UNL     1     -40.122   2.151  83.253  1.00  0.00     0.191 C 
BRANCH  37  38
ATOM     38  O   UNL     1     -39.725   0.863  82.871  1.00  0.00    -0.394 OA
ATOM     39  H   UNL     1     -39.486   0.921  81.910  1.00  0.00     0.210 HD
ENDBRANCH  37  38
ENDBRANCH  31  37
BRANCH  32  40
ATOM     40  O   UNL     1     -37.396   1.873  84.259  1.00  0.00    -0.387 OA
ATOM     41  H   UNL     1     -36.474   1.896  83.897  1.00  0.00     0.211 HD
ENDBRANCH  32  40
ENDBRANCH   1  27
TORSDOF 12
ENDMDL
MODEL 4
REMARK VINA RESULT:    -6.531      2.732      4.917
REMARK INTER + INTRA:         -11.019
REMARK INTER:                  -9.113
REMARK INTRA:                  -1.905
REMARK UNBOUND:                -1.434
REMARK SMILES O=c1c(O[C@@H]2O[C@@H](CO)[C@@H](O)[C@@H](O)[C@@H]2O)c(-c2ccc(O)c(O)c2)oc2cc(O)cc(O)c12
REMARK SMILES IDX 4 1 3 2 16 3 25 4 2 5 26 6 1 7 33 8 27 9 31 10 28 11 30 12
REMARK SMILES IDX 17 13 18 14 19 15 20 16 24 17 22 18 21 19 23 21 32 23 29 25
REMARK SMILES IDX 5 27 14 28 6 29 12 30 7 31 10 32 15 33 13 35 8 37 9 38 11 40
REMARK H PARENT 21 20 23 22 32 24 29 26 15 34 13 36 9 39 11 41
REMARK Flexibility Score: inf
ROOT
ATOM      1  O   UNL     1     -36.496   6.332  79.616  1.00  0.00    -0.454 OA
ENDROOT
BRANCH   1   2
ATOM      2  C   UNL     1     -37.511   5.643  80.312  1.00  0.00     0.214 A 
ATOM      3  C   UNL     1     -38.847   5.982  80.029  1.00  0.00     0.180 A 
ATOM      4  O   UNL     1     -39.842   5.310  80.594  1.00  0.00    -0.452 OA
ATOM      5  C   UNL     1     -37.268   4.606  81.245  1.00  0.00     0.239 A 
ATOM      6  C   UNL     1     -39.658   4.340  81.479  1.00  0.00     0.146 A 
ATOM      7  O   UNL     1     -36.092   4.218  81.459  1.00  0.00    -0.285 OA
ATOM      8  C   UNL     1     -38.355   3.972  81.892  1.00  0.00     0.111 A 
ATOM      9  C   UNL     1     -40.780   3.679  81.989  1.00  0.00     0.094 A 
ATOM     10  C   UNL     1     -38.221   2.957  82.885  1.00  0.00     0.134 A 
ATOM     11  C   UNL     1     -40.633   2.639  82.902  1.00  0.00     0.123 A 
ATOM     12  C   UNL     1     -39.356   2.281  83.345  1.00  0.00     0.093 A 
BRANCH   3  13
ATOM     13  C   UNL     1     -39.193   7.059  79.073  1.00  0.00     0.025 A 
ATOM     14  C   UNL     1     -39.733   8.278  79.510  1.00  0.00     0.016 A 
ATOM     15  C   UNL     1     -40.054   9.279  78.590  1.00  0.00     0.051 A 
ATOM     16  C   UNL     1     -39.860   9.079  77.218  1.00  0.00     0.157 A 
ATOM     17  C   UNL     1     -39.023   6.845  77.698  1.00  0.00     0.062 A 
ATOM     18  C   UNL     1     -39.346   7.841  76.766  1.00  0.00     0.158 A 
BRANCH  16  19
ATOM     19  O   UNL     1     -40.190  10.122  76.352  1.00  0.00    -0.504 OA
ATOM     20  H   UNL     1     -41.079  10.595  76.357  1.00  0.00     0.293 HD
ENDBRANCH  16  19
BRANCH  18  21
ATOM     21  O   UNL     1     -39.144   7.558  75.412  1.00  0.00    -0.504 OA
ATOM     22  H   UNL     1     -38.484   6.875  75.067  1.00  0.00     0.293 HD
ENDBRANCH  18  21
ENDBRANCH   3  13
BRANCH  10  23
ATOM     23  O   UNL     1     -37.002   2.607  83.472  1.00  0.00    -0.507 OA
ATOM     24  H   UNL     1     -36.905   2.242  84.406  1.00  0.00     0.293 HD
ENDBRANCH  10  23
BRANCH  11  25
ATOM     25  O   UNL     1     -41.761   1.977  83.376  1.00  0.00    -0.508 OA
ATOM     26  H   UNL     1     -41.902   0.986  83.215  1.00  0.00     0.293 HD
ENDBRANCH  11  25
ENDBRANCH   1   2
BRANCH   1  27
ATOM     27  C   UNL     1     -35.702   7.429  80.083  1.00  0.00     0.339 C 
ATOM     28  C   UNL     1     -34.205   7.079  79.990  1.00  0.00     0.214 C 
ATOM     29  O   UNL     1     -35.995   8.629  79.381  1.00  0.00    -0.332 OA
ATOM     30  C   UNL     1     -33.762   7.006  78.518  1.00  0.00     0.180 C 
ATOM     31  C   UNL     1     -35.709   8.505  77.997  1.00  0.00     0.179 C 
ATOM     32  C   UNL     1     -34.199   8.274  77.768  1.00  0.00     0.177 C 
BRANCH  28  33
ATOM     33  O   UNL     1     -33.977   5.850  80.627  1.00  0.00    -0.384 OA
ATOM     34  H   UNL     1     -33.283   6.006  81.318  1.00  0.00     0.211 HD
ENDBRANCH  28  33
BRANCH  30  35
ATOM     35  O   UNL     1     -32.365   6.862  78.453  1.00  0.00    -0.387 OA
ATOM     36  H   UNL     1     -32.030   6.896  79.387  1.00  0.00     0.211 HD
ENDBRANCH  30  35
BRANCH  31  37
ATOM     37  C   UNL     1     -36.192   9.766  77.274  1.00  0.00     0.191 C 
BRANCH  37  38
ATOM     38  O   UNL     1     -35.295  10.089  76.247  1.00  0.00    -0.394 OA
ATOM     39  H   UNL     1     -34.730  10.826  76.596  1.00  0.00     0.210 HD
ENDBRANCH  37  38
ENDBRANCH  31  37
BRANCH  32  40
ATOM     40  O   UNL     1     -33.465   9.379  78.240  1.00  0.00    -0.387 OA
ATOM     41  H   UNL     1     -33.168   9.901  77.451  1.00  0.00     0.211 HD
ENDBRANCH  32  40
ENDBRANCH   1  27
TORSDOF 12
ENDMDL
MODEL 5
REMARK VINA RESULT:    -6.524      1.230      2.221
REMARK INTER + INTRA:         -11.009
REMARK INTER:                 -10.667
REMARK INTRA:                  -0.342
REMARK UNBOUND:                -1.434
REMARK SMILES O=c1c(O[C@@H]2O[C@@H](CO)[C@@H](O)[C@@H](O)[C@@H]2O)c(-c2ccc(O)c(O)c2)oc2cc(O)cc(O)c12
REMARK SMILES IDX 4 1 3 2 16 3 25 4 2 5 26 6 1 7 33 8 27 9 31 10 28 11 30 12
REMARK SMILES IDX 17 13 18 14 19 15 20 16 24 17 22 18 21 19 23 21 32 23 29 25
REMARK SMILES IDX 5 27 14 28 6 29 12 30 7 31 10 32 15 33 13 35 8 37 9 38 11 40
REMARK H PARENT 21 20 23 22 32 24 29 26 15 34 13 36 9 39 11 41
REMARK Flexibility Score: inf
ROOT
ATOM      1  O   UNL     1     -37.641   5.285  81.920  1.00  0.00    -0.454 OA
ENDROOT
BRANCH   1   2
ATOM      2  C   UNL     1     -38.494   4.827  80.894  1.00  0.00     0.214 A 
ATOM      3  C   UNL     1     -38.004   4.847  79.576  1.00  0.00     0.180 A 
ATOM      4  O   UNL     1     -38.732   4.352  78.583  1.00  0.00    -0.452 OA
ATOM      5  C   UNL     1     -39.794   4.313  81.116  1.00  0.00     0.239 A 
ATOM      6  C   UNL     1     -39.956   3.870  78.746  1.00  0.00     0.146 A 
ATOM      7  O   UNL     1     -40.232   4.199  82.289  1.00  0.00    -0.285 OA
ATOM      8  C   UNL     1     -40.574   3.874  80.020  1.00  0.00     0.111 A 
ATOM      9  C   UNL     1     -40.622   3.347  77.634  1.00  0.00     0.094 A 
ATOM     10  C   UNL     1     -41.912   3.391  80.126  1.00  0.00     0.134 A 
ATOM     11  C   UNL     1     -41.899   2.809  77.763  1.00  0.00     0.123 A 
ATOM     12  C   UNL     1     -42.538   2.831  79.007  1.00  0.00     0.093 A 
BRANCH   3  13
ATOM     13  C   UNL     1     -36.659   5.376  79.251  1.00  0.00     0.025 A 
ATOM     14  C   UNL     1     -36.490   6.652  78.695  1.00  0.00     0.016 A 
ATOM     15  C   UNL     1     -35.212   7.129  78.395  1.00  0.00     0.051 A 
ATOM     16  C   UNL     1     -34.080   6.338  78.627  1.00  0.00     0.157 A 
ATOM     17  C   UNL     1     -35.530   4.570  79.460  1.00  0.00     0.062 A 
ATOM     18  C   UNL     1     -34.244   5.037  79.158  1.00  0.00     0.158 A 
BRANCH  16  19
ATOM     19  O   UNL     1     -32.831   6.877  78.316  1.00  0.00    -0.504 OA
ATOM     20  H   UNL     1     -31.960   6.522  78.679  1.00  0.00     0.293 HD
ENDBRANCH  16  19
BRANCH  18  21
ATOM     21  O   UNL     1     -33.165   4.181  79.397  1.00  0.00    -0.504 OA
ATOM     22  H   UNL     1     -33.252   3.184  79.534  1.00  0.00     0.293 HD
ENDBRANCH  18  21
ENDBRANCH   3  13
BRANCH  10  23
ATOM     23  O   UNL     1     -42.673   3.472  81.295  1.00  0.00    -0.507 OA
ATOM     24  H   UNL     1     -43.143   4.306  81.610  1.00  0.00     0.293 HD
ENDBRANCH  10  23
BRANCH  11  25
ATOM     25  O   UNL     1     -42.533   2.268  76.648  1.00  0.00    -0.508 OA
ATOM     26  H   UNL     1     -42.231   2.492  75.706  1.00  0.00     0.293 HD
ENDBRANCH  11  25
ENDBRANCH   1   2
BRANCH   1  27
ATOM     27  C   UNL     1     -36.900   6.511  81.962  1.00  0.00     0.339 C 
ATOM     28  C   UNL     1     -37.630   7.542  82.842  1.00  0.00     0.214 C 
ATOM     29  O   UNL     1     -35.567   6.305  82.409  1.00  0.00    -0.332 OA
ATOM     30  C   UNL     1     -37.577   7.120  84.321  1.00  0.00     0.180 C 
ATOM     31  C   UNL     1     -35.533   5.786  83.728  1.00  0.00     0.179 C 
ATOM     32  C   UNL     1     -36.131   6.797  84.730  1.00  0.00     0.177 C 
BRANCH  28  33
ATOM     33  O   UNL     1     -38.962   7.653  82.416  1.00  0.00    -0.384 OA
ATOM     34  H   UNL     1     -39.534   7.444  83.199  1.00  0.00     0.211 HD
ENDBRANCH  28  33
BRANCH  30  35
ATOM     35  O   UNL     1     -38.089   8.153  85.125  1.00  0.00    -0.387 OA
ATOM     36  H   UNL     1     -38.350   7.741  85.989  1.00  0.00     0.211 HD
ENDBRANCH  30  35
BRANCH  31  37
ATOM     37  C   UNL     1     -34.085   5.439  84.090  1.00  0.00     0.191 C 
BRANCH  37  38
ATOM     38  O   UNL     1     -33.849   4.083  83.828  1.00  0.00    -0.394 OA
ATOM     39  H   UNL     1     -34.653   3.597  84.145  1.00  0.00     0.210 HD
ENDBRANCH  37  38
ENDBRANCH  31  37
BRANCH  32  40
ATOM     40  O   UNL     1     -35.367   7.980  84.736  1.00  0.00    -0.387 OA
ATOM     41  H   UNL     1     -34.656   7.874  85.419  1.00  0.00     0.211 HD
ENDBRANCH  32  40
ENDBRANCH   1  27
TORSDOF 12
ENDMDL
MODEL 6
REMARK VINA RESULT:    -6.507      3.325      5.876
REMARK INTER + INTRA:         -10.985
REMARK INTER:                  -9.103
REMARK INTRA:                  -1.882
REMARK UNBOUND:                -1.434
REMARK SMILES O=c1c(O[C@@H]2O[C@@H](CO)[C@@H](O)[C@@H](O)[C@@H]2O)c(-c2ccc(O)c(O)c2)oc2cc(O)cc(O)c12
REMARK SMILES IDX 4 1 3 2 16 3 25 4 2 5 26 6 1 7 33 8 27 9 31 10 28 11 30 12
REMARK SMILES IDX 17 13 18 14 19 15 20 16 24 17 22 18 21 19 23 21 32 23 29 25
REMARK SMILES IDX 5 27 14 28 6 29 12 30 7 31 10 32 15 33 13 35 8 37 9 38 11 40
REMARK H PARENT 21 20 23 22 32 24 29 26 15 34 13 36 9 39 11 41
REMARK Flexibility Score: inf
ROOT
ATOM      1  O   UNL     1     -36.930   6.776  79.322  1.00  0.00    -0.454 OA
ENDROOT
BRANCH   1   2
ATOM      2  C   UNL     1     -38.223   7.248  79.015  1.00  0.00     0.214 A 
ATOM      3  C   UNL     1     -39.279   6.867  79.863  1.00  0.00     0.180 A 
ATOM      4  O   UNL     1     -40.500   7.348  79.669  1.00  0.00    -0.452 OA
ATOM      5  C   UNL     1     -38.515   8.112  77.932  1.00  0.00     0.239 A 
ATOM      6  C   UNL     1     -40.817   8.150  78.663  1.00  0.00     0.146 A 
ATOM      7  O   UNL     1     -37.584   8.542  77.204  1.00  0.00    -0.285 OA
ATOM      8  C   UNL     1     -39.847   8.534  77.707  1.00  0.00     0.111 A 
ATOM      9  C   UNL     1     -42.131   8.621  78.572  1.00  0.00     0.094 A 
ATOM     10  C   UNL     1     -40.257   9.357  76.616  1.00  0.00     0.134 A 
ATOM     11  C   UNL     1     -42.502   9.485  77.545  1.00  0.00     0.123 A 
ATOM     12  C   UNL     1     -41.565   9.850  76.573  1.00  0.00     0.093 A 
BRANCH   3  13
ATOM     13  C   UNL     1     -39.066   5.960  81.015  1.00  0.00     0.025 A 
ATOM     14  C   UNL     1     -38.767   6.458  82.291  1.00  0.00     0.016 A 
ATOM     15  C   UNL     1     -38.569   5.584  83.363  1.00  0.00     0.051 A 
ATOM     16  C   UNL     1     -38.649   4.198  83.180  1.00  0.00     0.157 A 
ATOM     17  C   UNL     1     -39.121   4.572  80.822  1.00  0.00     0.062 A 
ATOM     18  C   UNL     1     -38.919   3.686  81.889  1.00  0.00     0.158 A 
BRANCH  16  19
ATOM     19  O   UNL     1     -38.452   3.379  84.293  1.00  0.00    -0.504 OA
ATOM     20  H   UNL     1     -37.686   3.485  84.939  1.00  0.00     0.293 HD
ENDBRANCH  16  19
BRANCH  18  21
ATOM     21  O   UNL     1     -38.994   2.316  81.623  1.00  0.00    -0.504 OA
ATOM     22  H   UNL     1     -38.812   1.595  82.307  1.00  0.00     0.293 HD
ENDBRANCH  18  21
ENDBRANCH   3  13
BRANCH  10  23
ATOM     23  O   UNL     1     -39.428   9.684  75.540  1.00  0.00    -0.507 OA
ATOM     24  H   UNL     1     -38.533   9.258  75.362  1.00  0.00     0.293 HD
ENDBRANCH  10  23
BRANCH  11  25
ATOM     25  O   UNL     1     -43.808   9.962  77.489  1.00  0.00    -0.508 OA
ATOM     26  H   UNL     1     -44.009  10.954  77.435  1.00  0.00     0.293 HD
ENDBRANCH  11  25
ENDBRANCH   1   2
BRANCH   1  27
ATOM     27  C   UNL     1     -36.243   5.660  78.743  1.00  0.00     0.339 C 
ATOM     28  C   UNL     1     -34.928   6.124  78.091  1.00  0.00     0.214 C 
ATOM     29  O   UNL     1     -36.011   4.632  79.696  1.00  0.00    -0.332 OA
ATOM     30  C   UNL     1     -33.919   6.558  79.170  1.00  0.00     0.180 C 
ATOM     31  C   UNL     1     -35.188   5.084  80.760  1.00  0.00     0.179 C 
ATOM     32  C   UNL     1     -33.784   5.464  80.242  1.00  0.00     0.177 C 
BRANCH  28  33
ATOM     33  O   UNL     1     -35.194   7.191  77.220  1.00  0.00    -0.384 OA
ATOM     34  H   UNL     1     -36.097   7.533  77.448  1.00  0.00     0.211 HD
ENDBRANCH  28  33
BRANCH  30  35
ATOM     35  O   UNL     1     -32.670   6.808  78.574  1.00  0.00    -0.387 OA
ATOM     36  H   UNL     1     -32.291   5.926  78.323  1.00  0.00     0.211 HD
ENDBRANCH  30  35
BRANCH  31  37
ATOM     37  C   UNL     1     -35.106   3.988  81.827  1.00  0.00     0.191 C 
BRANCH  37  38
ATOM     38  O   UNL     1     -33.785   3.870  82.276  1.00  0.00    -0.394 OA
ATOM     39  H   UNL     1     -33.638   4.626  82.902  1.00  0.00     0.210 HD
ENDBRANCH  37  38
ENDBRANCH  31  37
BRANCH  32  40
ATOM     40  O   UNL     1     -33.152   4.335  79.687  1.00  0.00    -0.387 OA
ATOM     41  H   UNL     1     -33.755   3.559  79.819  1.00  0.00     0.211 HD
ENDBRANCH  32  40
ENDBRANCH   1  27
TORSDOF 12
ENDMDL
MODEL 7
REMARK VINA RESULT:    -6.486      1.367      2.067
REMARK INTER + INTRA:         -10.953
REMARK INTER:                  -9.920
REMARK INTRA:                  -1.034
REMARK UNBOUND:                -1.434
REMARK SMILES O=c1c(O[C@@H]2O[C@@H](CO)[C@@H](O)[C@@H](O)[C@@H]2O)c(-c2ccc(O)c(O)c2)oc2cc(O)cc(O)c12
REMARK SMILES IDX 4 1 3 2 16 3 25 4 2 5 26 6 1 7 33 8 27 9 31 10 28 11 30 12
REMARK SMILES IDX 17 13 18 14 19 15 20 16 24 17 22 18 21 19 23 21 32 23 29 25
REMARK SMILES IDX 5 27 14 28 6 29 12 30 7 31 10 32 15 33 13 35 8 37 9 38 11 40
REMARK H PARENT 21 20 23 22 32 24 29 26 15 34 13 36 9 39 11 41
REMARK Flexibility Score: inf
ROOT
ATOM      1  O   UNL     1     -37.698   5.246  81.898  1.00  0.00    -0.454 OA
ENDROOT
BRANCH   1   2
ATOM      2  C   UNL     1     -38.537   4.787  80.861  1.00  0.00     0.214 A 
ATOM      3  C   UNL     1     -38.024   4.795  79.551  1.00  0.00     0.180 A 
ATOM      4  O   UNL     1     -38.739   4.299  78.550  1.00  0.00    -0.452 OA
ATOM      5  C   UNL     1     -39.844   4.284  81.064  1.00  0.00     0.239 A 
ATOM      6  C   UNL     1     -39.970   3.826  78.695  1.00  0.00     0.146 A 
ATOM      7  O   UNL     1     -40.303   4.182  82.230  1.00  0.00    -0.285 OA
ATOM      8  C   UNL     1     -40.609   3.843  79.958  1.00  0.00     0.111 A 
ATOM      9  C   UNL     1     -40.620   3.300  77.575  1.00  0.00     0.094 A 
ATOM     10  C   UNL     1     -41.952   3.371  80.044  1.00  0.00     0.134 A 
ATOM     11  C   UNL     1     -41.903   2.772  77.687  1.00  0.00     0.123 A 
ATOM     12  C   UNL     1     -42.563   2.807  78.919  1.00  0.00     0.093 A 
BRANCH   3  13
ATOM     13  C   UNL     1     -36.670   5.312  79.245  1.00  0.00     0.025 A 
ATOM     14  C   UNL     1     -36.487   6.468  78.474  1.00  0.00     0.016 A 
ATOM     15  C   UNL     1     -35.200   6.936  78.197  1.00  0.00     0.051 A 
ATOM     16  C   UNL     1     -34.072   6.252  78.668  1.00  0.00     0.157 A 
ATOM     17  C   UNL     1     -35.544   4.609  79.696  1.00  0.00     0.062 A 
ATOM     18  C   UNL     1     -34.248   5.067  79.420  1.00  0.00     0.158 A 
BRANCH  16  19
ATOM     19  O   UNL     1     -32.816   6.777  78.366  1.00  0.00    -0.504 OA
ATOM     20  H   UNL     1     -32.437   7.608  78.792  1.00  0.00     0.293 HD
ENDBRANCH  16  19
BRANCH  18  21
ATOM     21  O   UNL     1     -33.173   4.318  79.906  1.00  0.00    -0.504 OA
ATOM     22  H   UNL     1     -33.127   3.931  80.838  1.00  0.00     0.293 HD
ENDBRANCH  18  21
ENDBRANCH   3  13
BRANCH  10  23
ATOM     23  O   UNL     1     -42.732   3.466  81.200  1.00  0.00    -0.507 OA
ATOM     24  H   UNL     1     -43.131   4.323  81.547  1.00  0.00     0.293 HD
ENDBRANCH  10  23
BRANCH  11  25
ATOM     25  O   UNL     1     -42.522   2.228  76.565  1.00  0.00    -0.508 OA
ATOM     26  H   UNL     1     -42.028   1.603  75.937  1.00  0.00     0.293 HD
ENDBRANCH  11  25
ENDBRANCH   1   2
BRANCH   1  27
ATOM     27  C   UNL     1     -37.959   6.297  82.837  1.00  0.00     0.339 C 
ATOM     28  C   UNL     1     -36.640   6.967  83.264  1.00  0.00     0.214 C 
ATOM     29  O   UNL     1     -38.876   7.250  82.319  1.00  0.00    -0.332 OA
ATOM     30  C   UNL     1     -36.040   7.766  82.093  1.00  0.00     0.180 C 
ATOM     31  C   UNL     1     -38.368   7.885  81.157  1.00  0.00     0.179 C 
ATOM     32  C   UNL     1     -37.100   8.702  81.490  1.00  0.00     0.177 C 
BRANCH  28  33
ATOM     33  O   UNL     1     -35.737   5.982  83.692  1.00  0.00    -0.384 OA
ATOM     34  H   UNL     1     -34.854   6.422  83.789  1.00  0.00     0.211 HD
ENDBRANCH  28  33
BRANCH  30  35
ATOM     35  O   UNL     1     -34.938   8.512  82.547  1.00  0.00    -0.387 OA
ATOM     36  H   UNL     1     -34.902   9.335  81.993  1.00  0.00     0.211 HD
ENDBRANCH  30  35
BRANCH  31  37
ATOM     37  C   UNL     1     -39.460   8.779  80.559  1.00  0.00     0.191 C 
BRANCH  37  38
ATOM     38  O   UNL     1     -38.869   9.800  79.806  1.00  0.00    -0.394 OA
ATOM     39  H   UNL     1     -37.892   9.732  79.966  1.00  0.00     0.210 HD
ENDBRANCH  37  38
ENDBRANCH  31  37
BRANCH  32  40
ATOM     40  O   UNL     1     -37.410   9.721  82.411  1.00  0.00    -0.387 OA
ATOM     41  H   UNL     1     -36.577   9.948  82.898  1.00  0.00     0.211 HD
ENDBRANCH  32  40
ENDBRANCH   1  27
TORSDOF 12
ENDMDL
MODEL 8
REMARK VINA RESULT:    -6.402      2.507      4.856
REMARK INTER + INTRA:         -10.830
REMARK INTER:                  -8.801
REMARK INTRA:                  -2.029
REMARK UNBOUND:                -1.434
REMARK SMILES O=c1c(O[C@@H]2O[C@@H](CO)[C@@H](O)[C@@H](O)[C@@H]2O)c(-c2ccc(O)c(O)c2)oc2cc(O)cc(O)c12
REMARK SMILES IDX 4 1 3 2 16 3 25 4 2 5 26 6 1 7 33 8 27 9 31 10 28 11 30 12
REMARK SMILES IDX 17 13 18 14 19 15 20 16 24 17 22 18 21 19 23 21 32 23 29 25
REMARK SMILES IDX 5 27 14 28 6 29 12 30 7 31 10 32 15 33 13 35 8 37 9 38 11 40
REMARK H PARENT 21 20 23 22 32 24 29 26 15 34 13 36 9 39 11 41
REMARK Flexibility Score: inf
ROOT
ATOM      1  O   UNL     1     -38.214   6.380  79.845  1.00  0.00    -0.454 OA
ENDROOT
BRANCH   1   2
ATOM      2  C   UNL     1     -38.227   5.292  80.743  1.00  0.00     0.214 A 
ATOM      3  C   UNL     1     -36.990   4.814  81.212  1.00  0.00     0.180 A 
ATOM      4  O   UNL     1     -36.947   3.848  82.120  1.00  0.00    -0.452 OA
ATOM      5  C   UNL     1     -39.408   4.681  81.230  1.00  0.00     0.239 A 
ATOM      6  C   UNL     1     -38.027   3.243  82.595  1.00  0.00     0.146 A 
ATOM      7  O   UNL     1     -40.532   5.137  80.901  1.00  0.00    -0.285 OA
ATOM      8  C   UNL     1     -39.318   3.595  82.133  1.00  0.00     0.111 A 
ATOM      9  C   UNL     1     -37.865   2.256  83.572  1.00  0.00     0.094 A 
ATOM     10  C   UNL     1     -40.439   2.875  82.640  1.00  0.00     0.134 A 
ATOM     11  C   UNL     1     -38.973   1.612  84.116  1.00  0.00     0.123 A 
ATOM     12  C   UNL     1     -40.255   1.924  83.650  1.00  0.00     0.093 A 
BRANCH   3  13
ATOM     13  C   UNL     1     -35.705   5.388  80.750  1.00  0.00     0.025 A 
ATOM     14  C   UNL     1     -34.938   4.757  79.760  1.00  0.00     0.016 A 
ATOM     15  C   UNL     1     -33.728   5.316  79.341  1.00  0.00     0.051 A 
ATOM     16  C   UNL     1     -33.252   6.503  79.911  1.00  0.00     0.157 A 
ATOM     17  C   UNL     1     -35.220   6.563  81.342  1.00  0.00     0.062 A 
ATOM     18  C   UNL     1     -34.005   7.129  80.932  1.00  0.00     0.158 A 
BRANCH  16  19
ATOM     19  O   UNL     1     -32.042   7.015  79.440  1.00  0.00    -0.504 OA
ATOM     20  H   UNL     1     -31.945   7.923  79.013  1.00  0.00     0.293 HD
ENDBRANCH  16  19
BRANCH  18  21
ATOM     21  O   UNL     1     -33.586   8.303  81.563  1.00  0.00    -0.504 OA
ATOM     22  H   UNL     1     -34.094   8.759  82.309  1.00  0.00     0.293 HD
ENDBRANCH  18  21
ENDBRANCH   3  13
BRANCH  10  23
ATOM     23  O   UNL     1     -41.742   3.034  82.161  1.00  0.00    -0.507 OA
ATOM     24  H   UNL     1     -41.998   2.992  81.187  1.00  0.00     0.293 HD
ENDBRANCH  10  23
BRANCH  11  25
ATOM     25  O   UNL     1     -38.791   0.652  85.107  1.00  0.00    -0.508 OA
ATOM     26  H   UNL     1     -38.593  -0.315  84.878  1.00  0.00     0.293 HD
ENDBRANCH  11  25
ENDBRANCH   1   2
BRANCH   1  27
ATOM     27  C   UNL     1     -38.354   6.342  78.419  1.00  0.00     0.339 C 
ATOM     28  C   UNL     1     -39.485   7.285  77.971  1.00  0.00     0.214 C 
ATOM     29  O   UNL     1     -37.133   6.653  77.762  1.00  0.00    -0.332 OA
ATOM     30  C   UNL     1     -39.076   8.753  78.184  1.00  0.00     0.180 C 
ATOM     31  C   UNL     1     -36.693   7.965  78.074  1.00  0.00     0.179 C 
ATOM     32  C   UNL     1     -37.698   9.017  77.555  1.00  0.00     0.177 C 
BRANCH  28  33
ATOM     33  O   UNL     1     -40.647   6.994  78.702  1.00  0.00    -0.384 OA
ATOM     34  H   UNL     1     -40.518   6.098  79.106  1.00  0.00     0.211 HD
ENDBRANCH  28  33
BRANCH  30  35
ATOM     35  O   UNL     1     -40.040   9.599  77.609  1.00  0.00    -0.387 OA
ATOM     36  H   UNL     1     -40.141   9.317  76.662  1.00  0.00     0.211 HD
ENDBRANCH  30  35
BRANCH  31  37
ATOM     37  C   UNL     1     -35.303   8.182  77.468  1.00  0.00     0.191 C 
BRANCH  37  38
ATOM     38  O   UNL     1     -35.176   9.514  77.054  1.00  0.00    -0.394 OA
ATOM     39  H   UNL     1     -34.289   9.820  77.378  1.00  0.00     0.210 HD
ENDBRANCH  37  38
ENDBRANCH  31  37
BRANCH  32  40
ATOM     40  O   UNL     1     -37.796   8.941  76.153  1.00  0.00    -0.387 OA
ATOM     41  H   UNL     1     -37.419   8.067  75.873  1.00  0.00     0.211 HD
ENDBRANCH  32  40
ENDBRANCH   1  27
TORSDOF 12
ENDMDL
MODEL 9
REMARK VINA RESULT:    -6.285      2.735      5.732
REMARK INTER + INTRA:         -10.659
REMARK INTER:                  -8.598
REMARK INTRA:                  -2.061
REMARK UNBOUND:                -1.434
REMARK SMILES O=c1c(O[C@@H]2O[C@@H](CO)[C@@H](O)[C@@H](O)[C@@H]2O)c(-c2ccc(O)c(O)c2)oc2cc(O)cc(O)c12
REMARK SMILES IDX 4 1 3 2 16 3 25 4 2 5 26 6 1 7 33 8 27 9 31 10 28 11 30 12
REMARK SMILES IDX 17 13 18 14 19 15 20 16 24 17 22 18 21 19 23 21 32 23 29 25
REMARK SMILES IDX 5 27 14 28 6 29 12 30 7 31 10 32 15 33 13 35 8 37 9 38 11 40
REMARK H PARENT 21 20 23 22 32 24 29 26 15 34 13 36 9 39 11 41
REMARK Flexibility Score: inf
ROOT
ATOM      1  O   UNL     1     -36.207   6.609  81.567  1.00  0.00    -0.454 OA
ENDROOT
BRANCH   1   2
ATOM      2  C   UNL     1     -37.011   6.951  80.460  1.00  0.00     0.214 A 
ATOM      3  C   UNL     1     -38.325   6.450  80.424  1.00  0.00     0.180 A 
ATOM      4  O   UNL     1     -39.151   6.807  79.448  1.00  0.00    -0.452 OA
ATOM      5  C   UNL     1     -36.589   7.797  79.406  1.00  0.00     0.239 A 
ATOM      6  C   UNL     1     -38.794   7.588  78.439  1.00  0.00     0.146 A 
ATOM      7  O   UNL     1     -35.452   8.331  79.447  1.00  0.00    -0.285 OA
ATOM      8  C   UNL     1     -37.472   8.084  78.337  1.00  0.00     0.111 A 
ATOM      9  C   UNL     1     -39.755   7.923  77.480  1.00  0.00     0.094 A 
ATOM     10  C   UNL     1     -37.130   8.878  77.202  1.00  0.00     0.134 A 
ATOM     11  C   UNL     1     -39.430   8.761  76.417  1.00  0.00     0.123 A 
ATOM     12  C   UNL     1     -38.121   9.236  76.282  1.00  0.00     0.093 A 
BRANCH   3  13
ATOM     13  C   UNL     1     -38.847   5.552  81.479  1.00  0.00     0.025 A 
ATOM     14  C   UNL     1     -39.376   6.059  82.675  1.00  0.00     0.016 A 
ATOM     15  C   UNL     1     -39.862   5.193  83.657  1.00  0.00     0.051 A 
ATOM     16  C   UNL     1     -39.815   3.806  83.475  1.00  0.00     0.157 A 
ATOM     17  C   UNL     1     -38.774   4.162  81.304  1.00  0.00     0.062 A 
ATOM     18  C   UNL     1     -39.254   3.285  82.285  1.00  0.00     0.158 A 
BRANCH  16  19
ATOM     19  O   UNL     1     -40.326   2.995  84.489  1.00  0.00    -0.504 OA
ATOM     20  H   UNL     1     -41.021   2.281  84.340  1.00  0.00     0.293 HD
ENDBRANCH  16  19
BRANCH  18  21
ATOM     21  O   UNL     1     -39.152   1.912  82.040  1.00  0.00    -0.504 OA
ATOM     22  H   UNL     1     -39.823   1.380  81.503  1.00  0.00     0.293 HD
ENDBRANCH  18  21
ENDBRANCH   3  13
BRANCH  10  23
ATOM     23  O   UNL     1     -35.830   9.305  76.921  1.00  0.00    -0.507 OA
ATOM     24  H   UNL     1     -35.599  10.012  76.241  1.00  0.00     0.293 HD
ENDBRANCH  10  23
BRANCH  11  25
ATOM     25  O   UNL     1     -40.409   9.103  75.489  1.00  0.00    -0.508 OA
ATOM     26  H   UNL     1     -40.191   9.653  74.665  1.00  0.00     0.293 HD
ENDBRANCH  11  25
ENDBRANCH   1   2
BRANCH   1  27
ATOM     27  C   UNL     1     -35.244   5.551  81.658  1.00  0.00     0.339 C 
ATOM     28  C   UNL     1     -33.881   6.111  82.104  1.00  0.00     0.214 C 
ATOM     29  O   UNL     1     -35.682   4.513  82.525  1.00  0.00    -0.332 OA
ATOM     30  C   UNL     1     -33.944   6.574  83.570  1.00  0.00     0.180 C 
ATOM     31  C   UNL     1     -35.869   4.984  83.849  1.00  0.00     0.179 C 
ATOM     32  C   UNL     1     -34.530   5.461  84.454  1.00  0.00     0.177 C 
BRANCH  28  33
ATOM     33  O   UNL     1     -33.526   7.183  81.271  1.00  0.00    -0.384 OA
ATOM     34  H   UNL     1     -34.205   7.893  81.410  1.00  0.00     0.211 HD
ENDBRANCH  28  33
BRANCH  30  35
ATOM     35  O   UNL     1     -32.654   6.915  84.013  1.00  0.00    -0.387 OA
ATOM     36  H   UNL     1     -32.209   7.387  83.262  1.00  0.00     0.211 HD
ENDBRANCH  30  35
BRANCH  31  37
ATOM     37  C   UNL     1     -36.489   3.866  84.693  1.00  0.00     0.191 C 
BRANCH  37  38
ATOM     38  O   UNL     1     -36.174   2.624  84.128  1.00  0.00    -0.394 OA
ATOM     39  H   UNL     1     -36.109   2.773  83.150  1.00  0.00     0.210 HD
ENDBRANCH  37  38
ENDBRANCH  31  37
BRANCH  32  40
ATOM     40  O   UNL     1     -33.623   4.387  84.525  1.00  0.00    -0.387 OA
ATOM     41  H   UNL     1     -34.071   3.647  85.010  1.00  0.00     0.211 HD
ENDBRANCH  32  40
ENDBRANCH   1  27
TORSDOF 12
ENDMDL
