MODEL 1
REMARK VINA RESULT:    -4.956      0.000      0.000
REMARK INTER + INTRA:         -18.605
REMARK INTER:                 -13.067
REMARK INTRA:                  -5.538
REMARK UNBOUND:                -5.538
REMARK SMILES CCCCCCCCCCCCCCCCCCCCCCCCCCCCCC(=O)[O-]
REMARK SMILES IDX 16 1 17 2 18 3 19 4 20 5 21 6 22 7 23 8 24 9 25 10 26 11
REMARK SMILES IDX 27 12 28 13 29 14 30 15 31 16 32 17 15 18 14 19 13 20 12 21
REMARK SMILES IDX 11 22 10 23 9 24 8 25 7 26 6 27 5 28 4 29 3 30 2 31 1 32
REMARK H PARENT
REMARK Flexibility Score: inf
ROOT
ATOM      1  C   UNL     1      -0.014  13.134 -11.717  1.00  0.00     0.000 C 
ENDROOT
BRANCH   1   2
ATOM      2  C   UNL     1      -0.455  14.559 -12.096  1.00  0.00     0.000 C 
BRANCH   2   3
ATOM      3  C   UNL     1      -1.983  14.724 -12.087  1.00  0.00     0.000 C 
BRANCH   3   4
ATOM      4  C   UNL     1      -2.444  15.991 -12.829  1.00  0.00     0.000 C 
BRANCH   4   5
ATOM      5  C   UNL     1      -3.257  15.671 -14.094  1.00  0.00     0.000 C 
BRANCH   5   6
ATOM      6  C   UNL     1      -4.543  14.891 -13.782  1.00  0.00     0.000 C 
BRANCH   6   7
ATOM      7  C   UNL     1      -4.615  13.593 -14.596  1.00  0.00     0.000 C 
BRANCH   7   8
ATOM      8  C   UNL     1      -5.477  12.544 -13.878  1.00  0.00     0.000 C 
BRANCH   8   9
ATOM      9  C   UNL     1      -4.727  11.227 -13.618  1.00  0.00     0.000 C 
BRANCH   9  10
ATOM     10  C   UNL     1      -3.606  11.354 -12.565  1.00  0.00     0.000 C 
BRANCH  10  11
ATOM     11  C   UNL     1      -2.345  10.569 -12.966  1.00  0.00     0.000 C 
BRANCH  11  12
ATOM     12  C   UNL     1      -1.768  11.015 -14.319  1.00  0.00     0.000 C 
BRANCH  12  13
ATOM     13  C   UNL     1      -1.833   9.911 -15.386  1.00  0.00     0.006 C 
BRANCH  13  14
ATOM     14  C   UNL     1      -2.219  10.487 -16.753  1.00  0.00     0.053 C 
BRANCH  14  15
ATOM     15  C   UNL     1      -3.380   9.743 -17.334  1.00  0.00     0.041 C 
ATOM     16  O   UNL     1      -3.186   8.735 -18.068  1.00  0.00    -0.550 OA
ATOM     17  O   UNL     1      -4.679  10.146 -17.050  1.00  0.00    -0.550 OA
ENDBRANCH  14  15
ENDBRANCH  13  14
ENDBRANCH  12  13
ENDBRANCH  11  12
ENDBRANCH  10  11
ENDBRANCH   9  10
ENDBRANCH   8   9
ENDBRANCH   7   8
ENDBRANCH   6   7
ENDBRANCH   5   6
ENDBRANCH   4   5
ENDBRANCH   3   4
ENDBRANCH   2   3
ENDBRANCH   1   2
BRANCH   1  18
ATOM     18  C   UNL     1      -0.434  12.735 -10.292  1.00  0.00     0.000 C 
BRANCH  18  19
ATOM     19  C   UNL     1      -0.221  11.238  -9.980  1.00  0.00     0.000 C 
BRANCH  19  20
ATOM     20  C   UNL     1      -1.108  10.753  -8.823  1.00  0.00     0.000 C 
BRANCH  20  21
ATOM     21  C   UNL     1      -2.577  11.186  -8.973  1.00  0.00     0.000 C 
BRANCH  21  22
ATOM     22  C   UNL     1      -3.617  10.082  -8.702  1.00  0.00     0.000 C 
BRANCH  22  23
ATOM     23  C   UNL     1      -3.943   9.249  -9.954  1.00  0.00     0.000 C 
BRANCH  23  24
ATOM     24  C   UNL     1      -5.132   8.293  -9.748  1.00  0.00    -0.000 C 
BRANCH  24  25
ATOM     25  C   UNL     1      -6.401   8.637 -10.556  1.00  0.00    -0.000 C 
BRANCH  25  26
ATOM     26  C   UNL     1      -6.642  10.139 -10.802  1.00  0.00    -0.000 C 
BRANCH  26  27
ATOM     27  C   UNL     1      -7.595  10.819  -9.801  1.00  0.00    -0.000 C 
BRANCH  27  28
ATOM     28  C   UNL     1      -7.154  12.245  -9.428  1.00  0.00    -0.000 C 
BRANCH  28  29
ATOM     29  C   UNL     1      -5.892  12.686 -10.189  1.00  0.00    -0.000 C 
BRANCH  29  30
ATOM     30  C   UNL     1      -5.191  13.886  -9.528  1.00  0.00    -0.000 C 
BRANCH  30  31
ATOM     31  C   UNL     1      -5.466  13.969  -8.017  1.00  0.00    -0.003 C 
ATOM     32  C   UNL     1      -4.187  14.050  -7.186  1.00  0.00     0.004 C 
ENDBRANCH  30  31
ENDBRANCH  29  30
ENDBRANCH  28  29
ENDBRANCH  27  28
ENDBRANCH  26  27
ENDBRANCH  25  26
ENDBRANCH  24  25
ENDBRANCH  23  24
ENDBRANCH  22  23
ENDBRANCH  21  22
ENDBRANCH  20  21
ENDBRANCH  19  20
ENDBRANCH  18  19
ENDBRANCH   1  18
TORSDOF 28
ENDMDL
MODEL 2
REMARK VINA RESULT:    -4.933     11.949     14.841
REMARK INTER + INTRA:         -18.546
REMARK INTER:                 -12.167
REMARK INTRA:                  -6.379
REMARK UNBOUND:                -5.538
REMARK SMILES CCCCCCCCCCCCCCCCCCCCCCCCCCCCCC(=O)[O-]
REMARK SMILES IDX 16 1 17 2 18 3 19 4 20 5 21 6 22 7 23 8 24 9 25 10 26 11
REMARK SMILES IDX 27 12 28 13 29 14 30 15 31 16 32 17 15 18 14 19 13 20 12 21
REMARK SMILES IDX 11 22 10 23 9 24 8 25 7 26 6 27 5 28 4 29 3 30 2 31 1 32
REMARK H PARENT
REMARK Flexibility Score: inf
ROOT
ATOM      1  C   UNL     1     -18.465  15.324 -17.495  1.00  0.00     0.000 C 
ENDROOT
BRANCH   1   2
ATOM      2  C   UNL     1     -18.820  15.973 -16.145  1.00  0.00     0.000 C 
BRANCH   2   3
ATOM      3  C   UNL     1     -18.976  17.499 -16.249  1.00  0.00     0.000 C 
BRANCH   3   4
ATOM      4  C   UNL     1     -18.653  18.030 -17.656  1.00  0.00     0.000 C 
BRANCH   4   5
ATOM      5  C   UNL     1     -17.376  18.886 -17.685  1.00  0.00     0.000 C 
BRANCH   5   6
ATOM      6  C   UNL     1     -16.704  18.889 -19.066  1.00  0.00     0.000 C 
BRANCH   6   7
ATOM      7  C   UNL     1     -17.414  17.931 -20.030  1.00  0.00     0.000 C 
BRANCH   7   8
ATOM      8  C   UNL     1     -16.438  16.876 -20.572  1.00  0.00     0.000 C 
BRANCH   8   9
ATOM      9  C   UNL     1     -15.442  16.380 -19.512  1.00  0.00     0.000 C 
BRANCH   9  10
ATOM     10  C   UNL     1     -14.156  15.774 -20.112  1.00  0.00     0.000 C 
BRANCH  10  11
ATOM     11  C   UNL     1     -12.890  16.486 -19.605  1.00  0.00     0.000 C 
BRANCH  11  12
ATOM     12  C   UNL     1     -13.066  18.009 -19.492  1.00  0.00     0.000 C 
BRANCH  12  13
ATOM     13  C   UNL     1     -12.878  18.524 -18.056  1.00  0.00     0.006 C 
BRANCH  13  14
ATOM     14  C   UNL     1     -12.542  20.020 -18.047  1.00  0.00     0.053 C 
BRANCH  14  15
ATOM     15  C   UNL     1     -13.296  20.726 -16.964  1.00  0.00     0.041 C 
ATOM     16  O   UNL     1     -14.515  21.010 -17.120  1.00  0.00    -0.550 OA
ATOM     17  O   UNL     1     -12.661  21.053 -15.773  1.00  0.00    -0.550 OA
ENDBRANCH  14  15
ENDBRANCH  13  14
ENDBRANCH  12  13
ENDBRANCH  11  12
ENDBRANCH  10  11
ENDBRANCH   9  10
ENDBRANCH   8   9
ENDBRANCH   7   8
ENDBRANCH   6   7
ENDBRANCH   5   6
ENDBRANCH   4   5
ENDBRANCH   3   4
ENDBRANCH   2   3
ENDBRANCH   1   2
BRANCH   1  18
ATOM     18  C   UNL     1     -17.707  13.995 -17.342  1.00  0.00     0.000 C 
BRANCH  18  19
ATOM     19  C   UNL     1     -18.631  12.765 -17.218  1.00  0.00     0.000 C 
BRANCH  19  20
ATOM     20  C   UNL     1     -18.169  11.798 -16.116  1.00  0.00     0.000 C 
BRANCH  20  21
ATOM     21  C   UNL     1     -16.769  12.134 -15.574  1.00  0.00     0.000 C 
BRANCH  21  22
ATOM     22  C   UNL     1     -16.723  12.562 -14.095  1.00  0.00     0.000 C 
BRANCH  22  23
ATOM     23  C   UNL     1     -16.636  14.087 -13.917  1.00  0.00     0.000 C 
BRANCH  23  24
ATOM     24  C   UNL     1     -17.038  14.553 -12.505  1.00  0.00    -0.000 C 
BRANCH  24  25
ATOM     25  C   UNL     1     -16.663  16.010 -12.161  1.00  0.00    -0.000 C 
BRANCH  25  26
ATOM     26  C   UNL     1     -16.652  16.990 -13.350  1.00  0.00    -0.000 C 
BRANCH  26  27
ATOM     27  C   UNL     1     -15.286  17.633 -13.651  1.00  0.00    -0.000 C 
BRANCH  27  28
ATOM     28  C   UNL     1     -15.070  17.908 -15.150  1.00  0.00    -0.000 C 
BRANCH  28  29
ATOM     29  C   UNL     1     -15.089  16.619 -15.990  1.00  0.00    -0.000 C 
BRANCH  29  30
ATOM     30  C   UNL     1     -13.952  15.652 -15.617  1.00  0.00    -0.000 C 
BRANCH  30  31
ATOM     31  C   UNL     1     -13.967  14.370 -16.466  1.00  0.00    -0.003 C 
ATOM     32  C   UNL     1     -12.599  14.036 -17.059  1.00  0.00     0.004 C 
ENDBRANCH  30  31
ENDBRANCH  29  30
ENDBRANCH  28  29
ENDBRANCH  27  28
ENDBRANCH  26  27
ENDBRANCH  25  26
ENDBRANCH  24  25
ENDBRANCH  23  24
ENDBRANCH  22  23
ENDBRANCH  21  22
ENDBRANCH  20  21
ENDBRANCH  19  20
ENDBRANCH  18  19
ENDBRANCH   1  18
TORSDOF 28
ENDMDL
MODEL 3
REMARK VINA RESULT:    -4.903      1.464      4.117
REMARK INTER + INTRA:         -18.467
REMARK INTER:                 -12.334
REMARK INTRA:                  -6.133
REMARK UNBOUND:                -5.538
REMARK SMILES CCCCCCCCCCCCCCCCCCCCCCCCCCCCCC(=O)[O-]
REMARK SMILES IDX 16 1 17 2 18 3 19 4 20 5 21 6 22 7 23 8 24 9 25 10 26 11
REMARK SMILES IDX 27 12 28 13 29 14 30 15 31 16 32 17 15 18 14 19 13 20 12 21
REMARK SMILES IDX 11 22 10 23 9 24 8 25 7 26 6 27 5 28 4 29 3 30 2 31 1 32
REMARK H PARENT
REMARK Flexibility Score: inf
ROOT
ATOM      1  C   UNL     1      -6.729  12.248 -12.391  1.00  0.00     0.000 C 
ENDROOT
BRANCH   1   2
ATOM      2  C   UNL     1      -6.154  12.945 -11.146  1.00  0.00     0.000 C 
BRANCH   2   3
ATOM      3  C   UNL     1      -5.823  14.425 -11.400  1.00  0.00     0.000 C 
BRANCH   3   4
ATOM      4  C   UNL     1      -5.879  14.793 -12.893  1.00  0.00     0.000 C 
BRANCH   4   5
ATOM      5  C   UNL     1      -4.745  15.743 -13.310  1.00  0.00     0.000 C 
BRANCH   5   6
ATOM      6  C   UNL     1      -3.675  15.893 -12.218  1.00  0.00     0.000 C 
BRANCH   6   7
ATOM      7  C   UNL     1      -2.376  16.472 -12.791  1.00  0.00     0.000 C 
BRANCH   7   8
ATOM      8  C   UNL     1      -1.172  15.600 -12.405  1.00  0.00     0.000 C 
BRANCH   8   9
ATOM      9  C   UNL     1      -1.573  14.319 -11.656  1.00  0.00     0.000 C 
BRANCH   9  10
ATOM     10  C   UNL     1      -0.726  13.088 -12.044  1.00  0.00     0.000 C 
BRANCH  10  11
ATOM     11  C   UNL     1      -1.580  11.815 -12.170  1.00  0.00     0.000 C 
BRANCH  11  12
ATOM     12  C   UNL     1      -3.042  12.111 -12.543  1.00  0.00     0.000 C 
BRANCH  12  13
ATOM     13  C   UNL     1      -3.230  12.377 -14.045  1.00  0.00     0.006 C 
BRANCH  13  14
ATOM     14  C   UNL     1      -4.002  11.235 -14.715  1.00  0.00     0.053 C 
BRANCH  14  15
ATOM     15  C   UNL     1      -3.120  10.486 -15.665  1.00  0.00     0.041 C 
ATOM     16  O   UNL     1      -1.947  10.169 -15.328  1.00  0.00    -0.550 OA
ATOM     17  O   UNL     1      -3.599  10.120 -16.917  1.00  0.00    -0.550 OA
ENDBRANCH  14  15
ENDBRANCH  13  14
ENDBRANCH  12  13
ENDBRANCH  11  12
ENDBRANCH  10  11
ENDBRANCH   9  10
ENDBRANCH   8   9
ENDBRANCH   7   8
ENDBRANCH   6   7
ENDBRANCH   5   6
ENDBRANCH   4   5
ENDBRANCH   3   4
ENDBRANCH   2   3
ENDBRANCH   1   2
BRANCH   1  18
ATOM     18  C   UNL     1      -6.948  10.739 -12.186  1.00  0.00     0.000 C 
BRANCH  18  19
ATOM     19  C   UNL     1      -6.782  10.281 -10.721  1.00  0.00     0.000 C 
BRANCH  19  20
ATOM     20  C   UNL     1      -6.530   8.769 -10.609  1.00  0.00     0.000 C 
BRANCH  20  21
ATOM     21  C   UNL     1      -5.180   8.435  -9.952  1.00  0.00     0.000 C 
BRANCH  21  22
ATOM     22  C   UNL     1      -4.050   9.447 -10.223  1.00  0.00     0.000 C 
BRANCH  22  23
ATOM     23  C   UNL     1      -2.898   9.341  -9.209  1.00  0.00     0.000 C 
BRANCH  23  24
ATOM     24  C   UNL     1      -2.548  10.689  -8.551  1.00  0.00    -0.000 C 
BRANCH  24  25
ATOM     25  C   UNL     1      -3.702  11.711  -8.491  1.00  0.00    -0.000 C 
BRANCH  25  26
ATOM     26  C   UNL     1      -3.286  13.189  -8.626  1.00  0.00    -0.000 C 
BRANCH  26  27
ATOM     27  C   UNL     1      -4.340  14.209  -8.157  1.00  0.00    -0.000 C 
BRANCH  27  28
ATOM     28  C   UNL     1      -4.795  13.975  -6.706  1.00  0.00    -0.000 C 
BRANCH  28  29
ATOM     29  C   UNL     1      -6.254  14.405  -6.473  1.00  0.00    -0.000 C 
BRANCH  29  30
ATOM     30  C   UNL     1      -6.836  15.190  -7.662  1.00  0.00    -0.000 C 
BRANCH  30  31
ATOM     31  C   UNL     1      -8.059  14.495  -8.283  1.00  0.00    -0.003 C 
ATOM     32  C   UNL     1      -8.107  12.998  -7.980  1.00  0.00     0.004 C 
ENDBRANCH  30  31
ENDBRANCH  29  30
ENDBRANCH  28  29
ENDBRANCH  27  28
ENDBRANCH  26  27
ENDBRANCH  25  26
ENDBRANCH  24  25
ENDBRANCH  23  24
ENDBRANCH  22  23
ENDBRANCH  21  22
ENDBRANCH  20  21
ENDBRANCH  19  20
ENDBRANCH  18  19
ENDBRANCH   1  18
TORSDOF 28
ENDMDL
MODEL 4
REMARK VINA RESULT:    -4.865      1.442      5.786
REMARK INTER + INTRA:         -18.368
REMARK INTER:                 -12.573
REMARK INTRA:                  -5.795
REMARK UNBOUND:                -5.538
REMARK SMILES CCCCCCCCCCCCCCCCCCCCCCCCCCCCCC(=O)[O-]
REMARK SMILES IDX 16 1 17 2 18 3 19 4 20 5 21 6 22 7 23 8 24 9 25 10 26 11
REMARK SMILES IDX 27 12 28 13 29 14 30 15 31 16 32 17 15 18 14 19 13 20 12 21
REMARK SMILES IDX 11 22 10 23 9 24 8 25 7 26 6 27 5 28 4 29 3 30 2 31 1 32
REMARK H PARENT
REMARK Flexibility Score: inf
ROOT
ATOM      1  C   UNL     1      -7.738  11.436  -9.159  1.00  0.00     0.000 C 
ENDROOT
BRANCH   1   2
ATOM      2  C   UNL     1      -7.567  12.963  -9.252  1.00  0.00     0.000 C 
BRANCH   2   3
ATOM      3  C   UNL     1      -7.765  13.661  -7.897  1.00  0.00     0.000 C 
BRANCH   3   4
ATOM      4  C   UNL     1      -6.961  14.968  -7.784  1.00  0.00     0.000 C 
BRANCH   4   5
ATOM      5  C   UNL     1      -6.246  15.106  -6.431  1.00  0.00     0.000 C 
BRANCH   5   6
ATOM      6  C   UNL     1      -5.148  14.049  -6.237  1.00  0.00     0.000 C 
BRANCH   6   7
ATOM      7  C   UNL     1      -4.119  14.105  -7.373  1.00  0.00     0.000 C 
BRANCH   7   8
ATOM      8  C   UNL     1      -3.900  12.711  -7.981  1.00  0.00     0.000 C 
BRANCH   8   9
ATOM      9  C   UNL     1      -3.623  12.752  -9.492  1.00  0.00     0.000 C 
BRANCH   9  10
ATOM     10  C   UNL     1      -4.223  13.988 -10.195  1.00  0.00     0.000 C 
BRANCH  10  11
ATOM     11  C   UNL     1      -5.076  13.603 -11.415  1.00  0.00     0.000 C 
BRANCH  11  12
ATOM     12  C   UNL     1      -4.502  12.406 -12.191  1.00  0.00     0.000 C 
BRANCH  12  13
ATOM     13  C   UNL     1      -4.995  12.349 -13.646  1.00  0.00     0.006 C 
BRANCH  13  14
ATOM     14  C   UNL     1      -3.820  12.415 -14.629  1.00  0.00     0.053 C 
BRANCH  14  15
ATOM     15  C   UNL     1      -3.716  11.146 -15.416  1.00  0.00     0.041 C 
ATOM     16  O   UNL     1      -2.745  10.362 -15.231  1.00  0.00    -0.550 OA
ATOM     17  O   UNL     1      -4.700  10.816 -16.339  1.00  0.00    -0.550 OA
ENDBRANCH  14  15
ENDBRANCH  13  14
ENDBRANCH  12  13
ENDBRANCH  11  12
ENDBRANCH  10  11
ENDBRANCH   9  10
ENDBRANCH   8   9
ENDBRANCH   7   8
ENDBRANCH   6   7
ENDBRANCH   5   6
ENDBRANCH   4   5
ENDBRANCH   3   4
ENDBRANCH   2   3
ENDBRANCH   1   2
BRANCH   1  18
ATOM     18  C   UNL     1      -7.138  10.689 -10.362  1.00  0.00     0.000 C 
BRANCH  18  19
ATOM     19  C   UNL     1      -7.283   9.155 -10.275  1.00  0.00     0.000 C 
BRANCH  19  20
ATOM     20  C   UNL     1      -5.922   8.443 -10.234  1.00  0.00     0.000 C 
BRANCH  20  21
ATOM     21  C   UNL     1      -4.736   9.422 -10.169  1.00  0.00     0.000 C 
BRANCH  21  22
ATOM     22  C   UNL     1      -3.541   8.949  -9.320  1.00  0.00     0.000 C 
BRANCH  22  23
ATOM     23  C   UNL     1      -2.184   9.339  -9.930  1.00  0.00     0.000 C 
BRANCH  23  24
ATOM     24  C   UNL     1      -1.245  10.026  -8.921  1.00  0.00    -0.000 C 
BRANCH  24  25
ATOM     25  C   UNL     1       0.040  10.632  -9.525  1.00  0.00    -0.000 C 
BRANCH  25  26
ATOM     26  C   UNL     1      -0.003  12.150  -9.786  1.00  0.00    -0.000 C 
BRANCH  26  27
ATOM     27  C   UNL     1      -0.368  12.553 -11.227  1.00  0.00    -0.000 C 
BRANCH  27  28
ATOM     28  C   UNL     1      -0.710  14.047 -11.363  1.00  0.00    -0.000 C 
BRANCH  28  29
ATOM     29  C   UNL     1      -1.432  14.364 -12.684  1.00  0.00    -0.000 C 
BRANCH  29  30
ATOM     30  C   UNL     1      -2.196  15.700 -12.635  1.00  0.00    -0.000 C 
BRANCH  30  31
ATOM     31  C   UNL     1      -2.938  16.001 -13.948  1.00  0.00    -0.003 C 
ATOM     32  C   UNL     1      -4.447  16.140 -13.756  1.00  0.00     0.004 C 
ENDBRANCH  30  31
ENDBRANCH  29  30
ENDBRANCH  28  29
ENDBRANCH  27  28
ENDBRANCH  26  27
ENDBRANCH  25  26
ENDBRANCH  24  25
ENDBRANCH  23  24
ENDBRANCH  22  23
ENDBRANCH  21  22
ENDBRANCH  20  21
ENDBRANCH  19  20
ENDBRANCH  18  19
ENDBRANCH   1  18
TORSDOF 28
ENDMDL
MODEL 5
REMARK VINA RESULT:    -4.862     12.431     15.998
REMARK INTER + INTRA:         -18.358
REMARK INTER:                 -12.257
REMARK INTRA:                  -6.100
REMARK UNBOUND:                -5.538
REMARK SMILES CCCCCCCCCCCCCCCCCCCCCCCCCCCCCC(=O)[O-]
REMARK SMILES IDX 16 1 17 2 18 3 19 4 20 5 21 6 22 7 23 8 24 9 25 10 26 11
REMARK SMILES IDX 27 12 28 13 29 14 30 15 31 16 32 17 15 18 14 19 13 20 12 21
REMARK SMILES IDX 11 22 10 23 9 24 8 25 7 26 6 27 5 28 4 29 3 30 2 31 1 32
REMARK H PARENT
REMARK Flexibility Score: inf
ROOT
ATOM      1  C   UNL     1     -17.893  15.895 -17.011  1.00  0.00     0.000 C 
ENDROOT
BRANCH   1   2
ATOM      2  C   UNL     1     -17.805  14.549 -17.750  1.00  0.00     0.000 C 
BRANCH   2   3
ATOM      3  C   UNL     1     -19.001  13.631 -17.446  1.00  0.00     0.000 C 
BRANCH   3   4
ATOM      4  C   UNL     1     -18.566  12.221 -17.011  1.00  0.00     0.000 C 
BRANCH   4   5
ATOM      5  C   UNL     1     -17.223  12.221 -16.264  1.00  0.00     0.000 C 
BRANCH   5   6
ATOM      6  C   UNL     1     -17.332  11.604 -14.862  1.00  0.00     0.000 C 
BRANCH   6   7
ATOM      7  C   UNL     1     -16.794  12.560 -13.791  1.00  0.00     0.000 C 
BRANCH   7   8
ATOM      8  C   UNL     1     -16.655  13.984 -14.349  1.00  0.00     0.000 C 
BRANCH   8   9
ATOM      9  C   UNL     1     -16.758  15.067 -13.263  1.00  0.00     0.000 C 
BRANCH   9  10
ATOM     10  C   UNL     1     -16.030  16.378 -13.629  1.00  0.00     0.000 C 
BRANCH  10  11
ATOM     11  C   UNL     1     -14.935  16.154 -14.687  1.00  0.00     0.000 C 
BRANCH  11  12
ATOM     12  C   UNL     1     -14.228  17.456 -15.097  1.00  0.00     0.000 C 
BRANCH  12  13
ATOM     13  C   UNL     1     -15.052  18.293 -16.089  1.00  0.00     0.006 C 
BRANCH  13  14
ATOM     14  C   UNL     1     -14.140  19.082 -17.035  1.00  0.00     0.053 C 
BRANCH  14  15
ATOM     15  C   UNL     1     -14.392  20.552 -16.910  1.00  0.00     0.041 C 
ATOM     16  O   UNL     1     -13.568  21.289 -16.303  1.00  0.00    -0.550 OA
ATOM     17  O   UNL     1     -15.527  21.115 -17.481  1.00  0.00    -0.550 OA
ENDBRANCH  14  15
ENDBRANCH  13  14
ENDBRANCH  12  13
ENDBRANCH  11  12
ENDBRANCH  10  11
ENDBRANCH   9  10
ENDBRANCH   8   9
ENDBRANCH   7   8
ENDBRANCH   6   7
ENDBRANCH   5   6
ENDBRANCH   4   5
ENDBRANCH   3   4
ENDBRANCH   2   3
ENDBRANCH   1   2
BRANCH   1  18
ATOM     18  C   UNL     1     -19.232  16.092 -16.279  1.00  0.00     0.000 C 
BRANCH  18  19
ATOM     19  C   UNL     1     -19.676  17.568 -16.185  1.00  0.00     0.000 C 
BRANCH  19  20
ATOM     20  C   UNL     1     -19.023  18.442 -17.267  1.00  0.00     0.000 C 
BRANCH  20  21
ATOM     21  C   UNL     1     -19.824  18.467 -18.580  1.00  0.00     0.000 C 
BRANCH  21  22
ATOM     22  C   UNL     1     -18.975  18.476 -19.866  1.00  0.00     0.000 C 
BRANCH  22  23
ATOM     23  C   UNL     1     -17.592  19.119 -19.664  1.00  0.00     0.000 C 
BRANCH  23  24
ATOM     24  C   UNL     1     -16.458  18.084 -19.551  1.00  0.00    -0.000 C 
BRANCH  24  25
ATOM     25  C   UNL     1     -16.542  16.904 -20.542  1.00  0.00    -0.000 C 
BRANCH  25  26
ATOM     26  C   UNL     1     -15.220  16.150 -20.789  1.00  0.00    -0.000 C 
BRANCH  26  27
ATOM     27  C   UNL     1     -13.991  16.740 -20.073  1.00  0.00    -0.000 C 
BRANCH  27  28
ATOM     28  C   UNL     1     -13.270  15.716 -19.179  1.00  0.00    -0.000 C 
BRANCH  28  29
ATOM     29  C   UNL     1     -14.199  15.114 -18.111  1.00  0.00    -0.000 C 
BRANCH  29  30
ATOM     30  C   UNL     1     -14.005  13.596 -17.945  1.00  0.00    -0.000 C 
BRANCH  30  31
ATOM     31  C   UNL     1     -13.642  13.205 -16.503  1.00  0.00    -0.003 C 
ATOM     32  C   UNL     1     -13.515  11.694 -16.314  1.00  0.00     0.004 C 
ENDBRANCH  30  31
ENDBRANCH  29  30
ENDBRANCH  28  29
ENDBRANCH  27  28
ENDBRANCH  26  27
ENDBRANCH  25  26
ENDBRANCH  24  25
ENDBRANCH  23  24
ENDBRANCH  22  23
ENDBRANCH  21  22
ENDBRANCH  20  21
ENDBRANCH  19  20
ENDBRANCH  18  19
ENDBRANCH   1  18
TORSDOF 28
ENDMDL
MODEL 6
REMARK VINA RESULT:    -4.837     12.229     14.930
REMARK INTER + INTRA:         -18.294
REMARK INTER:                 -11.938
REMARK INTRA:                  -6.356
REMARK UNBOUND:                -5.538
REMARK SMILES CCCCCCCCCCCCCCCCCCCCCCCCCCCCCC(=O)[O-]
REMARK SMILES IDX 16 1 17 2 18 3 19 4 20 5 21 6 22 7 23 8 24 9 25 10 26 11
REMARK SMILES IDX 27 12 28 13 29 14 30 15 31 16 32 17 15 18 14 19 13 20 12 21
REMARK SMILES IDX 11 22 10 23 9 24 8 25 7 26 6 27 5 28 4 29 3 30 2 31 1 32
REMARK H PARENT
REMARK Flexibility Score: inf
ROOT
ATOM      1  C   UNL     1     -14.561  16.568 -14.106  1.00  0.00     0.000 C 
ENDROOT
BRANCH   1   2
ATOM      2  C   UNL     1     -15.108  17.714 -14.975  1.00  0.00     0.000 C 
BRANCH   2   3
ATOM      3  C   UNL     1     -14.024  18.738 -15.349  1.00  0.00     0.000 C 
BRANCH   3   4
ATOM      4  C   UNL     1     -12.970  18.157 -16.307  1.00  0.00     0.000 C 
BRANCH   4   5
ATOM      5  C   UNL     1     -12.933  18.887 -17.659  1.00  0.00     0.000 C 
BRANCH   5   6
ATOM      6  C   UNL     1     -13.183  17.942 -18.843  1.00  0.00     0.000 C 
BRANCH   6   7
ATOM      7  C   UNL     1     -14.305  16.945 -18.529  1.00  0.00     0.000 C 
BRANCH   7   8
ATOM      8  C   UNL     1     -14.205  15.707 -19.432  1.00  0.00     0.000 C 
BRANCH   8   9
ATOM      9  C   UNL     1     -14.044  14.398 -18.641  1.00  0.00     0.000 C 
BRANCH   9  10
ATOM     10  C   UNL     1     -13.298  14.577 -17.301  1.00  0.00     0.000 C 
BRANCH  10  11
ATOM     11  C   UNL     1     -13.730  13.534 -16.256  1.00  0.00     0.000 C 
BRANCH  11  12
ATOM     12  C   UNL     1     -15.251  13.509 -16.032  1.00  0.00     0.000 C 
BRANCH  12  13
ATOM     13  C   UNL     1     -15.829  12.085 -16.034  1.00  0.00     0.006 C 
BRANCH  13  14
ATOM     14  C   UNL     1     -17.308  12.089 -15.631  1.00  0.00     0.053 C 
BRANCH  14  15
ATOM     15  C   UNL     1     -18.158  11.537 -16.733  1.00  0.00     0.041 C 
ATOM     16  O   UNL     1     -18.126  10.306 -17.003  1.00  0.00    -0.550 OA
ATOM     17  O   UNL     1     -19.002  12.377 -17.448  1.00  0.00    -0.550 OA
ENDBRANCH  14  15
ENDBRANCH  13  14
ENDBRANCH  12  13
ENDBRANCH  11  12
ENDBRANCH  10  11
ENDBRANCH   9  10
ENDBRANCH   8   9
ENDBRANCH   7   8
ENDBRANCH   6   7
ENDBRANCH   5   6
ENDBRANCH   4   5
ENDBRANCH   3   4
ENDBRANCH   2   3
ENDBRANCH   1   2
BRANCH   1  18
ATOM     18  C   UNL     1     -15.446  16.266 -12.884  1.00  0.00     0.000 C 
BRANCH  18  19
ATOM     19  C   UNL     1     -16.945  16.124 -13.224  1.00  0.00     0.000 C 
BRANCH  19  20
ATOM     20  C   UNL     1     -17.801  17.205 -12.546  1.00  0.00     0.000 C 
BRANCH  20  21
ATOM     21  C   UNL     1     -19.037  17.596 -13.373  1.00  0.00     0.000 C 
BRANCH  21  22
ATOM     22  C   UNL     1     -18.821  17.635 -14.898  1.00  0.00     0.000 C 
BRANCH  22  23
ATOM     23  C   UNL     1     -19.980  16.996 -15.682  1.00  0.00     0.000 C 
BRANCH  23  24
ATOM     24  C   UNL     1     -19.545  15.771 -16.508  1.00  0.00    -0.000 C 
BRANCH  24  25
ATOM     25  C   UNL     1     -18.033  15.682 -16.807  1.00  0.00    -0.000 C 
BRANCH  25  26
ATOM     26  C   UNL     1     -17.659  15.542 -18.295  1.00  0.00    -0.000 C 
BRANCH  26  27
ATOM     27  C   UNL     1     -18.447  16.453 -19.254  1.00  0.00    -0.000 C 
BRANCH  27  28
ATOM     28  C   UNL     1     -17.536  17.301 -20.159  1.00  0.00    -0.000 C 
BRANCH  28  29
ATOM     29  C   UNL     1     -17.669  18.808 -19.877  1.00  0.00    -0.000 C 
BRANCH  29  30
ATOM     30  C   UNL     1     -18.164  19.102 -18.450  1.00  0.00    -0.000 C 
BRANCH  30  31
ATOM     31  C   UNL     1     -17.010  19.387 -17.475  1.00  0.00    -0.003 C 
ATOM     32  C   UNL     1     -16.211  20.634 -17.851  1.00  0.00     0.004 C 
ENDBRANCH  30  31
ENDBRANCH  29  30
ENDBRANCH  28  29
ENDBRANCH  27  28
ENDBRANCH  26  27
ENDBRANCH  25  26
ENDBRANCH  24  25
ENDBRANCH  23  24
ENDBRANCH  22  23
ENDBRANCH  21  22
ENDBRANCH  20  21
ENDBRANCH  19  20
ENDBRANCH  18  19
ENDBRANCH   1  18
TORSDOF 28
ENDMDL
MODEL 7
REMARK VINA RESULT:    -4.834     12.132     14.724
REMARK INTER + INTRA:         -18.286
REMARK INTER:                 -11.859
REMARK INTRA:                  -6.427
REMARK UNBOUND:                -5.538
REMARK SMILES CCCCCCCCCCCCCCCCCCCCCCCCCCCCCC(=O)[O-]
REMARK SMILES IDX 16 1 17 2 18 3 19 4 20 5 21 6 22 7 23 8 24 9 25 10 26 11
REMARK SMILES IDX 27 12 28 13 29 14 30 15 31 16 32 17 15 18 14 19 13 20 12 21
REMARK SMILES IDX 11 22 10 23 9 24 8 25 7 26 6 27 5 28 4 29 3 30 2 31 1 32
REMARK H PARENT
REMARK Flexibility Score: inf
ROOT
ATOM      1  C   UNL     1     -13.388  14.927 -16.785  1.00  0.00     0.000 C 
ENDROOT
BRANCH   1   2
ATOM      2  C   UNL     1     -13.539  14.637 -18.289  1.00  0.00     0.000 C 
BRANCH   2   3
ATOM      3  C   UNL     1     -12.909  15.731 -19.165  1.00  0.00     0.000 C 
BRANCH   3   4
ATOM      4  C   UNL     1     -13.955  16.697 -19.745  1.00  0.00     0.000 C 
BRANCH   4   5
ATOM      5  C   UNL     1     -15.112  15.965 -20.446  1.00  0.00     0.000 C 
BRANCH   5   6
ATOM      6  C   UNL     1     -15.991  16.915 -21.273  1.00  0.00     0.000 C 
BRANCH   6   7
ATOM      7  C   UNL     1     -17.358  17.124 -20.610  1.00  0.00     0.000 C 
BRANCH   7   8
ATOM      8  C   UNL     1     -17.703  18.618 -20.527  1.00  0.00     0.000 C 
BRANCH   8   9
ATOM      9  C   UNL     1     -17.927  19.103 -19.085  1.00  0.00     0.000 C 
BRANCH   9  10
ATOM     10  C   UNL     1     -16.635  19.581 -18.389  1.00  0.00     0.000 C 
BRANCH  10  11
ATOM     11  C   UNL     1     -16.580  19.150 -16.914  1.00  0.00     0.000 C 
BRANCH  11  12
ATOM     12  C   UNL     1     -15.544  18.044 -16.654  1.00  0.00     0.000 C 
BRANCH  12  13
ATOM     13  C   UNL     1     -14.380  18.517 -15.769  1.00  0.00     0.006 C 
BRANCH  13  14
ATOM     14  C   UNL     1     -13.082  18.623 -16.577  1.00  0.00     0.053 C 
BRANCH  14  15
ATOM     15  C   UNL     1     -12.828  20.040 -16.989  1.00  0.00     0.041 C 
ATOM     16  O   UNL     1     -11.922  20.306 -17.825  1.00  0.00    -0.550 OA
ATOM     17  O   UNL     1     -13.605  21.066 -16.466  1.00  0.00    -0.550 OA
ENDBRANCH  14  15
ENDBRANCH  13  14
ENDBRANCH  12  13
ENDBRANCH  11  12
ENDBRANCH  10  11
ENDBRANCH   9  10
ENDBRANCH   8   9
ENDBRANCH   7   8
ENDBRANCH   6   7
ENDBRANCH   5   6
ENDBRANCH   4   5
ENDBRANCH   3   4
ENDBRANCH   2   3
ENDBRANCH   1   2
BRANCH   1  18
ATOM     18  C   UNL     1     -13.904  13.782 -15.897  1.00  0.00     0.000 C 
BRANCH  18  19
ATOM     19  C   UNL     1     -13.486  12.380 -16.389  1.00  0.00     0.000 C 
BRANCH  19  20
ATOM     20  C   UNL     1     -14.689  11.438 -16.553  1.00  0.00     0.000 C 
BRANCH  20  21
ATOM     21  C   UNL     1     -15.876  11.821 -15.652  1.00  0.00     0.000 C 
BRANCH  21  22
ATOM     22  C   UNL     1     -17.262  11.722 -16.317  1.00  0.00     0.000 C 
BRANCH  22  23
ATOM     23  C   UNL     1     -17.895  13.098 -16.585  1.00  0.00     0.000 C 
BRANCH  23  24
ATOM     24  C   UNL     1     -16.981  14.034 -17.397  1.00  0.00    -0.000 C 
BRANCH  24  25
ATOM     25  C   UNL     1     -17.573  15.424 -17.711  1.00  0.00    -0.000 C 
BRANCH  25  26
ATOM     26  C   UNL     1     -19.098  15.552 -17.525  1.00  0.00    -0.000 C 
BRANCH  26  27
ATOM     27  C   UNL     1     -19.555  16.775 -16.710  1.00  0.00    -0.000 C 
BRANCH  27  28
ATOM     28  C   UNL     1     -19.513  16.533 -15.192  1.00  0.00    -0.000 C 
BRANCH  28  29
ATOM     29  C   UNL     1     -18.655  17.577 -14.456  1.00  0.00    -0.000 C 
BRANCH  29  30
ATOM     30  C   UNL     1     -17.613  16.935 -13.522  1.00  0.00    -0.000 C 
BRANCH  30  31
ATOM     31  C   UNL     1     -16.940  15.703 -14.150  1.00  0.00    -0.003 C 
ATOM     32  C   UNL     1     -16.610  14.621 -13.123  1.00  0.00     0.004 C 
ENDBRANCH  30  31
ENDBRANCH  29  30
ENDBRANCH  28  29
ENDBRANCH  27  28
ENDBRANCH  26  27
ENDBRANCH  25  26
ENDBRANCH  24  25
ENDBRANCH  23  24
ENDBRANCH  22  23
ENDBRANCH  21  22
ENDBRANCH  20  21
ENDBRANCH  19  20
ENDBRANCH  18  19
ENDBRANCH   1  18
TORSDOF 28
ENDMDL
MODEL 8
REMARK VINA RESULT:    -4.817     11.980     15.068
REMARK INTER + INTRA:         -18.241
REMARK INTER:                 -12.143
REMARK INTRA:                  -6.098
REMARK UNBOUND:                -5.538
REMARK SMILES CCCCCCCCCCCCCCCCCCCCCCCCCCCCCC(=O)[O-]
REMARK SMILES IDX 16 1 17 2 18 3 19 4 20 5 21 6 22 7 23 8 24 9 25 10 26 11
REMARK SMILES IDX 27 12 28 13 29 14 30 15 31 16 32 17 15 18 14 19 13 20 12 21
REMARK SMILES IDX 11 22 10 23 9 24 8 25 7 26 6 27 5 28 4 29 3 30 2 31 1 32
REMARK H PARENT
REMARK Flexibility Score: inf
ROOT
ATOM      1  C   UNL     1     -18.916  17.152 -15.074  1.00  0.00     0.000 C 
ENDROOT
BRANCH   1   2
ATOM      2  C   UNL     1     -20.078  17.454 -16.036  1.00  0.00     0.000 C 
BRANCH   2   3
ATOM      3  C   UNL     1     -19.684  17.270 -17.511  1.00  0.00     0.000 C 
BRANCH   3   4
ATOM      4  C   UNL     1     -18.936  15.949 -17.761  1.00  0.00     0.000 C 
BRANCH   4   5
ATOM      5  C   UNL     1     -17.701  16.130 -18.657  1.00  0.00     0.000 C 
BRANCH   5   6
ATOM      6  C   UNL     1     -18.006  16.955 -19.916  1.00  0.00     0.000 C 
BRANCH   6   7
ATOM      7  C   UNL     1     -16.964  18.062 -20.120  1.00  0.00     0.000 C 
BRANCH   7   8
ATOM      8  C   UNL     1     -17.438  19.382 -19.495  1.00  0.00     0.000 C 
BRANCH   8   9
ATOM      9  C   UNL     1     -16.462  19.933 -18.443  1.00  0.00     0.000 C 
BRANCH   9  10
ATOM     10  C   UNL     1     -16.831  19.543 -16.996  1.00  0.00     0.000 C 
BRANCH  10  11
ATOM     11  C   UNL     1     -15.605  19.071 -16.195  1.00  0.00     0.000 C 
BRANCH  11  12
ATOM     12  C   UNL     1     -15.254  17.597 -16.454  1.00  0.00     0.000 C 
BRANCH  12  13
ATOM     13  C   UNL     1     -13.809  17.252 -16.058  1.00  0.00     0.006 C 
BRANCH  13  14
ATOM     14  C   UNL     1     -13.056  18.498 -15.581  1.00  0.00     0.053 C 
BRANCH  14  15
ATOM     15  C   UNL     1     -12.268  18.200 -14.343  1.00  0.00     0.041 C 
ATOM     16  O   UNL     1     -12.539  17.184 -13.647  1.00  0.00    -0.550 OA
ATOM     17  O   UNL     1     -11.222  19.033 -13.966  1.00  0.00    -0.550 OA
ENDBRANCH  14  15
ENDBRANCH  13  14
ENDBRANCH  12  13
ENDBRANCH  11  12
ENDBRANCH  10  11
ENDBRANCH   9  10
ENDBRANCH   8   9
ENDBRANCH   7   8
ENDBRANCH   6   7
ENDBRANCH   5   6
ENDBRANCH   4   5
ENDBRANCH   3   4
ENDBRANCH   2   3
ENDBRANCH   1   2
BRANCH   1  18
ATOM     18  C   UNL     1     -19.247  17.488 -13.609  1.00  0.00     0.000 C 
BRANCH  18  19
ATOM     19  C   UNL     1     -18.001  17.757 -12.739  1.00  0.00     0.000 C 
BRANCH  19  20
ATOM     20  C   UNL     1     -16.762  17.002 -13.246  1.00  0.00     0.000 C 
BRANCH  20  21
ATOM     21  C   UNL     1     -16.533  15.668 -12.515  1.00  0.00     0.000 C 
BRANCH  21  22
ATOM     22  C   UNL     1     -16.779  14.405 -13.363  1.00  0.00     0.000 C 
BRANCH  22  23
ATOM     23  C   UNL     1     -16.229  14.531 -14.794  1.00  0.00     0.000 C 
BRANCH  23  24
ATOM     24  C   UNL     1     -16.967  13.633 -15.804  1.00  0.00    -0.000 C 
BRANCH  24  25
ATOM     25  C   UNL     1     -16.213  12.354 -16.223  1.00  0.00    -0.000 C 
BRANCH  25  26
ATOM     26  C   UNL     1     -14.745  12.269 -15.760  1.00  0.00    -0.000 C 
BRANCH  26  27
ATOM     27  C   UNL     1     -13.699  12.425 -16.879  1.00  0.00    -0.000 C 
BRANCH  27  28
ATOM     28  C   UNL     1     -13.562  13.875 -17.374  1.00  0.00    -0.000 C 
BRANCH  28  29
ATOM     29  C   UNL     1     -14.051  14.048 -18.823  1.00  0.00    -0.000 C 
BRANCH  29  30
ATOM     30  C   UNL     1     -14.309  15.521 -19.188  1.00  0.00    -0.000 C 
BRANCH  30  31
ATOM     31  C   UNL     1     -13.121  16.159 -19.928  1.00  0.00    -0.003 C 
ATOM     32  C   UNL     1     -12.978  17.653 -19.639  1.00  0.00     0.004 C 
ENDBRANCH  30  31
ENDBRANCH  29  30
ENDBRANCH  28  29
ENDBRANCH  27  28
ENDBRANCH  26  27
ENDBRANCH  25  26
ENDBRANCH  24  25
ENDBRANCH  23  24
ENDBRANCH  22  23
ENDBRANCH  21  22
ENDBRANCH  20  21
ENDBRANCH  19  20
ENDBRANCH  18  19
ENDBRANCH   1  18
TORSDOF 28
ENDMDL
MODEL 9
REMARK VINA RESULT:    -4.758     12.330     15.844
REMARK INTER + INTRA:         -18.085
REMARK INTER:                 -12.378
REMARK INTRA:                  -5.707
REMARK UNBOUND:                -5.538
REMARK SMILES CCCCCCCCCCCCCCCCCCCCCCCCCCCCCC(=O)[O-]
REMARK SMILES IDX 16 1 17 2 18 3 19 4 20 5 21 6 22 7 23 8 24 9 25 10 26 11
REMARK SMILES IDX 27 12 28 13 29 14 30 15 31 16 32 17 15 18 14 19 13 20 12 21
REMARK SMILES IDX 11 22 10 23 9 24 8 25 7 26 6 27 5 28 4 29 3 30 2 31 1 32
REMARK H PARENT
REMARK Flexibility Score: inf
ROOT
ATOM      1  C   UNL     1     -18.573  16.164 -16.516  1.00  0.00     0.000 C 
ENDROOT
BRANCH   1   2
ATOM      2  C   UNL     1     -18.546  15.092 -17.620  1.00  0.00     0.000 C 
BRANCH   2   3
ATOM      3  C   UNL     1     -17.714  13.862 -17.225  1.00  0.00     0.000 C 
BRANCH   3   4
ATOM      4  C   UNL     1     -18.580  12.606 -17.019  1.00  0.00     0.000 C 
BRANCH   4   5
ATOM      5  C   UNL     1     -17.772  11.414 -16.481  1.00  0.00     0.000 C 
BRANCH   5   6
ATOM      6  C   UNL     1     -16.525  11.855 -15.701  1.00  0.00     0.000 C 
BRANCH   6   7
ATOM      7  C   UNL     1     -15.267  11.149 -16.220  1.00  0.00     0.000 C 
BRANCH   7   8
ATOM      8  C   UNL     1     -14.046  12.077 -16.141  1.00  0.00     0.000 C 
BRANCH   8   9
ATOM      9  C   UNL     1     -13.912  12.999 -17.363  1.00  0.00     0.000 C 
BRANCH   9  10
ATOM     10  C   UNL     1     -13.821  14.496 -16.998  1.00  0.00     0.000 C 
BRANCH  10  11
ATOM     11  C   UNL     1     -14.472  14.800 -15.638  1.00  0.00     0.000 C 
BRANCH  11  12
ATOM     12  C   UNL     1     -15.144  16.182 -15.593  1.00  0.00     0.000 C 
BRANCH  12  13
ATOM     13  C   UNL     1     -15.137  16.801 -14.186  1.00  0.00     0.006 C 
BRANCH  13  14
ATOM     14  C   UNL     1     -16.296  17.789 -14.013  1.00  0.00     0.053 C 
BRANCH  14  15
ATOM     15  C   UNL     1     -17.360  17.209 -13.134  1.00  0.00     0.041 C 
ATOM     16  O   UNL     1     -17.092  16.251 -12.359  1.00  0.00    -0.550 OA
ATOM     17  O   UNL     1     -18.644  17.739 -13.154  1.00  0.00    -0.550 OA
ENDBRANCH  14  15
ENDBRANCH  13  14
ENDBRANCH  12  13
ENDBRANCH  11  12
ENDBRANCH  10  11
ENDBRANCH   9  10
ENDBRANCH   8   9
ENDBRANCH   7   8
ENDBRANCH   6   7
ENDBRANCH   5   6
ENDBRANCH   4   5
ENDBRANCH   3   4
ENDBRANCH   2   3
ENDBRANCH   1   2
BRANCH   1  18
ATOM     18  C   UNL     1     -19.543  17.318 -16.823  1.00  0.00     0.000 C 
BRANCH  18  19
ATOM     19  C   UNL     1     -18.848  18.688 -16.976  1.00  0.00     0.000 C 
BRANCH  19  20
ATOM     20  C   UNL     1     -17.443  18.563 -17.586  1.00  0.00     0.000 C 
BRANCH  20  21
ATOM     21  C   UNL     1     -17.224  19.503 -18.784  1.00  0.00     0.000 C 
BRANCH  21  22
ATOM     22  C   UNL     1     -17.611  18.918 -20.156  1.00  0.00     0.000 C 
BRANCH  22  23
ATOM     23  C   UNL     1     -17.526  17.383 -20.196  1.00  0.00     0.000 C 
BRANCH  23  24
ATOM     24  C   UNL     1     -16.181  16.868 -20.740  1.00  0.00    -0.000 C 
BRANCH  24  25
ATOM     25  C   UNL     1     -15.154  16.447 -19.667  1.00  0.00    -0.000 C 
BRANCH  25  26
ATOM     26  C   UNL     1     -13.679  16.726 -20.017  1.00  0.00    -0.000 C 
BRANCH  26  27
ATOM     27  C   UNL     1     -13.062  17.946 -19.309  1.00  0.00    -0.000 C 
BRANCH  27  28
ATOM     28  C   UNL     1     -13.839  18.366 -18.050  1.00  0.00    -0.000 C 
BRANCH  28  29
ATOM     29  C   UNL     1     -12.908  18.767 -16.892  1.00  0.00    -0.000 C 
BRANCH  29  30
ATOM     30  C   UNL     1     -13.233  20.161 -16.327  1.00  0.00    -0.000 C 
BRANCH  30  31
ATOM     31  C   UNL     1     -14.125  20.985 -17.270  1.00  0.00    -0.003 C 
ATOM     32  C   UNL     1     -14.002  22.490 -17.036  1.00  0.00     0.004 C 
ENDBRANCH  30  31
ENDBRANCH  29  30
ENDBRANCH  28  29
ENDBRANCH  27  28
ENDBRANCH  26  27
ENDBRANCH  25  26
ENDBRANCH  24  25
ENDBRANCH  23  24
ENDBRANCH  22  23
ENDBRANCH  21  22
ENDBRANCH  20  21
ENDBRANCH  19  20
ENDBRANCH  18  19
ENDBRANCH   1  18
TORSDOF 28
ENDMDL
