MODEL 1
REMARK VINA RESULT:    -6.975      0.000      0.000
REMARK INTER + INTRA:          -8.477
REMARK INTER:                  -8.199
REMARK INTRA:                  -0.279
REMARK UNBOUND:                -0.279
REMARK SMILES O=c1c(O)c(-c2ccc(O)cc2)oc2cc(O)cc(O)c12
REMARK SMILES IDX 5 1 3 2 2 3 1 4 21 5 19 6 18 7 16 8 15 9 14 10 13 11 6 12
REMARK SMILES IDX 7 13 8 14 9 15 12 16 11 17 10 18 4 20 20 22 17 24
REMARK H PARENT 10 19 4 21 20 23 17 25
REMARK Flexibility Score: inf
ROOT
ATOM      1  C   UNL     1     -12.954 -27.544  -9.562  1.00  0.00     0.180 A 
ATOM      2  C   UNL     1     -13.684 -27.044 -10.654  1.00  0.00     0.208 A 
ATOM      3  C   UNL     1     -14.426 -27.937 -11.443  1.00  0.00     0.238 A 
ATOM      4  O   UNL     1     -15.016 -27.494 -12.462  1.00  0.00    -0.285 OA
ATOM      5  C   UNL     1     -14.473 -29.310 -11.099  1.00  0.00     0.111 A 
ATOM      6  C   UNL     1     -15.230 -30.298 -11.801  1.00  0.00     0.134 A 
ATOM      7  C   UNL     1     -15.117 -31.644 -11.433  1.00  0.00     0.093 A 
ATOM      8  C   UNL     1     -14.328 -32.032 -10.350  1.00  0.00     0.123 A 
ATOM      9  C   UNL     1     -13.629 -31.068  -9.622  1.00  0.00     0.094 A 
ATOM     10  C   UNL     1     -13.691 -29.721  -9.988  1.00  0.00     0.146 A 
ATOM     11  O   UNL     1     -12.993 -28.841  -9.283  1.00  0.00    -0.452 OA
ENDROOT
BRANCH   1  12
ATOM     12  C   UNL     1     -12.136 -26.667  -8.693  1.00  0.00     0.021 A 
ATOM     13  C   UNL     1     -10.747 -26.545  -8.871  1.00  0.00     0.016 A 
ATOM     14  C   UNL     1      -9.993 -25.729  -8.022  1.00  0.00     0.047 A 
ATOM     15  C   UNL     1     -10.616 -25.037  -6.976  1.00  0.00     0.115 A 
ATOM     16  C   UNL     1     -12.749 -25.985  -7.628  1.00  0.00     0.016 A 
ATOM     17  C   UNL     1     -11.994 -25.170  -6.781  1.00  0.00     0.047 A 
BRANCH  15  18
ATOM     18  O   UNL     1      -9.876 -24.220  -6.124  1.00  0.00    -0.508 OA
ATOM     19  H   UNL     1      -8.874 -24.110  -6.235  1.00  0.00     0.293 HD
ENDBRANCH  15  18
ENDBRANCH   1  12
BRANCH   2  20
ATOM     20  O   UNL     1     -13.685 -25.674 -10.932  1.00  0.00    -0.502 OA
ATOM     21  H   UNL     1     -14.539 -25.144 -11.053  1.00  0.00     0.293 HD
ENDBRANCH   2  20
BRANCH   6  22
ATOM     22  O   UNL     1     -16.117 -30.011 -12.842  1.00  0.00    -0.507 OA
ATOM     23  H   UNL     1     -16.207 -29.114 -13.295  1.00  0.00     0.293 HD
ENDBRANCH   6  22
BRANCH   8  24
ATOM     24  O   UNL     1     -14.254 -33.379 -10.002  1.00  0.00    -0.508 OA
ATOM     25  H   UNL     1     -14.618 -34.104 -10.609  1.00  0.00     0.293 HD
ENDBRANCH   8  24
TORSDOF 5
ENDMDL
MODEL 2
REMARK VINA RESULT:    -6.863      0.086      1.059
REMARK INTER + INTRA:          -8.345
REMARK INTER:                  -8.101
REMARK INTRA:                  -0.244
REMARK UNBOUND:                -0.279
REMARK SMILES O=c1c(O)c(-c2ccc(O)cc2)oc2cc(O)cc(O)c12
REMARK SMILES IDX 5 1 3 2 2 3 1 4 21 5 19 6 18 7 16 8 15 9 14 10 13 11 6 12
REMARK SMILES IDX 7 13 8 14 9 15 12 16 11 17 10 18 4 20 20 22 17 24
REMARK H PARENT 10 19 4 21 20 23 17 25
REMARK Flexibility Score: inf
ROOT
ATOM      1  C   UNL     1     -13.022 -27.581  -9.546  1.00  0.00     0.180 A 
ATOM      2  C   UNL     1     -13.754 -27.072 -10.633  1.00  0.00     0.208 A 
ATOM      3  C   UNL     1     -14.481 -27.961 -11.440  1.00  0.00     0.238 A 
ATOM      4  O   UNL     1     -15.073 -27.508 -12.454  1.00  0.00    -0.285 OA
ATOM      5  C   UNL     1     -14.511 -29.340 -11.121  1.00  0.00     0.111 A 
ATOM      6  C   UNL     1     -15.252 -30.325 -11.844  1.00  0.00     0.134 A 
ATOM      7  C   UNL     1     -15.122 -31.676 -11.499  1.00  0.00     0.093 A 
ATOM      8  C   UNL     1     -14.333 -32.073 -10.420  1.00  0.00     0.123 A 
ATOM      9  C   UNL     1     -13.649 -31.113  -9.673  1.00  0.00     0.094 A 
ATOM     10  C   UNL     1     -13.728 -29.761 -10.015  1.00  0.00     0.146 A 
ATOM     11  O   UNL     1     -13.044 -28.884  -9.290  1.00  0.00    -0.452 OA
ENDROOT
BRANCH   1  12
ATOM     12  C   UNL     1     -12.220 -26.710  -8.658  1.00  0.00     0.021 A 
ATOM     13  C   UNL     1     -12.824 -25.916  -7.667  1.00  0.00     0.016 A 
ATOM     14  C   UNL     1     -12.047 -25.082  -6.857  1.00  0.00     0.047 A 
ATOM     15  C   UNL     1     -10.659 -25.022  -7.036  1.00  0.00     0.115 A 
ATOM     16  C   UNL     1     -10.829 -26.626  -8.844  1.00  0.00     0.016 A 
ATOM     17  C   UNL     1     -10.055 -25.793  -8.032  1.00  0.00     0.047 A 
BRANCH  15  18
ATOM     18  O   UNL     1      -9.875 -24.196  -6.234  1.00  0.00    -0.508 OA
ATOM     19  H   UNL     1     -10.211 -23.295  -5.913  1.00  0.00     0.293 HD
ENDBRANCH  15  18
ENDBRANCH   1  12
BRANCH   2  20
ATOM     20  O   UNL     1     -13.772 -25.697 -10.886  1.00  0.00    -0.502 OA
ATOM     21  H   UNL     1     -13.384 -25.020 -10.240  1.00  0.00     0.293 HD
ENDBRANCH   2  20
BRANCH   6  22
ATOM     22  O   UNL     1     -16.139 -30.031 -12.883  1.00  0.00    -0.507 OA
ATOM     23  H   UNL     1     -15.868 -29.813 -13.830  1.00  0.00     0.293 HD
ENDBRANCH   6  22
BRANCH   8  24
ATOM     24  O   UNL     1     -14.241 -33.424 -10.096  1.00  0.00    -0.508 OA
ATOM     25  H   UNL     1     -14.750 -34.130 -10.617  1.00  0.00     0.293 HD
ENDBRANCH   8  24
TORSDOF 5
ENDMDL
MODEL 3
REMARK VINA RESULT:    -6.816      3.625      5.067
REMARK INTER + INTRA:          -8.290
REMARK INTER:                  -8.283
REMARK INTRA:                  -0.008
REMARK UNBOUND:                -0.279
REMARK SMILES O=c1c(O)c(-c2ccc(O)cc2)oc2cc(O)cc(O)c12
REMARK SMILES IDX 5 1 3 2 2 3 1 4 21 5 19 6 18 7 16 8 15 9 14 10 13 11 6 12
REMARK SMILES IDX 7 13 8 14 9 15 12 16 11 17 10 18 4 20 20 22 17 24
REMARK H PARENT 10 19 4 21 20 23 17 25
REMARK Flexibility Score: inf
ROOT
ATOM      1  C   UNL     1     -13.186 -29.347 -12.054  1.00  0.00     0.180 A 
ATOM      2  C   UNL     1     -13.373 -30.494 -12.844  1.00  0.00     0.208 A 
ATOM      3  C   UNL     1     -12.931 -31.735 -12.359  1.00  0.00     0.238 A 
ATOM      4  O   UNL     1     -13.034 -32.745 -13.102  1.00  0.00    -0.285 OA
ATOM      5  C   UNL     1     -12.357 -31.823 -11.067  1.00  0.00     0.111 A 
ATOM      6  C   UNL     1     -11.915 -33.036 -10.456  1.00  0.00     0.134 A 
ATOM      7  C   UNL     1     -11.266 -32.988  -9.216  1.00  0.00     0.093 A 
ATOM      8  C   UNL     1     -11.100 -31.782  -8.535  1.00  0.00     0.123 A 
ATOM      9  C   UNL     1     -11.579 -30.598  -9.099  1.00  0.00     0.094 A 
ATOM     10  C   UNL     1     -12.196 -30.608 -10.352  1.00  0.00     0.146 A 
ATOM     11  O   UNL     1     -12.616 -29.457 -10.860  1.00  0.00    -0.452 OA
ENDROOT
BRANCH   1  12
ATOM     12  C   UNL     1     -13.612 -28.002 -12.503  1.00  0.00     0.021 A 
ATOM     13  C   UNL     1     -13.231 -27.492 -13.757  1.00  0.00     0.016 A 
ATOM     14  C   UNL     1     -13.626 -26.209 -14.148  1.00  0.00     0.047 A 
ATOM     15  C   UNL     1     -14.394 -25.416 -13.287  1.00  0.00     0.115 A 
ATOM     16  C   UNL     1     -14.366 -27.192 -11.637  1.00  0.00     0.016 A 
ATOM     17  C   UNL     1     -14.760 -25.910 -12.031  1.00  0.00     0.047 A 
BRANCH  15  18
ATOM     18  O   UNL     1     -14.795 -24.137 -13.666  1.00  0.00    -0.508 OA
ATOM     19  H   UNL     1     -15.536 -23.993 -14.343  1.00  0.00     0.293 HD
ENDBRANCH  15  18
ENDBRANCH   1  12
BRANCH   2  20
ATOM     20  O   UNL     1     -14.011 -30.398 -14.085  1.00  0.00    -0.502 OA
ATOM     21  H   UNL     1     -15.014 -30.490 -14.189  1.00  0.00     0.293 HD
ENDBRANCH   2  20
BRANCH   6  22
ATOM     22  O   UNL     1     -12.108 -34.307 -11.006  1.00  0.00    -0.507 OA
ATOM     23  H   UNL     1     -11.524 -34.725 -11.715  1.00  0.00     0.293 HD
ENDBRANCH   6  22
BRANCH   8  24
ATOM     24  O   UNL     1     -10.465 -31.774  -7.296  1.00  0.00    -0.508 OA
ATOM     25  H   UNL     1     -10.738 -32.412  -6.557  1.00  0.00     0.293 HD
ENDBRANCH   8  24
TORSDOF 5
ENDMDL
MODEL 4
REMARK VINA RESULT:    -6.796      2.866      6.723
REMARK INTER + INTRA:          -8.267
REMARK INTER:                  -7.970
REMARK INTRA:                  -0.296
REMARK UNBOUND:                -0.279
REMARK SMILES O=c1c(O)c(-c2ccc(O)cc2)oc2cc(O)cc(O)c12
REMARK SMILES IDX 5 1 3 2 2 3 1 4 21 5 19 6 18 7 16 8 15 9 14 10 13 11 6 12
REMARK SMILES IDX 7 13 8 14 9 15 12 16 11 17 10 18 4 20 20 22 17 24
REMARK H PARENT 10 19 4 21 20 23 17 25
REMARK Flexibility Score: inf
ROOT
ATOM      1  C   UNL     1     -13.584 -30.509 -12.189  1.00  0.00     0.180 A 
ATOM      2  C   UNL     1     -13.732 -29.301 -12.893  1.00  0.00     0.208 A 
ATOM      3  C   UNL     1     -14.018 -28.127 -12.178  1.00  0.00     0.238 A 
ATOM      4  O   UNL     1     -14.224 -27.065 -12.820  1.00  0.00    -0.285 OA
ATOM      5  C   UNL     1     -14.097 -28.164 -10.764  1.00  0.00     0.111 A 
ATOM      6  C   UNL     1     -14.337 -27.026  -9.934  1.00  0.00     0.134 A 
ATOM      7  C   UNL     1     -14.500 -27.200  -8.554  1.00  0.00     0.093 A 
ATOM      8  C   UNL     1     -14.368 -28.457  -7.966  1.00  0.00     0.123 A 
ATOM      9  C   UNL     1     -14.078 -29.567  -8.761  1.00  0.00     0.094 A 
ATOM     10  C   UNL     1     -13.948 -29.432 -10.145  1.00  0.00     0.146 A 
ATOM     11  O   UNL     1     -13.695 -30.517 -10.866  1.00  0.00    -0.452 OA
ENDROOT
BRANCH   1  12
ATOM     12  C   UNL     1     -13.296 -31.790 -12.873  1.00  0.00     0.021 A 
ATOM     13  C   UNL     1     -14.330 -32.621 -13.340  1.00  0.00     0.016 A 
ATOM     14  C   UNL     1     -14.033 -33.838 -13.961  1.00  0.00     0.047 A 
ATOM     15  C   UNL     1     -12.702 -34.245 -14.112  1.00  0.00     0.115 A 
ATOM     16  C   UNL     1     -11.964 -32.217 -13.009  1.00  0.00     0.016 A 
ATOM     17  C   UNL     1     -11.671 -33.433 -13.631  1.00  0.00     0.047 A 
BRANCH  15  18
ATOM     18  O   UNL     1     -12.394 -35.455 -14.730  1.00  0.00    -0.508 OA
ATOM     19  H   UNL     1     -13.112 -36.140 -14.939  1.00  0.00     0.293 HD
ENDBRANCH  15  18
ENDBRANCH   1  12
BRANCH   2  20
ATOM     20  O   UNL     1     -13.575 -29.272 -14.281  1.00  0.00    -0.502 OA
ATOM     21  H   UNL     1     -14.062 -28.607 -14.869  1.00  0.00     0.293 HD
ENDBRANCH   2  20
BRANCH   6  22
ATOM     22  O   UNL     1     -14.400 -25.712 -10.406  1.00  0.00    -0.507 OA
ATOM     23  H   UNL     1     -13.851 -24.943 -10.052  1.00  0.00     0.293 HD
ENDBRANCH   6  22
BRANCH   8  24
ATOM     24  O   UNL     1     -14.519 -28.590  -6.587  1.00  0.00    -0.508 OA
ATOM     25  H   UNL     1     -15.360 -28.279  -6.115  1.00  0.00     0.293 HD
ENDBRANCH   8  24
TORSDOF 5
ENDMDL
MODEL 5
REMARK VINA RESULT:    -6.776      3.712      5.359
REMARK INTER + INTRA:          -8.243
REMARK INTER:                  -7.950
REMARK INTRA:                  -0.293
REMARK UNBOUND:                -0.279
REMARK SMILES O=c1c(O)c(-c2ccc(O)cc2)oc2cc(O)cc(O)c12
REMARK SMILES IDX 5 1 3 2 2 3 1 4 21 5 19 6 18 7 16 8 15 9 14 10 13 11 6 12
REMARK SMILES IDX 7 13 8 14 9 15 12 16 11 17 10 18 4 20 20 22 17 24
REMARK H PARENT 10 19 4 21 20 23 17 25
REMARK Flexibility Score: inf
ROOT
ATOM      1  C   UNL     1     -13.193 -29.788 -11.871  1.00  0.00     0.180 A 
ATOM      2  C   UNL     1     -12.913 -30.128 -10.536  1.00  0.00     0.208 A 
ATOM      3  C   UNL     1     -12.463 -31.425 -10.244  1.00  0.00     0.238 A 
ATOM      4  O   UNL     1     -12.287 -31.746  -9.040  1.00  0.00    -0.285 OA
ATOM      5  C   UNL     1     -12.246 -32.350 -11.295  1.00  0.00     0.111 A 
ATOM      6  C   UNL     1     -11.749 -33.677 -11.119  1.00  0.00     0.134 A 
ATOM      7  C   UNL     1     -11.674 -34.538 -12.221  1.00  0.00     0.093 A 
ATOM      8  C   UNL     1     -12.016 -34.102 -13.501  1.00  0.00     0.123 A 
ATOM      9  C   UNL     1     -12.450 -32.790 -13.693  1.00  0.00     0.094 A 
ATOM     10  C   UNL     1     -12.572 -31.919 -12.608  1.00  0.00     0.146 A 
ATOM     11  O   UNL     1     -13.010 -30.686 -12.832  1.00  0.00    -0.452 OA
ENDROOT
BRANCH   1  12
ATOM     12  C   UNL     1     -13.685 -28.445 -12.256  1.00  0.00     0.021 A 
ATOM     13  C   UNL     1     -15.060 -28.170 -12.365  1.00  0.00     0.016 A 
ATOM     14  C   UNL     1     -15.498 -26.901 -12.754  1.00  0.00     0.047 A 
ATOM     15  C   UNL     1     -14.569 -25.895 -13.052  1.00  0.00     0.115 A 
ATOM     16  C   UNL     1     -12.760 -27.437 -12.578  1.00  0.00     0.016 A 
ATOM     17  C   UNL     1     -13.201 -26.169 -12.966  1.00  0.00     0.047 A 
BRANCH  15  18
ATOM     18  O   UNL     1     -14.995 -24.627 -13.439  1.00  0.00    -0.508 OA
ATOM     19  H   UNL     1     -15.536 -24.038 -12.817  1.00  0.00     0.293 HD
ENDBRANCH  15  18
ENDBRANCH   1  12
BRANCH   2  20
ATOM     20  O   UNL     1     -13.062 -29.178  -9.522  1.00  0.00    -0.502 OA
ATOM     21  H   UNL     1     -12.826 -28.202  -9.653  1.00  0.00     0.293 HD
ENDBRANCH   2  20
BRANCH   6  22
ATOM     22  O   UNL     1     -11.296 -34.189  -9.900  1.00  0.00    -0.507 OA
ATOM     23  H   UNL     1     -11.300 -35.165  -9.645  1.00  0.00     0.293 HD
ENDBRANCH   6  22
BRANCH   8  24
ATOM     24  O   UNL     1     -11.913 -34.981 -14.577  1.00  0.00    -0.508 OA
ATOM     25  H   UNL     1     -12.381 -34.799 -15.457  1.00  0.00     0.293 HD
ENDBRANCH   8  24
TORSDOF 5
ENDMDL
MODEL 6
REMARK VINA RESULT:    -6.588      3.271      7.244
REMARK INTER + INTRA:          -8.022
REMARK INTER:                  -7.761
REMARK INTRA:                  -0.261
REMARK UNBOUND:                -0.279
REMARK SMILES O=c1c(O)c(-c2ccc(O)cc2)oc2cc(O)cc(O)c12
REMARK SMILES IDX 5 1 3 2 2 3 1 4 21 5 19 6 18 7 16 8 15 9 14 10 13 11 6 12
REMARK SMILES IDX 7 13 8 14 9 15 12 16 11 17 10 18 4 20 20 22 17 24
REMARK H PARENT 10 19 4 21 20 23 17 25
REMARK Flexibility Score: inf
ROOT
ATOM      1  C   UNL     1     -13.116 -31.964 -12.720  1.00  0.00     0.180 A 
ATOM      2  C   UNL     1     -14.474 -31.941 -13.084  1.00  0.00     0.208 A 
ATOM      3  C   UNL     1     -15.186 -30.736 -12.979  1.00  0.00     0.238 A 
ATOM      4  O   UNL     1     -16.418 -30.740 -13.234  1.00  0.00    -0.285 OA
ATOM      5  C   UNL     1     -14.521 -29.557 -12.563  1.00  0.00     0.111 A 
ATOM      6  C   UNL     1     -15.134 -28.271 -12.464  1.00  0.00     0.134 A 
ATOM      7  C   UNL     1     -14.403 -27.197 -11.940  1.00  0.00     0.093 A 
ATOM      8  C   UNL     1     -13.066 -27.345 -11.573  1.00  0.00     0.123 A 
ATOM      9  C   UNL     1     -12.441 -28.584 -11.719  1.00  0.00     0.094 A 
ATOM     10  C   UNL     1     -13.154 -29.684 -12.202  1.00  0.00     0.146 A 
ATOM     11  O   UNL     1     -12.527 -30.849 -12.304  1.00  0.00    -0.452 OA
ENDROOT
BRANCH   1  12
ATOM     12  C   UNL     1     -12.302 -33.199 -12.790  1.00  0.00     0.021 A 
ATOM     13  C   UNL     1     -11.779 -33.665 -14.009  1.00  0.00     0.016 A 
ATOM     14  C   UNL     1     -11.033 -34.848 -14.053  1.00  0.00     0.047 A 
ATOM     15  C   UNL     1     -10.814 -35.585 -12.882  1.00  0.00     0.115 A 
ATOM     16  C   UNL     1     -12.095 -33.956 -11.624  1.00  0.00     0.016 A 
ATOM     17  C   UNL     1     -11.348 -35.137 -11.671  1.00  0.00     0.047 A 
BRANCH  15  18
ATOM     18  O   UNL     1     -10.072 -36.763 -12.913  1.00  0.00    -0.508 OA
ATOM     19  H   UNL     1      -9.149 -36.797 -13.333  1.00  0.00     0.293 HD
ENDBRANCH  15  18
ENDBRANCH   1  12
BRANCH   2  20
ATOM     20  O   UNL     1     -15.093 -33.098 -13.564  1.00  0.00    -0.502 OA
ATOM     21  H   UNL     1     -16.052 -33.335 -13.338  1.00  0.00     0.293 HD
ENDBRANCH   2  20
BRANCH   6  22
ATOM     22  O   UNL     1     -16.437 -27.989 -12.883  1.00  0.00    -0.507 OA
ATOM     23  H   UNL     1     -17.045 -28.639 -13.357  1.00  0.00     0.293 HD
ENDBRANCH   6  22
BRANCH   8  24
ATOM     24  O   UNL     1     -12.365 -26.250 -11.072  1.00  0.00    -0.508 OA
ATOM     25  H   UNL     1     -11.978 -25.543 -11.686  1.00  0.00     0.293 HD
ENDBRANCH   8  24
TORSDOF 5
ENDMDL
MODEL 7
REMARK VINA RESULT:    -6.530      3.037      7.352
REMARK INTER + INTRA:          -7.954
REMARK INTER:                  -7.656
REMARK INTRA:                  -0.298
REMARK UNBOUND:                -0.279
REMARK SMILES O=c1c(O)c(-c2ccc(O)cc2)oc2cc(O)cc(O)c12
REMARK SMILES IDX 5 1 3 2 2 3 1 4 21 5 19 6 18 7 16 8 15 9 14 10 13 11 6 12
REMARK SMILES IDX 7 13 8 14 9 15 12 16 11 17 10 18 4 20 20 22 17 24
REMARK H PARENT 10 19 4 21 20 23 17 25
REMARK Flexibility Score: inf
ROOT
ATOM      1  C   UNL     1     -13.645 -30.772 -12.248  1.00  0.00     0.180 A 
ATOM      2  C   UNL     1     -13.726 -30.712 -10.846  1.00  0.00     0.208 A 
ATOM      3  C   UNL     1     -13.948 -29.471 -10.230  1.00  0.00     0.238 A 
ATOM      4  O   UNL     1     -13.944 -29.412  -8.973  1.00  0.00    -0.285 OA
ATOM      5  C   UNL     1     -14.142 -28.314 -11.023  1.00  0.00     0.111 A 
ATOM      6  C   UNL     1     -14.420 -27.011 -10.506  1.00  0.00     0.134 A 
ATOM      7  C   UNL     1     -14.488 -25.921 -11.382  1.00  0.00     0.093 A 
ATOM      8  C   UNL     1     -14.355 -26.093 -12.760  1.00  0.00     0.123 A 
ATOM      9  C   UNL     1     -14.139 -27.370 -13.280  1.00  0.00     0.094 A 
ATOM     10  C   UNL     1     -14.027 -28.472 -12.429  1.00  0.00     0.146 A 
ATOM     11  O   UNL     1     -13.800 -29.665 -12.964  1.00  0.00    -0.452 OA
ENDROOT
BRANCH   1  12
ATOM     12  C   UNL     1     -13.399 -32.041 -12.970  1.00  0.00     0.021 A 
ATOM     13  C   UNL     1     -12.094 -32.502 -13.221  1.00  0.00     0.016 A 
ATOM     14  C   UNL     1     -11.887 -33.691 -13.926  1.00  0.00     0.047 A 
ATOM     15  C   UNL     1     -12.980 -34.427 -14.401  1.00  0.00     0.115 A 
ATOM     16  C   UNL     1     -14.488 -32.775 -13.469  1.00  0.00     0.016 A 
ATOM     17  C   UNL     1     -14.278 -33.964 -14.173  1.00  0.00     0.047 A 
BRANCH  15  18
ATOM     18  O   UNL     1     -12.785 -35.614 -15.103  1.00  0.00    -0.508 OA
ATOM     19  H   UNL     1     -13.183 -35.755 -16.026  1.00  0.00     0.293 HD
ENDBRANCH  15  18
ENDBRANCH   1  12
BRANCH   2  20
ATOM     20  O   UNL     1     -13.607 -31.878 -10.084  1.00  0.00    -0.502 OA
ATOM     21  H   UNL     1     -14.193 -32.063  -9.279  1.00  0.00     0.293 HD
ENDBRANCH   2  20
BRANCH   6  22
ATOM     22  O   UNL     1     -14.658 -26.739  -9.156  1.00  0.00    -0.507 OA
ATOM     23  H   UNL     1     -14.696 -27.432  -8.424  1.00  0.00     0.293 HD
ENDBRANCH   6  22
BRANCH   8  24
ATOM     24  O   UNL     1     -14.446 -24.988 -13.602  1.00  0.00    -0.508 OA
ATOM     25  H   UNL     1     -14.839 -25.063 -14.534  1.00  0.00     0.293 HD
ENDBRANCH   8  24
TORSDOF 5
ENDMDL
MODEL 8
REMARK VINA RESULT:    -6.262      1.838      2.001
REMARK INTER + INTRA:          -7.639
REMARK INTER:                  -7.343
REMARK INTRA:                  -0.296
REMARK UNBOUND:                -0.279
REMARK SMILES O=c1c(O)c(-c2ccc(O)cc2)oc2cc(O)cc(O)c12
REMARK SMILES IDX 5 1 3 2 2 3 1 4 21 5 19 6 18 7 16 8 15 9 14 10 13 11 6 12
REMARK SMILES IDX 7 13 8 14 9 15 12 16 11 17 10 18 4 20 20 22 17 24
REMARK H PARENT 10 19 4 21 20 23 17 25
REMARK Flexibility Score: inf
ROOT
ATOM      1  C   UNL     1     -12.814 -28.892 -10.194  1.00  0.00     0.180 A 
ATOM      2  C   UNL     1     -13.966 -28.494 -10.893  1.00  0.00     0.208 A 
ATOM      3  C   UNL     1     -14.511 -29.359 -11.855  1.00  0.00     0.238 A 
ATOM      4  O   UNL     1     -15.498 -28.965 -12.530  1.00  0.00    -0.285 OA
ATOM      5  C   UNL     1     -13.932 -30.634 -12.067  1.00  0.00     0.111 A 
ATOM      6  C   UNL     1     -14.428 -31.609 -12.985  1.00  0.00     0.134 A 
ATOM      7  C   UNL     1     -13.711 -32.795 -13.187  1.00  0.00     0.093 A 
ATOM      8  C   UNL     1     -12.553 -33.070 -12.460  1.00  0.00     0.123 A 
ATOM      9  C   UNL     1     -12.090 -32.147 -11.521  1.00  0.00     0.094 A 
ATOM     10  C   UNL     1     -12.762 -30.939 -11.324  1.00  0.00     0.146 A 
ATOM     11  O   UNL     1     -12.274 -30.081 -10.437  1.00  0.00    -0.452 OA
ENDROOT
BRANCH   1  12
ATOM     12  C   UNL     1     -12.172 -28.030  -9.176  1.00  0.00     0.021 A 
ATOM     13  C   UNL     1     -11.183 -27.093  -9.525  1.00  0.00     0.016 A 
ATOM     14  C   UNL     1     -10.575 -26.307  -8.541  1.00  0.00     0.047 A 
ATOM     15  C   UNL     1     -10.937 -26.457  -7.197  1.00  0.00     0.115 A 
ATOM     16  C   UNL     1     -12.514 -28.188  -7.822  1.00  0.00     0.016 A 
ATOM     17  C   UNL     1     -11.905 -27.400  -6.841  1.00  0.00     0.047 A 
BRANCH  15  18
ATOM     18  O   UNL     1     -10.339 -25.678  -6.209  1.00  0.00    -0.508 OA
ATOM     19  H   UNL     1     -10.557 -24.694  -6.106  1.00  0.00     0.293 HD
ENDBRANCH  15  18
ENDBRANCH   1  12
BRANCH   2  20
ATOM     20  O   UNL     1     -14.567 -27.263 -10.616  1.00  0.00    -0.502 OA
ATOM     21  H   UNL     1     -14.043 -26.465 -10.279  1.00  0.00     0.293 HD
ENDBRANCH   2  20
BRANCH   6  22
ATOM     22  O   UNL     1     -15.623 -31.477 -13.699  1.00  0.00    -0.507 OA
ATOM     23  H   UNL     1     -16.340 -32.183 -13.762  1.00  0.00     0.293 HD
ENDBRANCH   6  22
BRANCH   8  24
ATOM     24  O   UNL     1     -11.874 -34.267 -12.676  1.00  0.00    -0.508 OA
ATOM     25  H   UNL     1     -11.055 -34.312 -13.271  1.00  0.00     0.293 HD
ENDBRANCH   8  24
TORSDOF 5
ENDMDL
MODEL 9
REMARK VINA RESULT:    -6.257      2.701      4.024
REMARK INTER + INTRA:          -7.633
REMARK INTER:                  -7.363
REMARK INTRA:                  -0.271
REMARK UNBOUND:                -0.279
REMARK SMILES O=c1c(O)c(-c2ccc(O)cc2)oc2cc(O)cc(O)c12
REMARK SMILES IDX 5 1 3 2 2 3 1 4 21 5 19 6 18 7 16 8 15 9 14 10 13 11 6 12
REMARK SMILES IDX 7 13 8 14 9 15 12 16 11 17 10 18 4 20 20 22 17 24
REMARK H PARENT 10 19 4 21 20 23 17 25
REMARK Flexibility Score: inf
ROOT
ATOM      1  C   UNL     1     -13.688 -30.107 -11.187  1.00  0.00     0.180 A 
ATOM      2  C   UNL     1     -14.587 -30.404 -12.226  1.00  0.00     0.208 A 
ATOM      3  C   UNL     1     -14.372 -31.553 -13.004  1.00  0.00     0.238 A 
ATOM      4  O   UNL     1     -15.136 -31.773 -13.979  1.00  0.00    -0.285 OA
ATOM      5  C   UNL     1     -13.293 -32.420 -12.699  1.00  0.00     0.111 A 
ATOM      6  C   UNL     1     -13.008 -33.635 -13.393  1.00  0.00     0.134 A 
ATOM      7  C   UNL     1     -11.852 -34.358 -13.071  1.00  0.00     0.093 A 
ATOM      8  C   UNL     1     -11.007 -33.946 -12.041  1.00  0.00     0.123 A 
ATOM      9  C   UNL     1     -11.307 -32.789 -11.320  1.00  0.00     0.094 A 
ATOM     10  C   UNL     1     -12.432 -32.026 -11.642  1.00  0.00     0.146 A 
ATOM     11  O   UNL     1     -12.668 -30.921 -10.946  1.00  0.00    -0.452 OA
ENDROOT
BRANCH   1  12
ATOM     12  C   UNL     1     -13.839 -28.906 -10.334  1.00  0.00     0.021 A 
ATOM     13  C   UNL     1     -13.431 -27.635 -10.775  1.00  0.00     0.016 A 
ATOM     14  C   UNL     1     -13.563 -26.521  -9.941  1.00  0.00     0.047 A 
ATOM     15  C   UNL     1     -14.090 -26.665  -8.651  1.00  0.00     0.115 A 
ATOM     16  C   UNL     1     -14.347 -29.045  -9.031  1.00  0.00     0.016 A 
ATOM     17  C   UNL     1     -14.478 -27.929  -8.200  1.00  0.00     0.047 A 
BRANCH  15  18
ATOM     18  O   UNL     1     -14.226 -25.562  -7.812  1.00  0.00    -0.508 OA
ATOM     19  H   UNL     1     -14.012 -25.620  -6.823  1.00  0.00     0.293 HD
ENDBRANCH  15  18
ENDBRANCH   1  12
BRANCH   2  20
ATOM     20  O   UNL     1     -15.688 -29.577 -12.463  1.00  0.00    -0.502 OA
ATOM     21  H   UNL     1     -15.817 -28.694 -11.983  1.00  0.00     0.293 HD
ENDBRANCH   2  20
BRANCH   6  22
ATOM     22  O   UNL     1     -13.831 -34.187 -14.379  1.00  0.00    -0.507 OA
ATOM     23  H   UNL     1     -14.741 -34.589 -14.215  1.00  0.00     0.293 HD
ENDBRANCH   6  22
BRANCH   8  24
ATOM     24  O   UNL     1      -9.876 -34.699 -11.738  1.00  0.00    -0.508 OA
ATOM     25  H   UNL     1      -9.790 -35.197 -10.859  1.00  0.00     0.293 HD
ENDBRANCH   8  24
TORSDOF 5
ENDMDL
