MODEL 1
REMARK VINA RESULT:    -3.664      0.000      0.000
REMARK INTER + INTRA:          -8.284
REMARK INTER:                  -6.234
REMARK INTRA:                  -2.050
REMARK UNBOUND:                -2.050
REMARK SMILES CCCCCCCCCCCCCC(=O)[O-]
REMARK SMILES IDX 8 1 9 2 10 3 11 4 12 5 13 6 14 7 15 8 16 9 7 10 6 11 5 12
REMARK SMILES IDX 4 13 3 14 2 15 1 16
REMARK H PARENT
REMARK Flexibility Score: inf
ROOT
ATOM      1  C   UNL     1     -33.940  12.802  14.147  1.00  0.00     0.000 C 
ENDROOT
BRANCH   1   2
ATOM      2  C   UNL     1     -33.516  14.073  13.389  1.00  0.00     0.000 C 
BRANCH   2   3
ATOM      3  C   UNL     1     -32.025  14.067  13.008  1.00  0.00     0.000 C 
BRANCH   3   4
ATOM      4  C   UNL     1     -31.198  15.053  13.849  1.00  0.00     0.000 C 
BRANCH   4   5
ATOM      5  C   UNL     1     -29.908  14.423  14.396  1.00  0.00     0.006 C 
BRANCH   5   6
ATOM      6  C   UNL     1     -29.643  14.880  15.833  1.00  0.00     0.053 C 
BRANCH   6   7
ATOM      7  C   UNL     1     -28.205  15.256  16.006  1.00  0.00     0.041 C 
ATOM      8  O   UNL     1     -27.426  15.253  15.017  1.00  0.00    -0.550 OA
ATOM      9  O   UNL     1     -27.714  15.564  17.268  1.00  0.00    -0.550 OA
ENDBRANCH   6   7
ENDBRANCH   5   6
ENDBRANCH   4   5
ENDBRANCH   3   4
ENDBRANCH   2   3
ENDBRANCH   1   2
BRANCH   1  10
ATOM     10  C   UNL     1     -33.396  12.689  15.585  1.00  0.00     0.000 C 
BRANCH  10  11
ATOM     11  C   UNL     1     -32.740  11.340  15.932  1.00  0.00    -0.000 C 
BRANCH  11  12
ATOM     12  C   UNL     1     -31.223  11.449  16.137  1.00  0.00    -0.000 C 
BRANCH  12  13
ATOM     13  C   UNL     1     -30.464  10.792  14.978  1.00  0.00    -0.000 C 
BRANCH  13  14
ATOM     14  C   UNL     1     -31.421  10.024  14.058  1.00  0.00    -0.000 C 
BRANCH  14  15
ATOM     15  C   UNL     1     -31.196  10.403  12.590  1.00  0.00    -0.003 C 
ATOM     16  C   UNL     1     -29.871  11.137  12.407  1.00  0.00     0.004 C 
ENDBRANCH  14  15
ENDBRANCH  13  14
ENDBRANCH  12  13
ENDBRANCH  11  12
ENDBRANCH  10  11
ENDBRANCH   1  10
TORSDOF 12
ENDMDL
MODEL 2
REMARK VINA RESULT:    -3.646      2.022      4.775
REMARK INTER + INTRA:          -8.253
REMARK INTER:                  -7.063
REMARK INTRA:                  -1.190
REMARK UNBOUND:                -2.050
REMARK SMILES CCCCCCCCCCCCCC(=O)[O-]
REMARK SMILES IDX 8 1 9 2 10 3 11 4 12 5 13 6 14 7 15 8 16 9 7 10 6 11 5 12
REMARK SMILES IDX 4 13 3 14 2 15 1 16
REMARK H PARENT
REMARK Flexibility Score: inf
ROOT
ATOM      1  C   UNL     1     -33.366  13.497  14.747  1.00  0.00     0.000 C 
ENDROOT
BRANCH   1   2
ATOM      2  C   UNL     1     -33.448  11.961  14.698  1.00  0.00     0.000 C 
BRANCH   2   3
ATOM      3  C   UNL     1     -33.598  11.419  13.266  1.00  0.00     0.000 C 
BRANCH   3   4
ATOM      4  C   UNL     1     -32.464  10.456  12.879  1.00  0.00     0.000 C 
BRANCH   4   5
ATOM      5  C   UNL     1     -31.109  10.870  13.474  1.00  0.00     0.006 C 
BRANCH   5   6
ATOM      6  C   UNL     1     -30.006  10.820  12.413  1.00  0.00     0.053 C 
BRANCH   6   7
ATOM      7  C   UNL     1     -28.659  10.939  13.053  1.00  0.00     0.041 C 
ATOM      8  O   UNL     1     -28.108  12.066  13.166  1.00  0.00    -0.550 OA
ATOM      9  O   UNL     1     -27.990   9.800  13.481  1.00  0.00    -0.550 OA
ENDBRANCH   6   7
ENDBRANCH   5   6
ENDBRANCH   4   5
ENDBRANCH   3   4
ENDBRANCH   2   3
ENDBRANCH   1   2
BRANCH   1  10
ATOM     10  C   UNL     1     -33.086  14.178  13.392  1.00  0.00     0.000 C 
BRANCH  10  11
ATOM     11  C   UNL     1     -31.618  14.575  13.151  1.00  0.00    -0.000 C 
BRANCH  11  12
ATOM     12  C   UNL     1     -30.917  15.067  14.424  1.00  0.00    -0.000 C 
BRANCH  12  13
ATOM     13  C   UNL     1     -29.631  14.271  14.684  1.00  0.00    -0.000 C 
BRANCH  13  14
ATOM     14  C   UNL     1     -28.887  14.813  15.912  1.00  0.00    -0.000 C 
BRANCH  14  15
ATOM     15  C   UNL     1     -29.868  15.400  16.934  1.00  0.00    -0.003 C 
ATOM     16  C   UNL     1     -29.169  16.390  17.861  1.00  0.00     0.004 C 
ENDBRANCH  14  15
ENDBRANCH  13  14
ENDBRANCH  12  13
ENDBRANCH  11  12
ENDBRANCH  10  11
ENDBRANCH   1  10
TORSDOF 12
ENDMDL
MODEL 3
REMARK VINA RESULT:    -3.567      1.292      2.423
REMARK INTER + INTRA:          -8.118
REMARK INTER:                  -6.330
REMARK INTRA:                  -1.789
REMARK UNBOUND:                -2.050
REMARK SMILES CCCCCCCCCCCCCC(=O)[O-]
REMARK SMILES IDX 8 1 9 2 10 3 11 4 12 5 13 6 14 7 15 8 16 9 7 10 6 11 5 12
REMARK SMILES IDX 4 13 3 14 2 15 1 16
REMARK H PARENT
REMARK Flexibility Score: inf
ROOT
ATOM      1  C   UNL     1     -31.841  14.335  12.991  1.00  0.00     0.000 C 
ENDROOT
BRANCH   1   2
ATOM      2  C   UNL     1     -30.974  15.108  14.001  1.00  0.00     0.000 C 
BRANCH   2   3
ATOM      3  C   UNL     1     -29.862  14.241  14.615  1.00  0.00     0.000 C 
BRANCH   3   4
ATOM      4  C   UNL     1     -30.238  13.698  16.004  1.00  0.00     0.000 C 
BRANCH   4   5
ATOM      5  C   UNL     1     -30.820  14.783  16.923  1.00  0.00     0.006 C 
BRANCH   5   6
ATOM      6  C   UNL     1     -29.911  15.023  18.131  1.00  0.00     0.053 C 
BRANCH   6   7
ATOM      7  C   UNL     1     -28.903  16.085  17.825  1.00  0.00     0.041 C 
ATOM      8  O   UNL     1     -29.112  17.277  18.175  1.00  0.00    -0.550 OA
ATOM      9  O   UNL     1     -27.756  15.769  17.109  1.00  0.00    -0.550 OA
ENDBRANCH   6   7
ENDBRANCH   5   6
ENDBRANCH   4   5
ENDBRANCH   3   4
ENDBRANCH   2   3
ENDBRANCH   1   2
BRANCH   1  10
ATOM     10  C   UNL     1     -33.312  14.140  13.409  1.00  0.00     0.000 C 
BRANCH  10  11
ATOM     11  C   UNL     1     -33.608  12.837  14.173  1.00  0.00    -0.000 C 
BRANCH  11  12
ATOM     12  C   UNL     1     -32.983  11.601  13.510  1.00  0.00    -0.000 C 
BRANCH  12  13
ATOM     13  C   UNL     1     -32.015  10.895  14.467  1.00  0.00    -0.000 C 
BRANCH  13  14
ATOM     14  C   UNL     1     -30.946  10.115  13.693  1.00  0.00    -0.000 C 
BRANCH  14  15
ATOM     15  C   UNL     1     -30.221  11.021  12.692  1.00  0.00    -0.003 C 
ATOM     16  C   UNL     1     -28.736  11.136  13.025  1.00  0.00     0.004 C 
ENDBRANCH  14  15
ENDBRANCH  13  14
ENDBRANCH  12  13
ENDBRANCH  11  12
ENDBRANCH  10  11
ENDBRANCH   1  10
TORSDOF 12
ENDMDL
MODEL 4
REMARK VINA RESULT:    -3.555      2.607      5.390
REMARK INTER + INTRA:          -8.099
REMARK INTER:                  -7.018
REMARK INTRA:                  -1.081
REMARK UNBOUND:                -2.050
REMARK SMILES CCCCCCCCCCCCCC(=O)[O-]
REMARK SMILES IDX 8 1 9 2 10 3 11 4 12 5 13 6 14 7 15 8 16 9 7 10 6 11 5 12
REMARK SMILES IDX 4 13 3 14 2 15 1 16
REMARK H PARENT
REMARK Flexibility Score: inf
ROOT
ATOM      1  C   UNL     1     -32.499  14.417  13.469  1.00  0.00     0.000 C 
ENDROOT
BRANCH   1   2
ATOM      2  C   UNL     1     -33.287  13.566  14.482  1.00  0.00     0.000 C 
BRANCH   2   3
ATOM      3  C   UNL     1     -33.667  12.183  13.927  1.00  0.00     0.000 C 
BRANCH   3   4
ATOM      4  C   UNL     1     -32.610  11.111  14.239  1.00  0.00     0.000 C 
BRANCH   4   5
ATOM      5  C   UNL     1     -32.013  10.485  12.969  1.00  0.00     0.006 C 
BRANCH   5   6
ATOM      6  C   UNL     1     -30.792  11.275  12.491  1.00  0.00     0.053 C 
BRANCH   6   7
ATOM      7  C   UNL     1     -29.679  10.346  12.124  1.00  0.00     0.041 C 
ATOM      8  O   UNL     1     -28.480  10.713  12.245  1.00  0.00    -0.550 OA
ATOM      9  O   UNL     1     -29.965   9.091  11.602  1.00  0.00    -0.550 OA
ENDBRANCH   6   7
ENDBRANCH   5   6
ENDBRANCH   4   5
ENDBRANCH   3   4
ENDBRANCH   2   3
ENDBRANCH   1   2
BRANCH   1  10
ATOM     10  C   UNL     1     -31.216  15.067  14.022  1.00  0.00     0.000 C 
BRANCH  10  11
ATOM     11  C   UNL     1     -29.999  14.130  14.125  1.00  0.00    -0.000 C 
BRANCH  11  12
ATOM     12  C   UNL     1     -29.290  14.218  15.484  1.00  0.00    -0.000 C 
BRANCH  12  13
ATOM     13  C   UNL     1     -30.091  15.085  16.464  1.00  0.00    -0.000 C 
BRANCH  13  14
ATOM     14  C   UNL     1     -29.157  15.865  17.398  1.00  0.00    -0.000 C 
BRANCH  14  15
ATOM     15  C   UNL     1     -28.186  14.922  18.117  1.00  0.00    -0.003 C 
ATOM     16  C   UNL     1     -26.777  15.506  18.156  1.00  0.00     0.004 C 
ENDBRANCH  14  15
ENDBRANCH  13  14
ENDBRANCH  12  13
ENDBRANCH  11  12
ENDBRANCH  10  11
ENDBRANCH   1  10
TORSDOF 12
ENDMDL
MODEL 5
REMARK VINA RESULT:    -3.469      3.142      5.196
REMARK INTER + INTRA:          -7.953
REMARK INTER:                  -6.055
REMARK INTRA:                  -1.898
REMARK UNBOUND:                -2.050
REMARK SMILES CCCCCCCCCCCCCC(=O)[O-]
REMARK SMILES IDX 8 1 9 2 10 3 11 4 12 5 13 6 14 7 15 8 16 9 7 10 6 11 5 12
REMARK SMILES IDX 4 13 3 14 2 15 1 16
REMARK H PARENT
REMARK Flexibility Score: inf
ROOT
ATOM      1  C   UNL     1     -32.133  11.493  15.913  1.00  0.00     0.000 C 
ENDROOT
BRANCH   1   2
ATOM      2  C   UNL     1     -30.964  10.510  15.722  1.00  0.00     0.000 C 
BRANCH   2   3
ATOM      3  C   UNL     1     -29.673  11.206  15.258  1.00  0.00     0.000 C 
BRANCH   3   4
ATOM      4  C   UNL     1     -28.882  10.365  14.243  1.00  0.00     0.000 C 
BRANCH   4   5
ATOM      5  C   UNL     1     -28.875  10.990  12.839  1.00  0.00     0.006 C 
BRANCH   5   6
ATOM      6  C   UNL     1     -30.291  11.053  12.260  1.00  0.00     0.053 C 
BRANCH   6   7
ATOM      7  C   UNL     1     -30.794   9.677  11.958  1.00  0.00     0.041 C 
ATOM      8  O   UNL     1     -30.072   8.863  11.324  1.00  0.00    -0.550 OA
ATOM      9  O   UNL     1     -32.079   9.308  12.334  1.00  0.00    -0.550 OA
ENDBRANCH   6   7
ENDBRANCH   5   6
ENDBRANCH   4   5
ENDBRANCH   3   4
ENDBRANCH   2   3
ENDBRANCH   1   2
BRANCH   1  10
ATOM     10  C   UNL     1     -33.258  11.379  14.864  1.00  0.00     0.000 C 
BRANCH  10  11
ATOM     11  C   UNL     1     -33.850  12.720  14.393  1.00  0.00    -0.000 C 
BRANCH  11  12
ATOM     12  C   UNL     1     -33.182  13.250  13.116  1.00  0.00    -0.000 C 
BRANCH  12  13
ATOM     13  C   UNL     1     -32.467  14.580  13.383  1.00  0.00    -0.000 C 
BRANCH  13  14
ATOM     14  C   UNL     1     -30.960  14.365  13.577  1.00  0.00    -0.000 C 
BRANCH  14  15
ATOM     15  C   UNL     1     -30.502  14.887  14.943  1.00  0.00    -0.003 C 
ATOM     16  C   UNL     1     -28.985  14.804  15.084  1.00  0.00     0.004 C 
ENDBRANCH  14  15
ENDBRANCH  13  14
ENDBRANCH  12  13
ENDBRANCH  11  12
ENDBRANCH  10  11
ENDBRANCH   1  10
TORSDOF 12
ENDMDL
MODEL 6
REMARK VINA RESULT:    -3.468      1.555      2.341
REMARK INTER + INTRA:          -7.950
REMARK INTER:                  -6.022
REMARK INTRA:                  -1.928
REMARK UNBOUND:                -2.050
REMARK SMILES CCCCCCCCCCCCCC(=O)[O-]
REMARK SMILES IDX 8 1 9 2 10 3 11 4 12 5 13 6 14 7 15 8 16 9 7 10 6 11 5 12
REMARK SMILES IDX 4 13 3 14 2 15 1 16
REMARK H PARENT
REMARK Flexibility Score: inf
ROOT
ATOM      1  C   UNL     1     -33.021  13.372  14.696  1.00  0.00     0.000 C 
ENDROOT
BRANCH   1   2
ATOM      2  C   UNL     1     -32.787  14.179  13.407  1.00  0.00     0.000 C 
BRANCH   2   3
ATOM      3  C   UNL     1     -31.368  14.768  13.325  1.00  0.00     0.000 C 
BRANCH   3   4
ATOM      4  C   UNL     1     -30.730  14.962  14.710  1.00  0.00     0.000 C 
BRANCH   4   5
ATOM      5  C   UNL     1     -29.471  14.102  14.904  1.00  0.00     0.006 C 
BRANCH   5   6
ATOM      6  C   UNL     1     -29.599  13.217  16.146  1.00  0.00     0.053 C 
BRANCH   6   7
ATOM      7  C   UNL     1     -29.426  14.031  17.389  1.00  0.00     0.041 C 
ATOM      8  O   UNL     1     -30.386  14.177  18.191  1.00  0.00    -0.550 OA
ATOM      9  O   UNL     1     -28.217  14.669  17.639  1.00  0.00    -0.550 OA
ENDBRANCH   6   7
ENDBRANCH   5   6
ENDBRANCH   4   5
ENDBRANCH   3   4
ENDBRANCH   2   3
ENDBRANCH   1   2
BRANCH   1  10
ATOM     10  C   UNL     1     -32.777  11.855  14.568  1.00  0.00     0.000 C 
BRANCH  10  11
ATOM     11  C   UNL     1     -32.844  11.300  13.134  1.00  0.00    -0.000 C 
BRANCH  11  12
ATOM     12  C   UNL     1     -31.613  10.462  12.760  1.00  0.00    -0.000 C 
BRANCH  12  13
ATOM     13  C   UNL     1     -30.472  11.357  12.261  1.00  0.00    -0.000 C 
BRANCH  13  14
ATOM     14  C   UNL     1     -29.175  11.073  13.028  1.00  0.00    -0.000 C 
BRANCH  14  15
ATOM     15  C   UNL     1     -29.340   9.868  13.962  1.00  0.00    -0.003 C 
ATOM     16  C   UNL     1     -28.076   9.628  14.783  1.00  0.00     0.004 C 
ENDBRANCH  14  15
ENDBRANCH  13  14
ENDBRANCH  12  13
ENDBRANCH  11  12
ENDBRANCH  10  11
ENDBRANCH   1  10
TORSDOF 12
ENDMDL
MODEL 7
REMARK VINA RESULT:    -3.436      1.516      2.674
REMARK INTER + INTRA:          -7.896
REMARK INTER:                  -6.384
REMARK INTRA:                  -1.512
REMARK UNBOUND:                -2.050
REMARK SMILES CCCCCCCCCCCCCC(=O)[O-]
REMARK SMILES IDX 8 1 9 2 10 3 11 4 12 5 13 6 14 7 15 8 16 9 7 10 6 11 5 12
REMARK SMILES IDX 4 13 3 14 2 15 1 16
REMARK H PARENT
REMARK Flexibility Score: inf
ROOT
ATOM      1  C   UNL     1     -32.815  14.285  13.650  1.00  0.00     0.000 C 
ENDROOT
BRANCH   1   2
ATOM      2  C   UNL     1     -33.275  12.878  14.075  1.00  0.00     0.000 C 
BRANCH   2   3
ATOM      3  C   UNL     1     -32.719  12.461  15.447  1.00  0.00     0.000 C 
BRANCH   3   4
ATOM      4  C   UNL     1     -32.589  13.647  16.416  1.00  0.00     0.000 C 
BRANCH   4   5
ATOM      5  C   UNL     1     -31.170  13.788  16.989  1.00  0.00     0.006 C 
BRANCH   5   6
ATOM      6  C   UNL     1     -30.538  15.116  16.565  1.00  0.00     0.053 C 
BRANCH   6   7
ATOM      7  C   UNL     1     -29.316  15.398  17.381  1.00  0.00     0.041 C 
ATOM      8  O   UNL     1     -28.575  14.453  17.761  1.00  0.00    -0.550 OA
ATOM      9  O   UNL     1     -29.021  16.701  17.763  1.00  0.00    -0.550 OA
ENDBRANCH   6   7
ENDBRANCH   5   6
ENDBRANCH   4   5
ENDBRANCH   3   4
ENDBRANCH   2   3
ENDBRANCH   1   2
BRANCH   1  10
ATOM     10  C   UNL     1     -31.373  14.364  13.111  1.00  0.00     0.000 C 
BRANCH  10  11
ATOM     11  C   UNL     1     -30.805  13.041  12.566  1.00  0.00    -0.000 C 
BRANCH  11  12
ATOM     12  C   UNL     1     -29.628  12.509  13.397  1.00  0.00    -0.000 C 
BRANCH  12  13
ATOM     13  C   UNL     1     -29.342  11.040  13.064  1.00  0.00    -0.000 C 
BRANCH  13  14
ATOM     14  C   UNL     1     -30.071  10.613  11.785  1.00  0.00    -0.000 C 
BRANCH  14  15
ATOM     15  C   UNL     1     -30.855   9.314  12.007  1.00  0.00    -0.003 C 
ATOM     16  C   UNL     1     -31.544   9.312  13.368  1.00  0.00     0.004 C 
ENDBRANCH  14  15
ENDBRANCH  13  14
ENDBRANCH  12  13
ENDBRANCH  11  12
ENDBRANCH  10  11
ENDBRANCH   1  10
TORSDOF 12
ENDMDL
MODEL 8
REMARK VINA RESULT:    -3.433      1.237      2.825
REMARK INTER + INTRA:          -7.891
REMARK INTER:                  -5.928
REMARK INTRA:                  -1.963
REMARK UNBOUND:                -2.050
REMARK SMILES CCCCCCCCCCCCCC(=O)[O-]
REMARK SMILES IDX 8 1 9 2 10 3 11 4 12 5 13 6 14 7 15 8 16 9 7 10 6 11 5 12
REMARK SMILES IDX 4 13 3 14 2 15 1 16
REMARK H PARENT
REMARK Flexibility Score: inf
ROOT
ATOM      1  C   UNL     1     -33.203  11.169  14.827  1.00  0.00     0.000 C 
ENDROOT
BRANCH   1   2
ATOM      2  C   UNL     1     -32.710  11.298  16.279  1.00  0.00     0.000 C 
BRANCH   2   3
ATOM      3  C   UNL     1     -31.466  12.193  16.407  1.00  0.00     0.000 C 
BRANCH   3   4
ATOM      4  C   UNL     1     -31.770  13.529  17.106  1.00  0.00     0.000 C 
BRANCH   4   5
ATOM      5  C   UNL     1     -30.965  14.698  16.517  1.00  0.00     0.006 C 
BRANCH   5   6
ATOM      6  C   UNL     1     -29.753  15.025  17.394  1.00  0.00     0.053 C 
BRANCH   6   7
ATOM      7  C   UNL     1     -28.544  15.264  16.546  1.00  0.00     0.041 C 
ATOM      8  O   UNL     1     -28.618  15.161  15.293  1.00  0.00    -0.550 OA
ATOM      9  O   UNL     1     -27.323  15.554  17.142  1.00  0.00    -0.550 OA
ENDBRANCH   6   7
ENDBRANCH   5   6
ENDBRANCH   4   5
ENDBRANCH   3   4
ENDBRANCH   2   3
ENDBRANCH   1   2
BRANCH   1  10
ATOM     10  C   UNL     1     -34.024  12.367  14.308  1.00  0.00     0.000 C 
BRANCH  10  11
ATOM     11  C   UNL     1     -33.439  13.075  13.073  1.00  0.00    -0.000 C 
BRANCH  11  12
ATOM     12  C   UNL     1     -32.749  14.403  13.417  1.00  0.00    -0.000 C 
BRANCH  12  13
ATOM     13  C   UNL     1     -31.259  14.356  13.055  1.00  0.00    -0.000 C 
BRANCH  13  14
ATOM     14  C   UNL     1     -30.862  12.970  12.532  1.00  0.00    -0.000 C 
BRANCH  14  15
ATOM     15  C   UNL     1     -29.677  12.404  13.323  1.00  0.00    -0.003 C 
ATOM     16  C   UNL     1     -29.723  10.879  13.368  1.00  0.00     0.004 C 
ENDBRANCH  14  15
ENDBRANCH  13  14
ENDBRANCH  12  13
ENDBRANCH  11  12
ENDBRANCH  10  11
ENDBRANCH   1  10
TORSDOF 12
ENDMDL
MODEL 9
REMARK VINA RESULT:    -3.352      2.491      4.610
REMARK INTER + INTRA:          -7.753
REMARK INTER:                  -6.174
REMARK INTRA:                  -1.580
REMARK UNBOUND:                -2.050
REMARK SMILES CCCCCCCCCCCCCC(=O)[O-]
REMARK SMILES IDX 8 1 9 2 10 3 11 4 12 5 13 6 14 7 15 8 16 9 7 10 6 11 5 12
REMARK SMILES IDX 4 13 3 14 2 15 1 16
REMARK H PARENT
REMARK Flexibility Score: inf
ROOT
ATOM      1  C   UNL     1     -33.371  13.254  15.847  1.00  0.00     0.000 C 
ENDROOT
BRANCH   1   2
ATOM      2  C   UNL     1     -32.888  12.869  14.437  1.00  0.00     0.000 C 
BRANCH   2   3
ATOM      3  C   UNL     1     -32.599  14.094  13.553  1.00  0.00     0.000 C 
BRANCH   3   4
ATOM      4  C   UNL     1     -31.160  14.106  13.013  1.00  0.00     0.000 C 
BRANCH   4   5
ATOM      5  C   UNL     1     -30.618  12.692  12.749  1.00  0.00     0.006 C 
BRANCH   5   6
ATOM      6  C   UNL     1     -29.258  12.492  13.424  1.00  0.00     0.053 C 
BRANCH   6   7
ATOM      7  C   UNL     1     -28.840  11.058  13.344  1.00  0.00     0.041 C 
ATOM      8  O   UNL     1     -28.799  10.471  12.231  1.00  0.00    -0.550 OA
ATOM      9  O   UNL     1     -28.543  10.355  14.504  1.00  0.00    -0.550 OA
ENDBRANCH   6   7
ENDBRANCH   5   6
ENDBRANCH   4   5
ENDBRANCH   3   4
ENDBRANCH   2   3
ENDBRANCH   1   2
BRANCH   1  10
ATOM     10  C   UNL     1     -32.310  13.119  16.959  1.00  0.00     0.000 C 
BRANCH  10  11
ATOM     11  C   UNL     1     -30.966  12.517  16.510  1.00  0.00    -0.000 C 
BRANCH  11  12
ATOM     12  C   UNL     1     -29.760  13.368  16.935  1.00  0.00    -0.000 C 
BRANCH  12  13
ATOM     13  C   UNL     1     -29.876  14.795  16.386  1.00  0.00    -0.000 C 
BRANCH  13  14
ATOM     14  C   UNL     1     -29.234  15.807  17.343  1.00  0.00    -0.000 C 
BRANCH  14  15
ATOM     15  C   UNL     1     -28.293  15.108  18.331  1.00  0.00    -0.003 C 
ATOM     16  C   UNL     1     -27.400  16.116  19.049  1.00  0.00     0.004 C 
ENDBRANCH  14  15
ENDBRANCH  13  14
ENDBRANCH  12  13
ENDBRANCH  11  12
ENDBRANCH  10  11
ENDBRANCH   1  10
TORSDOF 12
ENDMDL
