MODEL 1
REMARK VINA RESULT:    -3.981      0.000      0.000
REMARK INTER + INTRA:         -12.683
REMARK INTER:                  -8.636
REMARK INTRA:                  -4.047
REMARK UNBOUND:                -4.047
REMARK SMILES CCCCCCCCCCCCCCCCCCCCCC(=O)[O-]
REMARK SMILES IDX 12 1 11 2 10 3 9 4 8 5 7 6 6 7 5 8 4 9 3 10 2 11 1 12 13 13
REMARK SMILES IDX 14 14 15 15 16 16 17 17 18 18 19 19 20 20 21 21 22 22 23 23
REMARK SMILES IDX 24 24
REMARK H PARENT
REMARK Flexibility Score: inf
ROOT
ATOM      1  C   UNL     1     -23.421 116.781  -3.456  1.00  0.00     0.000 C 
ENDROOT
BRANCH   1   2
ATOM      2  C   UNL     1     -22.170 116.289  -4.209  1.00  0.00     0.000 C 
BRANCH   2   3
ATOM      3  C   UNL     1     -20.968 117.232  -4.061  1.00  0.00     0.000 C 
BRANCH   3   4
ATOM      4  C   UNL     1     -21.336 118.456  -3.209  1.00  0.00    -0.000 C 
BRANCH   4   5
ATOM      5  C   UNL     1     -20.236 118.832  -2.204  1.00  0.00    -0.000 C 
BRANCH   5   6
ATOM      6  C   UNL     1     -20.038 120.350  -2.080  1.00  0.00    -0.000 C 
BRANCH   6   7
ATOM      7  C   UNL     1     -20.565 120.865  -0.736  1.00  0.00    -0.000 C 
BRANCH   7   8
ATOM      8  C   UNL     1     -22.027 121.320  -0.854  1.00  0.00    -0.000 C 
BRANCH   8   9
ATOM      9  C   UNL     1     -23.021 120.228  -0.423  1.00  0.00    -0.000 C 
BRANCH   9  10
ATOM     10  C   UNL     1     -24.440 120.471  -0.966  1.00  0.00    -0.000 C 
BRANCH  10  11
ATOM     11  C   UNL     1     -24.564 120.135  -2.461  1.00  0.00    -0.003 C 
ATOM     12  C   UNL     1     -24.632 121.382  -3.342  1.00  0.00     0.004 C 
ENDBRANCH  10  11
ENDBRANCH   9  10
ENDBRANCH   8   9
ENDBRANCH   7   8
ENDBRANCH   6   7
ENDBRANCH   5   6
ENDBRANCH   4   5
ENDBRANCH   3   4
ENDBRANCH   2   3
ENDBRANCH   1   2
BRANCH   1  13
ATOM     13  C   UNL     1     -24.157 115.704  -2.637  1.00  0.00     0.000 C 
BRANCH  13  14
ATOM     14  C   UNL     1     -25.106 116.241  -1.548  1.00  0.00     0.000 C 
BRANCH  14  15
ATOM     15  C   UNL     1     -24.383 116.782  -0.295  1.00  0.00     0.000 C 
BRANCH  15  16
ATOM     16  C   UNL     1     -23.236 115.867   0.163  1.00  0.00     0.000 C 
BRANCH  16  17
ATOM     17  C   UNL     1     -21.930 116.657   0.335  1.00  0.00     0.000 C 
BRANCH  17  18
ATOM     18  C   UNL     1     -20.713 115.934  -0.273  1.00  0.00     0.000 C 
BRANCH  18  19
ATOM     19  C   UNL     1     -21.029 114.589  -0.952  1.00  0.00     0.000 C 
BRANCH  19  20
ATOM     20  C   UNL     1     -20.022 114.228  -2.060  1.00  0.00     0.006 C 
BRANCH  20  21
ATOM     21  C   UNL     1     -18.746 115.078  -1.985  1.00  0.00     0.053 C 
BRANCH  21  22
ATOM     22  C   UNL     1     -17.890 114.913  -3.205  1.00  0.00     0.041 C 
ATOM     23  O   UNL     1     -16.634 114.920  -3.106  1.00  0.00    -0.550 OA
ATOM     24  O   UNL     1     -18.482 114.716  -4.446  1.00  0.00    -0.550 OA
ENDBRANCH  21  22
ENDBRANCH  20  21
ENDBRANCH  19  20
ENDBRANCH  18  19
ENDBRANCH  17  18
ENDBRANCH  16  17
ENDBRANCH  15  16
ENDBRANCH  14  15
ENDBRANCH  13  14
ENDBRANCH   1  13
TORSDOF 20
ENDMDL
MODEL 2
REMARK VINA RESULT:    -3.929      3.300      5.832
REMARK INTER + INTRA:         -12.570
REMARK INTER:                  -8.976
REMARK INTRA:                  -3.594
REMARK UNBOUND:                -4.047
REMARK SMILES CCCCCCCCCCCCCCCCCCCCCC(=O)[O-]
REMARK SMILES IDX 12 1 11 2 10 3 9 4 8 5 7 6 6 7 5 8 4 9 3 10 2 11 1 12 13 13
REMARK SMILES IDX 14 14 15 15 16 16 17 17 18 18 19 19 20 20 21 21 22 22 23 23
REMARK SMILES IDX 24 24
REMARK H PARENT
REMARK Flexibility Score: inf
ROOT
ATOM      1  C   UNL     1     -17.611 115.645  -1.368  1.00  0.00     0.000 C 
ENDROOT
BRANCH   1   2
ATOM      2  C   UNL     1     -17.008 114.990  -2.626  1.00  0.00     0.000 C 
BRANCH   2   3
ATOM      3  C   UNL     1     -17.944 113.962  -3.278  1.00  0.00     0.000 C 
BRANCH   3   4
ATOM      4  C   UNL     1     -18.563 114.527  -4.565  1.00  0.00    -0.000 C 
BRANCH   4   5
ATOM      5  C   UNL     1     -19.938 115.173  -4.329  1.00  0.00    -0.000 C 
BRANCH   5   6
ATOM      6  C   UNL     1     -19.842 116.673  -4.010  1.00  0.00    -0.000 C 
BRANCH   6   7
ATOM      7  C   UNL     1     -21.218 117.342  -4.104  1.00  0.00    -0.000 C 
BRANCH   7   8
ATOM      8  C   UNL     1     -21.264 118.627  -3.263  1.00  0.00    -0.000 C 
BRANCH   8   9
ATOM      9  C   UNL     1     -20.277 118.596  -2.084  1.00  0.00    -0.000 C 
BRANCH   9  10
ATOM     10  C   UNL     1     -19.719 119.989  -1.742  1.00  0.00    -0.000 C 
BRANCH  10  11
ATOM     11  C   UNL     1     -20.738 120.866  -0.998  1.00  0.00    -0.003 C 
ATOM     12  C   UNL     1     -21.146 120.278   0.353  1.00  0.00     0.004 C 
ENDBRANCH  10  11
ENDBRANCH   9  10
ENDBRANCH   8   9
ENDBRANCH   7   8
ENDBRANCH   6   7
ENDBRANCH   5   6
ENDBRANCH   4   5
ENDBRANCH   3   4
ENDBRANCH   2   3
ENDBRANCH   1   2
BRANCH   1  13
ATOM     13  C   UNL     1     -18.673 114.802  -0.637  1.00  0.00     0.000 C 
BRANCH  13  14
ATOM     14  C   UNL     1     -20.010 115.519  -0.368  1.00  0.00     0.000 C 
BRANCH  14  15
ATOM     15  C   UNL     1     -21.226 114.857  -1.049  1.00  0.00     0.000 C 
BRANCH  15  16
ATOM     16  C   UNL     1     -22.563 115.424  -0.547  1.00  0.00     0.000 C 
BRANCH  16  17
ATOM     17  C   UNL     1     -22.341 116.524   0.501  1.00  0.00     0.000 C 
BRANCH  17  18
ATOM     18  C   UNL     1     -23.440 117.603   0.474  1.00  0.00     0.000 C 
BRANCH  18  19
ATOM     19  C   UNL     1     -23.914 118.012  -0.933  1.00  0.00     0.000 C 
BRANCH  19  20
ATOM     20  C   UNL     1     -24.687 119.344  -0.938  1.00  0.00     0.006 C 
BRANCH  20  21
ATOM     21  C   UNL     1     -24.203 120.293  -2.045  1.00  0.00     0.053 C 
BRANCH  21  22
ATOM     22  C   UNL     1     -25.209 121.363  -2.345  1.00  0.00     0.041 C 
ATOM     23  O   UNL     1     -25.993 121.769  -1.445  1.00  0.00    -0.550 OA
ATOM     24  O   UNL     1     -25.256 121.936  -3.609  1.00  0.00    -0.550 OA
ENDBRANCH  21  22
ENDBRANCH  20  21
ENDBRANCH  19  20
ENDBRANCH  18  19
ENDBRANCH  17  18
ENDBRANCH  16  17
ENDBRANCH  15  16
ENDBRANCH  14  15
ENDBRANCH  13  14
ENDBRANCH   1  13
TORSDOF 20
ENDMDL
MODEL 3
REMARK VINA RESULT:    -3.856      2.901      5.814
REMARK INTER + INTRA:         -12.412
REMARK INTER:                  -8.574
REMARK INTRA:                  -3.838
REMARK UNBOUND:                -4.047
REMARK SMILES CCCCCCCCCCCCCCCCCCCCCC(=O)[O-]
REMARK SMILES IDX 12 1 11 2 10 3 9 4 8 5 7 6 6 7 5 8 4 9 3 10 2 11 1 12 13 13
REMARK SMILES IDX 14 14 15 15 16 16 17 17 18 18 19 19 20 20 21 21 22 22 23 23
REMARK SMILES IDX 24 24
REMARK H PARENT
REMARK Flexibility Score: inf
ROOT
ATOM      1  C   UNL     1     -17.403 114.682  -0.999  1.00  0.00     0.000 C 
ENDROOT
BRANCH   1   2
ATOM      2  C   UNL     1     -18.725 114.080  -0.486  1.00  0.00     0.000 C 
BRANCH   2   3
ATOM      3  C   UNL     1     -19.845 115.120  -0.341  1.00  0.00     0.000 C 
BRANCH   3   4
ATOM      4  C   UNL     1     -21.146 114.614  -0.981  1.00  0.00    -0.000 C 
BRANCH   4   5
ATOM      5  C   UNL     1     -22.361 115.485  -0.625  1.00  0.00    -0.000 C 
BRANCH   5   6
ATOM      6  C   UNL     1     -22.084 116.442   0.543  1.00  0.00    -0.000 C 
BRANCH   6   7
ATOM      7  C   UNL     1     -23.037 117.642   0.507  1.00  0.00    -0.000 C 
BRANCH   7   8
ATOM      8  C   UNL     1     -23.959 117.577  -0.721  1.00  0.00    -0.000 C 
BRANCH   8   9
ATOM      9  C   UNL     1     -25.448 117.558  -0.339  1.00  0.00    -0.000 C 
BRANCH   9  10
ATOM     10  C   UNL     1     -25.716 116.785   0.965  1.00  0.00    -0.000 C 
BRANCH  10  11
ATOM     11  C   UNL     1     -25.915 115.280   0.727  1.00  0.00    -0.003 C 
ATOM     12  C   UNL     1     -26.474 114.971  -0.661  1.00  0.00     0.004 C 
ENDBRANCH  10  11
ENDBRANCH   9  10
ENDBRANCH   8   9
ENDBRANCH   7   8
ENDBRANCH   6   7
ENDBRANCH   5   6
ENDBRANCH   4   5
ENDBRANCH   3   4
ENDBRANCH   2   3
ENDBRANCH   1   2
BRANCH   1  13
ATOM     13  C   UNL     1     -17.386 115.043  -2.496  1.00  0.00     0.000 C 
BRANCH  13  14
ATOM     14  C   UNL     1     -18.097 114.037  -3.423  1.00  0.00     0.000 C 
BRANCH  14  15
ATOM     15  C   UNL     1     -19.224 114.658  -4.277  1.00  0.00     0.000 C 
BRANCH  15  16
ATOM     16  C   UNL     1     -19.293 116.186  -4.138  1.00  0.00     0.000 C 
BRANCH  16  17
ATOM     17  C   UNL     1     -20.736 116.692  -4.280  1.00  0.00     0.000 C 
BRANCH  17  18
ATOM     18  C   UNL     1     -21.122 117.705  -3.185  1.00  0.00     0.000 C 
BRANCH  18  19
ATOM     19  C   UNL     1     -20.002 118.034  -2.181  1.00  0.00     0.000 C 
BRANCH  19  20
ATOM     20  C   UNL     1     -20.330 119.252  -1.297  1.00  0.00     0.006 C 
BRANCH  20  21
ATOM     21  C   UNL     1     -20.965 120.398  -2.099  1.00  0.00     0.053 C 
BRANCH  21  22
ATOM     22  C   UNL     1     -22.310 120.780  -1.561  1.00  0.00     0.041 C 
ATOM     23  O   UNL     1     -22.472 120.965  -0.325  1.00  0.00    -0.550 OA
ATOM     24  O   UNL     1     -23.378 120.965  -2.430  1.00  0.00    -0.550 OA
ENDBRANCH  21  22
ENDBRANCH  20  21
ENDBRANCH  19  20
ENDBRANCH  18  19
ENDBRANCH  17  18
ENDBRANCH  16  17
ENDBRANCH  15  16
ENDBRANCH  14  15
ENDBRANCH  13  14
ENDBRANCH   1  13
TORSDOF 20
ENDMDL
MODEL 4
REMARK VINA RESULT:    -3.843      3.132      5.293
REMARK INTER + INTRA:         -12.382
REMARK INTER:                  -8.706
REMARK INTRA:                  -3.677
REMARK UNBOUND:                -4.047
REMARK SMILES CCCCCCCCCCCCCCCCCCCCCC(=O)[O-]
REMARK SMILES IDX 12 1 11 2 10 3 9 4 8 5 7 6 6 7 5 8 4 9 3 10 2 11 1 12 13 13
REMARK SMILES IDX 14 14 15 15 16 16 17 17 18 18 19 19 20 20 21 21 22 22 23 23
REMARK SMILES IDX 24 24
REMARK H PARENT
REMARK Flexibility Score: inf
ROOT
ATOM      1  C   UNL     1     -17.330 115.294  -3.269  1.00  0.00     0.000 C 
ENDROOT
BRANCH   1   2
ATOM      2  C   UNL     1     -18.211 114.119  -3.737  1.00  0.00     0.000 C 
BRANCH   2   3
ATOM      3  C   UNL     1     -19.597 114.563  -4.227  1.00  0.00     0.000 C 
BRANCH   3   4
ATOM      4  C   UNL     1     -19.613 116.070  -4.526  1.00  0.00    -0.000 C 
BRANCH   4   5
ATOM      5  C   UNL     1     -21.020 116.681  -4.423  1.00  0.00    -0.000 C 
BRANCH   5   6
ATOM      6  C   UNL     1     -21.291 117.318  -3.052  1.00  0.00    -0.000 C 
BRANCH   6   7
ATOM      7  C   UNL     1     -20.564 118.661  -2.918  1.00  0.00    -0.000 C 
BRANCH   7   8
ATOM      8  C   UNL     1     -19.896 118.790  -1.540  1.00  0.00    -0.000 C 
BRANCH   8   9
ATOM      9  C   UNL     1     -19.952 120.225  -0.990  1.00  0.00    -0.000 C 
BRANCH   9  10
ATOM     10  C   UNL     1     -21.186 121.001  -1.484  1.00  0.00    -0.000 C 
BRANCH  10  11
ATOM     11  C   UNL     1     -22.368 120.912  -0.506  1.00  0.00    -0.003 C 
ATOM     12  C   UNL     1     -23.721 120.885  -1.217  1.00  0.00     0.004 C 
ENDBRANCH  10  11
ENDBRANCH   9  10
ENDBRANCH   8   9
ENDBRANCH   7   8
ENDBRANCH   6   7
ENDBRANCH   5   6
ENDBRANCH   4   5
ENDBRANCH   3   4
ENDBRANCH   2   3
ENDBRANCH   1   2
BRANCH   1  13
ATOM     13  C   UNL     1     -17.277 115.504  -1.745  1.00  0.00     0.000 C 
BRANCH  13  14
ATOM     14  C   UNL     1     -17.421 114.223  -0.899  1.00  0.00     0.000 C 
BRANCH  14  15
ATOM     15  C   UNL     1     -18.634 114.234   0.055  1.00  0.00     0.000 C 
BRANCH  15  16
ATOM     16  C   UNL     1     -19.699 115.262  -0.359  1.00  0.00     0.000 C 
BRANCH  16  17
ATOM     17  C   UNL     1     -21.003 114.571  -0.784  1.00  0.00     0.000 C 
BRANCH  17  18
ATOM     18  C   UNL     1     -22.259 115.313  -0.290  1.00  0.00     0.000 C 
BRANCH  18  19
ATOM     19  C   UNL     1     -21.984 116.494   0.659  1.00  0.00     0.000 C 
BRANCH  19  20
ATOM     20  C   UNL     1     -22.956 117.670   0.447  1.00  0.00     0.006 C 
BRANCH  20  21
ATOM     21  C   UNL     1     -24.160 117.280  -0.423  1.00  0.00     0.053 C 
BRANCH  21  22
ATOM     22  C   UNL     1     -25.434 117.247   0.366  1.00  0.00     0.041 C 
ATOM     23  O   UNL     1     -25.415 117.429   1.613  1.00  0.00    -0.550 OA
ATOM     24  O   UNL     1     -26.646 117.049  -0.282  1.00  0.00    -0.550 OA
ENDBRANCH  21  22
ENDBRANCH  20  21
ENDBRANCH  19  20
ENDBRANCH  18  19
ENDBRANCH  17  18
ENDBRANCH  16  17
ENDBRANCH  15  16
ENDBRANCH  14  15
ENDBRANCH  13  14
ENDBRANCH   1  13
TORSDOF 20
ENDMDL
MODEL 5
REMARK VINA RESULT:    -3.836      3.376      6.852
REMARK INTER + INTRA:         -12.368
REMARK INTER:                  -8.583
REMARK INTRA:                  -3.785
REMARK UNBOUND:                -4.047
REMARK SMILES CCCCCCCCCCCCCCCCCCCCCC(=O)[O-]
REMARK SMILES IDX 12 1 11 2 10 3 9 4 8 5 7 6 6 7 5 8 4 9 3 10 2 11 1 12 13 13
REMARK SMILES IDX 14 14 15 15 16 16 17 17 18 18 19 19 20 20 21 21 22 22 23 23
REMARK SMILES IDX 24 24
REMARK H PARENT
REMARK Flexibility Score: inf
ROOT
ATOM      1  C   UNL     1     -20.038 117.745  -2.442  1.00  0.00     0.000 C 
ENDROOT
BRANCH   1   2
ATOM      2  C   UNL     1     -20.535 116.919  -1.241  1.00  0.00     0.000 C 
BRANCH   2   3
ATOM      3  C   UNL     1     -21.229 115.613  -1.653  1.00  0.00     0.000 C 
BRANCH   3   4
ATOM      4  C   UNL     1     -20.675 114.424  -0.853  1.00  0.00    -0.000 C 
BRANCH   4   5
ATOM      5  C   UNL     1     -19.340 114.744  -0.163  1.00  0.00    -0.000 C 
BRANCH   5   6
ATOM      6  C   UNL     1     -18.134 114.124  -0.884  1.00  0.00    -0.000 C 
BRANCH   6   7
ATOM      7  C   UNL     1     -17.149 115.207  -1.338  1.00  0.00    -0.000 C 
BRANCH   7   8
ATOM      8  C   UNL     1     -16.936 115.156  -2.859  1.00  0.00    -0.000 C 
BRANCH   8   9
ATOM      9  C   UNL     1     -17.973 114.270  -3.570  1.00  0.00    -0.000 C 
BRANCH   9  10
ATOM     10  C   UNL     1     -18.834 115.057  -4.574  1.00  0.00    -0.000 C 
BRANCH  10  11
ATOM     11  C   UNL     1     -20.198 114.393  -4.826  1.00  0.00    -0.003 C 
ATOM     12  C   UNL     1     -21.199 115.338  -5.490  1.00  0.00     0.004 C 
ENDBRANCH  10  11
ENDBRANCH   9  10
ENDBRANCH   8   9
ENDBRANCH   7   8
ENDBRANCH   6   7
ENDBRANCH   5   6
ENDBRANCH   4   5
ENDBRANCH   3   4
ENDBRANCH   2   3
ENDBRANCH   1   2
BRANCH   1  13
ATOM     13  C   UNL     1     -21.144 118.419  -3.275  1.00  0.00     0.000 C 
BRANCH  13  14
ATOM     14  C   UNL     1     -21.110 119.960  -3.290  1.00  0.00     0.000 C 
BRANCH  14  15
ATOM     15  C   UNL     1     -20.097 120.574  -2.299  1.00  0.00     0.000 C 
BRANCH  15  16
ATOM     16  C   UNL     1     -20.782 121.240  -1.095  1.00  0.00     0.000 C 
BRANCH  16  17
ATOM     17  C   UNL     1     -21.188 120.198  -0.042  1.00  0.00     0.000 C 
BRANCH  17  18
ATOM     18  C   UNL     1     -22.703 120.192   0.237  1.00  0.00     0.000 C 
BRANCH  18  19
ATOM     19  C   UNL     1     -23.485 119.060  -0.456  1.00  0.00     0.000 C 
BRANCH  19  20
ATOM     20  C   UNL     1     -24.321 119.556  -1.651  1.00  0.00     0.006 C 
BRANCH  20  21
ATOM     21  C   UNL     1     -24.566 121.071  -1.601  1.00  0.00     0.053 C 
BRANCH  21  22
ATOM     22  C   UNL     1     -25.397 121.543  -2.755  1.00  0.00     0.041 C 
ATOM     23  O   UNL     1     -24.854 121.822  -3.857  1.00  0.00    -0.550 OA
ATOM     24  O   UNL     1     -26.776 121.641  -2.623  1.00  0.00    -0.550 OA
ENDBRANCH  21  22
ENDBRANCH  20  21
ENDBRANCH  19  20
ENDBRANCH  18  19
ENDBRANCH  17  18
ENDBRANCH  16  17
ENDBRANCH  15  16
ENDBRANCH  14  15
ENDBRANCH  13  14
ENDBRANCH   1  13
TORSDOF 20
ENDMDL
MODEL 6
REMARK VINA RESULT:    -3.835      2.305      5.102
REMARK INTER + INTRA:         -12.366
REMARK INTER:                  -8.399
REMARK INTRA:                  -3.967
REMARK UNBOUND:                -4.047
REMARK SMILES CCCCCCCCCCCCCCCCCCCCCC(=O)[O-]
REMARK SMILES IDX 12 1 11 2 10 3 9 4 8 5 7 6 6 7 5 8 4 9 3 10 2 11 1 12 13 13
REMARK SMILES IDX 14 14 15 15 16 16 17 17 18 18 19 19 20 20 21 21 22 22 23 23
REMARK SMILES IDX 24 24
REMARK H PARENT
REMARK Flexibility Score: inf
ROOT
ATOM      1  C   UNL     1     -18.008 115.567  -1.857  1.00  0.00     0.000 C 
ENDROOT
BRANCH   1   2
ATOM      2  C   UNL     1     -18.942 115.206  -0.686  1.00  0.00     0.000 C 
BRANCH   2   3
ATOM      3  C   UNL     1     -19.961 114.114  -1.043  1.00  0.00     0.000 C 
BRANCH   3   4
ATOM      4  C   UNL     1     -21.365 114.714  -1.219  1.00  0.00    -0.000 C 
BRANCH   4   5
ATOM      5  C   UNL     1     -21.744 115.679  -0.084  1.00  0.00    -0.000 C 
BRANCH   5   6
ATOM      6  C   UNL     1     -23.263 115.809   0.102  1.00  0.00    -0.000 C 
BRANCH   6   7
ATOM      7  C   UNL     1     -23.681 117.281   0.191  1.00  0.00    -0.000 C 
BRANCH   7   8
ATOM      8  C   UNL     1     -24.732 117.621  -0.876  1.00  0.00    -0.000 C 
BRANCH   8   9
ATOM      9  C   UNL     1     -25.026 119.128  -0.955  1.00  0.00    -0.000 C 
BRANCH   9  10
ATOM     10  C   UNL     1     -23.792 119.990  -0.634  1.00  0.00    -0.000 C 
BRANCH  10  11
ATOM     11  C   UNL     1     -23.527 121.062  -1.703  1.00  0.00    -0.003 C 
ATOM     12  C   UNL     1     -24.495 120.970  -2.882  1.00  0.00     0.004 C 
ENDBRANCH  10  11
ENDBRANCH   9  10
ENDBRANCH   8   9
ENDBRANCH   7   8
ENDBRANCH   6   7
ENDBRANCH   5   6
ENDBRANCH   4   5
ENDBRANCH   3   4
ENDBRANCH   2   3
ENDBRANCH   1   2
BRANCH   1  13
ATOM     13  C   UNL     1     -17.463 114.367  -2.654  1.00  0.00     0.000 C 
BRANCH  13  14
ATOM     14  C   UNL     1     -18.136 114.125  -4.019  1.00  0.00     0.000 C 
BRANCH  14  15
ATOM     15  C   UNL     1     -18.814 115.378  -4.616  1.00  0.00     0.000 C 
BRANCH  15  16
ATOM     16  C   UNL     1     -20.329 115.198  -4.796  1.00  0.00     0.000 C 
BRANCH  16  17
ATOM     17  C   UNL     1     -21.025 116.547  -5.029  1.00  0.00     0.000 C 
BRANCH  17  18
ATOM     18  C   UNL     1     -22.170 116.806  -4.032  1.00  0.00     0.000 C 
BRANCH  18  19
ATOM     19  C   UNL     1     -21.928 117.972  -3.055  1.00  0.00     0.000 C 
BRANCH  19  20
ATOM     20  C   UNL     1     -20.432 118.246  -2.811  1.00  0.00     0.006 C 
BRANCH  20  21
ATOM     21  C   UNL     1     -20.149 118.685  -1.367  1.00  0.00     0.053 C 
BRANCH  21  22
ATOM     22  C   UNL     1     -20.053 120.175  -1.242  1.00  0.00     0.041 C 
ATOM     23  O   UNL     1     -20.338 120.742  -0.153  1.00  0.00    -0.550 OA
ATOM     24  O   UNL     1     -19.617 120.935  -2.320  1.00  0.00    -0.550 OA
ENDBRANCH  21  22
ENDBRANCH  20  21
ENDBRANCH  19  20
ENDBRANCH  18  19
ENDBRANCH  17  18
ENDBRANCH  16  17
ENDBRANCH  15  16
ENDBRANCH  14  15
ENDBRANCH  13  14
ENDBRANCH   1  13
TORSDOF 20
ENDMDL
MODEL 7
REMARK VINA RESULT:    -3.820      1.474      4.628
REMARK INTER + INTRA:         -12.333
REMARK INTER:                  -8.709
REMARK INTRA:                  -3.624
REMARK UNBOUND:                -4.047
REMARK SMILES CCCCCCCCCCCCCCCCCCCCCC(=O)[O-]
REMARK SMILES IDX 12 1 11 2 10 3 9 4 8 5 7 6 6 7 5 8 4 9 3 10 2 11 1 12 13 13
REMARK SMILES IDX 14 14 15 15 16 16 17 17 18 18 19 19 20 20 21 21 22 22 23 23
REMARK SMILES IDX 24 24
REMARK H PARENT
REMARK Flexibility Score: inf
ROOT
ATOM      1  C   UNL     1     -21.832 120.851  -0.662  1.00  0.00     0.000 C 
ENDROOT
BRANCH   1   2
ATOM      2  C   UNL     1     -23.276 120.953  -1.189  1.00  0.00     0.000 C 
BRANCH   2   3
ATOM      3  C   UNL     1     -23.371 120.830  -2.717  1.00  0.00     0.000 C 
BRANCH   3   4
ATOM      4  C   UNL     1     -24.722 121.356  -3.224  1.00  0.00    -0.000 C 
BRANCH   4   5
ATOM      5  C   UNL     1     -25.918 120.619  -2.601  1.00  0.00    -0.000 C 
BRANCH   5   6
ATOM      6  C   UNL     1     -26.004 119.150  -3.039  1.00  0.00    -0.000 C 
BRANCH   6   7
ATOM      7  C   UNL     1     -25.826 118.209  -1.841  1.00  0.00    -0.000 C 
BRANCH   7   8
ATOM      8  C   UNL     1     -24.589 117.315  -2.022  1.00  0.00    -0.000 C 
BRANCH   8   9
ATOM      9  C   UNL     1     -24.337 116.406  -0.809  1.00  0.00    -0.000 C 
BRANCH   9  10
ATOM     10  C   UNL     1     -22.980 116.679  -0.135  1.00  0.00    -0.000 C 
BRANCH  10  11
ATOM     11  C   UNL     1     -23.076 117.743   0.970  1.00  0.00    -0.003 C 
ATOM     12  C   UNL     1     -21.757 117.935   1.720  1.00  0.00     0.004 C 
ENDBRANCH  10  11
ENDBRANCH   9  10
ENDBRANCH   8   9
ENDBRANCH   7   8
ENDBRANCH   6   7
ENDBRANCH   5   6
ENDBRANCH   4   5
ENDBRANCH   3   4
ENDBRANCH   2   3
ENDBRANCH   1   2
BRANCH   1  13
ATOM     13  C   UNL     1     -20.751 120.676  -1.746  1.00  0.00     0.000 C 
BRANCH  13  14
ATOM     14  C   UNL     1     -19.628 119.680  -1.399  1.00  0.00     0.000 C 
BRANCH  14  15
ATOM     15  C   UNL     1     -19.990 118.204  -1.676  1.00  0.00     0.000 C 
BRANCH  15  16
ATOM     16  C   UNL     1     -20.820 118.033  -2.958  1.00  0.00     0.000 C 
BRANCH  16  17
ATOM     17  C   UNL     1     -20.535 116.681  -3.628  1.00  0.00     0.000 C 
BRANCH  17  18
ATOM     18  C   UNL     1     -21.626 115.631  -3.338  1.00  0.00     0.000 C 
BRANCH  18  19
ATOM     19  C   UNL     1     -21.179 114.462  -2.441  1.00  0.00     0.000 C 
BRANCH  19  20
ATOM     20  C   UNL     1     -19.648 114.360  -2.311  1.00  0.00     0.006 C 
BRANCH  20  21
ATOM     21  C   UNL     1     -19.165 114.641  -0.880  1.00  0.00     0.053 C 
BRANCH  21  22
ATOM     22  C   UNL     1     -17.689 114.896  -0.827  1.00  0.00     0.041 C 
ATOM     23  O   UNL     1     -16.905 114.006  -0.402  1.00  0.00    -0.550 OA
ATOM     24  O   UNL     1     -17.178 116.106  -1.279  1.00  0.00    -0.550 OA
ENDBRANCH  21  22
ENDBRANCH  20  21
ENDBRANCH  19  20
ENDBRANCH  18  19
ENDBRANCH  17  18
ENDBRANCH  16  17
ENDBRANCH  15  16
ENDBRANCH  14  15
ENDBRANCH  13  14
ENDBRANCH   1  13
TORSDOF 20
ENDMDL
MODEL 8
REMARK VINA RESULT:    -3.816      1.434      4.278
REMARK INTER + INTRA:         -12.324
REMARK INTER:                  -8.473
REMARK INTRA:                  -3.851
REMARK UNBOUND:                -4.047
REMARK SMILES CCCCCCCCCCCCCCCCCCCCCC(=O)[O-]
REMARK SMILES IDX 12 1 11 2 10 3 9 4 8 5 7 6 6 7 5 8 4 9 3 10 2 11 1 12 13 13
REMARK SMILES IDX 14 14 15 15 16 16 17 17 18 18 19 19 20 20 21 21 22 22 23 23
REMARK SMILES IDX 24 24
REMARK H PARENT
REMARK Flexibility Score: inf
ROOT
ATOM      1  C   UNL     1     -21.900 120.139  -0.242  1.00  0.00     0.000 C 
ENDROOT
BRANCH   1   2
ATOM      2  C   UNL     1     -21.507 119.153   0.875  1.00  0.00     0.000 C 
BRANCH   2   3
ATOM      3  C   UNL     1     -22.292 117.835   0.819  1.00  0.00     0.000 C 
BRANCH   3   4
ATOM      4  C   UNL     1     -21.371 116.666   0.438  1.00  0.00    -0.000 C 
BRANCH   4   5
ATOM      5  C   UNL     1     -22.075 115.615  -0.433  1.00  0.00    -0.000 C 
BRANCH   5   6
ATOM      6  C   UNL     1     -23.597 115.810  -0.486  1.00  0.00    -0.000 C 
BRANCH   6   7
ATOM      7  C   UNL     1     -24.079 115.975  -1.932  1.00  0.00    -0.000 C 
BRANCH   7   8
ATOM      8  C   UNL     1     -24.355 117.452  -2.256  1.00  0.00    -0.000 C 
BRANCH   8   9
ATOM      9  C   UNL     1     -25.301 118.112  -1.239  1.00  0.00    -0.000 C 
BRANCH   9  10
ATOM     10  C   UNL     1     -25.300 119.648  -1.339  1.00  0.00    -0.000 C 
BRANCH  10  11
ATOM     11  C   UNL     1     -25.288 120.143  -2.794  1.00  0.00    -0.003 C 
ATOM     12  C   UNL     1     -24.331 121.315  -3.010  1.00  0.00     0.004 C 
ENDBRANCH  10  11
ENDBRANCH   9  10
ENDBRANCH   8   9
ENDBRANCH   7   8
ENDBRANCH   6   7
ENDBRANCH   5   6
ENDBRANCH   4   5
ENDBRANCH   3   4
ENDBRANCH   2   3
ENDBRANCH   1   2
BRANCH   1  13
ATOM     13  C   UNL     1     -20.730 120.921  -0.866  1.00  0.00     0.000 C 
BRANCH  13  14
ATOM     14  C   UNL     1     -20.375 120.529  -2.314  1.00  0.00     0.000 C 
BRANCH  14  15
ATOM     15  C   UNL     1     -21.252 119.396  -2.890  1.00  0.00     0.000 C 
BRANCH  15  16
ATOM     16  C   UNL     1     -20.560 118.026  -2.825  1.00  0.00     0.000 C 
BRANCH  16  17
ATOM     17  C   UNL     1     -21.096 117.082  -3.912  1.00  0.00     0.000 C 
BRANCH  17  18
ATOM     18  C   UNL     1     -20.479 115.672  -3.834  1.00  0.00     0.000 C 
BRANCH  18  19
ATOM     19  C   UNL     1     -19.054 115.555  -4.407  1.00  0.00     0.000 C 
BRANCH  19  20
ATOM     20  C   UNL     1     -18.166 114.585  -3.606  1.00  0.00     0.006 C 
BRANCH  20  21
ATOM     21  C   UNL     1     -18.820 114.153  -2.285  1.00  0.00     0.053 C 
BRANCH  21  22
ATOM     22  C   UNL     1     -18.110 114.724  -1.095  1.00  0.00     0.041 C 
ATOM     23  O   UNL     1     -17.079 115.433  -1.249  1.00  0.00    -0.550 OA
ATOM     24  O   UNL     1     -18.606 114.500   0.182  1.00  0.00    -0.550 OA
ENDBRANCH  21  22
ENDBRANCH  20  21
ENDBRANCH  19  20
ENDBRANCH  18  19
ENDBRANCH  17  18
ENDBRANCH  16  17
ENDBRANCH  15  16
ENDBRANCH  14  15
ENDBRANCH  13  14
ENDBRANCH   1  13
TORSDOF 20
ENDMDL
MODEL 9
REMARK VINA RESULT:    -3.733      2.734      5.680
REMARK INTER + INTRA:         -12.144
REMARK INTER:                  -8.104
REMARK INTRA:                  -4.040
REMARK UNBOUND:                -4.047
REMARK SMILES CCCCCCCCCCCCCCCCCCCCCC(=O)[O-]
REMARK SMILES IDX 12 1 11 2 10 3 9 4 8 5 7 6 6 7 5 8 4 9 3 10 2 11 1 12 13 13
REMARK SMILES IDX 14 14 15 15 16 16 17 17 18 18 19 19 20 20 21 21 22 22 23 23
REMARK SMILES IDX 24 24
REMARK H PARENT
REMARK Flexibility Score: inf
ROOT
ATOM      1  C   UNL     1     -17.478 115.095  -2.097  1.00  0.00     0.000 C 
ENDROOT
BRANCH   1   2
ATOM      2  C   UNL     1     -17.334 113.982  -3.153  1.00  0.00     0.000 C 
BRANCH   2   3
ATOM      3  C   UNL     1     -18.341 114.111  -4.305  1.00  0.00     0.000 C 
BRANCH   3   4
ATOM      4  C   UNL     1     -18.863 115.551  -4.416  1.00  0.00    -0.000 C 
BRANCH   4   5
ATOM      5  C   UNL     1     -20.241 115.633  -5.090  1.00  0.00    -0.000 C 
BRANCH   5   6
ATOM      6  C   UNL     1     -20.970 114.282  -5.119  1.00  0.00    -0.000 C 
BRANCH   6   7
ATOM      7  C   UNL     1     -22.261 114.336  -4.295  1.00  0.00    -0.000 C 
BRANCH   7   8
ATOM      8  C   UNL     1     -22.654 115.788  -3.982  1.00  0.00    -0.000 C 
BRANCH   8   9
ATOM      9  C   UNL     1     -23.689 115.888  -2.849  1.00  0.00    -0.000 C 
BRANCH   9  10
ATOM     10  C   UNL     1     -24.119 117.338  -2.565  1.00  0.00    -0.000 C 
BRANCH  10  11
ATOM     11  C   UNL     1     -24.577 117.543  -1.112  1.00  0.00    -0.003 C 
ATOM     12  C   UNL     1     -24.924 116.230  -0.413  1.00  0.00     0.004 C 
ENDBRANCH  10  11
ENDBRANCH   9  10
ENDBRANCH   8   9
ENDBRANCH   7   8
ENDBRANCH   6   7
ENDBRANCH   5   6
ENDBRANCH   4   5
ENDBRANCH   3   4
ENDBRANCH   2   3
ENDBRANCH   1   2
BRANCH   1  13
ATOM     13  C   UNL     1     -17.846 114.611  -0.683  1.00  0.00     0.000 C 
BRANCH  13  14
ATOM     14  C   UNL     1     -19.219 113.921  -0.561  1.00  0.00     0.000 C 
BRANCH  14  15
ATOM     15  C   UNL     1     -20.379 114.714  -1.200  1.00  0.00     0.000 C 
BRANCH  15  16
ATOM     16  C   UNL     1     -21.237 115.446  -0.157  1.00  0.00     0.000 C 
BRANCH  16  17
ATOM     17  C   UNL     1     -21.106 116.970  -0.302  1.00  0.00     0.000 C 
BRANCH  17  18
ATOM     18  C   UNL     1     -20.334 117.384  -1.569  1.00  0.00     0.000 C 
BRANCH  18  19
ATOM     19  C   UNL     1     -20.145 118.902  -1.747  1.00  0.00     0.000 C 
BRANCH  19  20
ATOM     20  C   UNL     1     -20.697 119.715  -0.561  1.00  0.00     0.006 C 
BRANCH  20  21
ATOM     21  C   UNL     1     -21.320 121.046  -1.008  1.00  0.00     0.053 C 
BRANCH  21  22
ATOM     22  C   UNL     1     -22.743 120.878  -1.448  1.00  0.00     0.041 C 
ATOM     23  O   UNL     1     -23.676 120.890  -0.601  1.00  0.00    -0.550 OA
ATOM     24  O   UNL     1     -23.041 120.743  -2.798  1.00  0.00    -0.550 OA
ENDBRANCH  21  22
ENDBRANCH  20  21
ENDBRANCH  19  20
ENDBRANCH  18  19
ENDBRANCH  17  18
ENDBRANCH  16  17
ENDBRANCH  15  16
ENDBRANCH  14  15
ENDBRANCH  13  14
ENDBRANCH   1  13
TORSDOF 20
ENDMDL
