MODEL 1
REMARK VINA RESULT:    -1.747      0.000      0.000
REMARK INTER + INTRA:          -7.477
REMARK INTER:                  -3.790
REMARK INTRA:                  -3.687
REMARK UNBOUND:                -3.687
REMARK SMILES CCCCCCCCCCCCCCCCCCCCCC(=O)[O-]
REMARK SMILES IDX 12 1 11 2 10 3 9 4 8 5 7 6 6 7 5 8 4 9 3 10 2 11 1 12 13 13
REMARK SMILES IDX 14 14 15 15 16 16 17 17 18 18 19 19 20 20 21 21 22 22 23 23
REMARK SMILES IDX 24 24
REMARK H PARENT
REMARK Flexibility Score: inf
ROOT
ATOM      1  C   UNL     1      41.443  37.743  22.803  1.00  0.00     0.000 C 
ENDROOT
BRANCH   1   2
ATOM      2  C   UNL     1      41.178  37.337  24.266  1.00  0.00     0.000 C 
BRANCH   2   3
ATOM      3  C   UNL     1      39.946  38.026  24.895  1.00  0.00     0.000 C 
BRANCH   3   4
ATOM      4  C   UNL     1      39.039  37.094  25.726  1.00  0.00    -0.000 C 
BRANCH   4   5
ATOM      5  C   UNL     1      37.567  37.024  25.275  1.00  0.00    -0.000 C 
BRANCH   5   6
ATOM      6  C   UNL     1      37.403  36.767  23.769  1.00  0.00    -0.000 C 
BRANCH   6   7
ATOM      7  C   UNL     1      37.051  35.296  23.500  1.00  0.00    -0.000 C 
BRANCH   7   8
ATOM      8  C   UNL     1      38.127  34.570  22.676  1.00  0.00    -0.000 C 
BRANCH   8   9
ATOM      9  C   UNL     1      39.323  34.117  23.528  1.00  0.00    -0.000 C 
BRANCH   9  10
ATOM     10  C   UNL     1      40.616  34.116  22.699  1.00  0.00    -0.000 C 
BRANCH  10  11
ATOM     11  C   UNL     1      40.349  34.096  21.186  1.00  0.00    -0.003 C 
ATOM     12  C   UNL     1      41.552  34.559  20.367  1.00  0.00     0.004 C 
ENDBRANCH  10  11
ENDBRANCH   9  10
ENDBRANCH   8   9
ENDBRANCH   7   8
ENDBRANCH   6   7
ENDBRANCH   5   6
ENDBRANCH   4   5
ENDBRANCH   3   4
ENDBRANCH   2   3
ENDBRANCH   1   2
BRANCH   1  13
ATOM     13  C   UNL     1      40.703  39.008  22.334  1.00  0.00     0.000 C 
BRANCH  13  14
ATOM     14  C   UNL     1      39.365  38.750  21.613  1.00  0.00     0.000 C 
BRANCH  14  15
ATOM     15  C   UNL     1      39.395  37.536  20.661  1.00  0.00     0.000 C 
BRANCH  15  16
ATOM     16  C   UNL     1      38.350  37.644  19.540  1.00  0.00     0.000 C 
BRANCH  16  17
ATOM     17  C   UNL     1      37.114  36.793  19.854  1.00  0.00     0.000 C 
BRANCH  17  18
ATOM     18  C   UNL     1      37.319  35.337  19.414  1.00  0.00     0.000 C 
BRANCH  18  19
ATOM     19  C   UNL     1      37.479  35.203  17.884  1.00  0.00     0.000 C 
BRANCH  19  20
ATOM     20  C   UNL     1      38.890  34.767  17.446  1.00  0.00     0.006 C 
BRANCH  20  21
ATOM     21  C   UNL     1      39.527  35.681  16.389  1.00  0.00     0.053 C 
BRANCH  21  22
ATOM     22  C   UNL     1      40.302  34.902  15.370  1.00  0.00     0.041 C 
ATOM     23  O   UNL     1      40.948  33.877  15.715  1.00  0.00    -0.550 OA
ATOM     24  O   UNL     1      40.302  35.299  14.039  1.00  0.00    -0.550 OA
ENDBRANCH  21  22
ENDBRANCH  20  21
ENDBRANCH  19  20
ENDBRANCH  18  19
ENDBRANCH  17  18
ENDBRANCH  16  17
ENDBRANCH  15  16
ENDBRANCH  14  15
ENDBRANCH  13  14
ENDBRANCH   1  13
TORSDOF 20
ENDMDL
MODEL 2
REMARK VINA RESULT:    -1.739      2.081      4.265
REMARK INTER + INTRA:          -7.459
REMARK INTER:                  -3.888
REMARK INTRA:                  -3.571
REMARK UNBOUND:                -3.687
REMARK SMILES CCCCCCCCCCCCCCCCCCCCCC(=O)[O-]
REMARK SMILES IDX 12 1 11 2 10 3 9 4 8 5 7 6 6 7 5 8 4 9 3 10 2 11 1 12 13 13
REMARK SMILES IDX 14 14 15 15 16 16 17 17 18 18 19 19 20 20 21 21 22 22 23 23
REMARK SMILES IDX 24 24
REMARK H PARENT
REMARK Flexibility Score: inf
ROOT
ATOM      1  C   UNL     1      41.637  37.586  17.300  1.00  0.00     0.000 C 
ENDROOT
BRANCH   1   2
ATOM      2  C   UNL     1      40.414  38.404  16.841  1.00  0.00     0.000 C 
BRANCH   2   3
ATOM      3  C   UNL     1      39.174  38.242  17.749  1.00  0.00     0.000 C 
BRANCH   3   4
ATOM      4  C   UNL     1      39.052  39.296  18.870  1.00  0.00    -0.000 C 
BRANCH   4   5
ATOM      5  C   UNL     1      37.816  39.157  19.779  1.00  0.00    -0.000 C 
BRANCH   5   6
ATOM      6  C   UNL     1      37.860  37.914  20.682  1.00  0.00    -0.000 C 
BRANCH   6   7
ATOM      7  C   UNL     1      37.453  38.268  22.120  1.00  0.00    -0.000 C 
BRANCH   7   8
ATOM      8  C   UNL     1      37.298  37.026  23.015  1.00  0.00    -0.000 C 
BRANCH   8   9
ATOM      9  C   UNL     1      36.993  35.751  22.214  1.00  0.00    -0.000 C 
BRANCH   9  10
ATOM     10  C   UNL     1      37.922  34.604  22.637  1.00  0.00    -0.000 C 
BRANCH  10  11
ATOM     11  C   UNL     1      38.926  35.026  23.722  1.00  0.00    -0.003 C 
ATOM     12  C   UNL     1      40.375  34.743  23.330  1.00  0.00     0.004 C 
ENDBRANCH  10  11
ENDBRANCH   9  10
ENDBRANCH   8   9
ENDBRANCH   7   8
ENDBRANCH   6   7
ENDBRANCH   5   6
ENDBRANCH   4   5
ENDBRANCH   3   4
ENDBRANCH   2   3
ENDBRANCH   1   2
BRANCH   1  13
ATOM     13  C   UNL     1      41.753  36.185  16.674  1.00  0.00     0.000 C 
BRANCH  13  14
ATOM     14  C   UNL     1      41.474  35.016  17.640  1.00  0.00     0.000 C 
BRANCH  14  15
ATOM     15  C   UNL     1      41.208  35.459  19.094  1.00  0.00     0.000 C 
BRANCH  15  16
ATOM     16  C   UNL     1      39.830  35.007  19.602  1.00  0.00     0.000 C 
BRANCH  16  17
ATOM     17  C   UNL     1      38.949  34.519  18.446  1.00  0.00     0.000 C 
BRANCH  17  18
ATOM     18  C   UNL     1      37.516  35.055  18.579  1.00  0.00     0.000 C 
BRANCH  18  19
ATOM     19  C   UNL     1      36.909  35.452  17.216  1.00  0.00     0.000 C 
BRANCH  19  20
ATOM     20  C   UNL     1      37.876  35.264  16.031  1.00  0.00     0.006 C 
BRANCH  20  21
ATOM     21  C   UNL     1      37.341  35.804  14.697  1.00  0.00     0.053 C 
BRANCH  21  22
ATOM     22  C   UNL     1      38.449  36.128  13.740  1.00  0.00     0.041 C 
ATOM     23  O   UNL     1      38.858  35.257  12.928  1.00  0.00    -0.550 OA
ATOM     24  O   UNL     1      39.019  37.395  13.735  1.00  0.00    -0.550 OA
ENDBRANCH  21  22
ENDBRANCH  20  21
ENDBRANCH  19  20
ENDBRANCH  18  19
ENDBRANCH  17  18
ENDBRANCH  16  17
ENDBRANCH  15  16
ENDBRANCH  14  15
ENDBRANCH  13  14
ENDBRANCH   1  13
TORSDOF 20
ENDMDL
MODEL 3
REMARK VINA RESULT:    -1.708     13.105     15.558
REMARK INTER + INTRA:          -7.391
REMARK INTER:                  -3.106
REMARK INTRA:                  -4.285
REMARK UNBOUND:                -3.687
REMARK SMILES CCCCCCCCCCCCCCCCCCCCCC(=O)[O-]
REMARK SMILES IDX 12 1 11 2 10 3 9 4 8 5 7 6 6 7 5 8 4 9 3 10 2 11 1 12 13 13
REMARK SMILES IDX 14 14 15 15 16 16 17 17 18 18 19 19 20 20 21 21 22 22 23 23
REMARK SMILES IDX 24 24
REMARK H PARENT
REMARK Flexibility Score: inf
ROOT
ATOM      1  C   UNL     1      43.349  51.239  20.648  1.00  0.00     0.000 C 
ENDROOT
BRANCH   1   2
ATOM      2  C   UNL     1      41.893  51.444  21.108  1.00  0.00     0.000 C 
BRANCH   2   3
ATOM      3  C   UNL     1      41.693  52.663  22.036  1.00  0.00     0.000 C 
BRANCH   3   4
ATOM      4  C   UNL     1      40.618  53.665  21.565  1.00  0.00    -0.000 C 
BRANCH   4   5
ATOM      5  C   UNL     1      39.179  53.359  22.022  1.00  0.00    -0.000 C 
BRANCH   5   6
ATOM      6  C   UNL     1      38.137  53.520  20.905  1.00  0.00    -0.000 C 
BRANCH   6   7
ATOM      7  C   UNL     1      36.995  52.506  21.070  1.00  0.00    -0.000 C 
BRANCH   7   8
ATOM      8  C   UNL     1      37.269  51.480  22.182  1.00  0.00    -0.000 C 
BRANCH   8   9
ATOM      9  C   UNL     1      37.396  50.045  21.649  1.00  0.00    -0.000 C 
BRANCH   9  10
ATOM     10  C   UNL     1      38.836  49.532  21.797  1.00  0.00    -0.000 C 
BRANCH  10  11
ATOM     11  C   UNL     1      39.347  49.614  23.244  1.00  0.00    -0.003 C 
ATOM     12  C   UNL     1      40.702  48.936  23.433  1.00  0.00     0.004 C 
ENDBRANCH  10  11
ENDBRANCH   9  10
ENDBRANCH   8   9
ENDBRANCH   7   8
ENDBRANCH   6   7
ENDBRANCH   5   6
ENDBRANCH   4   5
ENDBRANCH   3   4
ENDBRANCH   2   3
ENDBRANCH   1   2
BRANCH   1  13
ATOM     13  C   UNL     1      43.658  51.737  19.225  1.00  0.00     0.000 C 
BRANCH  13  14
ATOM     14  C   UNL     1      44.001  53.236  19.120  1.00  0.00     0.000 C 
BRANCH  14  15
ATOM     15  C   UNL     1      42.836  54.108  18.608  1.00  0.00     0.000 C 
BRANCH  15  16
ATOM     16  C   UNL     1      41.925  53.352  17.628  1.00  0.00     0.000 C 
BRANCH  16  17
ATOM     17  C   UNL     1      40.448  53.666  17.894  1.00  0.00     0.000 C 
BRANCH  17  18
ATOM     18  C   UNL     1      39.544  52.526  17.406  1.00  0.00     0.000 C 
BRANCH  18  19
ATOM     19  C   UNL     1      39.567  51.310  18.358  1.00  0.00     0.000 C 
BRANCH  19  20
ATOM     20  C   UNL     1      40.032  50.006  17.682  1.00  0.00     0.006 C 
BRANCH  20  21
ATOM     21  C   UNL     1      40.779  49.047  18.620  1.00  0.00     0.053 C 
BRANCH  21  22
ATOM     22  C   UNL     1      40.305  47.633  18.468  1.00  0.00     0.041 C 
ATOM     23  O   UNL     1      39.780  47.033  19.443  1.00  0.00    -0.550 OA
ATOM     24  O   UNL     1      40.432  46.982  17.247  1.00  0.00    -0.550 OA
ENDBRANCH  21  22
ENDBRANCH  20  21
ENDBRANCH  19  20
ENDBRANCH  18  19
ENDBRANCH  17  18
ENDBRANCH  16  17
ENDBRANCH  15  16
ENDBRANCH  14  15
ENDBRANCH  13  14
ENDBRANCH   1  13
TORSDOF 20
ENDMDL
MODEL 4
REMARK VINA RESULT:    -1.694     14.061     17.019
REMARK INTER + INTRA:          -7.361
REMARK INTER:                  -3.415
REMARK INTRA:                  -3.945
REMARK UNBOUND:                -3.687
REMARK SMILES CCCCCCCCCCCCCCCCCCCCCC(=O)[O-]
REMARK SMILES IDX 12 1 11 2 10 3 9 4 8 5 7 6 6 7 5 8 4 9 3 10 2 11 1 12 13 13
REMARK SMILES IDX 14 14 15 15 16 16 17 17 18 18 19 19 20 20 21 21 22 22 23 23
REMARK SMILES IDX 24 24
REMARK H PARENT
REMARK Flexibility Score: inf
ROOT
ATOM      1  C   UNL     1      40.529  48.770  15.656  1.00  0.00     0.000 C 
ENDROOT
BRANCH   1   2
ATOM      2  C   UNL     1      39.274  49.663  15.623  1.00  0.00     0.000 C 
BRANCH   2   3
ATOM      3  C   UNL     1      39.478  51.005  14.886  1.00  0.00     0.000 C 
BRANCH   3   4
ATOM      4  C   UNL     1      39.032  52.252  15.680  1.00  0.00    -0.000 C 
BRANCH   4   5
ATOM      5  C   UNL     1      39.698  52.434  17.057  1.00  0.00    -0.000 C 
BRANCH   5   6
ATOM      6  C   UNL     1      39.775  53.901  17.507  1.00  0.00    -0.000 C 
BRANCH   6   7
ATOM      7  C   UNL     1      40.974  54.125  18.441  1.00  0.00    -0.000 C 
BRANCH   7   8
ATOM      8  C   UNL     1      42.019  53.001  18.345  1.00  0.00    -0.000 C 
BRANCH   8   9
ATOM      9  C   UNL     1      43.326  53.459  17.679  1.00  0.00    -0.000 C 
BRANCH   9  10
ATOM     10  C   UNL     1      43.379  53.010  16.212  1.00  0.00    -0.000 C 
BRANCH  10  11
ATOM     11  C   UNL     1      43.006  51.531  16.032  1.00  0.00    -0.003 C 
ATOM     12  C   UNL     1      44.141  50.583  16.415  1.00  0.00     0.004 C 
ENDBRANCH  10  11
ENDBRANCH   9  10
ENDBRANCH   8   9
ENDBRANCH   7   8
ENDBRANCH   6   7
ENDBRANCH   5   6
ENDBRANCH   4   5
ENDBRANCH   3   4
ENDBRANCH   2   3
ENDBRANCH   1   2
BRANCH   1  13
ATOM     13  C   UNL     1      41.087  48.485  17.061  1.00  0.00     0.000 C 
BRANCH  13  14
ATOM     14  C   UNL     1      40.209  48.987  18.225  1.00  0.00     0.000 C 
BRANCH  14  15
ATOM     15  C   UNL     1      41.007  49.660  19.361  1.00  0.00     0.000 C 
BRANCH  15  16
ATOM     16  C   UNL     1      40.115  50.504  20.283  1.00  0.00     0.000 C 
BRANCH  16  17
ATOM     17  C   UNL     1      38.635  50.152  20.094  1.00  0.00     0.000 C 
BRANCH  17  18
ATOM     18  C   UNL     1      37.752  51.404  20.186  1.00  0.00     0.000 C 
BRANCH  18  19
ATOM     19  C   UNL     1      38.534  52.637  20.690  1.00  0.00     0.000 C 
BRANCH  19  20
ATOM     20  C   UNL     1      37.891  53.318  21.913  1.00  0.00     0.006 C 
BRANCH  20  21
ATOM     21  C   UNL     1      37.491  52.346  23.032  1.00  0.00     0.053 C 
BRANCH  21  22
ATOM     22  C   UNL     1      38.681  51.648  23.618  1.00  0.00     0.041 C 
ATOM     23  O   UNL     1      38.670  50.397  23.769  1.00  0.00    -0.550 OA
ATOM     24  O   UNL     1      39.808  52.374  23.983  1.00  0.00    -0.550 OA
ENDBRANCH  21  22
ENDBRANCH  20  21
ENDBRANCH  19  20
ENDBRANCH  18  19
ENDBRANCH  17  18
ENDBRANCH  16  17
ENDBRANCH  15  16
ENDBRANCH  14  15
ENDBRANCH  13  14
ENDBRANCH   1  13
TORSDOF 20
ENDMDL
MODEL 5
REMARK VINA RESULT:    -1.684     13.803     16.685
REMARK INTER + INTRA:          -7.341
REMARK INTER:                  -3.203
REMARK INTRA:                  -4.138
REMARK UNBOUND:                -3.687
REMARK SMILES CCCCCCCCCCCCCCCCCCCCCC(=O)[O-]
REMARK SMILES IDX 12 1 11 2 10 3 9 4 8 5 7 6 6 7 5 8 4 9 3 10 2 11 1 12 13 13
REMARK SMILES IDX 14 14 15 15 16 16 17 17 18 18 19 19 20 20 21 21 22 22 23 23
REMARK SMILES IDX 24 24
REMARK H PARENT
REMARK Flexibility Score: inf
ROOT
ATOM      1  C   UNL     1      37.699  51.673  23.251  1.00  0.00     0.000 C 
ENDROOT
BRANCH   1   2
ATOM      2  C   UNL     1      36.884  52.863  22.709  1.00  0.00     0.000 C 
BRANCH   2   3
ATOM      3  C   UNL     1      37.171  53.197  21.227  1.00  0.00     0.000 C 
BRANCH   3   4
ATOM      4  C   UNL     1      38.008  52.140  20.477  1.00  0.00    -0.000 C 
BRANCH   4   5
ATOM      5  C   UNL     1      39.254  52.677  19.746  1.00  0.00    -0.000 C 
BRANCH   5   6
ATOM      6  C   UNL     1      39.851  53.931  20.401  1.00  0.00    -0.000 C 
BRANCH   6   7
ATOM      7  C   UNL     1      40.970  53.556  21.384  1.00  0.00    -0.000 C 
BRANCH   7   8
ATOM      8  C   UNL     1      40.571  53.779  22.852  1.00  0.00    -0.000 C 
BRANCH   8   9
ATOM      9  C   UNL     1      41.480  53.026  23.835  1.00  0.00    -0.000 C 
BRANCH   9  10
ATOM     10  C   UNL     1      40.698  52.599  25.086  1.00  0.00    -0.000 C 
BRANCH  10  11
ATOM     11  C   UNL     1      40.794  51.090  25.357  1.00  0.00    -0.003 C 
ATOM     12  C   UNL     1      39.694  50.584  26.289  1.00  0.00     0.004 C 
ENDBRANCH  10  11
ENDBRANCH   9  10
ENDBRANCH   8   9
ENDBRANCH   7   8
ENDBRANCH   6   7
ENDBRANCH   5   6
ENDBRANCH   4   5
ENDBRANCH   3   4
ENDBRANCH   2   3
ENDBRANCH   1   2
BRANCH   1  13
ATOM     13  C   UNL     1      36.875  50.416  23.580  1.00  0.00     0.000 C 
BRANCH  13  14
ATOM     14  C   UNL     1      37.682  49.104  23.632  1.00  0.00     0.000 C 
BRANCH  14  15
ATOM     15  C   UNL     1      38.442  48.788  22.328  1.00  0.00     0.000 C 
BRANCH  15  16
ATOM     16  C   UNL     1      39.966  48.787  22.521  1.00  0.00     0.000 C 
BRANCH  16  17
ATOM     17  C   UNL     1      40.620  49.942  21.754  1.00  0.00     0.000 C 
BRANCH  17  18
ATOM     18  C   UNL     1      42.135  49.979  21.997  1.00  0.00     0.000 C 
BRANCH  18  19
ATOM     19  C   UNL     1      42.940  50.050  20.682  1.00  0.00     0.000 C 
BRANCH  19  20
ATOM     20  C   UNL     1      44.306  50.748  20.830  1.00  0.00     0.006 C 
BRANCH  20  21
ATOM     21  C   UNL     1      44.426  51.625  22.084  1.00  0.00     0.053 C 
BRANCH  21  22
ATOM     22  C   UNL     1      45.032  52.961  21.777  1.00  0.00     0.041 C 
ATOM     23  O   UNL     1      46.081  53.036  21.083  1.00  0.00    -0.550 OA
ATOM     24  O   UNL     1      44.432  54.124  22.244  1.00  0.00    -0.550 OA
ENDBRANCH  21  22
ENDBRANCH  20  21
ENDBRANCH  19  20
ENDBRANCH  18  19
ENDBRANCH  17  18
ENDBRANCH  16  17
ENDBRANCH  15  16
ENDBRANCH  14  15
ENDBRANCH  13  14
ENDBRANCH   1  13
TORSDOF 20
ENDMDL
MODEL 6
REMARK VINA RESULT:    -1.639      3.226      6.490
REMARK INTER + INTRA:          -7.243
REMARK INTER:                  -3.546
REMARK INTRA:                  -3.697
REMARK UNBOUND:                -3.687
REMARK SMILES CCCCCCCCCCCCCCCCCCCCCC(=O)[O-]
REMARK SMILES IDX 12 1 11 2 10 3 9 4 8 5 7 6 6 7 5 8 4 9 3 10 2 11 1 12 13 13
REMARK SMILES IDX 14 14 15 15 16 16 17 17 18 18 19 19 20 20 21 21 22 22 23 23
REMARK SMILES IDX 24 24
REMARK H PARENT
REMARK Flexibility Score: inf
ROOT
ATOM      1  C   UNL     1      41.376  36.048  20.751  1.00  0.00     0.000 C 
ENDROOT
BRANCH   1   2
ATOM      2  C   UNL     1      41.416  34.698  20.009  1.00  0.00     0.000 C 
BRANCH   2   3
ATOM      3  C   UNL     1      40.404  34.591  18.846  1.00  0.00     0.000 C 
BRANCH   3   4
ATOM      4  C   UNL     1      39.189  35.536  18.958  1.00  0.00    -0.000 C 
BRANCH   4   5
ATOM      5  C   UNL     1      37.856  34.969  18.432  1.00  0.00    -0.000 C 
BRANCH   5   6
ATOM      6  C   UNL     1      36.875  36.053  17.963  1.00  0.00    -0.000 C 
BRANCH   6   7
ATOM      7  C   UNL     1      37.570  37.421  17.880  1.00  0.00    -0.000 C 
BRANCH   7   8
ATOM      8  C   UNL     1      37.532  38.021  16.464  1.00  0.00    -0.000 C 
BRANCH   8   9
ATOM      9  C   UNL     1      38.877  38.631  16.041  1.00  0.00    -0.000 C 
BRANCH   9  10
ATOM     10  C   UNL     1      40.009  37.602  16.173  1.00  0.00    -0.000 C 
BRANCH  10  11
ATOM     11  C   UNL     1      40.138  36.702  14.934  1.00  0.00    -0.003 C 
ATOM     12  C   UNL     1      39.626  35.283  15.177  1.00  0.00     0.004 C 
ENDBRANCH  10  11
ENDBRANCH   9  10
ENDBRANCH   8   9
ENDBRANCH   7   8
ENDBRANCH   6   7
ENDBRANCH   5   6
ENDBRANCH   4   5
ENDBRANCH   3   4
ENDBRANCH   2   3
ENDBRANCH   1   2
BRANCH   1  13
ATOM     13  C   UNL     1      41.049  35.957  22.251  1.00  0.00     0.000 C 
BRANCH  13  14
ATOM     14  C   UNL     1      40.444  34.613  22.705  1.00  0.00     0.000 C 
BRANCH  14  15
ATOM     15  C   UNL     1      39.518  34.730  23.933  1.00  0.00     0.000 C 
BRANCH  15  16
ATOM     16  C   UNL     1      38.066  34.344  23.613  1.00  0.00     0.000 C 
BRANCH  16  17
ATOM     17  C   UNL     1      37.683  34.772  22.191  1.00  0.00     0.000 C 
BRANCH  17  18
ATOM     18  C   UNL     1      36.875  36.077  22.206  1.00  0.00     0.000 C 
BRANCH  18  19
ATOM     19  C   UNL     1      37.663  37.262  21.607  1.00  0.00     0.000 C 
BRANCH  19  20
ATOM     20  C   UNL     1      37.199  38.637  22.124  1.00  0.00     0.006 C 
BRANCH  20  21
ATOM     21  C   UNL     1      37.630  38.941  23.567  1.00  0.00     0.053 C 
BRANCH  21  22
ATOM     22  C   UNL     1      39.118  38.868  23.733  1.00  0.00     0.041 C 
ATOM     23  O   UNL     1      39.617  38.205  24.680  1.00  0.00    -0.550 OA
ATOM     24  O   UNL     1      39.954  39.520  22.835  1.00  0.00    -0.550 OA
ENDBRANCH  21  22
ENDBRANCH  20  21
ENDBRANCH  19  20
ENDBRANCH  18  19
ENDBRANCH  17  18
ENDBRANCH  16  17
ENDBRANCH  15  16
ENDBRANCH  14  15
ENDBRANCH  13  14
ENDBRANCH   1  13
TORSDOF 20
ENDMDL
MODEL 7
REMARK VINA RESULT:    -1.636      3.144      5.818
REMARK INTER + INTRA:          -7.235
REMARK INTER:                  -3.566
REMARK INTRA:                  -3.669
REMARK UNBOUND:                -3.687
REMARK SMILES CCCCCCCCCCCCCCCCCCCCCC(=O)[O-]
REMARK SMILES IDX 12 1 11 2 10 3 9 4 8 5 7 6 6 7 5 8 4 9 3 10 2 11 1 12 13 13
REMARK SMILES IDX 14 14 15 15 16 16 17 17 18 18 19 19 20 20 21 21 22 22 23 23
REMARK SMILES IDX 24 24
REMARK H PARENT
REMARK Flexibility Score: inf
ROOT
ATOM      1  C   UNL     1      41.536  37.499  19.930  1.00  0.00     0.000 C 
ENDROOT
BRANCH   1   2
ATOM      2  C   UNL     1      40.472  38.548  19.556  1.00  0.00     0.000 C 
BRANCH   2   3
ATOM      3  C   UNL     1      39.030  37.993  19.518  1.00  0.00     0.000 C 
BRANCH   3   4
ATOM      4  C   UNL     1      38.217  38.391  18.268  1.00  0.00    -0.000 C 
BRANCH   4   5
ATOM      5  C   UNL     1      36.875  37.655  18.087  1.00  0.00    -0.000 C 
BRANCH   5   6
ATOM      6  C   UNL     1      36.994  36.365  17.263  1.00  0.00    -0.000 C 
BRANCH   6   7
ATOM      7  C   UNL     1      37.171  35.144  18.180  1.00  0.00    -0.000 C 
BRANCH   7   8
ATOM      8  C   UNL     1      38.614  34.611  18.185  1.00  0.00    -0.000 C 
BRANCH   8   9
ATOM      9  C   UNL     1      39.381  34.961  16.901  1.00  0.00    -0.000 C 
BRANCH   9  10
ATOM     10  C   UNL     1      40.694  34.169  16.815  1.00  0.00    -0.000 C 
BRANCH  10  11
ATOM     11  C   UNL     1      41.908  34.984  17.284  1.00  0.00    -0.003 C 
ATOM     12  C   UNL     1      43.028  34.108  17.845  1.00  0.00     0.004 C 
ENDBRANCH  10  11
ENDBRANCH   9  10
ENDBRANCH   8   9
ENDBRANCH   7   8
ENDBRANCH   6   7
ENDBRANCH   5   6
ENDBRANCH   4   5
ENDBRANCH   3   4
ENDBRANCH   2   3
ENDBRANCH   1   2
BRANCH   1  13
ATOM     13  C   UNL     1      41.893  37.438  21.425  1.00  0.00     0.000 C 
BRANCH  13  14
ATOM     14  C   UNL     1      41.838  36.030  22.050  1.00  0.00     0.000 C 
BRANCH  14  15
ATOM     15  C   UNL     1      41.529  34.909  21.036  1.00  0.00     0.000 C 
BRANCH  15  16
ATOM     16  C   UNL     1      40.271  34.110  21.408  1.00  0.00     0.000 C 
BRANCH  16  17
ATOM     17  C   UNL     1      39.962  34.234  22.905  1.00  0.00     0.000 C 
BRANCH  17  18
ATOM     18  C   UNL     1      38.463  34.469  23.141  1.00  0.00     0.000 C 
BRANCH  18  19
ATOM     19  C   UNL     1      37.734  34.938  21.863  1.00  0.00     0.000 C 
BRANCH  19  20
ATOM     20  C   UNL     1      37.056  36.314  22.008  1.00  0.00     0.006 C 
BRANCH  20  21
ATOM     21  C   UNL     1      37.519  37.112  23.236  1.00  0.00     0.053 C 
BRANCH  21  22
ATOM     22  C   UNL     1      37.855  38.530  22.887  1.00  0.00     0.041 C 
ATOM     23  O   UNL     1      39.023  38.967  23.070  1.00  0.00    -0.550 OA
ATOM     24  O   UNL     1      36.885  39.366  22.348  1.00  0.00    -0.550 OA
ENDBRANCH  21  22
ENDBRANCH  20  21
ENDBRANCH  19  20
ENDBRANCH  18  19
ENDBRANCH  17  18
ENDBRANCH  16  17
ENDBRANCH  15  16
ENDBRANCH  14  15
ENDBRANCH  13  14
ENDBRANCH   1  13
TORSDOF 20
ENDMDL
MODEL 8
REMARK VINA RESULT:    -1.606     13.382     16.345
REMARK INTER + INTRA:          -7.170
REMARK INTER:                  -3.408
REMARK INTRA:                  -3.761
REMARK UNBOUND:                -3.687
REMARK SMILES CCCCCCCCCCCCCCCCCCCCCC(=O)[O-]
REMARK SMILES IDX 12 1 11 2 10 3 9 4 8 5 7 6 6 7 5 8 4 9 3 10 2 11 1 12 13 13
REMARK SMILES IDX 14 14 15 15 16 16 17 17 18 18 19 19 20 20 21 21 22 22 23 23
REMARK SMILES IDX 24 24
REMARK H PARENT
REMARK Flexibility Score: inf
ROOT
ATOM      1  C   UNL     1      39.943  52.790  18.882  1.00  0.00     0.000 C 
ENDROOT
BRANCH   1   2
ATOM      2  C   UNL     1      39.427  51.375  19.204  1.00  0.00     0.000 C 
BRANCH   2   3
ATOM      3  C   UNL     1      40.270  50.624  20.259  1.00  0.00     0.000 C 
BRANCH   3   4
ATOM      4  C   UNL     1      41.567  51.346  20.682  1.00  0.00    -0.000 C 
BRANCH   4   5
ATOM      5  C   UNL     1      41.645  51.756  22.166  1.00  0.00    -0.000 C 
BRANCH   5   6
ATOM      6  C   UNL     1      42.155  53.189  22.376  1.00  0.00    -0.000 C 
BRANCH   6   7
ATOM      7  C   UNL     1      41.380  53.887  23.504  1.00  0.00    -0.000 C 
BRANCH   7   8
ATOM      8  C   UNL     1      41.227  53.003  24.753  1.00  0.00    -0.000 C 
BRANCH   8   9
ATOM      9  C   UNL     1      42.319  53.265  25.802  1.00  0.00    -0.000 C 
BRANCH   9  10
ATOM     10  C   UNL     1      43.164  52.004  26.037  1.00  0.00    -0.000 C 
BRANCH  10  11
ATOM     11  C   UNL     1      42.426  50.716  25.645  1.00  0.00    -0.003 C 
ATOM     12  C   UNL     1      42.421  49.672  26.760  1.00  0.00     0.004 C 
ENDBRANCH  10  11
ENDBRANCH   9  10
ENDBRANCH   8   9
ENDBRANCH   7   8
ENDBRANCH   6   7
ENDBRANCH   5   6
ENDBRANCH   4   5
ENDBRANCH   3   4
ENDBRANCH   2   3
ENDBRANCH   1   2
BRANCH   1  13
ATOM     13  C   UNL     1      39.144  53.937  19.525  1.00  0.00     0.000 C 
BRANCH  13  14
ATOM     14  C   UNL     1      38.689  53.679  20.975  1.00  0.00     0.000 C 
BRANCH  14  15
ATOM     15  C   UNL     1      37.185  53.362  21.109  1.00  0.00     0.000 C 
BRANCH  15  16
ATOM     16  C   UNL     1      36.875  52.498  22.341  1.00  0.00     0.000 C 
BRANCH  16  17
ATOM     17  C   UNL     1      38.123  52.312  23.213  1.00  0.00     0.000 C 
BRANCH  17  18
ATOM     18  C   UNL     1      38.040  51.013  24.025  1.00  0.00     0.000 C 
BRANCH  18  19
ATOM     19  C   UNL     1      38.458  49.777  23.200  1.00  0.00     0.000 C 
BRANCH  19  20
ATOM     20  C   UNL     1      39.620  48.981  23.825  1.00  0.00     0.006 C 
BRANCH  20  21
ATOM     21  C   UNL     1      39.282  48.342  25.180  1.00  0.00     0.053 C 
BRANCH  21  22
ATOM     22  C   UNL     1      38.113  47.410  25.084  1.00  0.00     0.041 C 
ATOM     23  O   UNL     1      38.229  46.310  24.480  1.00  0.00    -0.550 OA
ATOM     24  O   UNL     1      36.900  47.747  25.671  1.00  0.00    -0.550 OA
ENDBRANCH  21  22
ENDBRANCH  20  21
ENDBRANCH  19  20
ENDBRANCH  18  19
ENDBRANCH  17  18
ENDBRANCH  16  17
ENDBRANCH  15  16
ENDBRANCH  14  15
ENDBRANCH  13  14
ENDBRANCH   1  13
TORSDOF 20
ENDMDL
MODEL 9
REMARK VINA RESULT:    -1.605      1.986      3.944
REMARK INTER + INTRA:          -7.167
REMARK INTER:                  -3.906
REMARK INTRA:                  -3.261
REMARK UNBOUND:                -3.687
REMARK SMILES CCCCCCCCCCCCCCCCCCCCCC(=O)[O-]
REMARK SMILES IDX 12 1 11 2 10 3 9 4 8 5 7 6 6 7 5 8 4 9 3 10 2 11 1 12 13 13
REMARK SMILES IDX 14 14 15 15 16 16 17 17 18 18 19 19 20 20 21 21 22 22 23 23
REMARK SMILES IDX 24 24
REMARK H PARENT
REMARK Flexibility Score: inf
ROOT
ATOM      1  C   UNL     1      42.477  36.341  18.691  1.00  0.00     0.000 C 
ENDROOT
BRANCH   1   2
ATOM      2  C   UNL     1      42.170  36.329  20.201  1.00  0.00     0.000 C 
BRANCH   2   3
ATOM      3  C   UNL     1      42.734  35.098  20.946  1.00  0.00     0.000 C 
BRANCH   3   4
ATOM      4  C   UNL     1      41.666  34.124  21.486  1.00  0.00    -0.000 C 
BRANCH   4   5
ATOM      5  C   UNL     1      40.807  34.658  22.649  1.00  0.00    -0.000 C 
BRANCH   5   6
ATOM      6  C   UNL     1      39.443  33.962  22.768  1.00  0.00    -0.000 C 
BRANCH   6   7
ATOM      7  C   UNL     1      38.647  34.517  23.959  1.00  0.00    -0.000 C 
BRANCH   7   8
ATOM      8  C   UNL     1      37.254  35.028  23.556  1.00  0.00    -0.000 C 
BRANCH   8   9
ATOM      9  C   UNL     1      37.299  36.001  22.368  1.00  0.00    -0.000 C 
BRANCH   9  10
ATOM     10  C   UNL     1      37.959  37.328  22.771  1.00  0.00    -0.000 C 
BRANCH  10  11
ATOM     11  C   UNL     1      39.077  37.750  21.806  1.00  0.00    -0.003 C 
ATOM     12  C   UNL     1      38.551  38.489  20.577  1.00  0.00     0.004 C 
ENDBRANCH  10  11
ENDBRANCH   9  10
ENDBRANCH   8   9
ENDBRANCH   7   8
ENDBRANCH   6   7
ENDBRANCH   5   6
ENDBRANCH   4   5
ENDBRANCH   3   4
ENDBRANCH   2   3
ENDBRANCH   1   2
BRANCH   1  13
ATOM     13  C   UNL     1      42.155  35.031  17.951  1.00  0.00     0.000 C 
BRANCH  13  14
ATOM     14  C   UNL     1      40.768  34.986  17.281  1.00  0.00     0.000 C 
BRANCH  14  15
ATOM     15  C   UNL     1      39.698  34.250  18.114  1.00  0.00     0.000 C 
BRANCH  15  16
ATOM     16  C   UNL     1      38.887  35.205  19.003  1.00  0.00     0.000 C 
BRANCH  16  17
ATOM     17  C   UNL     1      37.381  34.988  18.816  1.00  0.00     0.000 C 
BRANCH  17  18
ATOM     18  C   UNL     1      36.875  35.691  17.548  1.00  0.00     0.000 C 
BRANCH  18  19
ATOM     19  C   UNL     1      37.599  37.030  17.291  1.00  0.00     0.000 C 
BRANCH  19  20
ATOM     20  C   UNL     1      37.981  37.252  15.815  1.00  0.00     0.006 C 
BRANCH  20  21
ATOM     21  C   UNL     1      37.238  36.336  14.833  1.00  0.00     0.053 C 
BRANCH  21  22
ATOM     22  C   UNL     1      37.963  36.210  13.527  1.00  0.00     0.041 C 
ATOM     23  O   UNL     1      38.137  35.075  13.007  1.00  0.00    -0.550 OA
ATOM     24  O   UNL     1      38.435  37.343  12.878  1.00  0.00    -0.550 OA
ENDBRANCH  21  22
ENDBRANCH  20  21
ENDBRANCH  19  20
ENDBRANCH  18  19
ENDBRANCH  17  18
ENDBRANCH  16  17
ENDBRANCH  15  16
ENDBRANCH  14  15
ENDBRANCH  13  14
ENDBRANCH   1  13
TORSDOF 20
ENDMDL
