MODEL 1
REMARK VINA RESULT:    -2.977      0.000      0.000
REMARK INTER + INTRA:          -8.703
REMARK INTER:                  -5.762
REMARK INTRA:                  -2.940
REMARK UNBOUND:                -2.940
REMARK SMILES CCCCCCCCCCCCCCCCCC(=O)[O-]
REMARK SMILES IDX 10 1 11 2 12 3 13 4 14 5 15 6 16 7 17 8 18 9 19 10 20 11
REMARK SMILES IDX 9 12 8 13 7 14 6 15 5 16 4 17 3 18 2 19 1 20
REMARK H PARENT
REMARK Flexibility Score: inf
ROOT
ATOM      1  C   UNL     1     -20.125  40.500  92.970  1.00  0.00     0.000 C 
ENDROOT
BRANCH   1   2
ATOM      2  C   UNL     1     -21.120  39.513  93.592  1.00  0.00     0.000 C 
BRANCH   2   3
ATOM      3  C   UNL     1     -20.484  38.126  93.769  1.00  0.00     0.000 C 
BRANCH   3   4
ATOM      4  C   UNL     1     -20.801  37.178  92.601  1.00  0.00     0.000 C 
BRANCH   4   5
ATOM      5  C   UNL     1     -19.537  36.569  91.975  1.00  0.00     0.000 C 
BRANCH   5   6
ATOM      6  C   UNL     1     -19.208  37.248  90.636  1.00  0.00     0.000 C 
BRANCH   6   7
ATOM      7  C   UNL     1     -17.978  38.165  90.722  1.00  0.00     0.006 C 
BRANCH   7   8
ATOM      8  C   UNL     1     -16.926  37.659  91.719  1.00  0.00     0.053 C 
BRANCH   8   9
ATOM      9  C   UNL     1     -15.751  38.584  91.754  1.00  0.00     0.041 C 
ATOM     10  O   UNL     1     -15.080  38.797  90.710  1.00  0.00    -0.550 OA
ATOM     11  O   UNL     1     -15.423  39.247  92.929  1.00  0.00    -0.550 OA
ENDBRANCH   8   9
ENDBRANCH   7   8
ENDBRANCH   6   7
ENDBRANCH   5   6
ENDBRANCH   4   5
ENDBRANCH   3   4
ENDBRANCH   2   3
ENDBRANCH   1   2
BRANCH   1  12
ATOM     12  C   UNL     1     -18.708  40.265  93.512  1.00  0.00     0.000 C 
BRANCH  12  13
ATOM     13  C   UNL     1     -18.121  41.502  94.215  1.00  0.00    -0.000 C 
BRANCH  13  14
ATOM     14  C   UNL     1     -17.550  41.239  95.621  1.00  0.00    -0.000 C 
BRANCH  14  15
ATOM     15  C   UNL     1     -18.511  41.659  96.748  1.00  0.00    -0.000 C 
BRANCH  15  16
ATOM     16  C   UNL     1     -18.854  40.485  97.689  1.00  0.00    -0.000 C 
BRANCH  16  17
ATOM     17  C   UNL     1     -19.871  39.497  97.092  1.00  0.00    -0.000 C 
BRANCH  17  18
ATOM     18  C   UNL     1     -19.438  38.032  97.243  1.00  0.00    -0.000 C 
BRANCH  18  19
ATOM     19  C   UNL     1     -17.913  37.899  97.154  1.00  0.00    -0.003 C 
ATOM     20  C   UNL     1     -17.474  37.512  95.743  1.00  0.00     0.004 C 
ENDBRANCH  18  19
ENDBRANCH  17  18
ENDBRANCH  16  17
ENDBRANCH  15  16
ENDBRANCH  14  15
ENDBRANCH  13  14
ENDBRANCH  12  13
ENDBRANCH   1  12
TORSDOF 16
ENDMDL
MODEL 2
REMARK VINA RESULT:    -2.974     14.954     16.515
REMARK INTER + INTRA:          -8.696
REMARK INTER:                  -6.655
REMARK INTRA:                  -2.041
REMARK UNBOUND:                -2.940
REMARK SMILES CCCCCCCCCCCCCCCCCC(=O)[O-]
REMARK SMILES IDX 10 1 11 2 12 3 13 4 14 5 15 6 16 7 17 8 18 9 19 10 20 11
REMARK SMILES IDX 9 12 8 13 7 14 6 15 5 16 4 17 3 18 2 19 1 20
REMARK H PARENT
REMARK Flexibility Score: inf
ROOT
ATOM      1  C   UNL     1      -4.033  42.942  96.735  1.00  0.00     0.000 C 
ENDROOT
BRANCH   1   2
ATOM      2  C   UNL     1      -2.777  42.279  96.157  1.00  0.00     0.000 C 
BRANCH   2   3
ATOM      3  C   UNL     1      -2.293  41.133  97.059  1.00  0.00     0.000 C 
BRANCH   3   4
ATOM      4  C   UNL     1      -1.785  39.925  96.255  1.00  0.00     0.000 C 
BRANCH   4   5
ATOM      5  C   UNL     1      -2.478  39.789  94.891  1.00  0.00     0.000 C 
BRANCH   5   6
ATOM      6  C   UNL     1      -2.494  38.323  94.429  1.00  0.00     0.000 C 
BRANCH   6   7
ATOM      7  C   UNL     1      -1.946  38.143  93.005  1.00  0.00     0.006 C 
BRANCH   7   8
ATOM      8  C   UNL     1      -1.426  39.453  92.397  1.00  0.00     0.053 C 
BRANCH   8   9
ATOM      9  C   UNL     1      -1.313  39.332  90.910  1.00  0.00     0.041 C 
ATOM     10  O   UNL     1      -0.875  38.271  90.391  1.00  0.00    -0.550 OA
ATOM     11  O   UNL     1      -1.734  40.373  90.094  1.00  0.00    -0.550 OA
ENDBRANCH   8   9
ENDBRANCH   7   8
ENDBRANCH   6   7
ENDBRANCH   5   6
ENDBRANCH   4   5
ENDBRANCH   3   4
ENDBRANCH   2   3
ENDBRANCH   1   2
BRANCH   1  12
ATOM     12  C   UNL     1      -4.842  43.639  95.631  1.00  0.00     0.000 C 
BRANCH  12  13
ATOM     13  C   UNL     1      -3.975  44.074  94.435  1.00  0.00    -0.000 C 
BRANCH  13  14
ATOM     14  C   UNL     1      -3.493  45.536  94.481  1.00  0.00    -0.000 C 
BRANCH  14  15
ATOM     15  C   UNL     1      -2.000  45.665  94.834  1.00  0.00    -0.000 C 
BRANCH  15  16
ATOM     16  C   UNL     1      -1.782  46.019  96.321  1.00  0.00    -0.000 C 
BRANCH  16  17
ATOM     17  C   UNL     1      -2.863  46.952  96.894  1.00  0.00    -0.000 C 
BRANCH  17  18
ATOM     18  C   UNL     1      -3.480  46.421  98.195  1.00  0.00    -0.000 C 
BRANCH  18  19
ATOM     19  C   UNL     1      -5.008  46.359  98.092  1.00  0.00    -0.003 C 
ATOM     20  C   UNL     1      -5.589  45.362  99.091  1.00  0.00     0.004 C 
ENDBRANCH  18  19
ENDBRANCH  17  18
ENDBRANCH  16  17
ENDBRANCH  15  16
ENDBRANCH  14  15
ENDBRANCH  13  14
ENDBRANCH  12  13
ENDBRANCH   1  12
TORSDOF 16
ENDMDL
MODEL 3
REMARK VINA RESULT:    -2.884      1.533      4.210
REMARK INTER + INTRA:          -8.523
REMARK INTER:                  -5.413
REMARK INTRA:                  -3.110
REMARK UNBOUND:                -2.940
REMARK SMILES CCCCCCCCCCCCCCCCCC(=O)[O-]
REMARK SMILES IDX 10 1 11 2 12 3 13 4 14 5 15 6 16 7 17 8 18 9 19 10 20 11
REMARK SMILES IDX 9 12 8 13 7 14 6 15 5 16 4 17 3 18 2 19 1 20
REMARK H PARENT
REMARK Flexibility Score: inf
ROOT
ATOM      1  C   UNL     1     -19.438  40.741  93.145  1.00  0.00     0.000 C 
ENDROOT
BRANCH   1   2
ATOM      2  C   UNL     1     -19.545  40.516  94.658  1.00  0.00     0.000 C 
BRANCH   2   3
ATOM      3  C   UNL     1     -18.352  41.140  95.395  1.00  0.00     0.000 C 
BRANCH   3   4
ATOM      4  C   UNL     1     -17.141  41.367  94.474  1.00  0.00     0.000 C 
BRANCH   4   5
ATOM      5  C   UNL     1     -15.831  40.843  95.080  1.00  0.00     0.000 C 
BRANCH   5   6
ATOM      6  C   UNL     1     -15.396  39.537  94.398  1.00  0.00     0.000 C 
BRANCH   6   7
ATOM      7  C   UNL     1     -16.130  39.287  93.070  1.00  0.00     0.006 C 
BRANCH   7   8
ATOM      8  C   UNL     1     -15.413  38.264  92.178  1.00  0.00     0.053 C 
BRANCH   8   9
ATOM      9  C   UNL     1     -14.048  38.754  91.811  1.00  0.00     0.041 C 
ATOM     10  O   UNL     1     -13.912  39.684  90.972  1.00  0.00    -0.550 OA
ATOM     11  O   UNL     1     -12.927  38.217  92.429  1.00  0.00    -0.550 OA
ENDBRANCH   8   9
ENDBRANCH   7   8
ENDBRANCH   6   7
ENDBRANCH   5   6
ENDBRANCH   4   5
ENDBRANCH   3   4
ENDBRANCH   2   3
ENDBRANCH   1   2
BRANCH   1  12
ATOM     12  C   UNL     1     -20.206  39.658  92.374  1.00  0.00     0.000 C 
BRANCH  12  13
ATOM     13  C   UNL     1     -19.355  38.977  91.286  1.00  0.00    -0.000 C 
BRANCH  13  14
ATOM     14  C   UNL     1     -19.449  37.441  91.256  1.00  0.00    -0.000 C 
BRANCH  14  15
ATOM     15  C   UNL     1     -20.519  36.886  92.214  1.00  0.00    -0.000 C 
BRANCH  15  16
ATOM     16  C   UNL     1     -19.913  35.962  93.292  1.00  0.00    -0.000 C 
BRANCH  16  17
ATOM     17  C   UNL     1     -18.394  35.765  93.147  1.00  0.00    -0.000 C 
BRANCH  17  18
ATOM     18  C   UNL     1     -17.611  36.240  94.378  1.00  0.00    -0.000 C 
BRANCH  18  19
ATOM     19  C   UNL     1     -18.463  37.178  95.241  1.00  0.00    -0.003 C 
ATOM     20  C   UNL     1     -17.712  37.605  96.499  1.00  0.00     0.004 C 
ENDBRANCH  18  19
ENDBRANCH  17  18
ENDBRANCH  16  17
ENDBRANCH  15  16
ENDBRANCH  14  15
ENDBRANCH  13  14
ENDBRANCH  12  13
ENDBRANCH   1  12
TORSDOF 16
ENDMDL
MODEL 4
REMARK VINA RESULT:    -2.879      2.598      4.830
REMARK INTER + INTRA:          -8.512
REMARK INTER:                  -6.196
REMARK INTRA:                  -2.315
REMARK UNBOUND:                -2.940
REMARK SMILES CCCCCCCCCCCCCCCCCC(=O)[O-]
REMARK SMILES IDX 10 1 11 2 12 3 13 4 14 5 15 6 16 7 17 8 18 9 19 10 20 11
REMARK SMILES IDX 9 12 8 13 7 14 6 15 5 16 4 17 3 18 2 19 1 20
REMARK H PARENT
REMARK Flexibility Score: inf
ROOT
ATOM      1  C   UNL     1     -19.466  41.491  93.372  1.00  0.00     0.000 C 
ENDROOT
BRANCH   1   2
ATOM      2  C   UNL     1     -18.852  41.293  94.763  1.00  0.00     0.000 C 
BRANCH   2   3
ATOM      3  C   UNL     1     -17.318  41.289  94.694  1.00  0.00     0.000 C 
BRANCH   3   4
ATOM      4  C   UNL     1     -16.686  40.276  95.664  1.00  0.00     0.000 C 
BRANCH   4   5
ATOM      5  C   UNL     1     -16.109  39.049  94.942  1.00  0.00     0.000 C 
BRANCH   5   6
ATOM      6  C   UNL     1     -14.976  39.459  93.988  1.00  0.00     0.000 C 
BRANCH   6   7
ATOM      7  C   UNL     1     -13.719  39.940  94.729  1.00  0.00     0.006 C 
BRANCH   7   8
ATOM      8  C   UNL     1     -12.512  40.121  93.798  1.00  0.00     0.053 C 
BRANCH   8   9
ATOM      9  C   UNL     1     -12.169  41.571  93.662  1.00  0.00     0.041 C 
ATOM     10  O   UNL     1     -11.614  41.996  92.614  1.00  0.00    -0.550 OA
ATOM     11  O   UNL     1     -12.503  42.462  94.673  1.00  0.00    -0.550 OA
ENDBRANCH   8   9
ENDBRANCH   7   8
ENDBRANCH   6   7
ENDBRANCH   5   6
ENDBRANCH   4   5
ENDBRANCH   3   4
ENDBRANCH   2   3
ENDBRANCH   1   2
BRANCH   1  12
ATOM     12  C   UNL     1     -20.377  40.312  93.002  1.00  0.00     0.000 C 
BRANCH  12  13
ATOM     13  C   UNL     1     -19.859  39.507  91.797  1.00  0.00    -0.000 C 
BRANCH  13  14
ATOM     14  C   UNL     1     -18.511  38.798  92.023  1.00  0.00    -0.000 C 
BRANCH  14  15
ATOM     15  C   UNL     1     -18.625  37.263  91.979  1.00  0.00    -0.000 C 
BRANCH  15  16
ATOM     16  C   UNL     1     -20.020  36.796  91.511  1.00  0.00    -0.000 C 
BRANCH  16  17
ATOM     17  C   UNL     1     -20.819  36.063  92.602  1.00  0.00    -0.000 C 
BRANCH  17  18
ATOM     18  C   UNL     1     -20.063  35.973  93.935  1.00  0.00    -0.000 C 
BRANCH  18  19
ATOM     19  C   UNL     1     -20.682  36.910  94.980  1.00  0.00    -0.003 C 
ATOM     20  C   UNL     1     -19.617  37.780  95.641  1.00  0.00     0.004 C 
ENDBRANCH  18  19
ENDBRANCH  17  18
ENDBRANCH  16  17
ENDBRANCH  15  16
ENDBRANCH  14  15
ENDBRANCH  13  14
ENDBRANCH  12  13
ENDBRANCH   1  12
TORSDOF 16
ENDMDL
MODEL 5
REMARK VINA RESULT:    -2.858     13.391     16.187
REMARK INTER + INTRA:          -8.472
REMARK INTER:                  -5.587
REMARK INTRA:                  -2.885
REMARK UNBOUND:                -2.940
REMARK SMILES CCCCCCCCCCCCCCCCCC(=O)[O-]
REMARK SMILES IDX 10 1 11 2 12 3 13 4 14 5 15 6 16 7 17 8 18 9 19 10 20 11
REMARK SMILES IDX 9 12 8 13 7 14 6 15 5 16 4 17 3 18 2 19 1 20
REMARK H PARENT
REMARK Flexibility Score: inf
ROOT
ATOM      1  C   UNL     1      -1.535  38.024  94.901  1.00  0.00     0.000 C 
ENDROOT
BRANCH   1   2
ATOM      2  C   UNL     1      -1.743  38.434  96.364  1.00  0.00     0.000 C 
BRANCH   2   3
ATOM      3  C   UNL     1      -2.010  39.942  96.482  1.00  0.00     0.000 C 
BRANCH   3   4
ATOM      4  C   UNL     1      -3.369  40.251  97.132  1.00  0.00     0.000 C 
BRANCH   4   5
ATOM      5  C   UNL     1      -3.873  41.664  96.805  1.00  0.00     0.000 C 
BRANCH   5   6
ATOM      6  C   UNL     1      -2.796  42.470  96.063  1.00  0.00     0.000 C 
BRANCH   6   7
ATOM      7  C   UNL     1      -3.229  43.916  95.773  1.00  0.00     0.006 C 
BRANCH   7   8
ATOM      8  C   UNL     1      -3.651  44.676  97.039  1.00  0.00     0.053 C 
BRANCH   8   9
ATOM      9  C   UNL     1      -2.880  45.952  97.165  1.00  0.00     0.041 C 
ATOM     10  O   UNL     1      -1.659  45.988  96.859  1.00  0.00    -0.550 OA
ATOM     11  O   UNL     1      -3.521  47.113  97.575  1.00  0.00    -0.550 OA
ENDBRANCH   8   9
ENDBRANCH   7   8
ENDBRANCH   6   7
ENDBRANCH   5   6
ENDBRANCH   4   5
ENDBRANCH   3   4
ENDBRANCH   2   3
ENDBRANCH   1   2
BRANCH   1  12
ATOM     12  C   UNL     1      -1.270  39.254  94.020  1.00  0.00     0.000 C 
BRANCH  12  13
ATOM     13  C   UNL     1      -2.200  39.328  92.796  1.00  0.00    -0.000 C 
BRANCH  13  14
ATOM     14  C   UNL     1      -3.319  40.381  92.895  1.00  0.00    -0.000 C 
BRANCH  14  15
ATOM     15  C   UNL     1      -4.584  39.849  93.593  1.00  0.00    -0.000 C 
BRANCH  15  16
ATOM     16  C   UNL     1      -5.690  40.922  93.690  1.00  0.00    -0.000 C 
BRANCH  16  17
ATOM     17  C   UNL     1      -5.239  42.313  93.212  1.00  0.00    -0.000 C 
BRANCH  17  18
ATOM     18  C   UNL     1      -6.319  43.387  93.398  1.00  0.00    -0.000 C 
BRANCH  18  19
ATOM     19  C   UNL     1      -7.293  42.996  94.517  1.00  0.00    -0.003 C 
ATOM     20  C   UNL     1      -7.005  43.777  95.797  1.00  0.00     0.004 C 
ENDBRANCH  18  19
ENDBRANCH  17  18
ENDBRANCH  16  17
ENDBRANCH  15  16
ENDBRANCH  14  15
ENDBRANCH  13  14
ENDBRANCH  12  13
ENDBRANCH   1  12
TORSDOF 16
ENDMDL
MODEL 6
REMARK VINA RESULT:    -2.851      3.062      5.018
REMARK INTER + INTRA:          -8.457
REMARK INTER:                  -6.084
REMARK INTRA:                  -2.373
REMARK UNBOUND:                -2.940
REMARK SMILES CCCCCCCCCCCCCCCCCC(=O)[O-]
REMARK SMILES IDX 10 1 11 2 12 3 13 4 14 5 15 6 16 7 17 8 18 9 19 10 20 11
REMARK SMILES IDX 9 12 8 13 7 14 6 15 5 16 4 17 3 18 2 19 1 20
REMARK H PARENT
REMARK Flexibility Score: inf
ROOT
ATOM      1  C   UNL     1     -17.137  37.702  93.521  1.00  0.00     0.000 C 
ENDROOT
BRANCH   1   2
ATOM      2  C   UNL     1     -16.413  38.245  92.283  1.00  0.00     0.000 C 
BRANCH   2   3
ATOM      3  C   UNL     1     -15.315  39.243  92.678  1.00  0.00     0.000 C 
BRANCH   3   4
ATOM      4  C   UNL     1     -14.659  38.895  94.025  1.00  0.00     0.000 C 
BRANCH   4   5
ATOM      5  C   UNL     1     -14.452  40.128  94.917  1.00  0.00     0.000 C 
BRANCH   5   6
ATOM      6  C   UNL     1     -12.956  40.393  95.145  1.00  0.00     0.000 C 
BRANCH   6   7
ATOM      7  C   UNL     1     -12.478  41.700  94.493  1.00  0.00     0.006 C 
BRANCH   7   8
ATOM      8  C   UNL     1     -11.177  41.526  93.697  1.00  0.00     0.053 C 
BRANCH   8   9
ATOM      9  C   UNL     1     -11.458  41.528  92.227  1.00  0.00     0.041 C 
ATOM     10  O   UNL     1     -12.186  40.634  91.720  1.00  0.00    -0.550 OA
ATOM     11  O   UNL     1     -10.955  42.543  91.424  1.00  0.00    -0.550 OA
ENDBRANCH   8   9
ENDBRANCH   7   8
ENDBRANCH   6   7
ENDBRANCH   5   6
ENDBRANCH   4   5
ENDBRANCH   3   4
ENDBRANCH   2   3
ENDBRANCH   1   2
BRANCH   1  12
ATOM     12  C   UNL     1     -18.657  37.875  93.386  1.00  0.00     0.000 C 
BRANCH  12  13
ATOM     13  C   UNL     1     -19.051  39.160  92.634  1.00  0.00    -0.000 C 
BRANCH  13  14
ATOM     14  C   UNL     1     -20.125  40.015  93.331  1.00  0.00    -0.000 C 
BRANCH  14  15
ATOM     15  C   UNL     1     -19.610  41.407  93.742  1.00  0.00    -0.000 C 
BRANCH  15  16
ATOM     16  C   UNL     1     -18.071  41.447  93.861  1.00  0.00    -0.000 C 
BRANCH  16  17
ATOM     17  C   UNL     1     -17.560  41.220  95.294  1.00  0.00    -0.000 C 
BRANCH  17  18
ATOM     18  C   UNL     1     -18.622  41.523  96.360  1.00  0.00    -0.000 C 
BRANCH  18  19
ATOM     19  C   UNL     1     -18.754  40.359  97.349  1.00  0.00    -0.003 C 
ATOM     20  C   UNL     1     -17.919  39.160  96.904  1.00  0.00     0.004 C 
ENDBRANCH  18  19
ENDBRANCH  17  18
ENDBRANCH  16  17
ENDBRANCH  15  16
ENDBRANCH  14  15
ENDBRANCH  13  14
ENDBRANCH  12  13
ENDBRANCH   1  12
TORSDOF 16
ENDMDL
MODEL 7
REMARK VINA RESULT:    -2.834      1.800      3.594
REMARK INTER + INTRA:          -8.425
REMARK INTER:                  -6.541
REMARK INTRA:                  -1.884
REMARK UNBOUND:                -2.940
REMARK SMILES CCCCCCCCCCCCCCCCCC(=O)[O-]
REMARK SMILES IDX 10 1 11 2 12 3 13 4 14 5 15 6 16 7 17 8 18 9 19 10 20 11
REMARK SMILES IDX 9 12 8 13 7 14 6 15 5 16 4 17 3 18 2 19 1 20
REMARK H PARENT
REMARK Flexibility Score: inf
ROOT
ATOM      1  C   UNL     1     -20.926  37.161  92.826  1.00  0.00     0.000 C 
ENDROOT
BRANCH   1   2
ATOM      2  C   UNL     1     -19.988  37.177  91.613  1.00  0.00     0.000 C 
BRANCH   2   3
ATOM      3  C   UNL     1     -18.616  36.583  91.967  1.00  0.00     0.000 C 
BRANCH   3   4
ATOM      4  C   UNL     1     -17.519  37.001  90.974  1.00  0.00     0.000 C 
BRANCH   4   5
ATOM      5  C   UNL     1     -17.141  38.484  91.100  1.00  0.00     0.000 C 
BRANCH   5   6
ATOM      6  C   UNL     1     -15.630  38.647  91.331  1.00  0.00     0.000 C 
BRANCH   6   7
ATOM      7  C   UNL     1     -15.278  38.908  92.803  1.00  0.00     0.006 C 
BRANCH   7   8
ATOM      8  C   UNL     1     -13.772  38.801  93.084  1.00  0.00     0.053 C 
BRANCH   8   9
ATOM      9  C   UNL     1     -13.220  40.130  93.492  1.00  0.00     0.041 C 
ATOM     10  O   UNL     1     -12.540  40.811  92.680  1.00  0.00    -0.550 OA
ATOM     11  O   UNL     1     -13.495  40.639  94.754  1.00  0.00    -0.550 OA
ENDBRANCH   8   9
ENDBRANCH   7   8
ENDBRANCH   6   7
ENDBRANCH   5   6
ENDBRANCH   4   5
ENDBRANCH   3   4
ENDBRANCH   2   3
ENDBRANCH   1   2
BRANCH   1  12
ATOM     12  C   UNL     1     -20.713  38.406  93.698  1.00  0.00     0.000 C 
BRANCH  12  13
ATOM     13  C   UNL     1     -21.125  39.711  92.993  1.00  0.00    -0.000 C 
BRANCH  13  14
ATOM     14  C   UNL     1     -20.082  40.842  93.061  1.00  0.00    -0.000 C 
BRANCH  14  15
ATOM     15  C   UNL     1     -18.701  40.357  93.537  1.00  0.00    -0.000 C 
BRANCH  15  16
ATOM     16  C   UNL     1     -17.847  41.506  94.116  1.00  0.00    -0.000 C 
BRANCH  16  17
ATOM     17  C   UNL     1     -17.101  41.126  95.406  1.00  0.00    -0.000 C 
BRANCH  17  18
ATOM     18  C   UNL     1     -18.044  40.679  96.531  1.00  0.00    -0.000 C 
BRANCH  18  19
ATOM     19  C   UNL     1     -18.809  41.874  97.111  1.00  0.00    -0.003 C 
ATOM     20  C   UNL     1     -19.632  41.464  98.330  1.00  0.00     0.004 C 
ENDBRANCH  18  19
ENDBRANCH  17  18
ENDBRANCH  16  17
ENDBRANCH  15  16
ENDBRANCH  14  15
ENDBRANCH  13  14
ENDBRANCH  12  13
ENDBRANCH   1  12
TORSDOF 16
ENDMDL
MODEL 8
REMARK VINA RESULT:    -2.817      2.532      3.532
REMARK INTER + INTRA:          -8.391
REMARK INTER:                  -5.537
REMARK INTRA:                  -2.855
REMARK UNBOUND:                -2.940
REMARK SMILES CCCCCCCCCCCCCCCCCC(=O)[O-]
REMARK SMILES IDX 10 1 11 2 12 3 13 4 14 5 15 6 16 7 17 8 18 9 19 10 20 11
REMARK SMILES IDX 9 12 8 13 7 14 6 15 5 16 4 17 3 18 2 19 1 20
REMARK H PARENT
REMARK Flexibility Score: inf
ROOT
ATOM      1  C   UNL     1     -19.484  39.503  92.189  1.00  0.00     0.000 C 
ENDROOT
BRANCH   1   2
ATOM      2  C   UNL     1     -20.067  38.102  92.407  1.00  0.00     0.000 C 
BRANCH   2   3
ATOM      3  C   UNL     1     -20.188  37.781  93.904  1.00  0.00     0.000 C 
BRANCH   3   4
ATOM      4  C   UNL     1     -19.512  36.451  94.278  1.00  0.00     0.000 C 
BRANCH   4   5
ATOM      5  C   UNL     1     -19.071  35.646  93.047  1.00  0.00     0.000 C 
BRANCH   5   6
ATOM      6  C   UNL     1     -17.554  35.397  93.071  1.00  0.00     0.000 C 
BRANCH   6   7
ATOM      7  C   UNL     1     -16.977  35.108  91.677  1.00  0.00     0.006 C 
BRANCH   7   8
ATOM      8  C   UNL     1     -17.207  36.260  90.687  1.00  0.00     0.053 C 
BRANCH   8   9
ATOM      9  C   UNL     1     -18.120  35.828  89.583  1.00  0.00     0.041 C 
ATOM     10  O   UNL     1     -17.830  34.828  88.875  1.00  0.00    -0.550 OA
ATOM     11  O   UNL     1     -19.314  36.501  89.366  1.00  0.00    -0.550 OA
ENDBRANCH   8   9
ENDBRANCH   7   8
ENDBRANCH   6   7
ENDBRANCH   5   6
ENDBRANCH   4   5
ENDBRANCH   3   4
ENDBRANCH   2   3
ENDBRANCH   1   2
BRANCH   1  12
ATOM     12  C   UNL     1     -20.171  40.531  93.101  1.00  0.00     0.000 C 
BRANCH  12  13
ATOM     13  C   UNL     1     -19.186  41.541  93.717  1.00  0.00    -0.000 C 
BRANCH  13  14
ATOM     14  C   UNL     1     -18.483  41.060  95.000  1.00  0.00    -0.000 C 
BRANCH  14  15
ATOM     15  C   UNL     1     -16.949  41.156  94.916  1.00  0.00    -0.000 C 
BRANCH  15  16
ATOM     16  C   UNL     1     -16.257  39.864  95.402  1.00  0.00    -0.000 C 
BRANCH  16  17
ATOM     17  C   UNL     1     -16.516  38.651  94.492  1.00  0.00    -0.000 C 
BRANCH  17  18
ATOM     18  C   UNL     1     -16.080  38.891  93.041  1.00  0.00    -0.000 C 
BRANCH  18  19
ATOM     19  C   UNL     1     -14.706  38.267  92.770  1.00  0.00    -0.003 C 
ATOM     20  C   UNL     1     -13.622  39.338  92.678  1.00  0.00     0.004 C 
ENDBRANCH  18  19
ENDBRANCH  17  18
ENDBRANCH  16  17
ENDBRANCH  15  16
ENDBRANCH  14  15
ENDBRANCH  13  14
ENDBRANCH  12  13
ENDBRANCH   1  12
TORSDOF 16
ENDMDL
MODEL 9
REMARK VINA RESULT:    -2.742      8.746     11.289
REMARK INTER + INTRA:          -8.246
REMARK INTER:                  -5.114
REMARK INTRA:                  -3.132
REMARK UNBOUND:                -2.940
REMARK SMILES CCCCCCCCCCCCCCCCCC(=O)[O-]
REMARK SMILES IDX 10 1 11 2 12 3 13 4 14 5 15 6 16 7 17 8 18 9 19 10 20 11
REMARK SMILES IDX 9 12 8 13 7 14 6 15 5 16 4 17 3 18 2 19 1 20
REMARK H PARENT
REMARK Flexibility Score: inf
ROOT
ATOM      1  C   UNL     1     -17.075  27.452  95.473  1.00  0.00     0.000 C 
ENDROOT
BRANCH   1   2
ATOM      2  C   UNL     1     -18.193  27.938  94.542  1.00  0.00     0.000 C 
BRANCH   2   3
ATOM      3  C   UNL     1     -17.623  28.764  93.379  1.00  0.00     0.000 C 
BRANCH   3   4
ATOM      4  C   UNL     1     -18.176  30.198  93.348  1.00  0.00     0.000 C 
BRANCH   4   5
ATOM      5  C   UNL     1     -18.797  30.621  94.687  1.00  0.00     0.000 C 
BRANCH   5   6
ATOM      6  C   UNL     1     -17.923  31.673  95.388  1.00  0.00     0.000 C 
BRANCH   6   7
ATOM      7  C   UNL     1     -17.240  31.131  96.653  1.00  0.00     0.006 C 
BRANCH   7   8
ATOM      8  C   UNL     1     -18.165  30.238  97.493  1.00  0.00     0.053 C 
BRANCH   8   9
ATOM      9  C   UNL     1     -17.549  29.954  98.827  1.00  0.00     0.041 C 
ATOM     10  O   UNL     1     -16.428  29.385  98.899  1.00  0.00    -0.550 OA
ATOM     11  O   UNL     1     -18.190  30.360  99.989  1.00  0.00    -0.550 OA
ENDBRANCH   8   9
ENDBRANCH   7   8
ENDBRANCH   6   7
ENDBRANCH   5   6
ENDBRANCH   4   5
ENDBRANCH   3   4
ENDBRANCH   2   3
ENDBRANCH   1   2
BRANCH   1  12
ATOM     12  C   UNL     1     -15.694  27.806  94.901  1.00  0.00     0.000 C 
BRANCH  12  13
ATOM     13  C   UNL     1     -14.737  28.384  95.960  1.00  0.00    -0.000 C 
BRANCH  13  14
ATOM     14  C   UNL     1     -13.954  29.633  95.512  1.00  0.00    -0.000 C 
BRANCH  14  15
ATOM     15  C   UNL     1     -14.500  30.249  94.211  1.00  0.00    -0.000 C 
BRANCH  15  16
ATOM     16  C   UNL     1     -13.511  30.099  93.036  1.00  0.00    -0.000 C 
BRANCH  16  17
ATOM     17  C   UNL     1     -14.195  29.770  91.697  1.00  0.00    -0.000 C 
BRANCH  17  18
ATOM     18  C   UNL     1     -14.413  28.265  91.494  1.00  0.00    -0.000 C 
BRANCH  18  19
ATOM     19  C   UNL     1     -15.475  28.005  90.419  1.00  0.00    -0.003 C 
ATOM     20  C   UNL     1     -16.192  29.295  90.029  1.00  0.00     0.004 C 
ENDBRANCH  18  19
ENDBRANCH  17  18
ENDBRANCH  16  17
ENDBRANCH  15  16
ENDBRANCH  14  15
ENDBRANCH  13  14
ENDBRANCH  12  13
ENDBRANCH   1  12
TORSDOF 16
ENDMDL
