MODEL 1
REMARK VINA RESULT:    -6.446      0.000      0.000
REMARK INTER + INTRA:          -7.495
REMARK INTER:                  -7.577
REMARK INTRA:                   0.082
REMARK UNBOUND:                 0.082
REMARK SMILES O=c1c(O)c(-c2ccc(O)cc2)oc2cc(O)cc(O)c12
REMARK SMILES IDX 5 1 3 2 2 3 1 4 21 5 19 6 18 7 16 8 15 9 14 10 13 11 6 12
REMARK SMILES IDX 7 13 8 14 9 15 12 16 11 17 10 18 4 20 20 22 17 24
REMARK H PARENT 10 19 4 21 20 23 17 25
REMARK Flexibility Score: inf
ROOT
ATOM      1  C   UNL     1      27.448  -2.164  35.552  1.00  0.00     0.180 A 
ATOM      2  C   UNL     1      27.312  -1.777  36.900  1.00  0.00     0.208 A 
ATOM      3  C   UNL     1      26.390  -0.770  37.226  1.00  0.00     0.238 A 
ATOM      4  O   UNL     1      26.252  -0.423  38.431  1.00  0.00    -0.285 OA
ATOM      5  C   UNL     1      25.639  -0.155  36.204  1.00  0.00     0.111 A 
ATOM      6  C   UNL     1      24.693   0.870  36.448  1.00  0.00     0.134 A 
ATOM      7  C   UNL     1      23.991   1.439  35.376  1.00  0.00     0.093 A 
ATOM      8  C   UNL     1      24.215   1.005  34.067  1.00  0.00     0.123 A 
ATOM      9  C   UNL     1      25.148  -0.007  33.820  1.00  0.00     0.094 A 
ATOM     10  C   UNL     1      25.857  -0.588  34.875  1.00  0.00     0.146 A 
ATOM     11  O   UNL     1      26.733  -1.550  34.614  1.00  0.00    -0.452 OA
ENDROOT
BRANCH   1  12
ATOM     12  C   UNL     1      28.384  -3.231  35.131  1.00  0.00     0.021 A 
ATOM     13  C   UNL     1      29.719  -3.192  35.568  1.00  0.00     0.016 A 
ATOM     14  C   UNL     1      30.626  -4.177  35.164  1.00  0.00     0.047 A 
ATOM     15  C   UNL     1      30.213  -5.204  34.306  1.00  0.00     0.115 A 
ATOM     16  C   UNL     1      27.983  -4.255  34.253  1.00  0.00     0.016 A 
ATOM     17  C   UNL     1      28.891  -5.237  33.850  1.00  0.00     0.047 A 
BRANCH  15  18
ATOM     18  O   UNL     1      31.108  -6.191  33.898  1.00  0.00    -0.508 OA
ATOM     19  H   UNL     1      31.933  -6.415  34.441  1.00  0.00     0.293 HD
ENDBRANCH  15  18
ENDBRANCH   1  12
BRANCH   2  20
ATOM     20  O   UNL     1      28.104  -2.368  37.887  1.00  0.00    -0.502 OA
ATOM     21  H   UNL     1      27.951  -2.204  38.875  1.00  0.00     0.293 HD
ENDBRANCH   2  20
BRANCH   6  22
ATOM     22  O   UNL     1      24.446   1.325  37.745  1.00  0.00    -0.507 OA
ATOM     23  H   UNL     1      24.297   2.307  37.945  1.00  0.00     0.293 HD
ENDBRANCH   6  22
BRANCH   8  24
ATOM     24  O   UNL     1      23.505   1.588  33.019  1.00  0.00    -0.508 OA
ATOM     25  H   UNL     1      22.541   1.342  32.833  1.00  0.00     0.293 HD
ENDBRANCH   8  24
TORSDOF 5
ENDMDL
MODEL 2
REMARK VINA RESULT:    -6.332      2.246      3.160
REMARK INTER + INTRA:          -7.361
REMARK INTER:                  -7.105
REMARK INTRA:                  -0.256
REMARK UNBOUND:                 0.082
REMARK SMILES O=c1c(O)c(-c2ccc(O)cc2)oc2cc(O)cc(O)c12
REMARK SMILES IDX 5 1 3 2 2 3 1 4 21 5 19 6 18 7 16 8 15 9 14 10 13 11 6 12
REMARK SMILES IDX 7 13 8 14 9 15 12 16 11 17 10 18 4 20 20 22 17 24
REMARK H PARENT 10 19 4 21 20 23 17 25
REMARK Flexibility Score: inf
ROOT
ATOM      1  C   UNL     1      25.625  -1.323  34.405  1.00  0.00     0.180 A 
ATOM      2  C   UNL     1      24.296  -1.660  34.728  1.00  0.00     0.208 A 
ATOM      3  C   UNL     1      23.269  -0.762  34.397  1.00  0.00     0.238 A 
ATOM      4  O   UNL     1      22.074  -1.058  34.671  1.00  0.00    -0.285 OA
ATOM      5  C   UNL     1      23.587   0.461  33.771  1.00  0.00     0.111 A 
ATOM      6  C   UNL     1      22.613   1.422  33.409  1.00  0.00     0.134 A 
ATOM      7  C   UNL     1      23.010   2.619  32.798  1.00  0.00     0.093 A 
ATOM      8  C   UNL     1      24.359   2.876  32.541  1.00  0.00     0.123 A 
ATOM      9  C   UNL     1      25.326   1.930  32.897  1.00  0.00     0.094 A 
ATOM     10  C   UNL     1      24.951   0.729  33.506  1.00  0.00     0.146 A 
ATOM     11  O   UNL     1      25.888  -0.154  33.829  1.00  0.00    -0.452 OA
ENDROOT
BRANCH   1  12
ATOM     12  C   UNL     1      26.760  -2.225  34.704  1.00  0.00     0.021 A 
ATOM     13  C   UNL     1      27.633  -1.912  35.760  1.00  0.00     0.016 A 
ATOM     14  C   UNL     1      28.724  -2.738  36.046  1.00  0.00     0.047 A 
ATOM     15  C   UNL     1      28.966  -3.878  35.269  1.00  0.00     0.115 A 
ATOM     16  C   UNL     1      27.021  -3.361  33.916  1.00  0.00     0.016 A 
ATOM     17  C   UNL     1      28.114  -4.184  34.204  1.00  0.00     0.047 A 
BRANCH  15  18
ATOM     18  O   UNL     1      30.050  -4.708  35.545  1.00  0.00    -0.508 OA
ATOM     19  H   UNL     1      29.962  -5.717  35.527  1.00  0.00     0.293 HD
ENDBRANCH  15  18
ENDBRANCH   1  12
BRANCH   2  20
ATOM     20  O   UNL     1      24.013  -2.856  35.392  1.00  0.00    -0.502 OA
ATOM     21  H   UNL     1      23.137  -3.350  35.270  1.00  0.00     0.293 HD
ENDBRANCH   2  20
BRANCH   6  22
ATOM     22  O   UNL     1      21.256   1.195  33.651  1.00  0.00    -0.507 OA
ATOM     23  H   UNL     1      20.939   0.427  34.231  1.00  0.00     0.293 HD
ENDBRANCH   6  22
BRANCH   8  24
ATOM     24  O   UNL     1      24.727   4.074  31.933  1.00  0.00    -0.508 OA
ATOM     25  H   UNL     1      24.432   4.969  32.305  1.00  0.00     0.293 HD
ENDBRANCH   8  24
TORSDOF 5
ENDMDL
MODEL 3
REMARK VINA RESULT:    -5.781      2.435      7.315
REMARK INTER + INTRA:          -6.713
REMARK INTER:                  -6.586
REMARK INTRA:                  -0.127
REMARK UNBOUND:                 0.082
REMARK SMILES O=c1c(O)c(-c2ccc(O)cc2)oc2cc(O)cc(O)c12
REMARK SMILES IDX 5 1 3 2 2 3 1 4 21 5 19 6 18 7 16 8 15 9 14 10 13 11 6 12
REMARK SMILES IDX 7 13 8 14 9 15 12 16 11 17 10 18 4 20 20 22 17 24
REMARK H PARENT 10 19 4 21 20 23 17 25
REMARK Flexibility Score: inf
ROOT
ATOM      1  C   UNL     1      29.125  -3.049  35.085  1.00  0.00     0.180 A 
ATOM      2  C   UNL     1      29.204  -4.395  34.677  1.00  0.00     0.208 A 
ATOM      3  C   UNL     1      30.450  -4.916  34.295  1.00  0.00     0.238 A 
ATOM      4  O   UNL     1      30.535  -6.123  33.939  1.00  0.00    -0.285 OA
ATOM      5  C   UNL     1      31.587  -4.083  34.305  1.00  0.00     0.111 A 
ATOM      6  C   UNL     1      32.877  -4.528  33.931  1.00  0.00     0.134 A 
ATOM      7  C   UNL     1      33.958  -3.635  33.959  1.00  0.00     0.093 A 
ATOM      8  C   UNL     1      33.774  -2.307  34.354  1.00  0.00     0.123 A 
ATOM      9  C   UNL     1      32.502  -1.861  34.725  1.00  0.00     0.094 A 
ATOM     10  C   UNL     1      31.412  -2.737  34.705  1.00  0.00     0.146 A 
ATOM     11  O   UNL     1      30.216  -2.289  35.067  1.00  0.00    -0.452 OA
ENDROOT
BRANCH   1  12
ATOM     12  C   UNL     1      27.852  -2.433  35.521  1.00  0.00     0.021 A 
ATOM     13  C   UNL     1      27.700  -2.033  36.859  1.00  0.00     0.016 A 
ATOM     14  C   UNL     1      26.498  -1.469  37.298  1.00  0.00     0.047 A 
ATOM     15  C   UNL     1      25.428  -1.312  36.408  1.00  0.00     0.115 A 
ATOM     16  C   UNL     1      26.766  -2.289  34.638  1.00  0.00     0.016 A 
ATOM     17  C   UNL     1      25.565  -1.726  35.080  1.00  0.00     0.047 A 
BRANCH  15  18
ATOM     18  O   UNL     1      24.226  -0.750  36.835  1.00  0.00    -0.508 OA
ATOM     19  H   UNL     1      23.542  -0.401  36.175  1.00  0.00     0.293 HD
ENDBRANCH  15  18
ENDBRANCH   1  12
BRANCH   2  20
ATOM     20  O   UNL     1      28.054  -5.187  34.629  1.00  0.00    -0.502 OA
ATOM     21  H   UNL     1      28.084  -6.177  34.416  1.00  0.00     0.293 HD
ENDBRANCH   2  20
BRANCH   6  22
ATOM     22  O   UNL     1      33.093  -5.849  33.532  1.00  0.00    -0.507 OA
ATOM     23  H   UNL     1      32.404  -6.364  32.997  1.00  0.00     0.293 HD
ENDBRANCH   6  22
BRANCH   8  24
ATOM     24  O   UNL     1      34.864  -1.439  34.373  1.00  0.00    -0.508 OA
ATOM     25  H   UNL     1      34.828  -0.535  33.919  1.00  0.00     0.293 HD
ENDBRANCH   8  24
TORSDOF 5
ENDMDL
MODEL 4
REMARK VINA RESULT:    -5.706      3.297      6.851
REMARK INTER + INTRA:          -6.625
REMARK INTER:                  -6.365
REMARK INTRA:                  -0.260
REMARK UNBOUND:                 0.082
REMARK SMILES O=c1c(O)c(-c2ccc(O)cc2)oc2cc(O)cc(O)c12
REMARK SMILES IDX 5 1 3 2 2 3 1 4 21 5 19 6 18 7 16 8 15 9 14 10 13 11 6 12
REMARK SMILES IDX 7 13 8 14 9 15 12 16 11 17 10 18 4 20 20 22 17 24
REMARK H PARENT 10 19 4 21 20 23 17 25
REMARK Flexibility Score: inf
ROOT
ATOM      1  C   UNL     1      25.718   1.329  37.406  1.00  0.00     0.180 A 
ATOM      2  C   UNL     1      26.910   0.836  36.840  1.00  0.00     0.208 A 
ATOM      3  C   UNL     1      26.836  -0.209  35.905  1.00  0.00     0.238 A 
ATOM      4  O   UNL     1      27.896  -0.651  35.384  1.00  0.00    -0.285 OA
ATOM      5  C   UNL     1      25.581  -0.755  35.569  1.00  0.00     0.111 A 
ATOM      6  C   UNL     1      25.420  -1.812  34.641  1.00  0.00     0.134 A 
ATOM      7  C   UNL     1      24.137  -2.308  34.366  1.00  0.00     0.093 A 
ATOM      8  C   UNL     1      23.014  -1.770  35.000  1.00  0.00     0.123 A 
ATOM      9  C   UNL     1      23.167  -0.726  35.917  1.00  0.00     0.094 A 
ATOM     10  C   UNL     1      24.437  -0.216  36.204  1.00  0.00     0.146 A 
ATOM     11  O   UNL     1      24.554   0.778  37.076  1.00  0.00    -0.452 OA
ENDROOT
BRANCH   1  12
ATOM     12  C   UNL     1      25.712   2.441  38.383  1.00  0.00     0.021 A 
ATOM     13  C   UNL     1      26.006   2.178  39.732  1.00  0.00     0.016 A 
ATOM     14  C   UNL     1      25.985   3.209  40.676  1.00  0.00     0.047 A 
ATOM     15  C   UNL     1      25.653   4.513  40.286  1.00  0.00     0.115 A 
ATOM     16  C   UNL     1      25.361   3.749  38.003  1.00  0.00     0.016 A 
ATOM     17  C   UNL     1      25.340   4.778  38.950  1.00  0.00     0.047 A 
BRANCH  15  18
ATOM     18  O   UNL     1      25.630   5.548  41.218  1.00  0.00    -0.508 OA
ATOM     19  H   UNL     1      25.728   6.516  40.937  1.00  0.00     0.293 HD
ENDBRANCH  15  18
ENDBRANCH   1  12
BRANCH   2  20
ATOM     20  O   UNL     1      28.145   1.362  37.227  1.00  0.00    -0.502 OA
ATOM     21  H   UNL     1      28.580   1.132  38.113  1.00  0.00     0.293 HD
ENDBRANCH   2  20
BRANCH   6  22
ATOM     22  O   UNL     1      26.522  -2.370  33.991  1.00  0.00    -0.507 OA
ATOM     23  H   UNL     1      27.467  -2.235  34.331  1.00  0.00     0.293 HD
ENDBRANCH   6  22
BRANCH   8  24
ATOM     24  O   UNL     1      21.751  -2.281  34.709  1.00  0.00    -0.508 OA
ATOM     25  H   UNL     1      21.236  -2.833  35.384  1.00  0.00     0.293 HD
ENDBRANCH   8  24
TORSDOF 5
ENDMDL
MODEL 5
REMARK VINA RESULT:    -5.556      4.310      7.827
REMARK INTER + INTRA:          -6.448
REMARK INTER:                  -6.163
REMARK INTRA:                  -0.285
REMARK UNBOUND:                 0.082
REMARK SMILES O=c1c(O)c(-c2ccc(O)cc2)oc2cc(O)cc(O)c12
REMARK SMILES IDX 5 1 3 2 2 3 1 4 21 5 19 6 18 7 16 8 15 9 14 10 13 11 6 12
REMARK SMILES IDX 7 13 8 14 9 15 12 16 11 17 10 18 4 20 20 22 17 24
REMARK H PARENT 10 19 4 21 20 23 17 25
REMARK Flexibility Score: inf
ROOT
ATOM      1  C   UNL     1      23.820   2.422  38.275  1.00  0.00     0.180 A 
ATOM      2  C   UNL     1      22.802   3.059  37.538  1.00  0.00     0.208 A 
ATOM      3  C   UNL     1      22.262   2.402  36.421  1.00  0.00     0.238 A 
ATOM      4  O   UNL     1      21.343   2.957  35.759  1.00  0.00    -0.285 OA
ATOM      5  C   UNL     1      22.759   1.136  36.049  1.00  0.00     0.111 A 
ATOM      6  C   UNL     1      22.273   0.409  34.936  1.00  0.00     0.134 A 
ATOM      7  C   UNL     1      22.826  -0.841  34.625  1.00  0.00     0.093 A 
ATOM      8  C   UNL     1      23.854  -1.379  35.403  1.00  0.00     0.123 A 
ATOM      9  C   UNL     1      24.338  -0.666  36.504  1.00  0.00     0.094 A 
ATOM     10  C   UNL     1      23.799   0.581  36.832  1.00  0.00     0.146 A 
ATOM     11  O   UNL     1      24.274   1.235  37.885  1.00  0.00    -0.452 OA
ENDROOT
BRANCH   1  12
ATOM     12  C   UNL     1      24.426   3.042  39.475  1.00  0.00     0.021 A 
ATOM     13  C   UNL     1      25.677   3.674  39.370  1.00  0.00     0.016 A 
ATOM     14  C   UNL     1      26.278   4.246  40.496  1.00  0.00     0.047 A 
ATOM     15  C   UNL     1      25.644   4.179  41.743  1.00  0.00     0.115 A 
ATOM     16  C   UNL     1      23.805   2.962  40.735  1.00  0.00     0.016 A 
ATOM     17  C   UNL     1      24.409   3.534  41.858  1.00  0.00     0.047 A 
BRANCH  15  18
ATOM     18  O   UNL     1      26.233   4.747  42.870  1.00  0.00    -0.508 OA
ATOM     19  H   UNL     1      26.562   4.177  43.640  1.00  0.00     0.293 HD
ENDBRANCH  15  18
ENDBRANCH   1  12
BRANCH   2  20
ATOM     20  O   UNL     1      22.361   4.334  37.898  1.00  0.00    -0.502 OA
ATOM     21  H   UNL     1      21.379   4.579  37.934  1.00  0.00     0.293 HD
ENDBRANCH   2  20
BRANCH   6  22
ATOM     22  O   UNL     1      21.246   0.919  34.138  1.00  0.00    -0.507 OA
ATOM     23  H   UNL     1      21.429   1.580  33.391  1.00  0.00     0.293 HD
ENDBRANCH   6  22
BRANCH   8  24
ATOM     24  O   UNL     1      24.387  -2.623  35.072  1.00  0.00    -0.508 OA
ATOM     25  H   UNL     1      25.101  -3.061  35.642  1.00  0.00     0.293 HD
ENDBRANCH   8  24
TORSDOF 5
ENDMDL
MODEL 6
REMARK VINA RESULT:    -5.536      4.533      8.153
REMARK INTER + INTRA:          -6.426
REMARK INTER:                  -6.133
REMARK INTRA:                  -0.292
REMARK UNBOUND:                 0.082
REMARK SMILES O=c1c(O)c(-c2ccc(O)cc2)oc2cc(O)cc(O)c12
REMARK SMILES IDX 5 1 3 2 2 3 1 4 21 5 19 6 18 7 16 8 15 9 14 10 13 11 6 12
REMARK SMILES IDX 7 13 8 14 9 15 12 16 11 17 10 18 4 20 20 22 17 24
REMARK H PARENT 10 19 4 21 20 23 17 25
REMARK Flexibility Score: inf
ROOT
ATOM      1  C   UNL     1      25.708   2.499  39.828  1.00  0.00     0.180 A 
ATOM      2  C   UNL     1      27.049   2.913  39.709  1.00  0.00     0.208 A 
ATOM      3  C   UNL     1      27.756   2.592  38.539  1.00  0.00     0.238 A 
ATOM      4  O   UNL     1      28.954   2.967  38.416  1.00  0.00    -0.285 OA
ATOM      5  C   UNL     1      27.122   1.849  37.522  1.00  0.00     0.111 A 
ATOM      6  C   UNL     1      27.764   1.482  36.316  1.00  0.00     0.134 A 
ATOM      7  C   UNL     1      27.067   0.734  35.356  1.00  0.00     0.093 A 
ATOM      8  C   UNL     1      25.744   0.347  35.578  1.00  0.00     0.123 A 
ATOM      9  C   UNL     1      25.103   0.707  36.767  1.00  0.00     0.094 A 
ATOM     10  C   UNL     1      25.780   1.454  37.736  1.00  0.00     0.146 A 
ATOM     11  O   UNL     1      25.148   1.787  38.855  1.00  0.00    -0.452 OA
ENDROOT
BRANCH   1  12
ATOM     12  C   UNL     1      24.891   2.815  41.021  1.00  0.00     0.021 A 
ATOM     13  C   UNL     1      24.887   1.928  42.111  1.00  0.00     0.016 A 
ATOM     14  C   UNL     1      24.105   2.196  43.240  1.00  0.00     0.047 A 
ATOM     15  C   UNL     1      23.305   3.344  43.285  1.00  0.00     0.115 A 
ATOM     16  C   UNL     1      24.070   3.957  41.067  1.00  0.00     0.016 A 
ATOM     17  C   UNL     1      23.288   4.221  42.196  1.00  0.00     0.047 A 
BRANCH  15  18
ATOM     18  O   UNL     1      22.524   3.621  44.405  1.00  0.00    -0.508 OA
ATOM     19  H   UNL     1      21.514   3.544  44.378  1.00  0.00     0.293 HD
ENDBRANCH  15  18
ENDBRANCH   1  12
BRANCH   2  20
ATOM     20  O   UNL     1      27.670   3.605  40.751  1.00  0.00    -0.502 OA
ATOM     21  H   UNL     1      28.404   3.193  41.315  1.00  0.00     0.293 HD
ENDBRANCH   2  20
BRANCH   6  22
ATOM     22  O   UNL     1      29.086   1.854  36.064  1.00  0.00    -0.507 OA
ATOM     23  H   UNL     1      29.765   1.949  36.811  1.00  0.00     0.293 HD
ENDBRANCH   6  22
BRANCH   8  24
ATOM     24  O   UNL     1      25.074  -0.397  34.608  1.00  0.00    -0.508 OA
ATOM     25  H   UNL     1      25.276  -1.378  34.460  1.00  0.00     0.293 HD
ENDBRANCH   8  24
TORSDOF 5
ENDMDL
MODEL 7
REMARK VINA RESULT:    -5.388      3.401      7.861
REMARK INTER + INTRA:          -6.252
REMARK INTER:                  -5.990
REMARK INTRA:                  -0.262
REMARK UNBOUND:                 0.082
REMARK SMILES O=c1c(O)c(-c2ccc(O)cc2)oc2cc(O)cc(O)c12
REMARK SMILES IDX 5 1 3 2 2 3 1 4 21 5 19 6 18 7 16 8 15 9 14 10 13 11 6 12
REMARK SMILES IDX 7 13 8 14 9 15 12 16 11 17 10 18 4 20 20 22 17 24
REMARK H PARENT 10 19 4 21 20 23 17 25
REMARK Flexibility Score: inf
ROOT
ATOM      1  C   UNL     1      23.377   1.697  33.230  1.00  0.00     0.180 A 
ATOM      2  C   UNL     1      22.458   0.820  33.839  1.00  0.00     0.208 A 
ATOM      3  C   UNL     1      22.930  -0.110  34.780  1.00  0.00     0.238 A 
ATOM      4  O   UNL     1      22.115  -0.892  35.340  1.00  0.00    -0.285 OA
ATOM      5  C   UNL     1      24.307  -0.161  35.079  1.00  0.00     0.111 A 
ATOM      6  C   UNL     1      24.863  -1.070  36.011  1.00  0.00     0.134 A 
ATOM      7  C   UNL     1      26.245  -1.066  36.248  1.00  0.00     0.093 A 
ATOM      8  C   UNL     1      27.081  -0.173  35.573  1.00  0.00     0.123 A 
ATOM      9  C   UNL     1      26.537   0.727  34.651  1.00  0.00     0.094 A 
ATOM     10  C   UNL     1      25.162   0.740  34.402  1.00  0.00     0.146 A 
ATOM     11  O   UNL     1      24.670   1.608  33.526  1.00  0.00    -0.452 OA
ENDROOT
BRANCH   1  12
ATOM     12  C   UNL     1      22.955   2.717  32.244  1.00  0.00     0.021 A 
ATOM     13  C   UNL     1      22.745   2.340  30.906  1.00  0.00     0.016 A 
ATOM     14  C   UNL     1      22.368   3.291  29.953  1.00  0.00     0.047 A 
ATOM     15  C   UNL     1      22.212   4.633  30.322  1.00  0.00     0.115 A 
ATOM     16  C   UNL     1      22.815   4.070  32.602  1.00  0.00     0.016 A 
ATOM     17  C   UNL     1      22.439   5.019  31.647  1.00  0.00     0.047 A 
BRANCH  15  18
ATOM     18  O   UNL     1      21.835   5.589  29.381  1.00  0.00    -0.508 OA
ATOM     19  H   UNL     1      20.861   5.778  29.179  1.00  0.00     0.293 HD
ENDBRANCH  15  18
ENDBRANCH   1  12
BRANCH   2  20
ATOM     20  O   UNL     1      21.107   0.858  33.489  1.00  0.00    -0.502 OA
ATOM     21  H   UNL     1      20.586   1.725  33.431  1.00  0.00     0.293 HD
ENDBRANCH   2  20
BRANCH   6  22
ATOM     22  O   UNL     1      24.055  -1.975  36.702  1.00  0.00    -0.507 OA
ATOM     23  H   UNL     1      23.777  -2.861  36.295  1.00  0.00     0.293 HD
ENDBRANCH   6  22
BRANCH   8  24
ATOM     24  O   UNL     1      28.451  -0.190  35.825  1.00  0.00    -0.508 OA
ATOM     25  H   UNL     1      28.835  -0.670  36.630  1.00  0.00     0.293 HD
ENDBRANCH   8  24
TORSDOF 5
ENDMDL
MODEL 8
REMARK VINA RESULT:    -5.341      2.399      7.289
REMARK INTER + INTRA:          -6.196
REMARK INTER:                  -6.092
REMARK INTRA:                  -0.104
REMARK UNBOUND:                 0.082
REMARK SMILES O=c1c(O)c(-c2ccc(O)cc2)oc2cc(O)cc(O)c12
REMARK SMILES IDX 5 1 3 2 2 3 1 4 21 5 19 6 18 7 16 8 15 9 14 10 13 11 6 12
REMARK SMILES IDX 7 13 8 14 9 15 12 16 11 17 10 18 4 20 20 22 17 24
REMARK H PARENT 10 19 4 21 20 23 17 25
REMARK Flexibility Score: inf
ROOT
ATOM      1  C   UNL     1      23.391   1.035  34.760  1.00  0.00     0.180 A 
ATOM      2  C   UNL     1      23.559   1.617  36.032  1.00  0.00     0.208 A 
ATOM      3  C   UNL     1      24.571   1.127  36.873  1.00  0.00     0.238 A 
ATOM      4  O   UNL     1      24.739   1.646  38.009  1.00  0.00    -0.285 OA
ATOM      5  C   UNL     1      25.380   0.056  36.440  1.00  0.00     0.111 A 
ATOM      6  C   UNL     1      26.417  -0.499  37.227  1.00  0.00     0.134 A 
ATOM      7  C   UNL     1      27.172  -1.570  36.728  1.00  0.00     0.093 A 
ATOM      8  C   UNL     1      26.911  -2.098  35.461  1.00  0.00     0.123 A 
ATOM      9  C   UNL     1      25.888  -1.554  34.679  1.00  0.00     0.094 A 
ATOM     10  C   UNL     1      25.125  -0.484  35.157  1.00  0.00     0.146 A 
ATOM     11  O   UNL     1      24.162   0.017  34.392  1.00  0.00    -0.452 OA
ENDROOT
BRANCH   1  12
ATOM     12  C   UNL     1      22.360   1.509  33.810  1.00  0.00     0.021 A 
ATOM     13  C   UNL     1      21.001   1.376  34.141  1.00  0.00     0.016 A 
ATOM     14  C   UNL     1      20.009   1.797  33.249  1.00  0.00     0.047 A 
ATOM     15  C   UNL     1      20.364   2.340  32.008  1.00  0.00     0.115 A 
ATOM     16  C   UNL     1      22.708   2.039  32.553  1.00  0.00     0.016 A 
ATOM     17  C   UNL     1      21.715   2.457  31.663  1.00  0.00     0.047 A 
BRANCH  15  18
ATOM     18  O   UNL     1      19.385   2.763  31.111  1.00  0.00    -0.508 OA
ATOM     19  H   UNL     1      18.407   2.793  31.371  1.00  0.00     0.293 HD
ENDBRANCH  15  18
ENDBRANCH   1  12
BRANCH   2  20
ATOM     20  O   UNL     1      22.713   2.644  36.457  1.00  0.00    -0.502 OA
ATOM     21  H   UNL     1      22.994   3.617  36.447  1.00  0.00     0.293 HD
ENDBRANCH   2  20
BRANCH   6  22
ATOM     22  O   UNL     1      26.703   0.005  38.497  1.00  0.00    -0.507 OA
ATOM     23  H   UNL     1      26.516   0.971  38.742  1.00  0.00     0.293 HD
ENDBRANCH   6  22
BRANCH   8  24
ATOM     24  O   UNL     1      27.676  -3.163  34.989  1.00  0.00    -0.508 OA
ATOM     25  H   UNL     1      28.037  -3.177  34.043  1.00  0.00     0.293 HD
ENDBRANCH   8  24
TORSDOF 5
ENDMDL
MODEL 9
REMARK VINA RESULT:    -5.292      3.035      6.412
REMARK INTER + INTRA:          -6.138
REMARK INTER:                  -5.841
REMARK INTRA:                  -0.298
REMARK UNBOUND:                 0.082
REMARK SMILES O=c1c(O)c(-c2ccc(O)cc2)oc2cc(O)cc(O)c12
REMARK SMILES IDX 5 1 3 2 2 3 1 4 21 5 19 6 18 7 16 8 15 9 14 10 13 11 6 12
REMARK SMILES IDX 7 13 8 14 9 15 12 16 11 17 10 18 4 20 20 22 17 24
REMARK H PARENT 10 19 4 21 20 23 17 25
REMARK Flexibility Score: inf
ROOT
ATOM      1  C   UNL     1      25.460   1.003  37.084  1.00  0.00     0.180 A 
ATOM      2  C   UNL     1      24.053   0.924  37.088  1.00  0.00     0.208 A 
ATOM      3  C   UNL     1      23.427  -0.063  36.311  1.00  0.00     0.238 A 
ATOM      4  O   UNL     1      22.169  -0.151  36.315  1.00  0.00    -0.285 OA
ATOM      5  C   UNL     1      24.211  -0.937  35.530  1.00  0.00     0.111 A 
ATOM      6  C   UNL     1      23.659  -1.956  34.717  1.00  0.00     0.134 A 
ATOM      7  C   UNL     1      24.506  -2.780  33.962  1.00  0.00     0.093 A 
ATOM      8  C   UNL     1      25.891  -2.606  34.003  1.00  0.00     0.123 A 
ATOM      9  C   UNL     1      26.443  -1.602  34.805  1.00  0.00     0.094 A 
ATOM     10  C   UNL     1      25.616  -0.771  35.566  1.00  0.00     0.146 A 
ATOM     11  O   UNL     1      26.165   0.171  36.323  1.00  0.00    -0.452 OA
ENDROOT
BRANCH   1  12
ATOM     12  C   UNL     1      26.193   2.003  37.891  1.00  0.00     0.021 A 
ATOM     13  C   UNL     1      26.539   3.238  37.315  1.00  0.00     0.016 A 
ATOM     14  C   UNL     1      27.252   4.189  38.053  1.00  0.00     0.047 A 
ATOM     15  C   UNL     1      27.641   3.911  39.369  1.00  0.00     0.115 A 
ATOM     16  C   UNL     1      26.605   1.725  39.207  1.00  0.00     0.016 A 
ATOM     17  C   UNL     1      27.319   2.677  39.941  1.00  0.00     0.047 A 
BRANCH  15  18
ATOM     18  O   UNL     1      28.351   4.851  40.113  1.00  0.00    -0.508 OA
ATOM     19  H   UNL     1      29.113   4.580  40.721  1.00  0.00     0.293 HD
ENDBRANCH  15  18
ENDBRANCH   1  12
BRANCH   2  20
ATOM     20  O   UNL     1      23.297   1.833  37.832  1.00  0.00    -0.502 OA
ATOM     21  H   UNL     1      23.580   2.150  38.751  1.00  0.00     0.293 HD
ENDBRANCH   2  20
BRANCH   6  22
ATOM     22  O   UNL     1      22.278  -2.155  34.654  1.00  0.00    -0.507 OA
ATOM     23  H   UNL     1      21.817  -2.424  33.792  1.00  0.00     0.293 HD
ENDBRANCH   6  22
BRANCH   8  24
ATOM     24  O   UNL     1      26.711  -3.437  33.243  1.00  0.00    -0.508 OA
ATOM     25  H   UNL     1      26.779  -3.338  32.237  1.00  0.00     0.293 HD
ENDBRANCH   8  24
TORSDOF 5
ENDMDL
