MODEL 1
REMARK VINA RESULT:    -7.370      0.000      0.000
REMARK INTER + INTRA:          -9.026
REMARK INTER:                  -8.878
REMARK INTRA:                  -0.149
REMARK UNBOUND:                -0.149
REMARK SMILES O=c1c(O)c(-c2ccc(O)c(O)c2)oc2cc(O)cc(O)c12
REMARK SMILES IDX 5 1 3 2 2 3 1 4 22 5 20 6 19 7 17 8 16 9 15 10 14 11 6 12
REMARK SMILES IDX 7 13 8 14 9 15 13 16 11 17 10 18 12 20 4 22 21 24 18 26
REMARK H PARENT 10 19 12 21 4 23 21 25 18 27
REMARK Flexibility Score: inf
ROOT
ATOM      1  C   UNL     1       2.949  -2.589  15.571  1.00  0.00     0.180 A 
ATOM      2  C   UNL     1       2.743  -2.883  16.933  1.00  0.00     0.208 A 
ATOM      3  C   UNL     1       3.851  -2.916  17.794  1.00  0.00     0.238 A 
ATOM      4  O   UNL     1       3.681  -3.189  19.013  1.00  0.00    -0.285 OA
ATOM      5  C   UNL     1       5.138  -2.636  17.287  1.00  0.00     0.111 A 
ATOM      6  C   UNL     1       6.305  -2.644  18.089  1.00  0.00     0.134 A 
ATOM      7  C   UNL     1       7.548  -2.346  17.511  1.00  0.00     0.093 A 
ATOM      8  C   UNL     1       7.646  -2.039  16.152  1.00  0.00     0.123 A 
ATOM      9  C   UNL     1       6.497  -2.029  15.355  1.00  0.00     0.094 A 
ATOM     10  C   UNL     1       5.249  -2.326  15.912  1.00  0.00     0.146 A 
ATOM     11  O   UNL     1       4.174  -2.314  15.131  1.00  0.00    -0.452 OA
ENDROOT
BRANCH   1  12
ATOM     12  C   UNL     1       1.835  -2.553  14.597  1.00  0.00     0.025 A 
ATOM     13  C   UNL     1       0.836  -1.574  14.724  1.00  0.00     0.016 A 
ATOM     14  C   UNL     1      -0.213  -1.509  13.805  1.00  0.00     0.051 A 
ATOM     15  C   UNL     1      -0.271  -2.412  12.734  1.00  0.00     0.157 A 
ATOM     16  C   UNL     1       1.784  -3.444  13.509  1.00  0.00     0.062 A 
ATOM     17  C   UNL     1       0.735  -3.381  12.584  1.00  0.00     0.158 A 
BRANCH  15  18
ATOM     18  O   UNL     1      -1.321  -2.346  11.818  1.00  0.00    -0.504 OA
ATOM     19  H   UNL     1      -1.155  -2.364  10.819  1.00  0.00     0.293 HD
ENDBRANCH  15  18
BRANCH  17  20
ATOM     20  O   UNL     1       0.714  -4.284  11.521  1.00  0.00    -0.504 OA
ATOM     21  H   UNL     1       1.547  -4.515  10.996  1.00  0.00     0.293 HD
ENDBRANCH  17  20
ENDBRANCH   1  12
BRANCH   2  22
ATOM     22  O   UNL     1       1.454  -3.108  17.420  1.00  0.00    -0.502 OA
ATOM     23  H   UNL     1       1.231  -3.890  18.024  1.00  0.00     0.293 HD
ENDBRANCH   2  22
BRANCH   6  24
ATOM     24  O   UNL     1       6.239  -2.947  19.450  1.00  0.00    -0.507 OA
ATOM     25  H   UNL     1       5.369  -2.893  19.966  1.00  0.00     0.293 HD
ENDBRANCH   6  24
BRANCH   8  26
ATOM     26  O   UNL     1       8.892  -1.745  15.603  1.00  0.00    -0.508 OA
ATOM     27  H   UNL     1       9.713  -2.296  15.826  1.00  0.00     0.293 HD
ENDBRANCH   8  26
TORSDOF 6
ENDMDL
MODEL 2
REMARK VINA RESULT:    -7.342      1.683      7.072
REMARK INTER + INTRA:          -8.992
REMARK INTER:                  -8.677
REMARK INTRA:                  -0.316
REMARK UNBOUND:                -0.149
REMARK SMILES O=c1c(O)c(-c2ccc(O)c(O)c2)oc2cc(O)cc(O)c12
REMARK SMILES IDX 5 1 3 2 2 3 1 4 22 5 20 6 19 7 17 8 16 9 15 10 14 11 6 12
REMARK SMILES IDX 7 13 8 14 9 15 13 16 11 17 10 18 12 20 4 22 21 24 18 26
REMARK H PARENT 10 19 12 21 4 23 21 25 18 27
REMARK Flexibility Score: inf
ROOT
ATOM      1  C   UNL     1       2.393  -2.345  15.046  1.00  0.00     0.180 A 
ATOM      2  C   UNL     1       1.575  -1.199  15.019  1.00  0.00     0.208 A 
ATOM      3  C   UNL     1       0.365  -1.246  14.309  1.00  0.00     0.238 A 
ATOM      4  O   UNL     1      -0.371  -0.223  14.269  1.00  0.00    -0.285 OA
ATOM      5  C   UNL     1      -0.016  -2.438  13.657  1.00  0.00     0.111 A 
ATOM      6  C   UNL     1      -1.220  -2.569  12.925  1.00  0.00     0.134 A 
ATOM      7  C   UNL     1      -1.532  -3.792  12.312  1.00  0.00     0.093 A 
ATOM      8  C   UNL     1      -0.667  -4.882  12.418  1.00  0.00     0.123 A 
ATOM      9  C   UNL     1       0.525  -4.759  13.140  1.00  0.00     0.094 A 
ATOM     10  C   UNL     1       0.854  -3.548  13.757  1.00  0.00     0.146 A 
ATOM     11  O   UNL     1       1.994  -3.456  14.432  1.00  0.00    -0.452 OA
ENDROOT
BRANCH   1  12
ATOM     12  C   UNL     1       3.691  -2.369  15.756  1.00  0.00     0.025 A 
ATOM     13  C   UNL     1       3.723  -2.670  17.127  1.00  0.00     0.016 A 
ATOM     14  C   UNL     1       4.938  -2.719  17.814  1.00  0.00     0.051 A 
ATOM     15  C   UNL     1       6.142  -2.482  17.137  1.00  0.00     0.157 A 
ATOM     16  C   UNL     1       4.903  -2.152  15.076  1.00  0.00     0.062 A 
ATOM     17  C   UNL     1       6.123  -2.202  15.760  1.00  0.00     0.158 A 
BRANCH  15  18
ATOM     18  O   UNL     1       7.354  -2.529  17.824  1.00  0.00    -0.504 OA
ATOM     19  H   UNL     1       7.938  -1.706  17.928  1.00  0.00     0.293 HD
ENDBRANCH  15  18
BRANCH  17  20
ATOM     20  O   UNL     1       7.305  -1.976  15.054  1.00  0.00    -0.504 OA
ATOM     21  H   UNL     1       8.151  -2.498  15.242  1.00  0.00     0.293 HD
ENDBRANCH  17  20
ENDBRANCH   1  12
BRANCH   2  22
ATOM     22  O   UNL     1       1.951  -0.047  15.714  1.00  0.00    -0.502 OA
ATOM     23  H   UNL     1       2.872   0.365  15.622  1.00  0.00     0.293 HD
ENDBRANCH   2  22
BRANCH   6  24
ATOM     24  O   UNL     1      -2.106  -1.497  12.801  1.00  0.00    -0.507 OA
ATOM     25  H   UNL     1      -2.099  -0.722  13.453  1.00  0.00     0.293 HD
ENDBRANCH   6  24
BRANCH   8  26
ATOM     26  O   UNL     1      -1.000  -6.086  11.801  1.00  0.00    -0.508 OA
ATOM     27  H   UNL     1      -1.367  -6.869  12.329  1.00  0.00     0.293 HD
ENDBRANCH   8  26
TORSDOF 6
ENDMDL
MODEL 3
REMARK VINA RESULT:    -7.326      2.644      6.538
REMARK INTER + INTRA:          -8.974
REMARK INTER:                  -8.793
REMARK INTRA:                  -0.181
REMARK UNBOUND:                -0.149
REMARK SMILES O=c1c(O)c(-c2ccc(O)c(O)c2)oc2cc(O)cc(O)c12
REMARK SMILES IDX 5 1 3 2 2 3 1 4 22 5 20 6 19 7 17 8 16 9 15 10 14 11 6 12
REMARK SMILES IDX 7 13 8 14 9 15 13 16 11 17 10 18 12 20 4 22 21 24 18 26
REMARK H PARENT 10 19 12 21 4 23 21 25 18 27
REMARK Flexibility Score: inf
ROOT
ATOM      1  C   UNL     1       3.230  -2.602  17.540  1.00  0.00     0.180 A 
ATOM      2  C   UNL     1       1.910  -2.121  17.635  1.00  0.00     0.208 A 
ATOM      3  C   UNL     1       1.332  -1.502  16.517  1.00  0.00     0.238 A 
ATOM      4  O   UNL     1       0.154  -1.057  16.593  1.00  0.00    -0.285 OA
ATOM      5  C   UNL     1       2.071  -1.392  15.320  1.00  0.00     0.111 A 
ATOM      6  C   UNL     1       1.559  -0.786  14.147  1.00  0.00     0.134 A 
ATOM      7  C   UNL     1       2.355  -0.723  12.993  1.00  0.00     0.093 A 
ATOM      8  C   UNL     1       3.646  -1.254  12.989  1.00  0.00     0.123 A 
ATOM      9  C   UNL     1       4.157  -1.854  14.144  1.00  0.00     0.094 A 
ATOM     10  C   UNL     1       3.381  -1.924  15.305  1.00  0.00     0.146 A 
ATOM     11  O   UNL     1       3.891  -2.495  16.391  1.00  0.00    -0.452 OA
ENDROOT
BRANCH   1  12
ATOM     12  C   UNL     1       3.916  -3.250  18.680  1.00  0.00     0.025 A 
ATOM     13  C   UNL     1       3.473  -4.503  19.132  1.00  0.00     0.016 A 
ATOM     14  C   UNL     1       4.118  -5.142  20.193  1.00  0.00     0.051 A 
ATOM     15  C   UNL     1       5.226  -4.545  20.810  1.00  0.00     0.157 A 
ATOM     16  C   UNL     1       5.041  -2.664  19.288  1.00  0.00     0.062 A 
ATOM     17  C   UNL     1       5.692  -3.302  20.351  1.00  0.00     0.158 A 
BRANCH  15  18
ATOM     18  O   UNL     1       5.867  -5.184  21.870  1.00  0.00    -0.504 OA
ATOM     19  H   UNL     1       6.368  -4.662  22.579  1.00  0.00     0.293 HD
ENDBRANCH  15  18
BRANCH  17  20
ATOM     20  O   UNL     1       6.801  -2.688  20.932  1.00  0.00    -0.504 OA
ATOM     21  H   UNL     1       7.116  -2.921  21.866  1.00  0.00     0.293 HD
ENDBRANCH  17  20
ENDBRANCH   1  12
BRANCH   2  22
ATOM     22  O   UNL     1       1.182  -2.286  18.816  1.00  0.00    -0.502 OA
ATOM     23  H   UNL     1       0.426  -2.956  18.898  1.00  0.00     0.293 HD
ENDBRANCH   2  22
BRANCH   6  24
ATOM     24  O   UNL     1       0.272  -0.246  14.120  1.00  0.00    -0.507 OA
ATOM     25  H   UNL     1       0.047   0.567  13.559  1.00  0.00     0.293 HD
ENDBRANCH   6  24
BRANCH   8  26
ATOM     26  O   UNL     1       4.415  -1.180  11.829  1.00  0.00    -0.508 OA
ATOM     27  H   UNL     1       5.407  -1.387  11.837  1.00  0.00     0.293 HD
ENDBRANCH   8  26
TORSDOF 6
ENDMDL
MODEL 4
REMARK VINA RESULT:    -7.265      2.273      6.975
REMARK INTER + INTRA:          -8.900
REMARK INTER:                  -8.624
REMARK INTRA:                  -0.276
REMARK UNBOUND:                -0.149
REMARK SMILES O=c1c(O)c(-c2ccc(O)c(O)c2)oc2cc(O)cc(O)c12
REMARK SMILES IDX 5 1 3 2 2 3 1 4 22 5 20 6 19 7 17 8 16 9 15 10 14 11 6 12
REMARK SMILES IDX 7 13 8 14 9 15 13 16 11 17 10 18 12 20 4 22 21 24 18 26
REMARK H PARENT 10 19 12 21 4 23 21 25 18 27
REMARK Flexibility Score: inf
ROOT
ATOM      1  C   UNL     1       4.544  -2.432  17.249  1.00  0.00     0.180 A 
ATOM      2  C   UNL     1       5.480  -2.311  16.204  1.00  0.00     0.208 A 
ATOM      3  C   UNL     1       5.042  -1.854  14.951  1.00  0.00     0.238 A 
ATOM      4  O   UNL     1       5.869  -1.751  14.005  1.00  0.00    -0.285 OA
ATOM      5  C   UNL     1       3.687  -1.508  14.770  1.00  0.00     0.111 A 
ATOM      6  C   UNL     1       3.166  -1.035  13.541  1.00  0.00     0.134 A 
ATOM      7  C   UNL     1       1.807  -0.703  13.443  1.00  0.00     0.093 A 
ATOM      8  C   UNL     1       0.961  -0.832  14.547  1.00  0.00     0.123 A 
ATOM      9  C   UNL     1       1.469  -1.298  15.763  1.00  0.00     0.094 A 
ATOM     10  C   UNL     1       2.821  -1.636  15.881  1.00  0.00     0.146 A 
ATOM     11  O   UNL     1       3.277  -2.082  17.046  1.00  0.00    -0.452 OA
ENDROOT
BRANCH   1  12
ATOM     12  C   UNL     1       4.924  -2.924  18.593  1.00  0.00     0.025 A 
ATOM     13  C   UNL     1       5.577  -2.060  19.486  1.00  0.00     0.016 A 
ATOM     14  C   UNL     1       5.926  -2.497  20.766  1.00  0.00     0.051 A 
ATOM     15  C   UNL     1       5.614  -3.799  21.178  1.00  0.00     0.157 A 
ATOM     16  C   UNL     1       4.594  -4.224  19.018  1.00  0.00     0.062 A 
ATOM     17  C   UNL     1       4.940  -4.665  20.300  1.00  0.00     0.158 A 
BRANCH  15  18
ATOM     18  O   UNL     1       5.966  -4.233  22.456  1.00  0.00    -0.504 OA
ATOM     19  H   UNL     1       5.280  -4.628  23.090  1.00  0.00     0.293 HD
ENDBRANCH  15  18
BRANCH  17  20
ATOM     20  O   UNL     1       4.602  -5.962  20.685  1.00  0.00    -0.504 OA
ATOM     21  H   UNL     1       5.301  -6.645  20.948  1.00  0.00     0.293 HD
ENDBRANCH  17  20
ENDBRANCH   1  12
BRANCH   2  22
ATOM     22  O   UNL     1       6.826  -2.613  16.423  1.00  0.00    -0.502 OA
ATOM     23  H   UNL     1       7.141  -3.131  17.235  1.00  0.00     0.293 HD
ENDBRANCH   2  22
BRANCH   6  24
ATOM     24  O   UNL     1       3.986  -0.895  12.420  1.00  0.00    -0.507 OA
ATOM     25  H   UNL     1       3.766  -1.345  11.539  1.00  0.00     0.293 HD
ENDBRANCH   6  24
BRANCH   8  26
ATOM     26  O   UNL     1      -0.385  -0.494  14.424  1.00  0.00    -0.508 OA
ATOM     27  H   UNL     1      -1.016  -1.034  13.842  1.00  0.00     0.293 HD
ENDBRANCH   8  26
TORSDOF 6
ENDMDL
MODEL 5
REMARK VINA RESULT:    -7.226      1.221      2.916
REMARK INTER + INTRA:          -8.853
REMARK INTER:                  -8.635
REMARK INTRA:                  -0.218
REMARK UNBOUND:                -0.149
REMARK SMILES O=c1c(O)c(-c2ccc(O)c(O)c2)oc2cc(O)cc(O)c12
REMARK SMILES IDX 5 1 3 2 2 3 1 4 22 5 20 6 19 7 17 8 16 9 15 10 14 11 6 12
REMARK SMILES IDX 7 13 8 14 9 15 13 16 11 17 10 18 12 20 4 22 21 24 18 26
REMARK H PARENT 10 19 12 21 4 23 21 25 18 27
REMARK Flexibility Score: inf
ROOT
ATOM      1  C   UNL     1       3.231  -2.445  15.522  1.00  0.00     0.180 A 
ATOM      2  C   UNL     1       4.526  -2.138  15.059  1.00  0.00     0.208 A 
ATOM      3  C   UNL     1       5.596  -2.173  15.968  1.00  0.00     0.238 A 
ATOM      4  O   UNL     1       6.758  -1.890  15.568  1.00  0.00    -0.285 OA
ATOM      5  C   UNL     1       5.359  -2.531  17.311  1.00  0.00     0.111 A 
ATOM      6  C   UNL     1       6.383  -2.593  18.288  1.00  0.00     0.134 A 
ATOM      7  C   UNL     1       6.067  -2.966  19.603  1.00  0.00     0.093 A 
ATOM      8  C   UNL     1       4.754  -3.280  19.958  1.00  0.00     0.123 A 
ATOM      9  C   UNL     1       3.739  -3.219  18.999  1.00  0.00     0.094 A 
ATOM     10  C   UNL     1       4.032  -2.848  17.683  1.00  0.00     0.146 A 
ATOM     11  O   UNL     1       3.048  -2.793  16.792  1.00  0.00    -0.452 OA
ENDROOT
BRANCH   1  12
ATOM     12  C   UNL     1       2.050  -2.413  14.631  1.00  0.00     0.025 A 
ATOM     13  C   UNL     1       1.112  -1.376  14.763  1.00  0.00     0.016 A 
ATOM     14  C   UNL     1       0.001  -1.315  13.919  1.00  0.00     0.051 A 
ATOM     15  C   UNL     1      -0.182  -2.280  12.920  1.00  0.00     0.157 A 
ATOM     16  C   UNL     1       1.873  -3.368  13.613  1.00  0.00     0.062 A 
ATOM     17  C   UNL     1       0.762  -3.309  12.764  1.00  0.00     0.158 A 
BRANCH  15  18
ATOM     18  O   UNL     1      -1.294  -2.217  12.080  1.00  0.00    -0.504 OA
ATOM     19  H   UNL     1      -1.465  -2.923  11.374  1.00  0.00     0.293 HD
ENDBRANCH  15  18
BRANCH  17  20
ATOM     20  O   UNL     1       0.617  -4.276  11.770  1.00  0.00    -0.504 OA
ATOM     21  H   UNL     1       1.297  -4.392  11.029  1.00  0.00     0.293 HD
ENDBRANCH  17  20
ENDBRANCH   1  12
BRANCH   2  22
ATOM     22  O   UNL     1       4.742  -1.835  13.713  1.00  0.00    -0.502 OA
ATOM     23  H   UNL     1       3.992  -1.828  13.031  1.00  0.00     0.293 HD
ENDBRANCH   2  22
BRANCH   6  24
ATOM     24  O   UNL     1       7.705  -2.287  17.962  1.00  0.00    -0.507 OA
ATOM     25  H   UNL     1       8.178  -1.482  18.357  1.00  0.00     0.293 HD
ENDBRANCH   6  24
BRANCH   8  26
ATOM     26  O   UNL     1       4.468  -3.649  21.271  1.00  0.00    -0.508 OA
ATOM     27  H   UNL     1       3.541  -3.533  21.664  1.00  0.00     0.293 HD
ENDBRANCH   8  26
TORSDOF 6
ENDMDL
MODEL 6
REMARK VINA RESULT:    -6.975      2.814      5.563
REMARK INTER + INTRA:          -8.550
REMARK INTER:                  -8.473
REMARK INTRA:                  -0.077
REMARK UNBOUND:                -0.149
REMARK SMILES O=c1c(O)c(-c2ccc(O)c(O)c2)oc2cc(O)cc(O)c12
REMARK SMILES IDX 5 1 3 2 2 3 1 4 22 5 20 6 19 7 17 8 16 9 15 10 14 11 6 12
REMARK SMILES IDX 7 13 8 14 9 15 13 16 11 17 10 18 12 20 4 22 21 24 18 26
REMARK H PARENT 10 19 12 21 4 23 21 25 18 27
REMARK Flexibility Score: inf
ROOT
ATOM      1  C   UNL     1       3.807  -3.266  18.285  1.00  0.00     0.180 A 
ATOM      2  C   UNL     1       3.233  -3.105  17.009  1.00  0.00     0.208 A 
ATOM      3  C   UNL     1       4.040  -2.648  15.956  1.00  0.00     0.238 A 
ATOM      4  O   UNL     1       3.535  -2.489  14.811  1.00  0.00    -0.285 OA
ATOM      5  C   UNL     1       5.406  -2.381  16.188  1.00  0.00     0.111 A 
ATOM      6  C   UNL     1       6.288  -1.923  15.180  1.00  0.00     0.134 A 
ATOM      7  C   UNL     1       7.636  -1.688  15.489  1.00  0.00     0.093 A 
ATOM      8  C   UNL     1       8.118  -1.905  16.781  1.00  0.00     0.123 A 
ATOM      9  C   UNL     1       7.252  -2.357  17.781  1.00  0.00     0.094 A 
ATOM     10  C   UNL     1       5.905  -2.595  17.494  1.00  0.00     0.146 A 
ATOM     11  O   UNL     1       5.102  -3.020  18.463  1.00  0.00    -0.452 OA
ENDROOT
BRANCH   1  12
ATOM     12  C   UNL     1       3.019  -3.726  19.450  1.00  0.00     0.025 A 
ATOM     13  C   UNL     1       1.872  -3.012  19.833  1.00  0.00     0.016 A 
ATOM     14  C   UNL     1       1.101  -3.439  20.917  1.00  0.00     0.051 A 
ATOM     15  C   UNL     1       1.456  -4.595  21.625  1.00  0.00     0.157 A 
ATOM     16  C   UNL     1       3.360  -4.897  20.151  1.00  0.00     0.062 A 
ATOM     17  C   UNL     1       2.589  -5.329  21.236  1.00  0.00     0.158 A 
BRANCH  15  18
ATOM     18  O   UNL     1       0.685  -5.018  22.707  1.00  0.00    -0.504 OA
ATOM     19  H   UNL     1      -0.314  -4.855  22.743  1.00  0.00     0.293 HD
ENDBRANCH  15  18
BRANCH  17  20
ATOM     20  O   UNL     1       2.960  -6.492  21.910  1.00  0.00    -0.504 OA
ATOM     21  H   UNL     1       2.381  -7.322  21.911  1.00  0.00     0.293 HD
ENDBRANCH  17  20
ENDBRANCH   1  12
BRANCH   2  22
ATOM     22  O   UNL     1       1.890  -3.423  16.794  1.00  0.00    -0.502 OA
ATOM     23  H   UNL     1       1.604  -4.234  16.258  1.00  0.00     0.293 HD
ENDBRANCH   2  22
BRANCH   6  24
ATOM     24  O   UNL     1       5.836  -1.698  13.878  1.00  0.00    -0.507 OA
ATOM     25  H   UNL     1       6.252  -0.990  13.284  1.00  0.00     0.293 HD
ENDBRANCH   6  24
BRANCH   8  26
ATOM     26  O   UNL     1       9.462  -1.665  17.061  1.00  0.00    -0.508 OA
ATOM     27  H   UNL     1      10.153  -2.404  17.016  1.00  0.00     0.293 HD
ENDBRANCH   8  26
TORSDOF 6
ENDMDL
MODEL 7
REMARK VINA RESULT:    -6.880      2.321      7.740
REMARK INTER + INTRA:          -8.436
REMARK INTER:                  -8.139
REMARK INTRA:                  -0.297
REMARK UNBOUND:                -0.149
REMARK SMILES O=c1c(O)c(-c2ccc(O)c(O)c2)oc2cc(O)cc(O)c12
REMARK SMILES IDX 5 1 3 2 2 3 1 4 22 5 20 6 19 7 17 8 16 9 15 10 14 11 6 12
REMARK SMILES IDX 7 13 8 14 9 15 13 16 11 17 10 18 12 20 4 22 21 24 18 26
REMARK H PARENT 10 19 12 21 4 23 21 25 18 27
REMARK Flexibility Score: inf
ROOT
ATOM      1  C   UNL     1       1.199  -3.106  13.452  1.00  0.00     0.180 A 
ATOM      2  C   UNL     1       1.008  -2.173  12.414  1.00  0.00     0.208 A 
ATOM      3  C   UNL     1       0.360  -2.588  11.241  1.00  0.00     0.238 A 
ATOM      4  O   UNL     1       0.192  -1.765  10.300  1.00  0.00    -0.285 OA
ATOM      5  C   UNL     1      -0.102  -3.917  11.132  1.00  0.00     0.111 A 
ATOM      6  C   UNL     1      -0.768  -4.413   9.985  1.00  0.00     0.134 A 
ATOM      7  C   UNL     1      -1.205  -5.746   9.957  1.00  0.00     0.093 A 
ATOM      8  C   UNL     1      -0.992  -6.588  11.050  1.00  0.00     0.123 A 
ATOM      9  C   UNL     1      -0.335  -6.104  12.185  1.00  0.00     0.094 A 
ATOM     10  C   UNL     1       0.110  -4.779  12.232  1.00  0.00     0.146 A 
ATOM     11  O   UNL     1       0.736  -4.346  13.320  1.00  0.00    -0.452 OA
ENDROOT
BRANCH   1  12
ATOM     12  C   UNL     1       1.890  -2.750  14.712  1.00  0.00     0.025 A 
ATOM     13  C   UNL     1       1.138  -2.562  15.883  1.00  0.00     0.016 A 
ATOM     14  C   UNL     1       1.770  -2.247  17.088  1.00  0.00     0.051 A 
ATOM     15  C   UNL     1       3.166  -2.129  17.144  1.00  0.00     0.157 A 
ATOM     16  C   UNL     1       3.292  -2.652  14.778  1.00  0.00     0.062 A 
ATOM     17  C   UNL     1       3.929  -2.337  15.983  1.00  0.00     0.158 A 
BRANCH  15  18
ATOM     18  O   UNL     1       3.794  -1.812  18.347  1.00  0.00    -0.504 OA
ATOM     19  H   UNL     1       3.275  -1.741  19.215  1.00  0.00     0.293 HD
ENDBRANCH  15  18
BRANCH  17  20
ATOM     20  O   UNL     1       5.321  -2.243  16.009  1.00  0.00    -0.504 OA
ATOM     21  H   UNL     1       5.797  -1.356  16.115  1.00  0.00     0.293 HD
ENDBRANCH  17  20
ENDBRANCH   1  12
BRANCH   2  22
ATOM     22  O   UNL     1       1.431  -0.850  12.567  1.00  0.00    -0.502 OA
ATOM     23  H   UNL     1       2.324  -0.611  12.981  1.00  0.00     0.293 HD
ENDBRANCH   2  22
BRANCH   6  24
ATOM     24  O   UNL     1      -0.997  -3.595   8.877  1.00  0.00    -0.507 OA
ATOM     25  H   UNL     1      -1.560  -2.756   8.941  1.00  0.00     0.293 HD
ENDBRANCH   6  24
BRANCH   8  26
ATOM     26  O   UNL     1      -1.438  -7.907  10.997  1.00  0.00    -0.508 OA
ATOM     27  H   UNL     1      -1.141  -8.595  11.680  1.00  0.00     0.293 HD
ENDBRANCH   8  26
TORSDOF 6
ENDMDL
MODEL 8
REMARK VINA RESULT:    -6.818      3.371      6.516
REMARK INTER + INTRA:          -8.361
REMARK INTER:                  -8.364
REMARK INTRA:                   0.003
REMARK UNBOUND:                -0.149
REMARK SMILES O=c1c(O)c(-c2ccc(O)c(O)c2)oc2cc(O)cc(O)c12
REMARK SMILES IDX 5 1 3 2 2 3 1 4 22 5 20 6 19 7 17 8 16 9 15 10 14 11 6 12
REMARK SMILES IDX 7 13 8 14 9 15 13 16 11 17 10 18 12 20 4 22 21 24 18 26
REMARK H PARENT 10 19 12 21 4 23 21 25 18 27
REMARK Flexibility Score: inf
ROOT
ATOM      1  C   UNL     1       4.040  -2.942  18.196  1.00  0.00     0.180 A 
ATOM      2  C   UNL     1       2.807  -2.336  17.883  1.00  0.00     0.208 A 
ATOM      3  C   UNL     1       1.657  -2.741  18.578  1.00  0.00     0.238 A 
ATOM      4  O   UNL     1       0.546  -2.213  18.300  1.00  0.00    -0.285 OA
ATOM      5  C   UNL     1       1.760  -3.725  19.584  1.00  0.00     0.111 A 
ATOM      6  C   UNL     1       0.650  -4.185  20.333  1.00  0.00     0.134 A 
ATOM      7  C   UNL     1       0.836  -5.161  21.323  1.00  0.00     0.093 A 
ATOM      8  C   UNL     1       2.106  -5.683  21.579  1.00  0.00     0.123 A 
ATOM      9  C   UNL     1       3.206  -5.233  20.842  1.00  0.00     0.094 A 
ATOM     10  C   UNL     1       3.041  -4.262  19.850  1.00  0.00     0.146 A 
ATOM     11  O   UNL     1       4.101  -3.855  19.161  1.00  0.00    -0.452 OA
ENDROOT
BRANCH   1  12
ATOM     12  C   UNL     1       5.293  -2.583  17.495  1.00  0.00     0.025 A 
ATOM     13  C   UNL     1       6.463  -2.361  18.240  1.00  0.00     0.016 A 
ATOM     14  C   UNL     1       7.661  -2.042  17.598  1.00  0.00     0.051 A 
ATOM     15  C   UNL     1       7.713  -1.954  16.200  1.00  0.00     0.157 A 
ATOM     16  C   UNL     1       5.354  -2.514  16.091  1.00  0.00     0.062 A 
ATOM     17  C   UNL     1       6.554  -2.196  15.444  1.00  0.00     0.158 A 
BRANCH  15  18
ATOM     18  O   UNL     1       8.910  -1.633  15.561  1.00  0.00    -0.504 OA
ATOM     19  H   UNL     1       9.673  -1.185  16.057  1.00  0.00     0.293 HD
ENDBRANCH  15  18
BRANCH  17  20
ATOM     20  O   UNL     1       6.575  -2.131  14.051  1.00  0.00    -0.504 OA
ATOM     21  H   UNL     1       6.371  -2.936  13.472  1.00  0.00     0.293 HD
ENDBRANCH  17  20
ENDBRANCH   1  12
BRANCH   2  22
ATOM     22  O   UNL     1       2.741  -1.328  16.918  1.00  0.00    -0.502 OA
ATOM     23  H   UNL     1       2.090  -0.555  16.984  1.00  0.00     0.293 HD
ENDBRANCH   2  22
BRANCH   6  24
ATOM     24  O   UNL     1      -0.631  -3.682  20.102  1.00  0.00    -0.507 OA
ATOM     25  H   UNL     1      -1.170  -3.239  20.836  1.00  0.00     0.293 HD
ENDBRANCH   6  24
BRANCH   8  26
ATOM     26  O   UNL     1       2.264  -6.651  22.569  1.00  0.00    -0.508 OA
ATOM     27  H   UNL     1       2.234  -6.413  23.553  1.00  0.00     0.293 HD
ENDBRANCH   8  26
TORSDOF 6
ENDMDL
MODEL 9
REMARK VINA RESULT:    -6.808      2.302      2.711
REMARK INTER + INTRA:          -8.349
REMARK INTER:                  -8.020
REMARK INTRA:                  -0.329
REMARK UNBOUND:                -0.149
REMARK SMILES O=c1c(O)c(-c2ccc(O)c(O)c2)oc2cc(O)cc(O)c12
REMARK SMILES IDX 5 1 3 2 2 3 1 4 22 5 20 6 19 7 17 8 16 9 15 10 14 11 6 12
REMARK SMILES IDX 7 13 8 14 9 15 13 16 11 17 10 18 12 20 4 22 21 24 18 26
REMARK H PARENT 10 19 12 21 4 23 21 25 18 27
REMARK Flexibility Score: inf
ROOT
ATOM      1  C   UNL     1       2.956  -2.770  17.286  1.00  0.00     0.180 A 
ATOM      2  C   UNL     1       2.481  -3.800  18.121  1.00  0.00     0.208 A 
ATOM      3  C   UNL     1       3.149  -4.056  19.329  1.00  0.00     0.238 A 
ATOM      4  O   UNL     1       2.739  -4.982  20.080  1.00  0.00    -0.285 OA
ATOM      5  C   UNL     1       4.263  -3.270  19.690  1.00  0.00     0.111 A 
ATOM      6  C   UNL     1       4.988  -3.460  20.891  1.00  0.00     0.134 A 
ATOM      7  C   UNL     1       6.081  -2.630  21.183  1.00  0.00     0.093 A 
ATOM      8  C   UNL     1       6.459  -1.615  20.301  1.00  0.00     0.123 A 
ATOM      9  C   UNL     1       5.747  -1.422  19.114  1.00  0.00     0.094 A 
ATOM     10  C   UNL     1       4.657  -2.241  18.804  1.00  0.00     0.146 A 
ATOM     11  O   UNL     1       4.000  -2.039  17.667  1.00  0.00    -0.452 OA
ENDROOT
BRANCH   1  12
ATOM     12  C   UNL     1       2.318  -2.452  15.989  1.00  0.00     0.025 A 
ATOM     13  C   UNL     1       1.289  -1.498  15.941  1.00  0.00     0.016 A 
ATOM     14  C   UNL     1       0.687  -1.167  14.725  1.00  0.00     0.051 A 
ATOM     15  C   UNL     1       1.115  -1.773  13.536  1.00  0.00     0.157 A 
ATOM     16  C   UNL     1       2.759  -3.043  14.791  1.00  0.00     0.062 A 
ATOM     17  C   UNL     1       2.159  -2.712  13.570  1.00  0.00     0.158 A 
BRANCH  15  18
ATOM     18  O   UNL     1       0.511  -1.442  12.324  1.00  0.00    -0.504 OA
ATOM     19  H   UNL     1      -0.379  -0.957  12.289  1.00  0.00     0.293 HD
ENDBRANCH  15  18
BRANCH  17  20
ATOM     20  O   UNL     1       2.618  -3.322  12.403  1.00  0.00    -0.504 OA
ATOM     21  H   UNL     1       2.705  -4.327  12.320  1.00  0.00     0.293 HD
ENDBRANCH  17  20
ENDBRANCH   1  12
BRANCH   2  22
ATOM     22  O   UNL     1       1.346  -4.532  17.764  1.00  0.00    -0.502 OA
ATOM     23  H   UNL     1       0.434  -4.103  17.661  1.00  0.00     0.293 HD
ENDBRANCH   2  22
BRANCH   6  24
ATOM     24  O   UNL     1       4.634  -4.465  21.793  1.00  0.00    -0.507 OA
ATOM     25  H   UNL     1       4.138  -5.297  21.495  1.00  0.00     0.293 HD
ENDBRANCH   6  24
BRANCH   8  26
ATOM     26  O   UNL     1       7.548  -0.804  20.615  1.00  0.00    -0.508 OA
ATOM     27  H   UNL     1       8.284  -1.121  21.236  1.00  0.00     0.293 HD
ENDBRANCH   8  26
TORSDOF 6
ENDMDL
