MODEL 1
REMARK VINA RESULT:    -4.293      0.000      0.000
REMARK INTER + INTRA:         -10.241
REMARK INTER:                  -8.309
REMARK INTRA:                  -1.932
REMARK UNBOUND:                -1.932
REMARK SMILES CCCCCCCCCCCCCCCCCC(=O)[O-]
REMARK SMILES IDX 10 1 11 2 12 3 13 4 14 5 15 6 16 7 17 8 18 9 19 10 20 11
REMARK SMILES IDX 9 12 8 13 7 14 6 15 5 16 4 17 3 18 2 19 1 20
REMARK H PARENT
REMARK Flexibility Score: inf
ROOT
ATOM      1  C   UNL     1       8.378  -1.657  39.766  1.00  0.00     0.000 C 
ENDROOT
BRANCH   1   2
ATOM      2  C   UNL     1       8.367  -1.313  41.266  1.00  0.00     0.000 C 
BRANCH   2   3
ATOM      3  C   UNL     1       9.432  -2.090  42.056  1.00  0.00     0.000 C 
BRANCH   3   4
ATOM      4  C   UNL     1       8.922  -3.450  42.562  1.00  0.00     0.000 C 
BRANCH   4   5
ATOM      5  C   UNL     1       9.857  -4.616  42.191  1.00  0.00     0.000 C 
BRANCH   5   6
ATOM      6  C   UNL     1       9.284  -5.598  41.153  1.00  0.00     0.000 C 
BRANCH   6   7
ATOM      7  C   UNL     1       7.948  -6.221  41.593  1.00  0.00     0.006 C 
BRANCH   7   8
ATOM      8  C   UNL     1       8.102  -7.090  42.848  1.00  0.00     0.053 C 
BRANCH   8   9
ATOM      9  C   UNL     1       8.000  -8.550  42.525  1.00  0.00     0.041 C 
ATOM     10  O   UNL     1       8.162  -8.951  41.342  1.00  0.00    -0.550 OA
ATOM     11  O   UNL     1       7.761  -9.471  43.537  1.00  0.00    -0.550 OA
ENDBRANCH   8   9
ENDBRANCH   7   8
ENDBRANCH   6   7
ENDBRANCH   5   6
ENDBRANCH   4   5
ENDBRANCH   3   4
ENDBRANCH   2   3
ENDBRANCH   1   2
BRANCH   1  12
ATOM     12  C   UNL     1       7.224  -2.590  39.366  1.00  0.00     0.000 C 
BRANCH  12  13
ATOM     13  C   UNL     1       7.706  -3.817  38.570  1.00  0.00    -0.000 C 
BRANCH  13  14
ATOM     14  C   UNL     1       8.422  -3.430  37.266  1.00  0.00    -0.000 C 
BRANCH  14  15
ATOM     15  C   UNL     1       7.632  -3.828  36.011  1.00  0.00    -0.000 C 
BRANCH  15  16
ATOM     16  C   UNL     1       7.473  -2.633  35.060  1.00  0.00    -0.000 C 
BRANCH  16  17
ATOM     17  C   UNL     1       6.015  -2.157  34.932  1.00  0.00    -0.000 C 
BRANCH  17  18
ATOM     18  C   UNL     1       5.756  -0.720  35.423  1.00  0.00    -0.000 C 
BRANCH  18  19
ATOM     19  C   UNL     1       5.374  -0.656  36.908  1.00  0.00    -0.003 C 
ATOM     20  C   UNL     1       5.985   0.569  37.580  1.00  0.00     0.004 C 
ENDBRANCH  18  19
ENDBRANCH  17  18
ENDBRANCH  16  17
ENDBRANCH  15  16
ENDBRANCH  14  15
ENDBRANCH  13  14
ENDBRANCH  12  13
ENDBRANCH   1  12
TORSDOF 16
ENDMDL
MODEL 2
REMARK VINA RESULT:    -4.260      2.830      6.281
REMARK INTER + INTRA:         -10.176
REMARK INTER:                  -8.712
REMARK INTRA:                  -1.464
REMARK UNBOUND:                -1.932
REMARK SMILES CCCCCCCCCCCCCCCCCC(=O)[O-]
REMARK SMILES IDX 10 1 11 2 12 3 13 4 14 5 15 6 16 7 17 8 18 9 19 10 20 11
REMARK SMILES IDX 9 12 8 13 7 14 6 15 5 16 4 17 3 18 2 19 1 20
REMARK H PARENT
REMARK Flexibility Score: inf
ROOT
ATOM      1  C   UNL     1       9.046  -7.148  43.167  1.00  0.00     0.000 C 
ENDROOT
BRANCH   1   2
ATOM      2  C   UNL     1       8.638  -8.369  44.008  1.00  0.00     0.000 C 
BRANCH   2   3
ATOM      3  C   UNL     1       7.610  -9.260  43.292  1.00  0.00     0.000 C 
BRANCH   3   4
ATOM      4  C   UNL     1       7.129 -10.432  44.164  1.00  0.00     0.000 C 
BRANCH   4   5
ATOM      5  C   UNL     1       6.538 -11.590  43.339  1.00  0.00     0.000 C 
BRANCH   5   6
ATOM      6  C   UNL     1       5.155 -11.305  42.725  1.00  0.00     0.000 C 
BRANCH   6   7
ATOM      7  C   UNL     1       5.193 -11.187  41.191  1.00  0.00     0.006 C 
BRANCH   7   8
ATOM      8  C   UNL     1       5.313 -12.555  40.509  1.00  0.00     0.053 C 
BRANCH   8   9
ATOM      9  C   UNL     1       6.626 -12.708  39.804  1.00  0.00     0.041 C 
ATOM     10  O   UNL     1       7.507 -13.484  40.262  1.00  0.00    -0.550 OA
ATOM     11  O   UNL     1       6.864 -12.020  38.621  1.00  0.00    -0.550 OA
ENDBRANCH   8   9
ENDBRANCH   7   8
ENDBRANCH   6   7
ENDBRANCH   5   6
ENDBRANCH   4   5
ENDBRANCH   3   4
ENDBRANCH   2   3
ENDBRANCH   1   2
BRANCH   1  12
ATOM     12  C   UNL     1       8.264  -7.051  41.847  1.00  0.00     0.000 C 
BRANCH  12  13
ATOM     13  C   UNL     1       7.508  -5.718  41.705  1.00  0.00    -0.000 C 
BRANCH  13  14
ATOM     14  C   UNL     1       7.305  -5.008  43.053  1.00  0.00    -0.000 C 
BRANCH  14  15
ATOM     15  C   UNL     1       7.778  -3.546  43.034  1.00  0.00    -0.000 C 
BRANCH  15  16
ATOM     16  C   UNL     1       9.234  -3.448  42.556  1.00  0.00    -0.000 C 
BRANCH  16  17
ATOM     17  C   UNL     1       9.476  -2.261  41.606  1.00  0.00    -0.000 C 
BRANCH  17  18
ATOM     18  C   UNL     1       8.275  -1.883  40.720  1.00  0.00    -0.000 C 
BRANCH  18  19
ATOM     19  C   UNL     1       8.196  -2.716  39.433  1.00  0.00    -0.003 C 
ATOM     20  C   UNL     1       6.843  -2.544  38.749  1.00  0.00     0.004 C 
ENDBRANCH  18  19
ENDBRANCH  17  18
ENDBRANCH  16  17
ENDBRANCH  15  16
ENDBRANCH  14  15
ENDBRANCH  13  14
ENDBRANCH  12  13
ENDBRANCH   1  12
TORSDOF 16
ENDMDL
MODEL 3
REMARK VINA RESULT:    -4.246      3.462      6.987
REMARK INTER + INTRA:         -10.149
REMARK INTER:                  -8.144
REMARK INTRA:                  -2.005
REMARK UNBOUND:                -1.932
REMARK SMILES CCCCCCCCCCCCCCCCCC(=O)[O-]
REMARK SMILES IDX 10 1 11 2 12 3 13 4 14 5 15 6 16 7 17 8 18 9 19 10 20 11
REMARK SMILES IDX 9 12 8 13 7 14 6 15 5 16 4 17 3 18 2 19 1 20
REMARK H PARENT
REMARK Flexibility Score: inf
ROOT
ATOM      1  C   UNL     1       8.357  -3.003  42.910  1.00  0.00     0.000 C 
ENDROOT
BRANCH   1   2
ATOM      2  C   UNL     1       9.796  -2.488  42.738  1.00  0.00     0.000 C 
BRANCH   2   3
ATOM      3  C   UNL     1      10.783  -3.610  42.378  1.00  0.00     0.000 C 
BRANCH   3   4
ATOM      4  C   UNL     1      11.692  -3.245  41.192  1.00  0.00     0.000 C 
BRANCH   4   5
ATOM      5  C   UNL     1      11.820  -4.384  40.163  1.00  0.00     0.000 C 
BRANCH   5   6
ATOM      6  C   UNL     1      10.512  -4.750  39.438  1.00  0.00     0.000 C 
BRANCH   6   7
ATOM      7  C   UNL     1       9.857  -3.545  38.741  1.00  0.00     0.006 C 
BRANCH   7   8
ATOM      8  C   UNL     1       8.368  -3.781  38.459  1.00  0.00     0.053 C 
BRANCH   8   9
ATOM      9  C   UNL     1       8.080  -3.800  36.989  1.00  0.00     0.041 C 
ATOM     10  O   UNL     1       6.925  -3.531  36.565  1.00  0.00    -0.550 OA
ATOM     11  O   UNL     1       9.097  -4.081  36.085  1.00  0.00    -0.550 OA
ENDBRANCH   8   9
ENDBRANCH   7   8
ENDBRANCH   6   7
ENDBRANCH   5   6
ENDBRANCH   4   5
ENDBRANCH   3   4
ENDBRANCH   2   3
ENDBRANCH   1   2
BRANCH   1  12
ATOM     12  C   UNL     1       8.024  -4.158  41.953  1.00  0.00     0.000 C 
BRANCH  12  13
ATOM     13  C   UNL     1       7.198  -5.267  42.630  1.00  0.00    -0.000 C 
BRANCH  13  14
ATOM     14  C   UNL     1       8.072  -6.260  43.411  1.00  0.00    -0.000 C 
BRANCH  14  15
ATOM     15  C   UNL     1       9.323  -6.696  42.631  1.00  0.00    -0.000 C 
BRANCH  15  16
ATOM     16  C   UNL     1       8.956  -7.679  41.511  1.00  0.00    -0.000 C 
BRANCH  16  17
ATOM     17  C   UNL     1       8.166  -8.900  42.018  1.00  0.00    -0.000 C 
BRANCH  17  18
ATOM     18  C   UNL     1       6.980  -9.320  41.129  1.00  0.00    -0.000 C 
BRANCH  18  19
ATOM     19  C   UNL     1       6.459 -10.727  41.454  1.00  0.00    -0.003 C 
ATOM     20  C   UNL     1       6.111 -10.857  42.933  1.00  0.00     0.004 C 
ENDBRANCH  18  19
ENDBRANCH  17  18
ENDBRANCH  16  17
ENDBRANCH  15  16
ENDBRANCH  14  15
ENDBRANCH  13  14
ENDBRANCH  12  13
ENDBRANCH   1  12
TORSDOF 16
ENDMDL
MODEL 4
REMARK VINA RESULT:    -4.220      3.054      7.621
REMARK INTER + INTRA:         -10.099
REMARK INTER:                  -8.755
REMARK INTRA:                  -1.343
REMARK UNBOUND:                -1.932
REMARK SMILES CCCCCCCCCCCCCCCCCC(=O)[O-]
REMARK SMILES IDX 10 1 11 2 12 3 13 4 14 5 15 6 16 7 17 8 18 9 19 10 20 11
REMARK SMILES IDX 9 12 8 13 7 14 6 15 5 16 4 17 3 18 2 19 1 20
REMARK H PARENT
REMARK Flexibility Score: inf
ROOT
ATOM      1  C   UNL     1       8.669  -3.731  39.897  1.00  0.00     0.000 C 
ENDROOT
BRANCH   1   2
ATOM      2  C   UNL     1       7.785  -3.523  38.655  1.00  0.00     0.000 C 
BRANCH   2   3
ATOM      3  C   UNL     1       7.022  -2.189  38.693  1.00  0.00     0.000 C 
BRANCH   3   4
ATOM      4  C   UNL     1       5.732  -2.219  37.855  1.00  0.00     0.000 C 
BRANCH   4   5
ATOM      5  C   UNL     1       5.833  -1.373  36.572  1.00  0.00     0.000 C 
BRANCH   5   6
ATOM      6  C   UNL     1       6.044  -2.183  35.279  1.00  0.00     0.000 C 
BRANCH   6   7
ATOM      7  C   UNL     1       7.514  -2.569  35.049  1.00  0.00     0.006 C 
BRANCH   7   8
ATOM      8  C   UNL     1       7.742  -4.080  35.184  1.00  0.00     0.053 C 
BRANCH   8   9
ATOM      9  C   UNL     1       9.146  -4.462  34.824  1.00  0.00     0.041 C 
ATOM     10  O   UNL     1      10.078  -3.620  34.920  1.00  0.00    -0.550 OA
ATOM     11  O   UNL     1       9.430  -5.759  34.416  1.00  0.00    -0.550 OA
ENDBRANCH   8   9
ENDBRANCH   7   8
ENDBRANCH   6   7
ENDBRANCH   5   6
ENDBRANCH   4   5
ENDBRANCH   3   4
ENDBRANCH   2   3
ENDBRANCH   1   2
BRANCH   1  12
ATOM     12  C   UNL     1       8.645  -2.524  40.848  1.00  0.00     0.000 C 
BRANCH  12  13
ATOM     13  C   UNL     1       8.632  -2.939  42.330  1.00  0.00    -0.000 C 
BRANCH  13  14
ATOM     14  C   UNL     1       8.829  -4.451  42.521  1.00  0.00    -0.000 C 
BRANCH  14  15
ATOM     15  C   UNL     1       7.565  -5.157  43.037  1.00  0.00    -0.000 C 
BRANCH  15  16
ATOM     16  C   UNL     1       7.888  -6.580  43.515  1.00  0.00    -0.000 C 
BRANCH  16  17
ATOM     17  C   UNL     1       9.199  -7.129  42.924  1.00  0.00    -0.000 C 
BRANCH  17  18
ATOM     18  C   UNL     1       9.024  -8.054  41.705  1.00  0.00    -0.000 C 
BRANCH  18  19
ATOM     19  C   UNL     1       7.559  -8.434  41.447  1.00  0.00    -0.003 C 
ATOM     20  C   UNL     1       7.318  -9.914  41.727  1.00  0.00     0.004 C 
ENDBRANCH  18  19
ENDBRANCH  17  18
ENDBRANCH  16  17
ENDBRANCH  15  16
ENDBRANCH  14  15
ENDBRANCH  13  14
ENDBRANCH  12  13
ENDBRANCH   1  12
TORSDOF 16
ENDMDL
MODEL 5
REMARK VINA RESULT:    -4.211      1.135      2.559
REMARK INTER + INTRA:         -10.082
REMARK INTER:                  -8.402
REMARK INTRA:                  -1.680
REMARK UNBOUND:                -1.932
REMARK SMILES CCCCCCCCCCCCCCCCCC(=O)[O-]
REMARK SMILES IDX 10 1 11 2 12 3 13 4 14 5 15 6 16 7 17 8 18 9 19 10 20 11
REMARK SMILES IDX 9 12 8 13 7 14 6 15 5 16 4 17 3 18 2 19 1 20
REMARK H PARENT
REMARK Flexibility Score: inf
ROOT
ATOM      1  C   UNL     1       9.800  -2.005  42.442  1.00  0.00     0.000 C 
ENDROOT
BRANCH   1   2
ATOM      2  C   UNL     1       8.660  -2.955  42.847  1.00  0.00     0.000 C 
BRANCH   2   3
ATOM      3  C   UNL     1       8.954  -4.418  42.477  1.00  0.00     0.000 C 
BRANCH   3   4
ATOM      4  C   UNL     1       7.963  -4.980  41.443  1.00  0.00     0.000 C 
BRANCH   4   5
ATOM      5  C   UNL     1       7.649  -6.471  41.664  1.00  0.00     0.000 C 
BRANCH   5   6
ATOM      6  C   UNL     1       8.879  -7.397  41.663  1.00  0.00     0.000 C 
BRANCH   6   7
ATOM      7  C   UNL     1       9.273  -7.871  43.073  1.00  0.00     0.006 C 
BRANCH   7   8
ATOM      8  C   UNL     1       8.048  -8.125  43.960  1.00  0.00     0.053 C 
BRANCH   8   9
ATOM      9  C   UNL     1       7.518  -9.515  43.785  1.00  0.00     0.041 C 
ATOM     10  O   UNL     1       7.570 -10.339  44.736  1.00  0.00    -0.550 OA
ATOM     11  O   UNL     1       6.933  -9.890  42.582  1.00  0.00    -0.550 OA
ENDBRANCH   8   9
ENDBRANCH   7   8
ENDBRANCH   6   7
ENDBRANCH   5   6
ENDBRANCH   4   5
ENDBRANCH   3   4
ENDBRANCH   2   3
ENDBRANCH   1   2
BRANCH   1  12
ATOM     12  C   UNL     1       9.749  -1.623  40.954  1.00  0.00     0.000 C 
BRANCH  12  13
ATOM     13  C   UNL     1       8.404  -0.993  40.551  1.00  0.00    -0.000 C 
BRANCH  13  14
ATOM     14  C   UNL     1       7.639  -1.843  39.524  1.00  0.00    -0.000 C 
BRANCH  14  15
ATOM     15  C   UNL     1       8.569  -2.671  38.624  1.00  0.00    -0.000 C 
BRANCH  15  16
ATOM     16  C   UNL     1       7.782  -3.750  37.867  1.00  0.00    -0.000 C 
BRANCH  16  17
ATOM     17  C   UNL     1       6.659  -3.169  36.987  1.00  0.00    -0.000 C 
BRANCH  17  18
ATOM     18  C   UNL     1       7.128  -2.575  35.645  1.00  0.00    -0.000 C 
BRANCH  18  19
ATOM     19  C   UNL     1       6.585  -1.161  35.395  1.00  0.00    -0.003 C 
ATOM     20  C   UNL     1       5.709  -0.695  36.553  1.00  0.00     0.004 C 
ENDBRANCH  18  19
ENDBRANCH  17  18
ENDBRANCH  16  17
ENDBRANCH  15  16
ENDBRANCH  14  15
ENDBRANCH  13  14
ENDBRANCH  12  13
ENDBRANCH   1  12
TORSDOF 16
ENDMDL
MODEL 6
REMARK VINA RESULT:    -4.210      2.231      4.726
REMARK INTER + INTRA:         -10.080
REMARK INTER:                  -7.730
REMARK INTRA:                  -2.350
REMARK UNBOUND:                -1.932
REMARK SMILES CCCCCCCCCCCCCCCCCC(=O)[O-]
REMARK SMILES IDX 10 1 11 2 12 3 13 4 14 5 15 6 16 7 17 8 18 9 19 10 20 11
REMARK SMILES IDX 9 12 8 13 7 14 6 15 5 16 4 17 3 18 2 19 1 20
REMARK H PARENT
REMARK Flexibility Score: inf
ROOT
ATOM      1  C   UNL     1       9.297  -3.621  38.073  1.00  0.00     0.000 C 
ENDROOT
BRANCH   1   2
ATOM      2  C   UNL     1      10.544  -3.712  38.970  1.00  0.00     0.000 C 
BRANCH   2   3
ATOM      3  C   UNL     1      10.451  -4.857  39.992  1.00  0.00     0.000 C 
BRANCH   3   4
ATOM      4  C   UNL     1      10.793  -4.405  41.422  1.00  0.00     0.000 C 
BRANCH   4   5
ATOM      5  C   UNL     1       9.945  -5.116  42.493  1.00  0.00     0.000 C 
BRANCH   5   6
ATOM      6  C   UNL     1       8.536  -4.529  42.696  1.00  0.00     0.000 C 
BRANCH   6   7
ATOM      7  C   UNL     1       7.429  -5.596  42.637  1.00  0.00     0.006 C 
BRANCH   7   8
ATOM      8  C   UNL     1       7.632  -6.575  41.474  1.00  0.00     0.053 C 
BRANCH   8   9
ATOM      9  C   UNL     1       7.651  -7.997  41.946  1.00  0.00     0.041 C 
ATOM     10  O   UNL     1       8.041  -8.275  43.112  1.00  0.00    -0.550 OA
ATOM     11  O   UNL     1       7.204  -9.013  41.110  1.00  0.00    -0.550 OA
ENDBRANCH   8   9
ENDBRANCH   7   8
ENDBRANCH   6   7
ENDBRANCH   5   6
ENDBRANCH   4   5
ENDBRANCH   3   4
ENDBRANCH   2   3
ENDBRANCH   1   2
BRANCH   1  12
ATOM     12  C   UNL     1       8.005  -3.989  38.819  1.00  0.00     0.000 C 
BRANCH  12  13
ATOM     13  C   UNL     1       7.614  -2.939  39.876  1.00  0.00    -0.000 C 
BRANCH  13  14
ATOM     14  C   UNL     1       7.707  -1.501  39.342  1.00  0.00    -0.000 C 
BRANCH  14  15
ATOM     15  C   UNL     1       8.181  -0.500  40.406  1.00  0.00    -0.000 C 
BRANCH  15  16
ATOM     16  C   UNL     1       9.148  -1.167  41.395  1.00  0.00    -0.000 C 
BRANCH  16  17
ATOM     17  C   UNL     1       9.405  -0.316  42.652  1.00  0.00    -0.000 C 
BRANCH  17  18
ATOM     18  C   UNL     1       9.542  -1.115  43.961  1.00  0.00    -0.000 C 
BRANCH  18  19
ATOM     19  C   UNL     1       8.499  -0.718  45.015  1.00  0.00    -0.003 C 
ATOM     20  C   UNL     1       8.136   0.759  44.901  1.00  0.00     0.004 C 
ENDBRANCH  18  19
ENDBRANCH  17  18
ENDBRANCH  16  17
ENDBRANCH  15  16
ENDBRANCH  14  15
ENDBRANCH  13  14
ENDBRANCH  12  13
ENDBRANCH   1  12
TORSDOF 16
ENDMDL
MODEL 7
REMARK VINA RESULT:    -4.174      2.476      3.983
REMARK INTER + INTRA:         -10.010
REMARK INTER:                  -7.331
REMARK INTRA:                  -2.679
REMARK UNBOUND:                -1.932
REMARK SMILES CCCCCCCCCCCCCCCCCC(=O)[O-]
REMARK SMILES IDX 10 1 11 2 12 3 13 4 14 5 15 6 16 7 17 8 18 9 19 10 20 11
REMARK SMILES IDX 9 12 8 13 7 14 6 15 5 16 4 17 3 18 2 19 1 20
REMARK H PARENT
REMARK Flexibility Score: inf
ROOT
ATOM      1  C   UNL     1       8.230  -1.341  41.257  1.00  0.00     0.000 C 
ENDROOT
BRANCH   1   2
ATOM      2  C   UNL     1       9.096  -2.223  42.174  1.00  0.00     0.000 C 
BRANCH   2   3
ATOM      3  C   UNL     1       8.252  -3.102  43.111  1.00  0.00     0.000 C 
BRANCH   3   4
ATOM      4  C   UNL     1       8.057  -4.529  42.572  1.00  0.00     0.000 C 
BRANCH   4   5
ATOM      5  C   UNL     1       9.388  -5.271  42.347  1.00  0.00     0.000 C 
BRANCH   5   6
ATOM      6  C   UNL     1       9.263  -6.609  41.596  1.00  0.00     0.000 C 
BRANCH   6   7
ATOM      7  C   UNL     1       7.875  -7.254  41.750  1.00  0.00     0.006 C 
BRANCH   7   8
ATOM      8  C   UNL     1       7.963  -8.702  42.251  1.00  0.00     0.053 C 
BRANCH   8   9
ATOM      9  C   UNL     1       7.867  -8.776  43.744  1.00  0.00     0.041 C 
ATOM     10  O   UNL     1       7.984  -7.732  44.441  1.00  0.00    -0.550 OA
ATOM     11  O   UNL     1       7.615  -9.992  44.365  1.00  0.00    -0.550 OA
ENDBRANCH   8   9
ENDBRANCH   7   8
ENDBRANCH   6   7
ENDBRANCH   5   6
ENDBRANCH   4   5
ENDBRANCH   3   4
ENDBRANCH   2   3
ENDBRANCH   1   2
BRANCH   1  12
ATOM     12  C   UNL     1       8.508  -1.588  39.766  1.00  0.00     0.000 C 
BRANCH  12  13
ATOM     13  C   UNL     1       7.678  -2.752  39.196  1.00  0.00    -0.000 C 
BRANCH  13  14
ATOM     14  C   UNL     1       8.505  -4.034  39.014  1.00  0.00    -0.000 C 
BRANCH  14  15
ATOM     15  C   UNL     1       9.875  -3.773  38.369  1.00  0.00    -0.000 C 
BRANCH  15  16
ATOM     16  C   UNL     1      10.987  -4.517  39.122  1.00  0.00    -0.000 C 
BRANCH  16  17
ATOM     17  C   UNL     1      11.760  -3.613  40.099  1.00  0.00    -0.000 C 
BRANCH  17  18
ATOM     18  C   UNL     1      12.467  -2.409  39.449  1.00  0.00    -0.000 C 
BRANCH  18  19
ATOM     19  C   UNL     1      12.826  -1.310  40.458  1.00  0.00    -0.003 C 
ATOM     20  C   UNL     1      11.783  -0.198  40.454  1.00  0.00     0.004 C 
ENDBRANCH  18  19
ENDBRANCH  17  18
ENDBRANCH  16  17
ENDBRANCH  15  16
ENDBRANCH  14  15
ENDBRANCH  13  14
ENDBRANCH  12  13
ENDBRANCH   1  12
TORSDOF 16
ENDMDL
MODEL 8
REMARK VINA RESULT:    -4.170      3.530      8.072
REMARK INTER + INTRA:         -10.003
REMARK INTER:                  -8.742
REMARK INTRA:                  -1.261
REMARK UNBOUND:                -1.932
REMARK SMILES CCCCCCCCCCCCCCCCCC(=O)[O-]
REMARK SMILES IDX 10 1 11 2 12 3 13 4 14 5 15 6 16 7 17 8 18 9 19 10 20 11
REMARK SMILES IDX 9 12 8 13 7 14 6 15 5 16 4 17 3 18 2 19 1 20
REMARK H PARENT
REMARK Flexibility Score: inf
ROOT
ATOM      1  C   UNL     1       7.858  -3.908  42.250  1.00  0.00     0.000 C 
ENDROOT
BRANCH   1   2
ATOM      2  C   UNL     1       9.267  -3.512  42.726  1.00  0.00     0.000 C 
BRANCH   2   3
ATOM      3  C   UNL     1       9.896  -2.414  41.854  1.00  0.00     0.000 C 
BRANCH   3   4
ATOM      4  C   UNL     1       9.083  -2.128  40.580  1.00  0.00     0.000 C 
BRANCH   4   5
ATOM      5  C   UNL     1       9.672  -2.807  39.329  1.00  0.00     0.000 C 
BRANCH   5   6
ATOM      6  C   UNL     1       8.677  -3.670  38.533  1.00  0.00     0.000 C 
BRANCH   6   7
ATOM      7  C   UNL     1       7.269  -3.055  38.469  1.00  0.00     0.006 C 
BRANCH   7   8
ATOM      8  C   UNL     1       6.668  -3.133  37.060  1.00  0.00     0.053 C 
BRANCH   8   9
ATOM      9  C   UNL     1       6.329  -1.774  36.527  1.00  0.00     0.041 C 
ATOM     10  O   UNL     1       6.963  -1.300  35.547  1.00  0.00    -0.550 OA
ATOM     11  O   UNL     1       5.290  -1.045  37.092  1.00  0.00    -0.550 OA
ENDBRANCH   8   9
ENDBRANCH   7   8
ENDBRANCH   6   7
ENDBRANCH   5   6
ENDBRANCH   4   5
ENDBRANCH   3   4
ENDBRANCH   2   3
ENDBRANCH   1   2
BRANCH   1  12
ATOM     12  C   UNL     1       7.327  -5.164  42.958  1.00  0.00     0.000 C 
BRANCH  12  13
ATOM     13  C   UNL     1       8.273  -6.369  42.812  1.00  0.00    -0.000 C 
BRANCH  13  14
ATOM     14  C   UNL     1       7.800  -7.366  41.743  1.00  0.00    -0.000 C 
BRANCH  14  15
ATOM     15  C   UNL     1       7.947  -8.830  42.185  1.00  0.00    -0.000 C 
BRANCH  15  16
ATOM     16  C   UNL     1       8.014  -8.936  43.715  1.00  0.00    -0.000 C 
BRANCH  16  17
ATOM     17  C   UNL     1       7.202 -10.119  44.272  1.00  0.00    -0.000 C 
BRANCH  17  18
ATOM     18  C   UNL     1       6.843 -11.204  43.239  1.00  0.00    -0.000 C 
BRANCH  18  19
ATOM     19  C   UNL     1       5.334 -11.301  42.973  1.00  0.00    -0.003 C 
ATOM     20  C   UNL     1       5.029 -11.184  41.484  1.00  0.00     0.004 C 
ENDBRANCH  18  19
ENDBRANCH  17  18
ENDBRANCH  16  17
ENDBRANCH  15  16
ENDBRANCH  14  15
ENDBRANCH  13  14
ENDBRANCH  12  13
ENDBRANCH   1  12
TORSDOF 16
ENDMDL
MODEL 9
REMARK VINA RESULT:    -4.112      3.185      6.616
REMARK INTER + INTRA:          -9.890
REMARK INTER:                  -7.319
REMARK INTRA:                  -2.571
REMARK UNBOUND:                -1.932
REMARK SMILES CCCCCCCCCCCCCCCCCC(=O)[O-]
REMARK SMILES IDX 10 1 11 2 12 3 13 4 14 5 15 6 16 7 17 8 18 9 19 10 20 11
REMARK SMILES IDX 9 12 8 13 7 14 6 15 5 16 4 17 3 18 2 19 1 20
REMARK H PARENT
REMARK Flexibility Score: inf
ROOT
ATOM      1  C   UNL     1       9.025  -1.560  43.633  1.00  0.00     0.000 C 
ENDROOT
BRANCH   1   2
ATOM      2  C   UNL     1       9.042  -0.459  42.559  1.00  0.00     0.000 C 
BRANCH   2   3
ATOM      3  C   UNL     1       8.560  -0.964  41.190  1.00  0.00     0.000 C 
BRANCH   3   4
ATOM      4  C   UNL     1       8.152  -2.447  41.214  1.00  0.00     0.000 C 
BRANCH   4   5
ATOM      5  C   UNL     1       8.642  -3.222  39.976  1.00  0.00     0.000 C 
BRANCH   5   6
ATOM      6  C   UNL     1       9.188  -4.631  40.270  1.00  0.00     0.000 C 
BRANCH   6   7
ATOM      7  C   UNL     1       9.794  -4.756  41.678  1.00  0.00     0.006 C 
BRANCH   7   8
ATOM      8  C   UNL     1       9.058  -5.795  42.533  1.00  0.00     0.053 C 
BRANCH   8   9
ATOM      9  C   UNL     1       8.699  -7.012  41.736  1.00  0.00     0.041 C 
ATOM     10  O   UNL     1       7.497  -7.244  41.439  1.00  0.00    -0.550 OA
ATOM     11  O   UNL     1       9.696  -7.870  41.290  1.00  0.00    -0.550 OA
ENDBRANCH   8   9
ENDBRANCH   7   8
ENDBRANCH   6   7
ENDBRANCH   5   6
ENDBRANCH   4   5
ENDBRANCH   3   4
ENDBRANCH   2   3
ENDBRANCH   1   2
BRANCH   1  12
ATOM     12  C   UNL     1       8.474  -1.065  44.979  1.00  0.00     0.000 C 
BRANCH  12  13
ATOM     13  C   UNL     1       9.171   0.218  45.466  1.00  0.00    -0.000 C 
BRANCH  13  14
ATOM     14  C   UNL     1      10.374  -0.073  46.377  1.00  0.00    -0.000 C 
BRANCH  14  15
ATOM     15  C   UNL     1      11.601   0.786  46.036  1.00  0.00    -0.000 C 
BRANCH  15  16
ATOM     16  C   UNL     1      11.903   0.738  44.531  1.00  0.00    -0.000 C 
BRANCH  16  17
ATOM     17  C   UNL     1      12.513  -0.602  44.083  1.00  0.00    -0.000 C 
BRANCH  17  18
ATOM     18  C   UNL     1      12.809  -0.709  42.575  1.00  0.00    -0.000 C 
BRANCH  18  19
ATOM     19  C   UNL     1      12.328  -2.033  41.964  1.00  0.00    -0.003 C 
ATOM     20  C   UNL     1      12.099  -1.894  40.463  1.00  0.00     0.004 C 
ENDBRANCH  18  19
ENDBRANCH  17  18
ENDBRANCH  16  17
ENDBRANCH  15  16
ENDBRANCH  14  15
ENDBRANCH  13  14
ENDBRANCH  12  13
ENDBRANCH   1  12
TORSDOF 16
ENDMDL
