MODEL 1
REMARK VINA RESULT:    -3.970      0.000      0.000
REMARK INTER + INTRA:         -11.982
REMARK INTER:                  -9.076
REMARK INTRA:                  -2.906
REMARK UNBOUND:                -2.906
REMARK SMILES CCCCCCCCCCCCCCCCCCCCCCCC(=O)[O-]
REMARK SMILES IDX 13 1 14 2 15 3 16 4 17 5 18 6 19 7 20 8 21 9 22 10 23 11
REMARK SMILES IDX 24 12 25 13 26 14 12 15 11 16 10 17 9 18 8 19 7 20 6 21 5 22
REMARK SMILES IDX 4 23 3 24 2 25 1 26
REMARK H PARENT
REMARK Flexibility Score: inf
ROOT
ATOM      1  C   UNL     1     -17.613 -18.152   2.587  1.00  0.00     0.000 C 
ENDROOT
BRANCH   1   2
ATOM      2  C   UNL     1     -18.056 -16.967   1.708  1.00  0.00     0.000 C 
BRANCH   2   3
ATOM      3  C   UNL     1     -19.504 -17.049   1.186  1.00  0.00     0.000 C 
BRANCH   3   4
ATOM      4  C   UNL     1     -20.215 -15.693   1.015  1.00  0.00     0.000 C 
BRANCH   4   5
ATOM      5  C   UNL     1     -19.486 -14.513   1.693  1.00  0.00     0.000 C 
BRANCH   5   6
ATOM      6  C   UNL     1     -18.765 -13.603   0.682  1.00  0.00     0.000 C 
BRANCH   6   7
ATOM      7  C   UNL     1     -17.255 -13.501   0.949  1.00  0.00     0.000 C 
BRANCH   7   8
ATOM      8  C   UNL     1     -16.408 -13.927  -0.261  1.00  0.00     0.000 C 
BRANCH   8   9
ATOM      9  C   UNL     1     -17.192 -14.883  -1.169  1.00  0.00     0.000 C 
BRANCH   9  10
ATOM     10  C   UNL     1     -17.129 -14.424  -2.634  1.00  0.00     0.006 C 
BRANCH  10  11
ATOM     11  C   UNL     1     -18.404 -13.692  -3.070  1.00  0.00     0.053 C 
BRANCH  11  12
ATOM     12  C   UNL     1     -18.318 -12.219  -2.809  1.00  0.00     0.041 C 
ATOM     13  O   UNL     1     -17.196 -11.651  -2.739  1.00  0.00    -0.550 OA
ATOM     14  O   UNL     1     -19.478 -11.468  -2.678  1.00  0.00    -0.550 OA
ENDBRANCH  11  12
ENDBRANCH  10  11
ENDBRANCH   9  10
ENDBRANCH   8   9
ENDBRANCH   7   8
ENDBRANCH   6   7
ENDBRANCH   5   6
ENDBRANCH   4   5
ENDBRANCH   3   4
ENDBRANCH   2   3
ENDBRANCH   1   2
BRANCH   1  15
ATOM     15  C   UNL     1     -17.089 -19.379   1.816  1.00  0.00     0.000 C 
BRANCH  15  16
ATOM     16  C   UNL     1     -16.052 -20.216   2.595  1.00  0.00     0.000 C 
BRANCH  16  17
ATOM     17  C   UNL     1     -15.749 -19.632   3.984  1.00  0.00     0.000 C 
BRANCH  17  18
ATOM     18  C   UNL     1     -16.236 -20.535   5.131  1.00  0.00    -0.000 C 
BRANCH  18  19
ATOM     19  C   UNL     1     -17.756 -20.437   5.382  1.00  0.00    -0.000 C 
BRANCH  19  20
ATOM     20  C   UNL     1     -18.468 -21.790   5.205  1.00  0.00    -0.000 C 
BRANCH  20  21
ATOM     21  C   UNL     1     -18.940 -22.030   3.762  1.00  0.00    -0.000 C 
BRANCH  21  22
ATOM     22  C   UNL     1     -20.362 -21.501   3.507  1.00  0.00    -0.000 C 
BRANCH  22  23
ATOM     23  C   UNL     1     -20.429 -20.511   2.330  1.00  0.00    -0.000 C 
BRANCH  23  24
ATOM     24  C   UNL     1     -21.377 -20.919   1.187  1.00  0.00    -0.000 C 
BRANCH  24  25
ATOM     25  C   UNL     1     -21.292 -19.978  -0.023  1.00  0.00    -0.003 C 
ATOM     26  C   UNL     1     -21.567 -20.730  -1.323  1.00  0.00     0.004 C 
ENDBRANCH  24  25
ENDBRANCH  23  24
ENDBRANCH  22  23
ENDBRANCH  21  22
ENDBRANCH  20  21
ENDBRANCH  19  20
ENDBRANCH  18  19
ENDBRANCH  17  18
ENDBRANCH  16  17
ENDBRANCH  15  16
ENDBRANCH   1  15
TORSDOF 22
ENDMDL
MODEL 2
REMARK VINA RESULT:    -3.916      3.458      7.995
REMARK INTER + INTRA:         -11.857
REMARK INTER:                  -8.546
REMARK INTRA:                  -3.311
REMARK UNBOUND:                -2.906
REMARK SMILES CCCCCCCCCCCCCCCCCCCCCCCC(=O)[O-]
REMARK SMILES IDX 13 1 14 2 15 3 16 4 17 5 18 6 19 7 20 8 21 9 22 10 23 11
REMARK SMILES IDX 24 12 25 13 26 14 12 15 11 16 10 17 9 18 8 19 7 20 6 21 5 22
REMARK SMILES IDX 4 23 3 24 2 25 1 26
REMARK H PARENT
REMARK Flexibility Score: inf
ROOT
ATOM      1  C   UNL     1     -17.568 -18.614   1.742  1.00  0.00     0.000 C 
ENDROOT
BRANCH   1   2
ATOM      2  C   UNL     1     -16.862 -19.942   2.076  1.00  0.00     0.000 C 
BRANCH   2   3
ATOM      3  C   UNL     1     -16.469 -20.117   3.556  1.00  0.00     0.000 C 
BRANCH   3   4
ATOM      4  C   UNL     1     -17.466 -20.926   4.407  1.00  0.00     0.000 C 
BRANCH   4   5
ATOM      5  C   UNL     1     -18.479 -21.743   3.577  1.00  0.00     0.000 C 
BRANCH   5   6
ATOM      6  C   UNL     1     -19.913 -21.192   3.683  1.00  0.00     0.000 C 
BRANCH   6   7
ATOM      7  C   UNL     1     -20.540 -20.907   2.308  1.00  0.00     0.000 C 
BRANCH   7   8
ATOM      8  C   UNL     1     -21.281 -19.562   2.261  1.00  0.00     0.000 C 
BRANCH   8   9
ATOM      9  C   UNL     1     -21.270 -18.980   0.843  1.00  0.00     0.000 C 
BRANCH   9  10
ATOM     10  C   UNL     1     -20.872 -20.049  -0.187  1.00  0.00     0.006 C 
BRANCH  10  11
ATOM     11  C   UNL     1     -22.050 -20.467  -1.076  1.00  0.00     0.053 C 
BRANCH  11  12
ATOM     12  C   UNL     1     -22.827 -21.598  -0.475  1.00  0.00     0.041 C 
ATOM     13  O   UNL     1     -23.765 -21.367   0.332  1.00  0.00    -0.550 OA
ATOM     14  O   UNL     1     -22.537 -22.908  -0.835  1.00  0.00    -0.550 OA
ENDBRANCH  11  12
ENDBRANCH  10  11
ENDBRANCH   9  10
ENDBRANCH   8   9
ENDBRANCH   7   8
ENDBRANCH   6   7
ENDBRANCH   5   6
ENDBRANCH   4   5
ENDBRANCH   3   4
ENDBRANCH   2   3
ENDBRANCH   1   2
BRANCH   1  15
ATOM     15  C   UNL     1     -18.138 -17.854   2.954  1.00  0.00     0.000 C 
BRANCH  15  16
ATOM     16  C   UNL     1     -18.547 -16.397   2.647  1.00  0.00     0.000 C 
BRANCH  16  17
ATOM     17  C   UNL     1     -17.545 -15.687   1.722  1.00  0.00     0.000 C 
BRANCH  17  18
ATOM     18  C   UNL     1     -18.191 -15.177   0.422  1.00  0.00    -0.000 C 
BRANCH  18  19
ATOM     19  C   UNL     1     -19.724 -15.354   0.391  1.00  0.00    -0.000 C 
BRANCH  19  20
ATOM     20  C   UNL     1     -20.469 -14.007   0.372  1.00  0.00    -0.000 C 
BRANCH  20  21
ATOM     21  C   UNL     1     -19.865 -13.007  -0.627  1.00  0.00    -0.000 C 
BRANCH  21  22
ATOM     22  C   UNL     1     -20.351 -13.239  -2.067  1.00  0.00    -0.000 C 
BRANCH  22  23
ATOM     23  C   UNL     1     -19.227 -13.094  -3.109  1.00  0.00    -0.000 C 
BRANCH  23  24
ATOM     24  C   UNL     1     -18.187 -14.230  -3.110  1.00  0.00    -0.000 C 
BRANCH  24  25
ATOM     25  C   UNL     1     -16.780 -13.750  -2.730  1.00  0.00    -0.003 C 
ATOM     26  C   UNL     1     -16.786 -12.270  -2.358  1.00  0.00     0.004 C 
ENDBRANCH  24  25
ENDBRANCH  23  24
ENDBRANCH  22  23
ENDBRANCH  21  22
ENDBRANCH  20  21
ENDBRANCH  19  20
ENDBRANCH  18  19
ENDBRANCH  17  18
ENDBRANCH  16  17
ENDBRANCH  15  16
ENDBRANCH   1  15
TORSDOF 22
ENDMDL
MODEL 3
REMARK VINA RESULT:    -3.855      1.402      2.386
REMARK INTER + INTRA:         -11.720
REMARK INTER:                  -9.303
REMARK INTRA:                  -2.417
REMARK UNBOUND:                -2.906
REMARK SMILES CCCCCCCCCCCCCCCCCCCCCCCC(=O)[O-]
REMARK SMILES IDX 13 1 14 2 15 3 16 4 17 5 18 6 19 7 20 8 21 9 22 10 23 11
REMARK SMILES IDX 24 12 25 13 26 14 12 15 11 16 10 17 9 18 8 19 7 20 6 21 5 22
REMARK SMILES IDX 4 23 3 24 2 25 1 26
REMARK H PARENT
REMARK Flexibility Score: inf
ROOT
ATOM      1  C   UNL     1     -17.923 -16.923   2.545  1.00  0.00     0.000 C 
ENDROOT
BRANCH   1   2
ATOM      2  C   UNL     1     -18.712 -16.067   1.536  1.00  0.00     0.000 C 
BRANCH   2   3
ATOM      3  C   UNL     1     -17.859 -15.413   0.431  1.00  0.00     0.000 C 
BRANCH   3   4
ATOM      4  C   UNL     1     -17.208 -14.071   0.816  1.00  0.00     0.000 C 
BRANCH   4   5
ATOM      5  C   UNL     1     -16.149 -13.578  -0.193  1.00  0.00     0.000 C 
BRANCH   5   6
ATOM      6  C   UNL     1     -16.577 -12.288  -0.918  1.00  0.00     0.000 C 
BRANCH   6   7
ATOM      7  C   UNL     1     -16.781 -12.498  -2.427  1.00  0.00     0.000 C 
BRANCH   7   8
ATOM      8  C   UNL     1     -17.174 -13.942  -2.778  1.00  0.00     0.000 C 
BRANCH   8   9
ATOM      9  C   UNL     1     -18.503 -13.977  -3.543  1.00  0.00     0.000 C 
BRANCH   9  10
ATOM     10  C   UNL     1     -19.635 -13.360  -2.707  1.00  0.00     0.006 C 
BRANCH  10  11
ATOM     11  C   UNL     1     -20.606 -12.536  -3.561  1.00  0.00     0.053 C 
BRANCH  11  12
ATOM     12  C   UNL     1     -19.888 -11.725  -4.595  1.00  0.00     0.041 C 
ATOM     13  O   UNL     1     -19.272 -10.676  -4.266  1.00  0.00    -0.550 OA
ATOM     14  O   UNL     1     -19.869 -12.146  -5.918  1.00  0.00    -0.550 OA
ENDBRANCH  11  12
ENDBRANCH  10  11
ENDBRANCH   9  10
ENDBRANCH   8   9
ENDBRANCH   7   8
ENDBRANCH   6   7
ENDBRANCH   5   6
ENDBRANCH   4   5
ENDBRANCH   3   4
ENDBRANCH   2   3
ENDBRANCH   1   2
BRANCH   1  15
ATOM     15  C   UNL     1     -18.302 -18.416   2.575  1.00  0.00     0.000 C 
BRANCH  15  16
ATOM     16  C   UNL     1     -17.340 -19.325   1.781  1.00  0.00     0.000 C 
BRANCH  16  17
ATOM     17  C   UNL     1     -16.502 -20.235   2.693  1.00  0.00     0.000 C 
BRANCH  17  18
ATOM     18  C   UNL     1     -17.223 -20.594   4.003  1.00  0.00    -0.000 C 
BRANCH  18  19
ATOM     19  C   UNL     1     -18.197 -21.783   3.860  1.00  0.00    -0.000 C 
BRANCH  19  20
ATOM     20  C   UNL     1     -19.539 -21.531   4.572  1.00  0.00    -0.000 C 
BRANCH  20  21
ATOM     21  C   UNL     1     -20.752 -21.866   3.689  1.00  0.00    -0.000 C 
BRANCH  21  22
ATOM     22  C   UNL     1     -20.564 -21.425   2.228  1.00  0.00    -0.000 C 
BRANCH  22  23
ATOM     23  C   UNL     1     -21.838 -21.599   1.382  1.00  0.00    -0.000 C 
BRANCH  23  24
ATOM     24  C   UNL     1     -21.830 -20.863   0.029  1.00  0.00    -0.000 C 
BRANCH  24  25
ATOM     25  C   UNL     1     -20.922 -19.627   0.027  1.00  0.00    -0.003 C 
ATOM     26  C   UNL     1     -21.663 -18.400   0.553  1.00  0.00     0.004 C 
ENDBRANCH  24  25
ENDBRANCH  23  24
ENDBRANCH  22  23
ENDBRANCH  21  22
ENDBRANCH  20  21
ENDBRANCH  19  20
ENDBRANCH  18  19
ENDBRANCH  17  18
ENDBRANCH  16  17
ENDBRANCH  15  16
ENDBRANCH   1  15
TORSDOF 22
ENDMDL
MODEL 4
REMARK VINA RESULT:    -3.847      4.233      8.362
REMARK INTER + INTRA:         -11.700
REMARK INTER:                  -8.329
REMARK INTRA:                  -3.372
REMARK UNBOUND:                -2.906
REMARK SMILES CCCCCCCCCCCCCCCCCCCCCCCC(=O)[O-]
REMARK SMILES IDX 13 1 14 2 15 3 16 4 17 5 18 6 19 7 20 8 21 9 22 10 23 11
REMARK SMILES IDX 24 12 25 13 26 14 12 15 11 16 10 17 9 18 8 19 7 20 6 21 5 22
REMARK SMILES IDX 4 23 3 24 2 25 1 26
REMARK H PARENT
REMARK Flexibility Score: inf
ROOT
ATOM      1  C   UNL     1     -14.215 -12.588   4.162  1.00  0.00     0.000 C 
ENDROOT
BRANCH   1   2
ATOM      2  C   UNL     1     -15.695 -12.662   3.744  1.00  0.00     0.000 C 
BRANCH   2   3
ATOM      3  C   UNL     1     -16.138 -14.015   3.151  1.00  0.00     0.000 C 
BRANCH   3   4
ATOM      4  C   UNL     1     -17.203 -13.925   2.040  1.00  0.00     0.000 C 
BRANCH   4   5
ATOM      5  C   UNL     1     -17.255 -15.164   1.122  1.00  0.00     0.000 C 
BRANCH   5   6
ATOM      6  C   UNL     1     -18.695 -15.562   0.746  1.00  0.00     0.000 C 
BRANCH   6   7
ATOM      7  C   UNL     1     -19.111 -16.914   1.348  1.00  0.00     0.000 C 
BRANCH   7   8
ATOM      8  C   UNL     1     -17.935 -17.661   1.998  1.00  0.00     0.000 C 
BRANCH   8   9
ATOM      9  C   UNL     1     -17.862 -19.109   1.497  1.00  0.00     0.000 C 
BRANCH   9  10
ATOM     10  C   UNL     1     -16.591 -19.804   2.011  1.00  0.00     0.006 C 
BRANCH  10  11
ATOM     11  C   UNL     1     -16.869 -20.700   3.224  1.00  0.00     0.053 C 
BRANCH  11  12
ATOM     12  C   UNL     1     -16.147 -20.222   4.447  1.00  0.00     0.041 C 
ATOM     13  O   UNL     1     -16.470 -20.654   5.585  1.00  0.00    -0.550 OA
ATOM     14  O   UNL     1     -15.094 -19.324   4.325  1.00  0.00    -0.550 OA
ENDBRANCH  11  12
ENDBRANCH  10  11
ENDBRANCH   9  10
ENDBRANCH   8   9
ENDBRANCH   7   8
ENDBRANCH   6   7
ENDBRANCH   5   6
ENDBRANCH   4   5
ENDBRANCH   3   4
ENDBRANCH   2   3
ENDBRANCH   1   2
BRANCH   1  15
ATOM     15  C   UNL     1     -13.564 -13.941   4.509  1.00  0.00     0.000 C 
BRANCH  15  16
ATOM     16  C   UNL     1     -12.306 -14.266   3.676  1.00  0.00     0.000 C 
BRANCH  16  17
ATOM     17  C   UNL     1     -12.079 -13.260   2.536  1.00  0.00     0.000 C 
BRANCH  17  18
ATOM     18  C   UNL     1     -12.459 -13.825   1.156  1.00  0.00    -0.000 C 
BRANCH  18  19
ATOM     19  C   UNL     1     -13.757 -13.217   0.583  1.00  0.00    -0.000 C 
BRANCH  19  20
ATOM     20  C   UNL     1     -13.715 -11.679   0.540  1.00  0.00    -0.000 C 
BRANCH  20  21
ATOM     21  C   UNL     1     -14.734 -11.083  -0.445  1.00  0.00    -0.000 C 
BRANCH  21  22
ATOM     22  C   UNL     1     -16.159 -11.037   0.131  1.00  0.00    -0.000 C 
BRANCH  22  23
ATOM     23  C   UNL     1     -17.199 -11.694  -0.794  1.00  0.00    -0.000 C 
BRANCH  23  24
ATOM     24  C   UNL     1     -16.629 -12.308  -2.086  1.00  0.00    -0.000 C 
BRANCH  24  25
ATOM     25  C   UNL     1     -17.564 -13.351  -2.714  1.00  0.00    -0.003 C 
ATOM     26  C   UNL     1     -16.988 -14.758  -2.574  1.00  0.00     0.004 C 
ENDBRANCH  24  25
ENDBRANCH  23  24
ENDBRANCH  22  23
ENDBRANCH  21  22
ENDBRANCH  20  21
ENDBRANCH  19  20
ENDBRANCH  18  19
ENDBRANCH  17  18
ENDBRANCH  16  17
ENDBRANCH  15  16
ENDBRANCH   1  15
TORSDOF 22
ENDMDL
MODEL 5
REMARK VINA RESULT:    -3.788      3.267      7.635
REMARK INTER + INTRA:         -11.567
REMARK INTER:                  -8.526
REMARK INTRA:                  -3.040
REMARK UNBOUND:                -2.906
REMARK SMILES CCCCCCCCCCCCCCCCCCCCCCCC(=O)[O-]
REMARK SMILES IDX 13 1 14 2 15 3 16 4 17 5 18 6 19 7 20 8 21 9 22 10 23 11
REMARK SMILES IDX 24 12 25 13 26 14 12 15 11 16 10 17 9 18 8 19 7 20 6 21 5 22
REMARK SMILES IDX 4 23 3 24 2 25 1 26
REMARK H PARENT
REMARK Flexibility Score: inf
ROOT
ATOM      1  C   UNL     1     -22.238 -19.837  -1.596  1.00  0.00     0.000 C 
ENDROOT
BRANCH   1   2
ATOM      2  C   UNL     1     -21.444 -20.673  -0.574  1.00  0.00     0.000 C 
BRANCH   2   3
ATOM      3  C   UNL     1     -22.300 -21.358   0.511  1.00  0.00     0.000 C 
BRANCH   3   4
ATOM      4  C   UNL     1     -21.597 -21.561   1.867  1.00  0.00     0.000 C 
BRANCH   4   5
ATOM      5  C   UNL     1     -20.156 -21.011   1.913  1.00  0.00     0.000 C 
BRANCH   5   6
ATOM      6  C   UNL     1     -19.574 -20.994   3.339  1.00  0.00     0.000 C 
BRANCH   6   7
ATOM      7  C   UNL     1     -18.071 -21.317   3.369  1.00  0.00     0.000 C 
BRANCH   7   8
ATOM      8  C   UNL     1     -17.242 -20.366   2.492  1.00  0.00     0.000 C 
BRANCH   8   9
ATOM      9  C   UNL     1     -15.822 -20.207   3.047  1.00  0.00     0.000 C 
BRANCH   9  10
ATOM     10  C   UNL     1     -15.853 -19.800   4.529  1.00  0.00     0.006 C 
BRANCH  10  11
ATOM     11  C   UNL     1     -16.297 -18.345   4.723  1.00  0.00     0.053 C 
BRANCH  11  12
ATOM     12  C   UNL     1     -15.279 -17.549   5.480  1.00  0.00     0.041 C 
ATOM     13  O   UNL     1     -14.055 -17.828   5.385  1.00  0.00    -0.550 OA
ATOM     14  O   UNL     1     -15.680 -16.475   6.264  1.00  0.00    -0.550 OA
ENDBRANCH  11  12
ENDBRANCH  10  11
ENDBRANCH   9  10
ENDBRANCH   8   9
ENDBRANCH   7   8
ENDBRANCH   6   7
ENDBRANCH   5   6
ENDBRANCH   4   5
ENDBRANCH   3   4
ENDBRANCH   2   3
ENDBRANCH   1   2
BRANCH   1  15
ATOM     15  C   UNL     1     -23.272 -18.870  -0.989  1.00  0.00     0.000 C 
BRANCH  15  16
ATOM     16  C   UNL     1     -22.650 -17.659  -0.263  1.00  0.00     0.000 C 
BRANCH  16  17
ATOM     17  C   UNL     1     -22.991 -17.633   1.236  1.00  0.00     0.000 C 
BRANCH  17  18
ATOM     18  C   UNL     1     -21.743 -17.678   2.134  1.00  0.00    -0.000 C 
BRANCH  18  19
ATOM     19  C   UNL     1     -20.419 -17.598   1.344  1.00  0.00    -0.000 C 
BRANCH  19  20
ATOM     20  C   UNL     1     -19.198 -17.415   2.264  1.00  0.00    -0.000 C 
BRANCH  20  21
ATOM     21  C   UNL     1     -17.988 -16.811   1.533  1.00  0.00    -0.000 C 
BRANCH  21  22
ATOM     22  C   UNL     1     -18.141 -15.303   1.276  1.00  0.00    -0.000 C 
BRANCH  22  23
ATOM     23  C   UNL     1     -17.941 -14.925  -0.203  1.00  0.00    -0.000 C 
BRANCH  23  24
ATOM     24  C   UNL     1     -16.936 -13.785  -0.455  1.00  0.00    -0.000 C 
BRANCH  24  25
ATOM     25  C   UNL     1     -16.854 -13.378  -1.932  1.00  0.00    -0.003 C 
ATOM     26  C   UNL     1     -17.236 -14.542  -2.844  1.00  0.00     0.004 C 
ENDBRANCH  24  25
ENDBRANCH  23  24
ENDBRANCH  22  23
ENDBRANCH  21  22
ENDBRANCH  20  21
ENDBRANCH  19  20
ENDBRANCH  18  19
ENDBRANCH  17  18
ENDBRANCH  16  17
ENDBRANCH  15  16
ENDBRANCH   1  15
TORSDOF 22
ENDMDL
MODEL 6
REMARK VINA RESULT:    -3.772      3.442      8.506
REMARK INTER + INTRA:         -11.530
REMARK INTER:                  -8.987
REMARK INTRA:                  -2.543
REMARK UNBOUND:                -2.906
REMARK SMILES CCCCCCCCCCCCCCCCCCCCCCCC(=O)[O-]
REMARK SMILES IDX 13 1 14 2 15 3 16 4 17 5 18 6 19 7 20 8 21 9 22 10 23 11
REMARK SMILES IDX 24 12 25 13 26 14 12 15 11 16 10 17 9 18 8 19 7 20 6 21 5 22
REMARK SMILES IDX 4 23 3 24 2 25 1 26
REMARK H PARENT
REMARK Flexibility Score: inf
ROOT
ATOM      1  C   UNL     1     -18.787 -16.728   2.487  1.00  0.00     0.000 C 
ENDROOT
BRANCH   1   2
ATOM      2  C   UNL     1     -17.597 -17.674   2.732  1.00  0.00     0.000 C 
BRANCH   2   3
ATOM      3  C   UNL     1     -17.463 -18.828   1.718  1.00  0.00     0.000 C 
BRANCH   3   4
ATOM      4  C   UNL     1     -16.807 -20.109   2.269  1.00  0.00     0.000 C 
BRANCH   4   5
ATOM      5  C   UNL     1     -17.388 -20.581   3.618  1.00  0.00     0.000 C 
BRANCH   5   6
ATOM      6  C   UNL     1     -18.494 -21.639   3.449  1.00  0.00     0.000 C 
BRANCH   6   7
ATOM      7  C   UNL     1     -19.906 -21.037   3.528  1.00  0.00     0.000 C 
BRANCH   7   8
ATOM      8  C   UNL     1     -20.725 -21.274   2.250  1.00  0.00     0.000 C 
BRANCH   8   9
ATOM      9  C   UNL     1     -20.941 -19.961   1.486  1.00  0.00     0.000 C 
BRANCH   9  10
ATOM     10  C   UNL     1     -21.304 -20.233   0.018  1.00  0.00     0.006 C 
BRANCH  10  11
ATOM     11  C   UNL     1     -22.000 -21.587  -0.168  1.00  0.00     0.053 C 
BRANCH  11  12
ATOM     12  C   UNL     1     -23.490 -21.445  -0.214  1.00  0.00     0.041 C 
ATOM     13  O   UNL     1     -24.226 -22.468  -0.213  1.00  0.00    -0.550 OA
ATOM     14  O   UNL     1     -24.068 -20.182  -0.223  1.00  0.00    -0.550 OA
ENDBRANCH  11  12
ENDBRANCH  10  11
ENDBRANCH   9  10
ENDBRANCH   8   9
ENDBRANCH   7   8
ENDBRANCH   6   7
ENDBRANCH   5   6
ENDBRANCH   4   5
ENDBRANCH   3   4
ENDBRANCH   2   3
ENDBRANCH   1   2
BRANCH   1  15
ATOM     15  C   UNL     1     -18.932 -16.219   1.040  1.00  0.00     0.000 C 
BRANCH  15  16
ATOM     16  C   UNL     1     -17.720 -15.408   0.535  1.00  0.00     0.000 C 
BRANCH  16  17
ATOM     17  C   UNL     1     -17.311 -14.291   1.509  1.00  0.00     0.000 C 
BRANCH  17  18
ATOM     18  C   UNL     1     -15.829 -13.898   1.377  1.00  0.00    -0.000 C 
BRANCH  18  19
ATOM     19  C   UNL     1     -15.595 -12.373   1.430  1.00  0.00    -0.000 C 
BRANCH  19  20
ATOM     20  C   UNL     1     -16.625 -11.592   0.593  1.00  0.00    -0.000 C 
BRANCH  20  21
ATOM     21  C   UNL     1     -15.975 -10.536  -0.316  1.00  0.00    -0.000 C 
BRANCH  21  22
ATOM     22  C   UNL     1     -16.263 -10.778  -1.807  1.00  0.00    -0.000 C 
BRANCH  22  23
ATOM     23  C   UNL     1     -16.563 -12.254  -2.126  1.00  0.00    -0.000 C 
BRANCH  23  24
ATOM     24  C   UNL     1     -17.973 -12.530  -2.681  1.00  0.00    -0.000 C 
BRANCH  24  25
ATOM     25  C   UNL     1     -18.138 -13.962  -3.206  1.00  0.00    -0.003 C 
ATOM     26  C   UNL     1     -16.945 -14.830  -2.817  1.00  0.00     0.004 C 
ENDBRANCH  24  25
ENDBRANCH  23  24
ENDBRANCH  22  23
ENDBRANCH  21  22
ENDBRANCH  20  21
ENDBRANCH  19  20
ENDBRANCH  18  19
ENDBRANCH  17  18
ENDBRANCH  16  17
ENDBRANCH  15  16
ENDBRANCH   1  15
TORSDOF 22
ENDMDL
MODEL 7
REMARK VINA RESULT:    -3.760      2.901      5.573
REMARK INTER + INTRA:         -11.503
REMARK INTER:                  -8.356
REMARK INTRA:                  -3.146
REMARK UNBOUND:                -2.906
REMARK SMILES CCCCCCCCCCCCCCCCCCCCCCCC(=O)[O-]
REMARK SMILES IDX 13 1 14 2 15 3 16 4 17 5 18 6 19 7 20 8 21 9 22 10 23 11
REMARK SMILES IDX 24 12 25 13 26 14 12 15 11 16 10 17 9 18 8 19 7 20 6 21 5 22
REMARK SMILES IDX 4 23 3 24 2 25 1 26
REMARK H PARENT
REMARK Flexibility Score: inf
ROOT
ATOM      1  C   UNL     1     -17.841 -14.988   1.167  1.00  0.00     0.000 C 
ENDROOT
BRANCH   1   2
ATOM      2  C   UNL     1     -18.180 -14.856  -0.330  1.00  0.00     0.000 C 
BRANCH   2   3
ATOM      3  C   UNL     1     -16.979 -15.012  -1.285  1.00  0.00     0.000 C 
BRANCH   3   4
ATOM      4  C   UNL     1     -17.144 -14.335  -2.659  1.00  0.00     0.000 C 
BRANCH   4   5
ATOM      5  C   UNL     1     -18.333 -13.354  -2.735  1.00  0.00     0.000 C 
BRANCH   5   6
ATOM      6  C   UNL     1     -17.931 -11.908  -2.390  1.00  0.00     0.000 C 
BRANCH   6   7
ATOM      7  C   UNL     1     -16.412 -11.683  -2.468  1.00  0.00     0.000 C 
BRANCH   7   8
ATOM      8  C   UNL     1     -15.871 -10.867  -1.283  1.00  0.00     0.000 C 
BRANCH   8   9
ATOM      9  C   UNL     1     -16.134 -11.588   0.044  1.00  0.00     0.000 C 
BRANCH   9  10
ATOM     10  C   UNL     1     -14.965 -12.517   0.406  1.00  0.00     0.006 C 
BRANCH  10  11
ATOM     11  C   UNL     1     -13.911 -11.816   1.271  1.00  0.00     0.053 C 
BRANCH  11  12
ATOM     12  C   UNL     1     -12.518 -12.143   0.826  1.00  0.00     0.041 C 
ATOM     13  O   UNL     1     -12.149 -13.342   0.724  1.00  0.00    -0.550 OA
ATOM     14  O   UNL     1     -11.639 -11.121   0.490  1.00  0.00    -0.550 OA
ENDBRANCH  11  12
ENDBRANCH  10  11
ENDBRANCH   9  10
ENDBRANCH   8   9
ENDBRANCH   7   8
ENDBRANCH   6   7
ENDBRANCH   5   6
ENDBRANCH   4   5
ENDBRANCH   3   4
ENDBRANCH   2   3
ENDBRANCH   1   2
BRANCH   1  15
ATOM     15  C   UNL     1     -17.623 -16.430   1.664  1.00  0.00     0.000 C 
BRANCH  15  16
ATOM     16  C   UNL     1     -18.927 -17.231   1.863  1.00  0.00     0.000 C 
BRANCH  16  17
ATOM     17  C   UNL     1     -18.687 -18.749   1.893  1.00  0.00     0.000 C 
BRANCH  17  18
ATOM     18  C   UNL     1     -17.199 -19.121   1.771  1.00  0.00    -0.000 C 
BRANCH  18  19
ATOM     19  C   UNL     1     -16.832 -20.426   2.509  1.00  0.00    -0.000 C 
BRANCH  19  20
ATOM     20  C   UNL     1     -16.646 -20.212   4.022  1.00  0.00    -0.000 C 
BRANCH  20  21
ATOM     21  C   UNL     1     -15.859 -18.932   4.349  1.00  0.00    -0.000 C 
BRANCH  21  22
ATOM     22  C   UNL     1     -16.634 -17.979   5.275  1.00  0.00    -0.000 C 
BRANCH  22  23
ATOM     23  C   UNL     1     -16.296 -16.498   5.026  1.00  0.00    -0.000 C 
BRANCH  23  24
ATOM     24  C   UNL     1     -14.905 -16.054   5.518  1.00  0.00    -0.000 C 
BRANCH  24  25
ATOM     25  C   UNL     1     -14.502 -14.669   4.995  1.00  0.00    -0.003 C 
ATOM     26  C   UNL     1     -15.441 -14.207   3.883  1.00  0.00     0.004 C 
ENDBRANCH  24  25
ENDBRANCH  23  24
ENDBRANCH  22  23
ENDBRANCH  21  22
ENDBRANCH  20  21
ENDBRANCH  19  20
ENDBRANCH  18  19
ENDBRANCH  17  18
ENDBRANCH  16  17
ENDBRANCH  15  16
ENDBRANCH   1  15
TORSDOF 22
ENDMDL
MODEL 8
REMARK VINA RESULT:    -3.757      2.639      3.980
REMARK INTER + INTRA:         -11.495
REMARK INTER:                  -8.871
REMARK INTRA:                  -2.623
REMARK UNBOUND:                -2.906
REMARK SMILES CCCCCCCCCCCCCCCCCCCCCCCC(=O)[O-]
REMARK SMILES IDX 13 1 14 2 15 3 16 4 17 5 18 6 19 7 20 8 21 9 22 10 23 11
REMARK SMILES IDX 24 12 25 13 26 14 12 15 11 16 10 17 9 18 8 19 7 20 6 21 5 22
REMARK SMILES IDX 4 23 3 24 2 25 1 26
REMARK H PARENT
REMARK Flexibility Score: inf
ROOT
ATOM      1  C   UNL     1     -18.901 -16.525   0.998  1.00  0.00     0.000 C 
ENDROOT
BRANCH   1   2
ATOM      2  C   UNL     1     -18.719 -15.085   0.482  1.00  0.00     0.000 C 
BRANCH   2   3
ATOM      3  C   UNL     1     -17.291 -14.736   0.018  1.00  0.00     0.000 C 
BRANCH   3   4
ATOM      4  C   UNL     1     -17.035 -14.903  -1.492  1.00  0.00     0.000 C 
BRANCH   4   5
ATOM      5  C   UNL     1     -17.821 -13.910  -2.375  1.00  0.00     0.000 C 
BRANCH   5   6
ATOM      6  C   UNL     1     -17.733 -12.461  -1.858  1.00  0.00     0.000 C 
BRANCH   6   7
ATOM      7  C   UNL     1     -16.548 -11.690  -2.462  1.00  0.00     0.000 C 
BRANCH   7   8
ATOM      8  C   UNL     1     -15.797 -10.846  -1.421  1.00  0.00     0.000 C 
BRANCH   8   9
ATOM      9  C   UNL     1     -15.680 -11.596  -0.088  1.00  0.00     0.000 C 
BRANCH   9  10
ATOM     10  C   UNL     1     -14.210 -11.729   0.340  1.00  0.00     0.006 C 
BRANCH  10  11
ATOM     11  C   UNL     1     -13.918 -13.080   1.005  1.00  0.00     0.053 C 
BRANCH  11  12
ATOM     12  C   UNL     1     -12.584 -13.089   1.685  1.00  0.00     0.041 C 
ATOM     13  O   UNL     1     -11.839 -12.075   1.636  1.00  0.00    -0.550 OA
ATOM     14  O   UNL     1     -12.177 -14.207   2.403  1.00  0.00    -0.550 OA
ENDBRANCH  11  12
ENDBRANCH  10  11
ENDBRANCH   9  10
ENDBRANCH   8   9
ENDBRANCH   7   8
ENDBRANCH   6   7
ENDBRANCH   5   6
ENDBRANCH   4   5
ENDBRANCH   3   4
ENDBRANCH   2   3
ENDBRANCH   1   2
BRANCH   1  15
ATOM     15  C   UNL     1     -18.709 -16.705   2.516  1.00  0.00     0.000 C 
BRANCH  15  16
ATOM     16  C   UNL     1     -17.627 -17.739   2.894  1.00  0.00     0.000 C 
BRANCH  16  17
ATOM     17  C   UNL     1     -17.443 -18.820   1.816  1.00  0.00     0.000 C 
BRANCH  17  18
ATOM     18  C   UNL     1     -16.621 -20.023   2.311  1.00  0.00    -0.000 C 
BRANCH  18  19
ATOM     19  C   UNL     1     -17.249 -20.733   3.529  1.00  0.00    -0.000 C 
BRANCH  19  20
ATOM     20  C   UNL     1     -18.571 -21.440   3.178  1.00  0.00    -0.000 C 
BRANCH  20  21
ATOM     21  C   UNL     1     -19.757 -20.935   4.015  1.00  0.00    -0.000 C 
BRANCH  21  22
ATOM     22  C   UNL     1     -20.645 -19.941   3.247  1.00  0.00    -0.000 C 
BRANCH  22  23
ATOM     23  C   UNL     1     -20.814 -20.315   1.763  1.00  0.00    -0.000 C 
BRANCH  23  24
ATOM     24  C   UNL     1     -22.023 -19.668   1.060  1.00  0.00    -0.000 C 
BRANCH  24  25
ATOM     25  C   UNL     1     -21.757 -19.358  -0.418  1.00  0.00    -0.003 C 
ATOM     26  C   UNL     1     -21.543 -20.640  -1.218  1.00  0.00     0.004 C 
ENDBRANCH  24  25
ENDBRANCH  23  24
ENDBRANCH  22  23
ENDBRANCH  21  22
ENDBRANCH  20  21
ENDBRANCH  19  20
ENDBRANCH  18  19
ENDBRANCH  17  18
ENDBRANCH  16  17
ENDBRANCH  15  16
ENDBRANCH   1  15
TORSDOF 22
ENDMDL
MODEL 9
REMARK VINA RESULT:    -3.731      3.189      6.040
REMARK INTER + INTRA:         -11.437
REMARK INTER:                  -8.830
REMARK INTRA:                  -2.607
REMARK UNBOUND:                -2.906
REMARK SMILES CCCCCCCCCCCCCCCCCCCCCCCC(=O)[O-]
REMARK SMILES IDX 13 1 14 2 15 3 16 4 17 5 18 6 19 7 20 8 21 9 22 10 23 11
REMARK SMILES IDX 24 12 25 13 26 14 12 15 11 16 10 17 9 18 8 19 7 20 6 21 5 22
REMARK SMILES IDX 4 23 3 24 2 25 1 26
REMARK H PARENT
REMARK Flexibility Score: inf
ROOT
ATOM      1  C   UNL     1     -16.861 -14.680  -1.109  1.00  0.00     0.000 C 
ENDROOT
BRANCH   1   2
ATOM      2  C   UNL     1     -17.281 -14.599  -2.589  1.00  0.00     0.000 C 
BRANCH   2   3
ATOM      3  C   UNL     1     -17.890 -13.251  -3.020  1.00  0.00     0.000 C 
BRANCH   3   4
ATOM      4  C   UNL     1     -17.635 -12.079  -2.053  1.00  0.00     0.000 C 
BRANCH   4   5
ATOM      5  C   UNL     1     -16.516 -11.120  -2.513  1.00  0.00     0.000 C 
BRANCH   5   6
ATOM      6  C   UNL     1     -15.668 -10.594  -1.339  1.00  0.00     0.000 C 
BRANCH   6   7
ATOM      7  C   UNL     1     -15.936 -11.353  -0.029  1.00  0.00     0.000 C 
BRANCH   7   8
ATOM      8  C   UNL     1     -14.736 -12.199   0.423  1.00  0.00     0.000 C 
BRANCH   8   9
ATOM      9  C   UNL     1     -13.435 -11.389   0.347  1.00  0.00     0.000 C 
BRANCH   9  10
ATOM     10  C   UNL     1     -12.230 -12.245   0.765  1.00  0.00     0.006 C 
BRANCH  10  11
ATOM     11  C   UNL     1     -12.645 -13.644   1.237  1.00  0.00     0.053 C 
BRANCH  11  12
ATOM     12  C   UNL     1     -12.512 -13.794   2.721  1.00  0.00     0.041 C 
ATOM     13  O   UNL     1     -13.537 -13.812   3.453  1.00  0.00    -0.550 OA
ATOM     14  O   UNL     1     -11.256 -13.949   3.294  1.00  0.00    -0.550 OA
ENDBRANCH  11  12
ENDBRANCH  10  11
ENDBRANCH   9  10
ENDBRANCH   8   9
ENDBRANCH   7   8
ENDBRANCH   6   7
ENDBRANCH   5   6
ENDBRANCH   4   5
ENDBRANCH   3   4
ENDBRANCH   2   3
ENDBRANCH   1   2
BRANCH   1  15
ATOM     15  C   UNL     1     -17.992 -15.034  -0.125  1.00  0.00     0.000 C 
BRANCH  15  16
ATOM     16  C   UNL     1     -17.838 -14.389   1.268  1.00  0.00     0.000 C 
BRANCH  16  17
ATOM     17  C   UNL     1     -17.167 -15.331   2.282  1.00  0.00     0.000 C 
BRANCH  17  18
ATOM     18  C   UNL     1     -18.158 -15.903   3.311  1.00  0.00    -0.000 C 
BRANCH  18  19
ATOM     19  C   UNL     1     -18.553 -17.368   3.029  1.00  0.00    -0.000 C 
BRANCH  19  20
ATOM     20  C   UNL     1     -17.604 -18.049   2.026  1.00  0.00    -0.000 C 
BRANCH  20  21
ATOM     21  C   UNL     1     -17.747 -19.580   2.017  1.00  0.00    -0.000 C 
BRANCH  21  22
ATOM     22  C   UNL     1     -16.390 -20.302   1.952  1.00  0.00    -0.000 C 
BRANCH  22  23
ATOM     23  C   UNL     1     -15.490 -19.991   3.162  1.00  0.00    -0.000 C 
BRANCH  23  24
ATOM     24  C   UNL     1     -16.174 -20.120   4.536  1.00  0.00    -0.000 C 
BRANCH  24  25
ATOM     25  C   UNL     1     -15.922 -18.909   5.444  1.00  0.00    -0.003 C 
ATOM     26  C   UNL     1     -16.305 -19.217   6.889  1.00  0.00     0.004 C 
ENDBRANCH  24  25
ENDBRANCH  23  24
ENDBRANCH  22  23
ENDBRANCH  21  22
ENDBRANCH  20  21
ENDBRANCH  19  20
ENDBRANCH  18  19
ENDBRANCH  17  18
ENDBRANCH  16  17
ENDBRANCH  15  16
ENDBRANCH   1  15
TORSDOF 22
ENDMDL
