MODEL 1
REMARK VINA RESULT:    -4.628      0.000      0.000
REMARK INTER + INTRA:         -17.258
REMARK INTER:                 -11.662
REMARK INTRA:                  -5.596
REMARK UNBOUND:                -5.596
REMARK SMILES CCCCCCCCCCCCCCCCCCCCCCCCCCCC(=O)[O-]
REMARK SMILES IDX 15 1 16 2 17 3 18 4 19 5 20 6 21 7 22 8 23 9 24 10 25 11
REMARK SMILES IDX 26 12 27 13 28 14 29 15 30 16 14 17 13 18 12 19 11 20 10 21
REMARK SMILES IDX 9 22 8 23 7 24 6 25 5 26 4 27 3 28 2 29 1 30
REMARK H PARENT
REMARK Flexibility Score: inf
ROOT
ATOM      1  C   UNL     1      48.537  44.300  37.158  1.00  0.00     0.000 C 
ENDROOT
BRANCH   1   2
ATOM      2  C   UNL     1      49.700  44.773  36.272  1.00  0.00     0.000 C 
BRANCH   2   3
ATOM      3  C   UNL     1      49.356  44.749  34.777  1.00  0.00     0.000 C 
BRANCH   3   4
ATOM      4  C   UNL     1      48.006  44.057  34.532  1.00  0.00     0.000 C 
BRANCH   4   5
ATOM      5  C   UNL     1      47.089  44.871  33.598  1.00  0.00     0.000 C 
BRANCH   5   6
ATOM      6  C   UNL     1      45.747  45.279  34.240  1.00  0.00     0.000 C 
BRANCH   6   7
ATOM      7  C   UNL     1      45.878  45.862  35.664  1.00  0.00     0.000 C 
BRANCH   7   8
ATOM      8  C   UNL     1      46.190  47.373  35.696  1.00  0.00     0.000 C 
BRANCH   8   9
ATOM      9  C   UNL     1      47.407  47.755  36.561  1.00  0.00     0.000 C 
BRANCH   9  10
ATOM     10  C   UNL     1      47.088  48.117  38.024  1.00  0.00     0.000 C 
BRANCH  10  11
ATOM     11  C   UNL     1      47.896  47.308  39.061  1.00  0.00     0.000 C 
BRANCH  11  12
ATOM     12  C   UNL     1      46.990  46.607  40.089  1.00  0.00     0.006 C 
BRANCH  12  13
ATOM     13  C   UNL     1      45.833  45.850  39.424  1.00  0.00     0.053 C 
BRANCH  13  14
ATOM     14  C   UNL     1      44.507  46.259  39.992  1.00  0.00     0.041 C 
ATOM     15  O   UNL     1      43.885  45.484  40.769  1.00  0.00    -0.550 OA
ATOM     16  O   UNL     1      43.936  47.470  39.624  1.00  0.00    -0.550 OA
ENDBRANCH  13  14
ENDBRANCH  12  13
ENDBRANCH  11  12
ENDBRANCH  10  11
ENDBRANCH   9  10
ENDBRANCH   8   9
ENDBRANCH   7   8
ENDBRANCH   6   7
ENDBRANCH   5   6
ENDBRANCH   4   5
ENDBRANCH   3   4
ENDBRANCH   2   3
ENDBRANCH   1   2
BRANCH   1  17
ATOM     17  C   UNL     1      48.991  43.655  38.486  1.00  0.00     0.000 C 
BRANCH  17  18
ATOM     18  C   UNL     1      49.706  42.309  38.275  1.00  0.00     0.000 C 
BRANCH  18  19
ATOM     19  C   UNL     1      49.018  41.143  39.008  1.00  0.00     0.000 C 
BRANCH  19  20
ATOM     20  C   UNL     1      48.534  40.014  38.073  1.00  0.00     0.000 C 
BRANCH  20  21
ATOM     21  C   UNL     1      48.118  40.538  36.686  1.00  0.00     0.000 C 
BRANCH  21  22
ATOM     22  C   UNL     1      46.614  40.379  36.416  1.00  0.00    -0.000 C 
BRANCH  22  23
ATOM     23  C   UNL     1      45.929  41.706  36.044  1.00  0.00    -0.000 C 
BRANCH  23  24
ATOM     24  C   UNL     1      45.577  42.566  37.273  1.00  0.00    -0.000 C 
BRANCH  24  25
ATOM     25  C   UNL     1      45.301  41.775  38.565  1.00  0.00    -0.000 C 
BRANCH  25  26
ATOM     26  C   UNL     1      43.893  41.162  38.605  1.00  0.00    -0.000 C 
BRANCH  26  27
ATOM     27  C   UNL     1      43.909  39.677  39.004  1.00  0.00    -0.000 C 
BRANCH  27  28
ATOM     28  C   UNL     1      45.218  39.263  39.700  1.00  0.00    -0.000 C 
BRANCH  28  29
ATOM     29  C   UNL     1      45.577  37.790  39.447  1.00  0.00    -0.003 C 
ATOM     30  C   UNL     1      45.557  37.423  37.964  1.00  0.00     0.004 C 
ENDBRANCH  28  29
ENDBRANCH  27  28
ENDBRANCH  26  27
ENDBRANCH  25  26
ENDBRANCH  24  25
ENDBRANCH  23  24
ENDBRANCH  22  23
ENDBRANCH  21  22
ENDBRANCH  20  21
ENDBRANCH  19  20
ENDBRANCH  18  19
ENDBRANCH  17  18
ENDBRANCH   1  17
TORSDOF 26
ENDMDL
MODEL 2
REMARK VINA RESULT:    -4.500      1.070      2.133
REMARK INTER + INTRA:         -16.936
REMARK INTER:                 -12.466
REMARK INTRA:                  -4.470
REMARK UNBOUND:                -5.596
REMARK SMILES CCCCCCCCCCCCCCCCCCCCCCCCCCCC(=O)[O-]
REMARK SMILES IDX 15 1 16 2 17 3 18 4 19 5 20 6 21 7 22 8 23 9 24 10 25 11
REMARK SMILES IDX 26 12 27 13 28 14 29 15 30 16 14 17 13 18 12 19 11 20 10 21
REMARK SMILES IDX 9 22 8 23 7 24 6 25 5 26 4 27 3 28 2 29 1 30
REMARK H PARENT
REMARK Flexibility Score: inf
ROOT
ATOM      1  C   UNL     1      49.544  44.777  34.843  1.00  0.00     0.000 C 
ENDROOT
BRANCH   1   2
ATOM      2  C   UNL     1      48.512  43.916  34.095  1.00  0.00     0.000 C 
BRANCH   2   3
ATOM      3  C   UNL     1      47.726  44.709  33.044  1.00  0.00     0.000 C 
BRANCH   3   4
ATOM      4  C   UNL     1      46.263  44.897  33.475  1.00  0.00     0.000 C 
BRANCH   4   5
ATOM      5  C   UNL     1      46.061  44.671  34.987  1.00  0.00     0.000 C 
BRANCH   5   6
ATOM      6  C   UNL     1      45.683  45.949  35.764  1.00  0.00     0.000 C 
BRANCH   6   7
ATOM      7  C   UNL     1      46.760  47.055  35.727  1.00  0.00     0.000 C 
BRANCH   7   8
ATOM      8  C   UNL     1      46.189  48.487  35.782  1.00  0.00     0.000 C 
BRANCH   8   9
ATOM      9  C   UNL     1      46.900  49.420  36.782  1.00  0.00     0.000 C 
BRANCH   9  10
ATOM     10  C   UNL     1      46.237  49.526  38.169  1.00  0.00     0.000 C 
BRANCH  10  11
ATOM     11  C   UNL     1      44.705  49.338  38.147  1.00  0.00     0.000 C 
BRANCH  11  12
ATOM     12  C   UNL     1      44.283  47.936  38.622  1.00  0.00     0.006 C 
BRANCH  12  13
ATOM     13  C   UNL     1      45.440  47.174  39.282  1.00  0.00     0.053 C 
BRANCH  13  14
ATOM     14  C   UNL     1      45.006  45.821  39.763  1.00  0.00     0.041 C 
ATOM     15  O   UNL     1      45.507  44.779  39.258  1.00  0.00    -0.550 OA
ATOM     16  O   UNL     1      44.015  45.711  40.729  1.00  0.00    -0.550 OA
ENDBRANCH  13  14
ENDBRANCH  12  13
ENDBRANCH  11  12
ENDBRANCH  10  11
ENDBRANCH   9  10
ENDBRANCH   8   9
ENDBRANCH   7   8
ENDBRANCH   6   7
ENDBRANCH   5   6
ENDBRANCH   4   5
ENDBRANCH   3   4
ENDBRANCH   2   3
ENDBRANCH   1   2
BRANCH   1  17
ATOM     17  C   UNL     1      49.924  44.222  36.233  1.00  0.00     0.000 C 
BRANCH  17  18
ATOM     18  C   UNL     1      48.934  44.648  37.330  1.00  0.00     0.000 C 
BRANCH  18  19
ATOM     19  C   UNL     1      48.848  43.636  38.487  1.00  0.00     0.000 C 
BRANCH  19  20
ATOM     20  C   UNL     1      49.733  42.386  38.291  1.00  0.00     0.000 C 
BRANCH  20  21
ATOM     21  C   UNL     1      49.301  41.214  39.192  1.00  0.00     0.000 C 
BRANCH  21  22
ATOM     22  C   UNL     1      48.446  40.176  38.449  1.00  0.00    -0.000 C 
BRANCH  22  23
ATOM     23  C   UNL     1      48.155  40.573  36.991  1.00  0.00    -0.000 C 
BRANCH  23  24
ATOM     24  C   UNL     1      46.648  40.653  36.678  1.00  0.00    -0.000 C 
BRANCH  24  25
ATOM     25  C   UNL     1      45.884  41.760  37.426  1.00  0.00    -0.000 C 
BRANCH  25  26
ATOM     26  C   UNL     1      44.859  41.210  38.430  1.00  0.00    -0.000 C 
BRANCH  26  27
ATOM     27  C   UNL     1      44.647  39.694  38.282  1.00  0.00    -0.000 C 
BRANCH  27  28
ATOM     28  C   UNL     1      44.970  38.919  39.572  1.00  0.00    -0.000 C 
BRANCH  28  29
ATOM     29  C   UNL     1      45.839  37.679  39.310  1.00  0.00    -0.003 C 
ATOM     30  C   UNL     1      45.798  37.225  37.851  1.00  0.00     0.004 C 
ENDBRANCH  28  29
ENDBRANCH  27  28
ENDBRANCH  26  27
ENDBRANCH  25  26
ENDBRANCH  24  25
ENDBRANCH  23  24
ENDBRANCH  22  23
ENDBRANCH  21  22
ENDBRANCH  20  21
ENDBRANCH  19  20
ENDBRANCH  18  19
ENDBRANCH  17  18
ENDBRANCH   1  17
TORSDOF 26
ENDMDL
MODEL 3
REMARK VINA RESULT:    -4.495      1.560      2.823
REMARK INTER + INTRA:         -16.922
REMARK INTER:                 -11.701
REMARK INTRA:                  -5.222
REMARK UNBOUND:                -5.596
REMARK SMILES CCCCCCCCCCCCCCCCCCCCCCCCCCCC(=O)[O-]
REMARK SMILES IDX 15 1 16 2 17 3 18 4 19 5 20 6 21 7 22 8 23 9 24 10 25 11
REMARK SMILES IDX 26 12 27 13 28 14 29 15 30 16 14 17 13 18 12 19 11 20 10 21
REMARK SMILES IDX 9 22 8 23 7 24 6 25 5 26 4 27 3 28 2 29 1 30
REMARK H PARENT
REMARK Flexibility Score: inf
ROOT
ATOM      1  C   UNL     1      46.861  43.768  38.380  1.00  0.00     0.000 C 
ENDROOT
BRANCH   1   2
ATOM      2  C   UNL     1      46.409  44.390  37.049  1.00  0.00     0.000 C 
BRANCH   2   3
ATOM      3  C   UNL     1      47.580  44.920  36.212  1.00  0.00     0.000 C 
BRANCH   3   4
ATOM      4  C   UNL     1      47.574  46.456  36.164  1.00  0.00     0.000 C 
BRANCH   4   5
ATOM      5  C   UNL     1      48.697  47.075  37.019  1.00  0.00     0.000 C 
BRANCH   5   6
ATOM      6  C   UNL     1      48.331  47.237  38.509  1.00  0.00     0.000 C 
BRANCH   6   7
ATOM      7  C   UNL     1      48.000  48.686  38.926  1.00  0.00     0.000 C 
BRANCH   7   8
ATOM      8  C   UNL     1      48.104  49.708  37.774  1.00  0.00     0.000 C 
BRANCH   8   9
ATOM      9  C   UNL     1      46.750  50.127  37.168  1.00  0.00     0.000 C 
BRANCH   9  10
ATOM     10  C   UNL     1      45.508  49.701  37.974  1.00  0.00     0.000 C 
BRANCH  10  11
ATOM     11  C   UNL     1      44.656  48.613  37.285  1.00  0.00     0.000 C 
BRANCH  11  12
ATOM     12  C   UNL     1      44.647  47.293  38.076  1.00  0.00     0.006 C 
BRANCH  12  13
ATOM     13  C   UNL     1      44.571  47.523  39.591  1.00  0.00     0.053 C 
BRANCH  13  14
ATOM     14  C   UNL     1      44.980  46.299  40.356  1.00  0.00     0.041 C 
ATOM     15  O   UNL     1      46.043  46.303  41.035  1.00  0.00    -0.550 OA
ATOM     16  O   UNL     1      44.217  45.142  40.278  1.00  0.00    -0.550 OA
ENDBRANCH  13  14
ENDBRANCH  12  13
ENDBRANCH  11  12
ENDBRANCH  10  11
ENDBRANCH   9  10
ENDBRANCH   8   9
ENDBRANCH   7   8
ENDBRANCH   6   7
ENDBRANCH   5   6
ENDBRANCH   4   5
ENDBRANCH   3   4
ENDBRANCH   2   3
ENDBRANCH   1   2
BRANCH   1  17
ATOM     17  C   UNL     1      48.392  43.603  38.499  1.00  0.00     0.000 C 
BRANCH  17  18
ATOM     18  C   UNL     1      48.831  42.129  38.482  1.00  0.00     0.000 C 
BRANCH  18  19
ATOM     19  C   UNL     1      49.510  41.721  37.162  1.00  0.00     0.000 C 
BRANCH  19  20
ATOM     20  C   UNL     1      48.553  41.069  36.141  1.00  0.00     0.000 C 
BRANCH  20  21
ATOM     21  C   UNL     1      47.382  40.334  36.819  1.00  0.00     0.000 C 
BRANCH  21  22
ATOM     22  C   UNL     1      46.018  40.697  36.212  1.00  0.00    -0.000 C 
BRANCH  22  23
ATOM     23  C   UNL     1      44.891  40.744  37.260  1.00  0.00    -0.000 C 
BRANCH  23  24
ATOM     24  C   UNL     1      45.368  40.356  38.673  1.00  0.00    -0.000 C 
BRANCH  24  25
ATOM     25  C   UNL     1      44.352  39.551  39.506  1.00  0.00    -0.000 C 
BRANCH  25  26
ATOM     26  C   UNL     1      44.835  38.128  39.829  1.00  0.00    -0.000 C 
BRANCH  26  27
ATOM     27  C   UNL     1      46.255  37.856  39.305  1.00  0.00    -0.000 C 
BRANCH  27  28
ATOM     28  C   UNL     1      46.310  36.675  38.319  1.00  0.00    -0.000 C 
BRANCH  28  29
ATOM     29  C   UNL     1      45.603  36.987  36.990  1.00  0.00    -0.003 C 
ATOM     30  C   UNL     1      46.288  36.335  35.790  1.00  0.00     0.004 C 
ENDBRANCH  28  29
ENDBRANCH  27  28
ENDBRANCH  26  27
ENDBRANCH  25  26
ENDBRANCH  24  25
ENDBRANCH  23  24
ENDBRANCH  22  23
ENDBRANCH  21  22
ENDBRANCH  20  21
ENDBRANCH  19  20
ENDBRANCH  18  19
ENDBRANCH  17  18
ENDBRANCH   1  17
TORSDOF 26
ENDMDL
MODEL 4
REMARK VINA RESULT:    -4.484      1.487      3.066
REMARK INTER + INTRA:         -16.895
REMARK INTER:                 -12.375
REMARK INTRA:                  -4.520
REMARK UNBOUND:                -5.596
REMARK SMILES CCCCCCCCCCCCCCCCCCCCCCCCCCCC(=O)[O-]
REMARK SMILES IDX 15 1 16 2 17 3 18 4 19 5 20 6 21 7 22 8 23 9 24 10 25 11
REMARK SMILES IDX 26 12 27 13 28 14 29 15 30 16 14 17 13 18 12 19 11 20 10 21
REMARK SMILES IDX 9 22 8 23 7 24 6 25 5 26 4 27 3 28 2 29 1 30
REMARK H PARENT
REMARK Flexibility Score: inf
ROOT
ATOM      1  C   UNL     1      47.650  43.742  38.498  1.00  0.00     0.000 C 
ENDROOT
BRANCH   1   2
ATOM      2  C   UNL     1      46.440  43.403  37.613  1.00  0.00     0.000 C 
BRANCH   2   3
ATOM      3  C   UNL     1      46.669  43.748  36.136  1.00  0.00     0.000 C 
BRANCH   3   4
ATOM      4  C   UNL     1      46.238  45.191  35.832  1.00  0.00     0.000 C 
BRANCH   4   5
ATOM      5  C   UNL     1      47.431  46.099  35.476  1.00  0.00     0.000 C 
BRANCH   5   6
ATOM      6  C   UNL     1      48.072  46.795  36.695  1.00  0.00     0.000 C 
BRANCH   6   7
ATOM      7  C   UNL     1      47.864  48.324  36.733  1.00  0.00     0.000 C 
BRANCH   7   8
ATOM      8  C   UNL     1      46.605  48.804  35.982  1.00  0.00     0.000 C 
BRANCH   8   9
ATOM      9  C   UNL     1      45.734  49.804  36.769  1.00  0.00     0.000 C 
BRANCH   9  10
ATOM     10  C   UNL     1      45.433  49.408  38.227  1.00  0.00     0.000 C 
BRANCH  10  11
ATOM     11  C   UNL     1      44.270  48.404  38.377  1.00  0.00     0.000 C 
BRANCH  11  12
ATOM     12  C   UNL     1      44.765  46.950  38.480  1.00  0.00     0.006 C 
BRANCH  12  13
ATOM     13  C   UNL     1      45.755  46.754  39.636  1.00  0.00     0.053 C 
BRANCH  13  14
ATOM     14  C   UNL     1      45.057  46.335  40.896  1.00  0.00     0.041 C 
ATOM     15  O   UNL     1      45.537  46.645  42.019  1.00  0.00    -0.550 OA
ATOM     16  O   UNL     1      43.906  45.559  40.828  1.00  0.00    -0.550 OA
ENDBRANCH  13  14
ENDBRANCH  12  13
ENDBRANCH  11  12
ENDBRANCH  10  11
ENDBRANCH   9  10
ENDBRANCH   8   9
ENDBRANCH   7   8
ENDBRANCH   6   7
ENDBRANCH   5   6
ENDBRANCH   4   5
ENDBRANCH   3   4
ENDBRANCH   2   3
ENDBRANCH   1   2
BRANCH   1  17
ATOM     17  C   UNL     1      48.999  43.273  37.911  1.00  0.00     0.000 C 
BRANCH  17  18
ATOM     18  C   UNL     1      49.488  41.953  38.532  1.00  0.00     0.000 C 
BRANCH  18  19
ATOM     19  C   UNL     1      48.889  40.711  37.848  1.00  0.00     0.000 C 
BRANCH  19  20
ATOM     20  C   UNL     1      47.808  39.995  38.687  1.00  0.00     0.000 C 
BRANCH  20  21
ATOM     21  C   UNL     1      48.024  38.471  38.745  1.00  0.00     0.000 C 
BRANCH  21  22
ATOM     22  C   UNL     1      46.722  37.695  38.996  1.00  0.00    -0.000 C 
BRANCH  22  23
ATOM     23  C   UNL     1      46.609  36.424  38.134  1.00  0.00    -0.000 C 
BRANCH  23  24
ATOM     24  C   UNL     1      46.268  36.724  36.662  1.00  0.00    -0.000 C 
BRANCH  24  25
ATOM     25  C   UNL     1      45.233  37.844  36.448  1.00  0.00    -0.000 C 
BRANCH  25  26
ATOM     26  C   UNL     1      45.838  39.110  35.821  1.00  0.00    -0.000 C 
BRANCH  26  27
ATOM     27  C   UNL     1      45.035  40.377  36.163  1.00  0.00    -0.000 C 
BRANCH  27  28
ATOM     28  C   UNL     1      43.853  40.095  37.107  1.00  0.00    -0.000 C 
BRANCH  28  29
ATOM     29  C   UNL     1      44.073  40.674  38.513  1.00  0.00    -0.003 C 
ATOM     30  C   UNL     1      43.974  39.615  39.610  1.00  0.00     0.004 C 
ENDBRANCH  28  29
ENDBRANCH  27  28
ENDBRANCH  26  27
ENDBRANCH  25  26
ENDBRANCH  24  25
ENDBRANCH  23  24
ENDBRANCH  22  23
ENDBRANCH  21  22
ENDBRANCH  20  21
ENDBRANCH  19  20
ENDBRANCH  18  19
ENDBRANCH  17  18
ENDBRANCH   1  17
TORSDOF 26
ENDMDL
MODEL 5
REMARK VINA RESULT:    -4.474      2.420      7.161
REMARK INTER + INTRA:         -16.870
REMARK INTER:                 -12.046
REMARK INTRA:                  -4.824
REMARK UNBOUND:                -5.596
REMARK SMILES CCCCCCCCCCCCCCCCCCCCCCCCCCCC(=O)[O-]
REMARK SMILES IDX 15 1 16 2 17 3 18 4 19 5 20 6 21 7 22 8 23 9 24 10 25 11
REMARK SMILES IDX 26 12 27 13 28 14 29 15 30 16 14 17 13 18 12 19 11 20 10 21
REMARK SMILES IDX 9 22 8 23 7 24 6 25 5 26 4 27 3 28 2 29 1 30
REMARK H PARENT
REMARK Flexibility Score: inf
ROOT
ATOM      1  C   UNL     1      47.511  43.150  37.413  1.00  0.00     0.000 C 
ENDROOT
BRANCH   1   2
ATOM      2  C   UNL     1      48.680  43.025  38.405  1.00  0.00     0.000 C 
BRANCH   2   3
ATOM      3  C   UNL     1      49.447  41.705  38.256  1.00  0.00     0.000 C 
BRANCH   3   4
ATOM      4  C   UNL     1      48.629  40.526  38.807  1.00  0.00     0.000 C 
BRANCH   4   5
ATOM      5  C   UNL     1      48.289  39.486  37.720  1.00  0.00     0.000 C 
BRANCH   5   6
ATOM      6  C   UNL     1      48.090  38.057  38.265  1.00  0.00     0.000 C 
BRANCH   6   7
ATOM      7  C   UNL     1      46.839  37.338  37.713  1.00  0.00     0.000 C 
BRANCH   7   8
ATOM      8  C   UNL     1      45.702  37.181  38.744  1.00  0.00     0.000 C 
BRANCH   8   9
ATOM      9  C   UNL     1      45.661  38.282  39.823  1.00  0.00     0.000 C 
BRANCH   9  10
ATOM     10  C   UNL     1      44.260  38.839  40.141  1.00  0.00     0.000 C 
BRANCH  10  11
ATOM     11  C   UNL     1      43.768  39.906  39.140  1.00  0.00     0.000 C 
BRANCH  11  12
ATOM     12  C   UNL     1      44.932  40.620  38.429  1.00  0.00     0.006 C 
BRANCH  12  13
ATOM     13  C   UNL     1      44.590  40.986  36.979  1.00  0.00     0.053 C 
BRANCH  13  14
ATOM     14  C   UNL     1      44.914  39.866  36.036  1.00  0.00     0.041 C 
ATOM     15  O   UNL     1      45.915  39.950  35.273  1.00  0.00    -0.550 OA
ATOM     16  O   UNL     1      44.083  38.755  35.963  1.00  0.00    -0.550 OA
ENDBRANCH  13  14
ENDBRANCH  12  13
ENDBRANCH  11  12
ENDBRANCH  10  11
ENDBRANCH   9  10
ENDBRANCH   8   9
ENDBRANCH   7   8
ENDBRANCH   6   7
ENDBRANCH   5   6
ENDBRANCH   4   5
ENDBRANCH   3   4
ENDBRANCH   2   3
ENDBRANCH   1   2
BRANCH   1  17
ATOM     17  C   UNL     1      47.909  42.876  35.947  1.00  0.00     0.000 C 
BRANCH  17  18
ATOM     18  C   UNL     1      48.718  44.029  35.328  1.00  0.00     0.000 C 
BRANCH  18  19
ATOM     19  C   UNL     1      47.993  44.706  34.152  1.00  0.00     0.000 C 
BRANCH  19  20
ATOM     20  C   UNL     1      46.480  44.403  34.091  1.00  0.00     0.000 C 
BRANCH  20  21
ATOM     21  C   UNL     1      45.621  45.635  34.432  1.00  0.00     0.000 C 
BRANCH  21  22
ATOM     22  C   UNL     1      45.672  46.003  35.923  1.00  0.00    -0.000 C 
BRANCH  22  23
ATOM     23  C   UNL     1      46.130  47.452  36.165  1.00  0.00    -0.000 C 
BRANCH  23  24
ATOM     24  C   UNL     1      47.636  47.564  36.471  1.00  0.00    -0.000 C 
BRANCH  24  25
ATOM     25  C   UNL     1      48.111  46.776  37.706  1.00  0.00    -0.000 C 
BRANCH  25  26
ATOM     26  C   UNL     1      47.361  47.162  38.990  1.00  0.00    -0.000 C 
BRANCH  26  27
ATOM     27  C   UNL     1      46.753  45.944  39.705  1.00  0.00    -0.000 C 
BRANCH  27  28
ATOM     28  C   UNL     1      45.235  45.820  39.482  1.00  0.00    -0.000 C 
BRANCH  28  29
ATOM     29  C   UNL     1      44.457  47.014  40.058  1.00  0.00    -0.003 C 
ATOM     30  C   UNL     1      43.835  47.893  38.973  1.00  0.00     0.004 C 
ENDBRANCH  28  29
ENDBRANCH  27  28
ENDBRANCH  26  27
ENDBRANCH  25  26
ENDBRANCH  24  25
ENDBRANCH  23  24
ENDBRANCH  22  23
ENDBRANCH  21  22
ENDBRANCH  20  21
ENDBRANCH  19  20
ENDBRANCH  18  19
ENDBRANCH  17  18
ENDBRANCH   1  17
TORSDOF 26
ENDMDL
MODEL 6
REMARK VINA RESULT:    -4.463      3.019      6.011
REMARK INTER + INTRA:         -16.843
REMARK INTER:                 -11.504
REMARK INTRA:                  -5.339
REMARK UNBOUND:                -5.596
REMARK SMILES CCCCCCCCCCCCCCCCCCCCCCCCCCCC(=O)[O-]
REMARK SMILES IDX 15 1 16 2 17 3 18 4 19 5 20 6 21 7 22 8 23 9 24 10 25 11
REMARK SMILES IDX 26 12 27 13 28 14 29 15 30 16 14 17 13 18 12 19 11 20 10 21
REMARK SMILES IDX 9 22 8 23 7 24 6 25 5 26 4 27 3 28 2 29 1 30
REMARK H PARENT
REMARK Flexibility Score: inf
ROOT
ATOM      1  C   UNL     1      44.966  49.016  38.119  1.00  0.00     0.000 C 
ENDROOT
BRANCH   1   2
ATOM      2  C   UNL     1      45.310  48.855  36.629  1.00  0.00     0.000 C 
BRANCH   2   3
ATOM      3  C   UNL     1      46.810  48.648  36.385  1.00  0.00     0.000 C 
BRANCH   3   4
ATOM      4  C   UNL     1      47.094  47.228  35.871  1.00  0.00     0.000 C 
BRANCH   4   5
ATOM      5  C   UNL     1      45.803  46.448  35.553  1.00  0.00     0.000 C 
BRANCH   5   6
ATOM      6  C   UNL     1      46.003  45.289  34.554  1.00  0.00     0.000 C 
BRANCH   6   7
ATOM      7  C   UNL     1      47.414  44.663  34.586  1.00  0.00     0.000 C 
BRANCH   7   8
ATOM      8  C   UNL     1      47.413  43.123  34.685  1.00  0.00     0.000 C 
BRANCH   8   9
ATOM      9  C   UNL     1      46.162  42.527  35.360  1.00  0.00     0.000 C 
BRANCH   9  10
ATOM     10  C   UNL     1      46.099  40.987  35.387  1.00  0.00     0.000 C 
BRANCH  10  11
ATOM     11  C   UNL     1      47.432  40.299  35.020  1.00  0.00     0.000 C 
BRANCH  11  12
ATOM     12  C   UNL     1      47.386  38.779  35.254  1.00  0.00     0.006 C 
BRANCH  12  13
ATOM     13  C   UNL     1      46.127  38.345  36.016  1.00  0.00     0.053 C 
BRANCH  13  14
ATOM     14  C   UNL     1      46.189  36.899  36.407  1.00  0.00     0.041 C 
ATOM     15  O   UNL     1      46.124  36.568  37.622  1.00  0.00    -0.550 OA
ATOM     16  O   UNL     1      46.370  35.923  35.436  1.00  0.00    -0.550 OA
ENDBRANCH  13  14
ENDBRANCH  12  13
ENDBRANCH  11  12
ENDBRANCH  10  11
ENDBRANCH   9  10
ENDBRANCH   8   9
ENDBRANCH   7   8
ENDBRANCH   6   7
ENDBRANCH   5   6
ENDBRANCH   4   5
ENDBRANCH   3   4
ENDBRANCH   2   3
ENDBRANCH   1   2
BRANCH   1  17
ATOM     17  C   UNL     1      44.382  47.739  38.762  1.00  0.00     0.000 C 
BRANCH  17  18
ATOM     18  C   UNL     1      45.471  46.804  39.314  1.00  0.00     0.000 C 
BRANCH  18  19
ATOM     19  C   UNL     1      45.103  45.314  39.188  1.00  0.00     0.000 C 
BRANCH  19  20
ATOM     20  C   UNL     1      46.234  44.437  38.609  1.00  0.00     0.000 C 
BRANCH  20  21
ATOM     21  C   UNL     1      47.630  45.029  38.875  1.00  0.00     0.000 C 
BRANCH  21  22
ATOM     22  C   UNL     1      48.693  44.512  37.892  1.00  0.00    -0.000 C 
BRANCH  22  23
ATOM     23  C   UNL     1      49.415  43.251  38.400  1.00  0.00    -0.000 C 
BRANCH  23  24
ATOM     24  C   UNL     1      48.776  41.946  37.889  1.00  0.00    -0.000 C 
BRANCH  24  25
ATOM     25  C   UNL     1      48.892  40.744  38.845  1.00  0.00    -0.000 C 
BRANCH  25  26
ATOM     26  C   UNL     1      47.615  39.890  38.895  1.00  0.00    -0.000 C 
BRANCH  26  27
ATOM     27  C   UNL     1      46.337  40.746  38.919  1.00  0.00    -0.000 C 
BRANCH  27  28
ATOM     28  C   UNL     1      45.058  39.900  39.045  1.00  0.00    -0.000 C 
BRANCH  28  29
ATOM     29  C   UNL     1      43.784  40.718  38.776  1.00  0.00    -0.003 C 
ATOM     30  C   UNL     1      43.075  40.302  37.489  1.00  0.00     0.004 C 
ENDBRANCH  28  29
ENDBRANCH  27  28
ENDBRANCH  26  27
ENDBRANCH  25  26
ENDBRANCH  24  25
ENDBRANCH  23  24
ENDBRANCH  22  23
ENDBRANCH  21  22
ENDBRANCH  20  21
ENDBRANCH  19  20
ENDBRANCH  18  19
ENDBRANCH  17  18
ENDBRANCH   1  17
TORSDOF 26
ENDMDL
MODEL 7
REMARK VINA RESULT:    -4.462      1.831      5.928
REMARK INTER + INTRA:         -16.840
REMARK INTER:                 -11.722
REMARK INTRA:                  -5.118
REMARK UNBOUND:                -5.596
REMARK SMILES CCCCCCCCCCCCCCCCCCCCCCCCCCCC(=O)[O-]
REMARK SMILES IDX 15 1 16 2 17 3 18 4 19 5 20 6 21 7 22 8 23 9 24 10 25 11
REMARK SMILES IDX 26 12 27 13 28 14 29 15 30 16 14 17 13 18 12 19 11 20 10 21
REMARK SMILES IDX 9 22 8 23 7 24 6 25 5 26 4 27 3 28 2 29 1 30
REMARK H PARENT
REMARK Flexibility Score: inf
ROOT
ATOM      1  C   UNL     1      45.625  36.577  38.025  1.00  0.00     0.000 C 
ENDROOT
BRANCH   1   2
ATOM      2  C   UNL     1      46.219  37.466  39.130  1.00  0.00     0.000 C 
BRANCH   2   3
ATOM      3  C   UNL     1      45.150  38.260  39.891  1.00  0.00     0.000 C 
BRANCH   3   4
ATOM      4  C   UNL     1      45.278  39.766  39.611  1.00  0.00     0.000 C 
BRANCH   4   5
ATOM      5  C   UNL     1      43.952  40.390  39.132  1.00  0.00     0.000 C 
BRANCH   5   6
ATOM      6  C   UNL     1      44.070  41.874  38.727  1.00  0.00     0.000 C 
BRANCH   6   7
ATOM      7  C   UNL     1      45.512  42.332  38.416  1.00  0.00     0.000 C 
BRANCH   7   8
ATOM      8  C   UNL     1      45.686  43.865  38.374  1.00  0.00     0.000 C 
BRANCH   8   9
ATOM      9  C   UNL     1      44.884  44.629  39.447  1.00  0.00     0.000 C 
BRANCH   9  10
ATOM     10  C   UNL     1      45.582  45.873  40.028  1.00  0.00     0.000 C 
BRANCH  10  11
ATOM     11  C   UNL     1      47.074  45.990  39.646  1.00  0.00     0.000 C 
BRANCH  11  12
ATOM     12  C   UNL     1      47.538  47.455  39.552  1.00  0.00     0.006 C 
BRANCH  12  13
ATOM     13  C   UNL     1      46.637  48.292  38.634  1.00  0.00     0.053 C 
BRANCH  13  14
ATOM     14  C   UNL     1      47.428  49.305  37.860  1.00  0.00     0.041 C 
ATOM     15  O   UNL     1      47.638  49.136  36.628  1.00  0.00    -0.550 OA
ATOM     16  O   UNL     1      47.973  50.405  38.508  1.00  0.00    -0.550 OA
ENDBRANCH  13  14
ENDBRANCH  12  13
ENDBRANCH  11  12
ENDBRANCH  10  11
ENDBRANCH   9  10
ENDBRANCH   8   9
ENDBRANCH   7   8
ENDBRANCH   6   7
ENDBRANCH   5   6
ENDBRANCH   4   5
ENDBRANCH   3   4
ENDBRANCH   2   3
ENDBRANCH   1   2
BRANCH   1  17
ATOM     17  C   UNL     1      45.869  37.115  36.598  1.00  0.00     0.000 C 
BRANCH  17  18
ATOM     18  C   UNL     1      44.921  38.269  36.231  1.00  0.00     0.000 C 
BRANCH  18  19
ATOM     19  C   UNL     1      45.666  39.571  35.887  1.00  0.00     0.000 C 
BRANCH  19  20
ATOM     20  C   UNL     1      47.203  39.425  35.861  1.00  0.00     0.000 C 
BRANCH  20  21
ATOM     21  C   UNL     1      47.911  40.533  36.663  1.00  0.00     0.000 C 
BRANCH  21  22
ATOM     22  C   UNL     1      48.542  40.015  37.965  1.00  0.00    -0.000 C 
BRANCH  22  23
ATOM     23  C   UNL     1      48.799  41.133  38.991  1.00  0.00    -0.000 C 
BRANCH  23  24
ATOM     24  C   UNL     1      49.864  42.144  38.524  1.00  0.00    -0.000 C 
BRANCH  24  25
ATOM     25  C   UNL     1      49.327  43.544  38.173  1.00  0.00    -0.000 C 
BRANCH  25  26
ATOM     26  C   UNL     1      49.606  43.947  36.717  1.00  0.00    -0.000 C 
BRANCH  26  27
ATOM     27  C   UNL     1      48.316  44.226  35.927  1.00  0.00    -0.000 C 
BRANCH  27  28
ATOM     28  C   UNL     1      47.873  45.697  36.013  1.00  0.00    -0.000 C 
BRANCH  28  29
ATOM     29  C   UNL     1      46.497  45.935  35.370  1.00  0.00    -0.003 C 
ATOM     30  C   UNL     1      46.049  44.772  34.486  1.00  0.00     0.004 C 
ENDBRANCH  28  29
ENDBRANCH  27  28
ENDBRANCH  26  27
ENDBRANCH  25  26
ENDBRANCH  24  25
ENDBRANCH  23  24
ENDBRANCH  22  23
ENDBRANCH  21  22
ENDBRANCH  20  21
ENDBRANCH  19  20
ENDBRANCH  18  19
ENDBRANCH  17  18
ENDBRANCH   1  17
TORSDOF 26
ENDMDL
MODEL 8
REMARK VINA RESULT:    -4.414      1.266      2.236
REMARK INTER + INTRA:         -16.720
REMARK INTER:                 -11.651
REMARK INTRA:                  -5.069
REMARK UNBOUND:                -5.596
REMARK SMILES CCCCCCCCCCCCCCCCCCCCCCCCCCCC(=O)[O-]
REMARK SMILES IDX 15 1 16 2 17 3 18 4 19 5 20 6 21 7 22 8 23 9 24 10 25 11
REMARK SMILES IDX 26 12 27 13 28 14 29 15 30 16 14 17 13 18 12 19 11 20 10 21
REMARK SMILES IDX 9 22 8 23 7 24 6 25 5 26 4 27 3 28 2 29 1 30
REMARK H PARENT
REMARK Flexibility Score: inf
ROOT
ATOM      1  C   UNL     1      48.601  42.831  38.490  1.00  0.00     0.000 C 
ENDROOT
BRANCH   1   2
ATOM      2  C   UNL     1      48.321  43.721  37.267  1.00  0.00     0.000 C 
BRANCH   2   3
ATOM      3  C   UNL     1      46.824  43.958  37.035  1.00  0.00     0.000 C 
BRANCH   3   4
ATOM      4  C   UNL     1      46.515  44.109  35.537  1.00  0.00     0.000 C 
BRANCH   4   5
ATOM      5  C   UNL     1      45.759  45.415  35.221  1.00  0.00     0.000 C 
BRANCH   5   6
ATOM      6  C   UNL     1      45.714  46.410  36.398  1.00  0.00     0.000 C 
BRANCH   6   7
ATOM      7  C   UNL     1      45.894  47.888  35.986  1.00  0.00     0.000 C 
BRANCH   7   8
ATOM      8  C   UNL     1      47.277  48.472  36.340  1.00  0.00     0.000 C 
BRANCH   8   9
ATOM      9  C   UNL     1      48.347  47.418  36.684  1.00  0.00     0.000 C 
BRANCH   9  10
ATOM     10  C   UNL     1      49.002  47.573  38.070  1.00  0.00     0.000 C 
BRANCH  10  11
ATOM     11  C   UNL     1      48.350  46.709  39.171  1.00  0.00     0.000 C 
BRANCH  11  12
ATOM     12  C   UNL     1      47.103  47.378  39.775  1.00  0.00     0.006 C 
BRANCH  12  13
ATOM     13  C   UNL     1      46.289  46.412  40.646  1.00  0.00     0.053 C 
BRANCH  13  14
ATOM     14  C   UNL     1      44.917  46.184  40.084  1.00  0.00     0.041 C 
ATOM     15  O   UNL     1      44.469  45.012  39.964  1.00  0.00    -0.550 OA
ATOM     16  O   UNL     1      44.157  47.261  39.645  1.00  0.00    -0.550 OA
ENDBRANCH  13  14
ENDBRANCH  12  13
ENDBRANCH  11  12
ENDBRANCH  10  11
ENDBRANCH   9  10
ENDBRANCH   8   9
ENDBRANCH   7   8
ENDBRANCH   6   7
ENDBRANCH   5   6
ENDBRANCH   4   5
ENDBRANCH   3   4
ENDBRANCH   2   3
ENDBRANCH   1   2
BRANCH   1  17
ATOM     17  C   UNL     1      49.180  41.446  38.130  1.00  0.00     0.000 C 
BRANCH  17  18
ATOM     18  C   UNL     1      48.900  41.049  36.670  1.00  0.00     0.000 C 
BRANCH  18  19
ATOM     19  C   UNL     1      47.889  39.895  36.546  1.00  0.00     0.000 C 
BRANCH  19  20
ATOM     20  C   UNL     1      46.970  39.998  35.309  1.00  0.00     0.000 C 
BRANCH  20  21
ATOM     21  C   UNL     1      45.597  40.607  35.647  1.00  0.00     0.000 C 
BRANCH  21  22
ATOM     22  C   UNL     1      44.598  39.566  36.175  1.00  0.00    -0.000 C 
BRANCH  22  23
ATOM     23  C   UNL     1      43.884  40.020  37.461  1.00  0.00    -0.000 C 
BRANCH  23  24
ATOM     24  C   UNL     1      44.776  40.888  38.369  1.00  0.00    -0.000 C 
BRANCH  24  25
ATOM     25  C   UNL     1      45.724  40.103  39.295  1.00  0.00    -0.000 C 
BRANCH  25  26
ATOM     26  C   UNL     1      45.140  38.757  39.751  1.00  0.00    -0.000 C 
BRANCH  26  27
ATOM     27  C   UNL     1      46.100  37.582  39.497  1.00  0.00    -0.000 C 
BRANCH  27  28
ATOM     28  C   UNL     1      45.709  36.750  38.263  1.00  0.00    -0.000 C 
BRANCH  28  29
ATOM     29  C   UNL     1      46.873  36.582  37.274  1.00  0.00    -0.003 C 
ATOM     30  C   UNL     1      46.402  36.288  35.851  1.00  0.00     0.004 C 
ENDBRANCH  28  29
ENDBRANCH  27  28
ENDBRANCH  26  27
ENDBRANCH  25  26
ENDBRANCH  24  25
ENDBRANCH  23  24
ENDBRANCH  22  23
ENDBRANCH  21  22
ENDBRANCH  20  21
ENDBRANCH  19  20
ENDBRANCH  18  19
ENDBRANCH  17  18
ENDBRANCH   1  17
TORSDOF 26
ENDMDL
MODEL 9
REMARK VINA RESULT:    -4.389      3.151      7.596
REMARK INTER + INTRA:         -16.656
REMARK INTER:                 -11.785
REMARK INTRA:                  -4.872
REMARK UNBOUND:                -5.596
REMARK SMILES CCCCCCCCCCCCCCCCCCCCCCCCCCCC(=O)[O-]
REMARK SMILES IDX 15 1 16 2 17 3 18 4 19 5 20 6 21 7 22 8 23 9 24 10 25 11
REMARK SMILES IDX 26 12 27 13 28 14 29 15 30 16 14 17 13 18 12 19 11 20 10 21
REMARK SMILES IDX 9 22 8 23 7 24 6 25 5 26 4 27 3 28 2 29 1 30
REMARK H PARENT
REMARK Flexibility Score: inf
ROOT
ATOM      1  C   UNL     1      48.690  43.486  38.484  1.00  0.00     0.000 C 
ENDROOT
BRANCH   1   2
ATOM      2  C   UNL     1      49.066  41.996  38.555  1.00  0.00     0.000 C 
BRANCH   2   3
ATOM      3  C   UNL     1      49.262  41.367  37.170  1.00  0.00     0.000 C 
BRANCH   3   4
ATOM      4  C   UNL     1      48.167  40.331  36.874  1.00  0.00     0.000 C 
BRANCH   4   5
ATOM      5  C   UNL     1      47.212  40.788  35.753  1.00  0.00     0.000 C 
BRANCH   5   6
ATOM      6  C   UNL     1      45.722  40.759  36.152  1.00  0.00     0.000 C 
BRANCH   6   7
ATOM      7  C   UNL     1      45.369  41.671  37.347  1.00  0.00     0.000 C 
BRANCH   7   8
ATOM      8  C   UNL     1      44.680  40.935  38.515  1.00  0.00     0.000 C 
BRANCH   8   9
ATOM      9  C   UNL     1      45.591  39.951  39.276  1.00  0.00     0.000 C 
BRANCH   9  10
ATOM     10  C   UNL     1      44.920  38.633  39.707  1.00  0.00     0.000 C 
BRANCH  10  11
ATOM     11  C   UNL     1      45.659  37.366  39.223  1.00  0.00     0.000 C 
BRANCH  11  12
ATOM     12  C   UNL     1      45.702  37.268  37.688  1.00  0.00     0.006 C 
BRANCH  12  13
ATOM     13  C   UNL     1      47.102  36.916  37.167  1.00  0.00     0.053 C 
BRANCH  13  14
ATOM     14  C   UNL     1      47.087  36.625  35.696  1.00  0.00     0.041 C 
ATOM     15  O   UNL     1      47.689  37.388  34.894  1.00  0.00    -0.550 OA
ATOM     16  O   UNL     1      46.367  35.542  35.209  1.00  0.00    -0.550 OA
ENDBRANCH  13  14
ENDBRANCH  12  13
ENDBRANCH  11  12
ENDBRANCH  10  11
ENDBRANCH   9  10
ENDBRANCH   8   9
ENDBRANCH   7   8
ENDBRANCH   6   7
ENDBRANCH   5   6
ENDBRANCH   4   5
ENDBRANCH   3   4
ENDBRANCH   2   3
ENDBRANCH   1   2
BRANCH   1  17
ATOM     17  C   UNL     1      49.250  44.209  37.240  1.00  0.00     0.000 C 
BRANCH  17  18
ATOM     18  C   UNL     1      48.337  45.348  36.758  1.00  0.00     0.000 C 
BRANCH  18  19
ATOM     19  C   UNL     1      46.905  44.877  36.442  1.00  0.00     0.000 C 
BRANCH  19  20
ATOM     20  C   UNL     1      45.868  46.020  36.388  1.00  0.00     0.000 C 
BRANCH  20  21
ATOM     21  C   UNL     1      46.269  47.130  35.399  1.00  0.00     0.000 C 
BRANCH  21  22
ATOM     22  C   UNL     1      45.784  48.521  35.836  1.00  0.00    -0.000 C 
BRANCH  22  23
ATOM     23  C   UNL     1      45.270  48.546  37.286  1.00  0.00    -0.000 C 
BRANCH  23  24
ATOM     24  C   UNL     1      45.809  49.742  38.094  1.00  0.00    -0.000 C 
BRANCH  24  25
ATOM     25  C   UNL     1      47.333  49.750  38.311  1.00  0.00    -0.000 C 
BRANCH  25  26
ATOM     26  C   UNL     1      47.902  48.358  38.631  1.00  0.00    -0.000 C 
BRANCH  26  27
ATOM     27  C   UNL     1      47.479  47.856  40.022  1.00  0.00    -0.000 C 
BRANCH  27  28
ATOM     28  C   UNL     1      46.988  46.398  40.004  1.00  0.00    -0.000 C 
BRANCH  28  29
ATOM     29  C   UNL     1      45.467  46.288  40.192  1.00  0.00    -0.003 C 
ATOM     30  C   UNL     1      44.897  44.977  39.652  1.00  0.00     0.004 C 
ENDBRANCH  28  29
ENDBRANCH  27  28
ENDBRANCH  26  27
ENDBRANCH  25  26
ENDBRANCH  24  25
ENDBRANCH  23  24
ENDBRANCH  22  23
ENDBRANCH  21  22
ENDBRANCH  20  21
ENDBRANCH  19  20
ENDBRANCH  18  19
ENDBRANCH  17  18
ENDBRANCH   1  17
TORSDOF 26
ENDMDL
