MODEL 1
REMARK VINA RESULT:    -5.127      0.000      0.000
REMARK INTER + INTRA:          -6.332
REMARK INTER:                  -6.026
REMARK INTRA:                  -0.306
REMARK UNBOUND:                -0.306
REMARK SMILES O=c1cc(-c2ccc(O)c(O)c2)oc2cc(O)cc(O)c12
REMARK SMILES IDX 4 1 3 2 2 3 1 4 21 5 19 6 18 7 16 8 15 9 14 10 13 11 5 12
REMARK SMILES IDX 6 13 7 14 8 15 12 16 10 17 9 18 11 20 20 22 17 24
REMARK H PARENT 9 19 11 21 20 23 17 25
REMARK Flexibility Score: inf
ROOT
ATOM      1  C   UNL     1      98.787 109.000 108.775  1.00  0.00     0.138 A 
ATOM      2  C   UNL     1      99.909 108.944 109.613  1.00  0.00     0.100 A 
ATOM      3  C   UNL     1     100.234 107.748 110.253  1.00  0.00     0.197 A 
ATOM      4  O   UNL     1     101.278 107.716 110.954  1.00  0.00    -0.289 OA
ATOM      5  C   UNL     1      99.411 106.610 110.079  1.00  0.00     0.107 A 
ATOM      6  C   UNL     1      99.624 105.346 110.707  1.00  0.00     0.134 A 
ATOM      7  C   UNL     1      98.797 104.264 110.381  1.00  0.00     0.093 A 
ATOM      8  C   UNL     1      97.730 104.415 109.495  1.00  0.00     0.123 A 
ATOM      9  C   UNL     1      97.481 105.657 108.914  1.00  0.00     0.094 A 
ATOM     10  C   UNL     1      98.309 106.747 109.192  1.00  0.00     0.146 A 
ATOM     11  O   UNL     1      98.048 107.910 108.603  1.00  0.00    -0.456 OA
ENDROOT
BRANCH   1  12
ATOM     12  C   UNL     1      98.392 110.248 108.072  1.00  0.00     0.021 A 
ATOM     13  C   UNL     1      99.379 111.186 107.726  1.00  0.00     0.016 A 
ATOM     14  C   UNL     1      99.034 112.372 107.070  1.00  0.00     0.051 A 
ATOM     15  C   UNL     1      97.696 112.643 106.760  1.00  0.00     0.157 A 
ATOM     16  C   UNL     1      97.046 110.533 107.769  1.00  0.00     0.062 A 
ATOM     17  C   UNL     1      96.701 111.724 107.113  1.00  0.00     0.158 A 
BRANCH  15  18
ATOM     18  O   UNL     1      97.349 113.824 106.106  1.00  0.00    -0.504 OA
ATOM     19  H   UNL     1      98.039 114.383 105.619  1.00  0.00     0.293 HD
ENDBRANCH  15  18
BRANCH  17  20
ATOM     20  O   UNL     1      95.369 112.003 106.813  1.00  0.00    -0.504 OA
ATOM     21  H   UNL     1      95.002 111.897 105.874  1.00  0.00     0.293 HD
ENDBRANCH  17  20
ENDBRANCH   1  12
BRANCH   6  22
ATOM     22  O   UNL     1     100.612 105.105 111.668  1.00  0.00    -0.507 OA
ATOM     23  H   UNL     1     101.316 104.387 111.608  1.00  0.00     0.293 HD
ENDBRANCH   6  22
BRANCH   8  24
ATOM     24  O   UNL     1      96.918 103.319 109.206  1.00  0.00    -0.508 OA
ATOM     25  H   UNL     1      97.300 102.465 108.818  1.00  0.00     0.293 HD
ENDBRANCH   8  24
TORSDOF 5
ENDMDL
MODEL 2
REMARK VINA RESULT:    -4.951      1.541      7.384
REMARK INTER + INTRA:          -6.125
REMARK INTER:                  -5.844
REMARK INTRA:                  -0.281
REMARK UNBOUND:                -0.306
REMARK SMILES O=c1cc(-c2ccc(O)c(O)c2)oc2cc(O)cc(O)c12
REMARK SMILES IDX 4 1 3 2 2 3 1 4 21 5 19 6 18 7 16 8 15 9 14 10 13 11 5 12
REMARK SMILES IDX 6 13 7 14 8 15 12 16 10 17 9 18 11 20 20 22 17 24
REMARK H PARENT 9 19 11 21 20 23 17 25
REMARK Flexibility Score: inf
ROOT
ATOM      1  C   UNL     1      98.425 109.528 108.344  1.00  0.00     0.138 A 
ATOM      2  C   UNL     1      97.152 110.030 108.039  1.00  0.00     0.100 A 
ATOM      3  C   UNL     1      97.031 111.266 107.404  1.00  0.00     0.197 A 
ATOM      4  O   UNL     1      95.878 111.663 107.094  1.00  0.00    -0.289 OA
ATOM      5  C   UNL     1      98.191 112.019 107.104  1.00  0.00     0.107 A 
ATOM      6  C   UNL     1      98.190 113.308 106.489  1.00  0.00     0.134 A 
ATOM      7  C   UNL     1      99.406 113.914 106.152  1.00  0.00     0.093 A 
ATOM      8  C   UNL     1     100.623 113.307 106.459  1.00  0.00     0.123 A 
ATOM      9  C   UNL     1     100.638 112.071 107.106  1.00  0.00     0.094 A 
ATOM     10  C   UNL     1      99.441 111.425 107.424  1.00  0.00     0.146 A 
ATOM     11  O   UNL     1      99.499 110.240 108.023  1.00  0.00    -0.456 OA
ENDROOT
BRANCH   1  12
ATOM     12  C   UNL     1      98.612 108.220 109.022  1.00  0.00     0.021 A 
ATOM     13  C   UNL     1      99.596 108.092 110.017  1.00  0.00     0.016 A 
ATOM     14  C   UNL     1      99.798 106.871 110.666  1.00  0.00     0.051 A 
ATOM     15  C   UNL     1      99.025 105.754 110.324  1.00  0.00     0.157 A 
ATOM     16  C   UNL     1      97.847 107.089 108.674  1.00  0.00     0.062 A 
ATOM     17  C   UNL     1      98.052 105.862 109.324  1.00  0.00     0.158 A 
BRANCH  15  18
ATOM     18  O   UNL     1      99.223 104.535 110.969  1.00  0.00    -0.504 OA
ATOM     19  H   UNL     1      99.109 103.653 110.484  1.00  0.00     0.293 HD
ENDBRANCH  15  18
BRANCH  17  20
ATOM     20  O   UNL     1      97.293 104.746 108.978  1.00  0.00    -0.504 OA
ATOM     21  H   UNL     1      97.682 103.810 109.003  1.00  0.00     0.293 HD
ENDBRANCH  17  20
ENDBRANCH   1  12
BRANCH   6  22
ATOM     22  O   UNL     1      97.032 114.041 106.209  1.00  0.00    -0.507 OA
ATOM     23  H   UNL     1      96.842 114.975 106.538  1.00  0.00     0.293 HD
ENDBRANCH   6  22
BRANCH   8  24
ATOM     24  O   UNL     1     101.815 113.947 106.122  1.00  0.00    -0.508 OA
ATOM     25  H   UNL     1     102.053 114.855 106.503  1.00  0.00     0.293 HD
ENDBRANCH   8  24
TORSDOF 5
ENDMDL
MODEL 3
REMARK VINA RESULT:    -4.913      3.639      6.086
REMARK INTER + INTRA:          -6.080
REMARK INTER:                  -5.767
REMARK INTRA:                  -0.313
REMARK UNBOUND:                -0.306
REMARK SMILES O=c1cc(-c2ccc(O)c(O)c2)oc2cc(O)cc(O)c12
REMARK SMILES IDX 4 1 3 2 2 3 1 4 21 5 19 6 18 7 16 8 15 9 14 10 13 11 5 12
REMARK SMILES IDX 6 13 7 14 8 15 12 16 10 17 9 18 11 20 20 22 17 24
REMARK H PARENT 9 19 11 21 20 23 17 25
REMARK Flexibility Score: inf
ROOT
ATOM      1  C   UNL     1     100.664 110.960 108.139  1.00  0.00     0.138 A 
ATOM      2  C   UNL     1     101.084 109.660 108.452  1.00  0.00     0.100 A 
ATOM      3  C   UNL     1     102.418 109.427 108.785  1.00  0.00     0.197 A 
ATOM      4  O   UNL     1     102.753 108.260 109.115  1.00  0.00    -0.289 OA
ATOM      5  C   UNL     1     103.344 110.498 108.772  1.00  0.00     0.107 A 
ATOM      6  C   UNL     1     104.737 110.375 109.062  1.00  0.00     0.134 A 
ATOM      7  C   UNL     1     105.537 111.523 109.113  1.00  0.00     0.093 A 
ATOM      8  C   UNL     1     105.008 112.782 108.828  1.00  0.00     0.123 A 
ATOM      9  C   UNL     1     103.660 112.909 108.495  1.00  0.00     0.094 A 
ATOM     10  C   UNL     1     102.828 111.786 108.469  1.00  0.00     0.146 A 
ATOM     11  O   UNL     1     101.546 111.953 108.165  1.00  0.00    -0.456 OA
ENDROOT
BRANCH   1  12
ATOM     12  C   UNL     1      99.256 111.264 107.774  1.00  0.00     0.021 A 
ATOM     13  C   UNL     1      98.245 110.343 108.095  1.00  0.00     0.016 A 
ATOM     14  C   UNL     1      96.914 110.601 107.756  1.00  0.00     0.051 A 
ATOM     15  C   UNL     1      96.574 111.780 107.081  1.00  0.00     0.157 A 
ATOM     16  C   UNL     1      98.909 112.442 107.083  1.00  0.00     0.062 A 
ATOM     17  C   UNL     1      97.572 112.699 106.741  1.00  0.00     0.158 A 
BRANCH  15  18
ATOM     18  O   UNL     1      95.247 112.041 106.742  1.00  0.00    -0.504 OA
ATOM     19  H   UNL     1      94.821 111.636 105.917  1.00  0.00     0.293 HD
ENDBRANCH  15  18
BRANCH  17  20
ATOM     20  O   UNL     1      97.231 113.866 106.059  1.00  0.00    -0.504 OA
ATOM     21  H   UNL     1      96.519 114.496 106.409  1.00  0.00     0.293 HD
ENDBRANCH  17  20
ENDBRANCH   1  12
BRANCH   6  22
ATOM     22  O   UNL     1     105.386 109.155 109.283  1.00  0.00    -0.507 OA
ATOM     23  H   UNL     1     105.659 108.798 110.185  1.00  0.00     0.293 HD
ENDBRANCH   6  22
BRANCH   8  24
ATOM     24  O   UNL     1     105.838 113.901 108.873  1.00  0.00    -0.508 OA
ATOM     25  H   UNL     1     106.242 114.225 109.744  1.00  0.00     0.293 HD
ENDBRANCH   8  24
TORSDOF 5
ENDMDL
MODEL 4
REMARK VINA RESULT:    -4.899      1.985      6.783
REMARK INTER + INTRA:          -6.064
REMARK INTER:                  -5.784
REMARK INTRA:                  -0.280
REMARK UNBOUND:                -0.306
REMARK SMILES O=c1cc(-c2ccc(O)c(O)c2)oc2cc(O)cc(O)c12
REMARK SMILES IDX 4 1 3 2 2 3 1 4 21 5 19 6 18 7 16 8 15 9 14 10 13 11 5 12
REMARK SMILES IDX 6 13 7 14 8 15 12 16 10 17 9 18 11 20 20 22 17 24
REMARK H PARENT 9 19 11 21 20 23 17 25
REMARK Flexibility Score: inf
ROOT
ATOM      1  C   UNL     1      98.259 109.124 108.496  1.00  0.00     0.138 A 
ATOM      2  C   UNL     1      99.645 109.129 108.704  1.00  0.00     0.100 A 
ATOM      3  C   UNL     1     100.404 110.219 108.275  1.00  0.00     0.197 A 
ATOM      4  O   UNL     1     101.637 110.218 108.525  1.00  0.00    -0.289 OA
ATOM      5  C   UNL     1      99.774 111.294 107.603  1.00  0.00     0.107 A 
ATOM      6  C   UNL     1     100.450 112.442 107.091  1.00  0.00     0.134 A 
ATOM      7  C   UNL     1      99.706 113.489 106.530  1.00  0.00     0.093 A 
ATOM      8  C   UNL     1      98.320 113.403 106.412  1.00  0.00     0.123 A 
ATOM      9  C   UNL     1      97.653 112.265 106.863  1.00  0.00     0.094 A 
ATOM     10  C   UNL     1      98.363 111.219 107.458  1.00  0.00     0.146 A 
ATOM     11  O   UNL     1      97.688 110.159 107.892  1.00  0.00    -0.456 OA
ENDROOT
BRANCH   1  12
ATOM     12  C   UNL     1      97.404 107.989 108.929  1.00  0.00     0.021 A 
ATOM     13  C   UNL     1      96.165 108.251 109.537  1.00  0.00     0.016 A 
ATOM     14  C   UNL     1      95.344 107.202 109.960  1.00  0.00     0.051 A 
ATOM     15  C   UNL     1      95.754 105.873 109.791  1.00  0.00     0.157 A 
ATOM     16  C   UNL     1      97.816 106.650 108.774  1.00  0.00     0.062 A 
ATOM     17  C   UNL     1      96.993 105.598 109.201  1.00  0.00     0.158 A 
BRANCH  15  18
ATOM     18  O   UNL     1      94.938 104.825 110.211  1.00  0.00    -0.504 OA
ATOM     19  H   UNL     1      95.140 103.864 109.965  1.00  0.00     0.293 HD
ENDBRANCH  15  18
BRANCH  17  20
ATOM     20  O   UNL     1      97.402 104.275 109.045  1.00  0.00    -0.504 OA
ATOM     21  H   UNL     1      98.281 104.039 108.600  1.00  0.00     0.293 HD
ENDBRANCH  17  20
ENDBRANCH   1  12
BRANCH   6  22
ATOM     22  O   UNL     1     101.840 112.596 107.086  1.00  0.00    -0.507 OA
ATOM     23  H   UNL     1     102.463 112.268 107.807  1.00  0.00     0.293 HD
ENDBRANCH   6  22
BRANCH   8  24
ATOM     24  O   UNL     1      97.614 114.458 105.834  1.00  0.00    -0.508 OA
ATOM     25  H   UNL     1      97.984 115.402 105.828  1.00  0.00     0.293 HD
ENDBRANCH   8  24
TORSDOF 5
ENDMDL
MODEL 5
REMARK VINA RESULT:    -4.827     13.159     14.790
REMARK INTER + INTRA:          -5.980
REMARK INTER:                  -5.686
REMARK INTRA:                  -0.294
REMARK UNBOUND:                -0.306
REMARK SMILES O=c1cc(-c2ccc(O)c(O)c2)oc2cc(O)cc(O)c12
REMARK SMILES IDX 4 1 3 2 2 3 1 4 21 5 19 6 18 7 16 8 15 9 14 10 13 11 5 12
REMARK SMILES IDX 6 13 7 14 8 15 12 16 10 17 9 18 11 20 20 22 17 24
REMARK H PARENT 9 19 11 21 20 23 17 25
REMARK Flexibility Score: inf
ROOT
ATOM      1  C   UNL     1     109.622 101.200 102.766  1.00  0.00     0.138 A 
ATOM      2  C   UNL     1     109.768 100.199 101.796  1.00  0.00     0.100 A 
ATOM      3  C   UNL     1     108.682  99.385 101.475  1.00  0.00     0.197 A 
ATOM      4  O   UNL     1     108.829  98.532 100.562  1.00  0.00    -0.289 OA
ATOM      5  C   UNL     1     107.451  99.553 102.155  1.00  0.00     0.107 A 
ATOM      6  C   UNL     1     106.284  98.760 101.935  1.00  0.00     0.134 A 
ATOM      7  C   UNL     1     105.094  99.084 102.599  1.00  0.00     0.093 A 
ATOM      8  C   UNL     1     105.043 100.134 103.515  1.00  0.00     0.123 A 
ATOM      9  C   UNL     1     106.190 100.884 103.774  1.00  0.00     0.094 A 
ATOM     10  C   UNL     1     107.383 100.608 103.103  1.00  0.00     0.146 A 
ATOM     11  O   UNL     1     108.448 101.358 103.366  1.00  0.00    -0.456 OA
ENDROOT
BRANCH   1  12
ATOM     12  C   UNL     1     110.746 102.092 103.149  1.00  0.00     0.021 A 
ATOM     13  C   UNL     1     112.023 101.544 103.357  1.00  0.00     0.016 A 
ATOM     14  C   UNL     1     113.096 102.360 103.725  1.00  0.00     0.051 A 
ATOM     15  C   UNL     1     112.908 103.736 103.902  1.00  0.00     0.157 A 
ATOM     16  C   UNL     1     110.561 103.476 103.341  1.00  0.00     0.062 A 
ATOM     17  C   UNL     1     111.638 104.294 103.713  1.00  0.00     0.158 A 
BRANCH  15  18
ATOM     18  O   UNL     1     113.976 104.553 104.268  1.00  0.00    -0.504 OA
ATOM     19  H   UNL     1     114.922 104.358 103.962  1.00  0.00     0.293 HD
ENDBRANCH  15  18
BRANCH  17  20
ATOM     20  O   UNL     1     111.453 105.662 103.901  1.00  0.00    -0.504 OA
ATOM     21  H   UNL     1     111.320 106.293 103.119  1.00  0.00     0.293 HD
ENDBRANCH  17  20
ENDBRANCH   1  12
BRANCH   6  22
ATOM     22  O   UNL     1     106.245  97.637 101.101  1.00  0.00    -0.507 OA
ATOM     23  H   UNL     1     107.032  97.044 100.889  1.00  0.00     0.293 HD
ENDBRANCH   6  22
BRANCH   8  24
ATOM     24  O   UNL     1     103.845 100.417 104.168  1.00  0.00    -0.508 OA
ATOM     25  H   UNL     1     103.809 101.051 104.957  1.00  0.00     0.293 HD
ENDBRANCH   8  24
TORSDOF 5
ENDMDL
MODEL 6
REMARK VINA RESULT:    -4.806      7.770     10.304
REMARK INTER + INTRA:          -5.955
REMARK INTER:                  -5.642
REMARK INTRA:                  -0.313
REMARK UNBOUND:                -0.306
REMARK SMILES O=c1cc(-c2ccc(O)c(O)c2)oc2cc(O)cc(O)c12
REMARK SMILES IDX 4 1 3 2 2 3 1 4 21 5 19 6 18 7 16 8 15 9 14 10 13 11 5 12
REMARK SMILES IDX 6 13 7 14 8 15 12 16 10 17 9 18 11 20 20 22 17 24
REMARK H PARENT 9 19 11 21 20 23 17 25
REMARK Flexibility Score: inf
ROOT
ATOM      1  C   UNL     1     106.899 108.125 110.257  1.00  0.00     0.138 A 
ATOM      2  C   UNL     1     107.703 107.311 111.065  1.00  0.00     0.100 A 
ATOM      3  C   UNL     1     109.070 107.571 111.163  1.00  0.00     0.197 A 
ATOM      4  O   UNL     1     109.756 106.857 111.940  1.00  0.00    -0.289 OA
ATOM      5  C   UNL     1     109.640 108.631 110.419  1.00  0.00     0.107 A 
ATOM      6  C   UNL     1     111.028 108.969 110.412  1.00  0.00     0.134 A 
ATOM      7  C   UNL     1     111.459 110.102 109.712  1.00  0.00     0.093 A 
ATOM      8  C   UNL     1     110.566 110.875 108.972  1.00  0.00     0.123 A 
ATOM      9  C   UNL     1     109.216 110.526 108.930  1.00  0.00     0.094 A 
ATOM     10  C   UNL     1     108.748 109.422 109.646  1.00  0.00     0.146 A 
ATOM     11  O   UNL     1     107.452 109.134 109.593  1.00  0.00    -0.456 OA
ENDROOT
BRANCH   1  12
ATOM     12  C   UNL     1     105.438 107.892 110.114  1.00  0.00     0.021 A 
ATOM     13  C   UNL     1     104.769 107.103 111.064  1.00  0.00     0.016 A 
ATOM     14  C   UNL     1     103.397 106.862 110.949  1.00  0.00     0.051 A 
ATOM     15  C   UNL     1     102.674 107.398 109.876  1.00  0.00     0.157 A 
ATOM     16  C   UNL     1     104.707 108.418 109.030  1.00  0.00     0.062 A 
ATOM     17  C   UNL     1     103.331 108.173 108.914  1.00  0.00     0.158 A 
BRANCH  15  18
ATOM     18  O   UNL     1     101.306 107.160 109.759  1.00  0.00    -0.504 OA
ATOM     19  H   UNL     1     100.884 106.917 108.871  1.00  0.00     0.293 HD
ENDBRANCH  15  18
BRANCH  17  20
ATOM     20  O   UNL     1     102.610 108.695 107.841  1.00  0.00    -0.504 OA
ATOM     21  H   UNL     1     102.418 109.688 107.763  1.00  0.00     0.293 HD
ENDBRANCH  17  20
ENDBRANCH   1  12
BRANCH   6  22
ATOM     22  O   UNL     1     112.019 108.219 111.053  1.00  0.00    -0.507 OA
ATOM     23  H   UNL     1     111.995 107.929 112.018  1.00  0.00     0.293 HD
ENDBRANCH   6  22
BRANCH   8  24
ATOM     24  O   UNL     1     111.034 111.988 108.274  1.00  0.00    -0.508 OA
ATOM     25  H   UNL     1     111.220 111.949 107.279  1.00  0.00     0.293 HD
ENDBRANCH   8  24
TORSDOF 5
ENDMDL
MODEL 7
REMARK VINA RESULT:    -4.802      7.781      9.668
REMARK INTER + INTRA:          -5.950
REMARK INTER:                  -5.635
REMARK INTRA:                  -0.315
REMARK UNBOUND:                -0.306
REMARK SMILES O=c1cc(-c2ccc(O)c(O)c2)oc2cc(O)cc(O)c12
REMARK SMILES IDX 4 1 3 2 2 3 1 4 21 5 19 6 18 7 16 8 15 9 14 10 13 11 5 12
REMARK SMILES IDX 6 13 7 14 8 15 12 16 10 17 9 18 11 20 20 22 17 24
REMARK H PARENT 9 19 11 21 20 23 17 25
REMARK Flexibility Score: inf
ROOT
ATOM      1  C   UNL     1     107.969 108.408 110.027  1.00  0.00     0.138 A 
ATOM      2  C   UNL     1     108.313 107.242 110.723  1.00  0.00     0.100 A 
ATOM      3  C   UNL     1     107.316 106.341 111.096  1.00  0.00     0.197 A 
ATOM      4  O   UNL     1     107.662 105.276 111.671  1.00  0.00    -0.289 OA
ATOM      5  C   UNL     1     105.962 106.628 110.801  1.00  0.00     0.107 A 
ATOM      6  C   UNL     1     104.855 105.800 111.162  1.00  0.00     0.134 A 
ATOM      7  C   UNL     1     103.568 106.140 110.729  1.00  0.00     0.093 A 
ATOM      8  C   UNL     1     103.338 107.306 109.998  1.00  0.00     0.123 A 
ATOM      9  C   UNL     1     104.404 108.148 109.683  1.00  0.00     0.094 A 
ATOM     10  C   UNL     1     105.705 107.819 110.071  1.00  0.00     0.146 A 
ATOM     11  O   UNL     1     106.694 108.640 109.734  1.00  0.00    -0.456 OA
ENDROOT
BRANCH   1  12
ATOM     12  C   UNL     1     108.990 109.404 109.609  1.00  0.00     0.021 A 
ATOM     13  C   UNL     1     110.351 109.057 109.653  1.00  0.00     0.016 A 
ATOM     14  C   UNL     1     111.332 109.976 109.272  1.00  0.00     0.051 A 
ATOM     15  C   UNL     1     110.968 111.261 108.849  1.00  0.00     0.157 A 
ATOM     16  C   UNL     1     108.632 110.702 109.195  1.00  0.00     0.062 A 
ATOM     17  C   UNL     1     109.618 111.625 108.815  1.00  0.00     0.158 A 
BRANCH  15  18
ATOM     18  O   UNL     1     111.944 112.181 108.468  1.00  0.00    -0.504 OA
ATOM     19  H   UNL     1     111.705 113.038 107.985  1.00  0.00     0.293 HD
ENDBRANCH  15  18
BRANCH  17  20
ATOM     20  O   UNL     1     109.261 112.909 108.405  1.00  0.00    -0.504 OA
ATOM     21  H   UNL     1     108.716 113.066 107.565  1.00  0.00     0.293 HD
ENDBRANCH  17  20
ENDBRANCH   1  12
BRANCH   6  22
ATOM     22  O   UNL     1     104.961 104.655 111.957  1.00  0.00    -0.507 OA
ATOM     23  H   UNL     1     105.735 104.009 111.945  1.00  0.00     0.293 HD
ENDBRANCH   6  22
BRANCH   8  24
ATOM     24  O   UNL     1     102.041 107.620 109.597  1.00  0.00    -0.508 OA
ATOM     25  H   UNL     1     101.310 106.919 109.571  1.00  0.00     0.293 HD
ENDBRANCH   8  24
TORSDOF 5
ENDMDL
MODEL 8
REMARK VINA RESULT:    -4.740     13.726     16.070
REMARK INTER + INTRA:          -5.877
REMARK INTER:                  -5.591
REMARK INTRA:                  -0.285
REMARK UNBOUND:                -0.306
REMARK SMILES O=c1cc(-c2ccc(O)c(O)c2)oc2cc(O)cc(O)c12
REMARK SMILES IDX 4 1 3 2 2 3 1 4 21 5 19 6 18 7 16 8 15 9 14 10 13 11 5 12
REMARK SMILES IDX 6 13 7 14 8 15 12 16 10 17 9 18 11 20 20 22 17 24
REMARK H PARENT 9 19 11 21 20 23 17 25
REMARK Flexibility Score: inf
ROOT
ATOM      1  C   UNL     1     110.891 104.884 102.760  1.00  0.00     0.138 A 
ATOM      2  C   UNL     1     109.710 105.483 102.301  1.00  0.00     0.100 A 
ATOM      3  C   UNL     1     109.716 106.830 101.937  1.00  0.00     0.197 A 
ATOM      4  O   UNL     1     108.654 107.324 101.477  1.00  0.00    -0.289 OA
ATOM      5  C   UNL     1     110.903 107.589 102.068  1.00  0.00     0.107 A 
ATOM      6  C   UNL     1     111.020 108.979 101.760  1.00  0.00     0.134 A 
ATOM      7  C   UNL     1     112.273 109.600 101.836  1.00  0.00     0.093 A 
ATOM      8  C   UNL     1     113.400 108.899 102.263  1.00  0.00     0.123 A 
ATOM      9  C   UNL     1     113.288 107.554 102.614  1.00  0.00     0.094 A 
ATOM     10  C   UNL     1     112.059 106.897 102.516  1.00  0.00     0.146 A 
ATOM     11  O   UNL     1     112.000 105.610 102.843  1.00  0.00    -0.456 OA
ENDROOT
BRANCH   1  12
ATOM     12  C   UNL     1     110.941 103.455 103.164  1.00  0.00     0.021 A 
ATOM     13  C   UNL     1     112.111 102.713 102.930  1.00  0.00     0.016 A 
ATOM     14  C   UNL     1     112.182 101.365 103.294  1.00  0.00     0.051 A 
ATOM     15  C   UNL     1     111.081 100.735 103.888  1.00  0.00     0.157 A 
ATOM     16  C   UNL     1     109.832 102.812 103.750  1.00  0.00     0.062 A 
ATOM     17  C   UNL     1     109.905 101.458 104.112  1.00  0.00     0.158 A 
BRANCH  15  18
ATOM     18  O   UNL     1     111.149  99.391 104.252  1.00  0.00    -0.504 OA
ATOM     19  H   UNL     1     110.315  98.826 104.351  1.00  0.00     0.293 HD
ENDBRANCH  15  18
BRANCH  17  20
ATOM     20  O   UNL     1     108.807 100.825 104.693  1.00  0.00    -0.504 OA
ATOM     21  H   UNL     1     108.016 100.518 104.139  1.00  0.00     0.293 HD
ENDBRANCH  17  20
ENDBRANCH   1  12
BRANCH   6  22
ATOM     22  O   UNL     1     109.943 109.795 101.399  1.00  0.00    -0.507 OA
ATOM     23  H   UNL     1     109.818 110.752 101.689  1.00  0.00     0.293 HD
ENDBRANCH   6  22
BRANCH   8  24
ATOM     24  O   UNL     1     114.628 109.555 102.341  1.00  0.00    -0.508 OA
ATOM     25  H   UNL     1     114.685 110.552 102.512  1.00  0.00     0.293 HD
ENDBRANCH   8  24
TORSDOF 5
ENDMDL
MODEL 9
REMARK VINA RESULT:    -4.718     11.228     13.339
REMARK INTER + INTRA:          -5.852
REMARK INTER:                  -5.538
REMARK INTRA:                  -0.314
REMARK UNBOUND:                -0.306
REMARK SMILES O=c1cc(-c2ccc(O)c(O)c2)oc2cc(O)cc(O)c12
REMARK SMILES IDX 4 1 3 2 2 3 1 4 21 5 19 6 18 7 16 8 15 9 14 10 13 11 5 12
REMARK SMILES IDX 6 13 7 14 8 15 12 16 10 17 9 18 11 20 20 22 17 24
REMARK H PARENT 9 19 11 21 20 23 17 25
REMARK Flexibility Score: inf
ROOT
ATOM      1  C   UNL     1     107.183 102.745 102.755  1.00  0.00     0.138 A 
ATOM      2  C   UNL     1     108.563 102.524 102.659  1.00  0.00     0.100 A 
ATOM      3  C   UNL     1     109.421 103.601 102.438  1.00  0.00     0.197 A 
ATOM      4  O   UNL     1     110.659 103.378 102.412  1.00  0.00    -0.289 OA
ATOM      5  C   UNL     1     108.889 104.904 102.279  1.00  0.00     0.107 A 
ATOM      6  C   UNL     1     109.664 106.074 102.016  1.00  0.00     0.134 A 
ATOM      7  C   UNL     1     109.034 107.324 101.975  1.00  0.00     0.093 A 
ATOM      8  C   UNL     1     107.653 107.440 102.129  1.00  0.00     0.123 A 
ATOM      9  C   UNL     1     106.880 106.298 102.336  1.00  0.00     0.094 A 
ATOM     10  C   UNL     1     107.482 105.041 102.417  1.00  0.00     0.146 A 
ATOM     11  O   UNL     1     106.711 103.980 102.633  1.00  0.00    -0.456 OA
ENDROOT
BRANCH   1  12
ATOM     12  C   UNL     1     106.224 101.634 102.986  1.00  0.00     0.021 A 
ATOM     13  C   UNL     1     106.631 100.310 102.750  1.00  0.00     0.016 A 
ATOM     14  C   UNL     1     105.747  99.247 102.952  1.00  0.00     0.051 A 
ATOM     15  C   UNL     1     104.437  99.491 103.383  1.00  0.00     0.157 A 
ATOM     16  C   UNL     1     104.901 101.873 103.407  1.00  0.00     0.062 A 
ATOM     17  C   UNL     1     104.013 100.806 103.607  1.00  0.00     0.158 A 
BRANCH  15  18
ATOM     18  O   UNL     1     103.552  98.433 103.586  1.00  0.00    -0.504 OA
ATOM     19  H   UNL     1     102.805  98.490 104.268  1.00  0.00     0.293 HD
ENDBRANCH  15  18
BRANCH  17  20
ATOM     20  O   UNL     1     102.705 101.045 104.026  1.00  0.00    -0.504 OA
ATOM     21  H   UNL     1     101.990 100.329 103.973  1.00  0.00     0.293 HD
ENDBRANCH  17  20
ENDBRANCH   1  12
BRANCH   6  22
ATOM     22  O   UNL     1     111.040 106.063 101.767  1.00  0.00    -0.507 OA
ATOM     23  H   UNL     1     111.686 105.368 102.107  1.00  0.00     0.293 HD
ENDBRANCH   6  22
BRANCH   8  24
ATOM     24  O   UNL     1     107.059 108.700 102.067  1.00  0.00    -0.508 OA
ATOM     25  H   UNL     1     106.500 108.983 101.270  1.00  0.00     0.293 HD
ENDBRANCH   8  24
TORSDOF 5
ENDMDL
