MODEL 1
REMARK VINA RESULT:    -6.419      0.000      0.000
REMARK INTER + INTRA:          -6.833
REMARK INTER:                  -6.982
REMARK INTRA:                   0.148
REMARK UNBOUND:                 0.148
REMARK SMILES C[C@H]1[C@H](C)CC[C@@]2(C(=O)[O-])CC[C@@]3(C)C(=CC[C@H]4[C@]5(C)CC[C@H](O)C(C)(C)[C@@H]5CC[C@]43C)[C@H]12
REMARK SMILES IDX 7 1 6 2 11 3 33 4 5 5 12 6 15 7 2 8 3 9 13 10 16 11 1 12
REMARK SMILES IDX 4 13 14 14 31 15 17 16 18 17 30 18 32 19 19 20 29 21 28 22
REMARK SMILES IDX 21 23 20 24 25 25 22 26 23 27 26 28 27 29 8 30 9 31 10 32
REMARK SMILES IDX 24 33
REMARK H PARENT 24 34
REMARK Flexibility Score: inf
ROOT
ATOM      1  C   UNL     1      25.541   1.307  34.058  1.00  0.00     0.017 C 
ATOM      2  C   UNL     1      25.641   0.440  32.775  1.00  0.00     0.014 C 
ATOM      3  C   UNL     1      25.701   2.776  33.645  1.00  0.00     0.014 C 
ATOM      4  C   UNL     1      24.121   1.067  34.694  1.00  0.00     0.030 C 
ATOM      5  C   UNL     1      25.487  -1.052  33.078  1.00  0.00     0.004 C 
ATOM      6  C   UNL     1      25.618   3.703  34.858  1.00  0.00     0.013 C 
ATOM      7  C   UNL     1      23.736   2.167  35.732  1.00  0.00    -0.063 C 
ATOM      8  C   UNL     1      24.037  -0.472  35.114  1.00  0.00    -0.003 C 
ATOM      9  C   UNL     1      24.174  -1.357  33.824  1.00  0.00    -0.011 C 
ATOM     10  C   UNL     1      24.256   3.620  35.624  1.00  0.00    -0.006 C 
ATOM     11  C   UNL     1      22.560   2.085  36.380  1.00  0.00    -0.027 C 
ATOM     12  C   UNL     1      22.795  -0.896  35.922  1.00  0.00     0.008 C 
ATOM     13  C   UNL     1      24.120  -2.872  34.105  1.00  0.00     0.008 C 
ATOM     14  C   UNL     1      23.228   4.393  34.722  1.00  0.00     0.017 C 
ATOM     15  C   UNL     1      24.345   4.281  37.096  1.00  0.00    -0.020 C 
ATOM     16  C   UNL     1      22.262   2.849  37.636  1.00  0.00     0.032 C 
ATOM     17  C   UNL     1      22.920   4.262  37.793  1.00  0.00     0.006 C 
ATOM     18  C   UNL     1      25.300   3.470  38.015  1.00  0.00     0.008 C 
ATOM     19  C   UNL     1      24.904   5.733  36.953  1.00  0.00     0.012 C 
ATOM     20  C   UNL     1      22.863   4.748  39.325  1.00  0.00    -0.025 C 
ATOM     21  C   UNL     1      25.367   3.991  39.454  1.00  0.00     0.005 C 
ATOM     22  C   UNL     1      23.998   4.047  40.198  1.00  0.00     0.003 C 
ATOM     23  C   UNL     1      22.911   6.324  39.417  1.00  0.00     0.010 C 
ATOM     24  C   UNL     1      21.461   4.354  39.905  1.00  0.00     0.012 C 
ATOM     25  C   UNL     1      24.132   4.604  41.704  1.00  0.00    -0.006 C 
ATOM     26  C   UNL     1      23.832   6.875  40.512  1.00  0.00     0.033 C 
ATOM     27  C   UNL     1      23.646   6.098  41.823  1.00  0.00     0.120 C 
ATOM     28  C   UNL     1      25.586   4.478  42.256  1.00  0.00     0.014 C 
ATOM     29  C   UNL     1      23.275   3.731  42.662  1.00  0.00     0.014 C 
ENDROOT
BRANCH   1  30
ATOM     30  C   UNL     1      26.694   0.957  35.006  1.00  0.00     0.048 C 
ATOM     31  O   UNL     1      27.887   1.022  34.605  1.00  0.00    -0.550 OA
ATOM     32  O   UNL     1      26.457   0.662  36.343  1.00  0.00    -0.550 OA
ENDBRANCH   1  30
BRANCH  27  33
ATOM     33  O   UNL     1      24.241   6.778  42.906  1.00  0.00    -0.393 OA
ATOM     34  H   UNL     1      24.821   6.139  43.397  1.00  0.00     0.210 HD
ENDBRANCH  27  33
TORSDOF 2
ENDMDL
MODEL 2
REMARK VINA RESULT:    -6.106      4.452      7.747
REMARK INTER + INTRA:          -6.494
REMARK INTER:                  -6.707
REMARK INTRA:                   0.213
REMARK UNBOUND:                 0.148
REMARK SMILES C[C@H]1[C@H](C)CC[C@@]2(C(=O)[O-])CC[C@@]3(C)C(=CC[C@H]4[C@]5(C)CC[C@H](O)C(C)(C)[C@@H]5CC[C@]43C)[C@H]12
REMARK SMILES IDX 7 1 6 2 11 3 33 4 5 5 12 6 15 7 2 8 3 9 13 10 16 11 1 12
REMARK SMILES IDX 4 13 14 14 31 15 17 16 18 17 30 18 32 19 19 20 29 21 28 22
REMARK SMILES IDX 21 23 20 24 25 25 22 26 23 27 26 28 27 29 8 30 9 31 10 32
REMARK SMILES IDX 24 33
REMARK H PARENT 24 34
REMARK Flexibility Score: inf
ROOT
ATOM      1  C   UNL     1      24.322   0.837  36.287  1.00  0.00     0.017 C 
ATOM      2  C   UNL     1      25.486   0.394  37.212  1.00  0.00     0.014 C 
ATOM      3  C   UNL     1      23.911   2.258  36.698  1.00  0.00     0.014 C 
ATOM      4  C   UNL     1      24.853   0.827  34.805  1.00  0.00     0.030 C 
ATOM      5  C   UNL     1      25.977  -1.017  36.879  1.00  0.00     0.004 C 
ATOM      6  C   UNL     1      22.761   2.772  35.833  1.00  0.00     0.013 C 
ATOM      7  C   UNL     1      23.936   1.636  33.835  1.00  0.00    -0.063 C 
ATOM      8  C   UNL     1      25.240  -0.681  34.445  1.00  0.00    -0.003 C 
ATOM      9  C   UNL     1      26.393  -1.149  35.401  1.00  0.00    -0.011 C 
ATOM     10  C   UNL     1      23.104   2.851  34.308  1.00  0.00    -0.006 C 
ATOM     11  C   UNL     1      24.245   1.698  32.527  1.00  0.00    -0.027 C 
ATOM     12  C   UNL     1      25.619  -0.959  32.977  1.00  0.00     0.008 C 
ATOM     13  C   UNL     1      26.848  -2.602  35.157  1.00  0.00     0.008 C 
ATOM     14  C   UNL     1      24.032   4.109  34.159  1.00  0.00     0.017 C 
ATOM     15  C   UNL     1      21.779   2.999  33.394  1.00  0.00    -0.020 C 
ATOM     16  C   UNL     1      23.262   2.111  31.472  1.00  0.00     0.032 C 
ATOM     17  C   UNL     1      22.182   3.174  31.869  1.00  0.00     0.006 C 
ATOM     18  C   UNL     1      20.899   1.722  33.477  1.00  0.00     0.008 C 
ATOM     19  C   UNL     1      20.949   4.212  33.920  1.00  0.00     0.012 C 
ATOM     20  C   UNL     1      20.976   3.185  30.805  1.00  0.00    -0.025 C 
ATOM     21  C   UNL     1      19.667   1.757  32.567  1.00  0.00     0.005 C 
ATOM     22  C   UNL     1      19.973   1.971  31.054  1.00  0.00     0.003 C 
ATOM     23  C   UNL     1      20.247   4.585  30.796  1.00  0.00     0.010 C 
ATOM     24  C   UNL     1      21.596   3.045  29.372  1.00  0.00     0.012 C 
ATOM     25  C   UNL     1      18.640   2.001  30.149  1.00  0.00    -0.006 C 
ATOM     26  C   UNL     1      18.716   4.512  30.750  1.00  0.00     0.033 C 
ATOM     27  C   UNL     1      18.251   3.468  29.725  1.00  0.00     0.120 C 
ATOM     28  C   UNL     1      17.427   1.319  30.856  1.00  0.00     0.014 C 
ATOM     29  C   UNL     1      18.863   1.160  28.861  1.00  0.00     0.014 C 
ENDROOT
BRANCH   1  30
ATOM     30  C   UNL     1      23.115  -0.083  36.503  1.00  0.00     0.048 C 
ATOM     31  O   UNL     1      22.525  -0.105  37.616  1.00  0.00    -0.550 OA
ATOM     32  O   UNL     1      22.586  -0.827  35.455  1.00  0.00    -0.550 OA
ENDBRANCH   1  30
BRANCH  27  33
ATOM     33  O   UNL     1      16.876   3.606  29.447  1.00  0.00    -0.393 OA
ATOM     34  H   UNL     1      16.382   3.633  30.309  1.00  0.00     0.210 HD
ENDBRANCH  27  33
TORSDOF 2
ENDMDL
MODEL 3
REMARK VINA RESULT:    -6.038      4.502      7.567
REMARK INTER + INTRA:          -6.419
REMARK INTER:                  -6.802
REMARK INTRA:                   0.383
REMARK UNBOUND:                 0.148
REMARK SMILES C[C@H]1[C@H](C)CC[C@@]2(C(=O)[O-])CC[C@@]3(C)C(=CC[C@H]4[C@]5(C)CC[C@H](O)C(C)(C)[C@@H]5CC[C@]43C)[C@H]12
REMARK SMILES IDX 7 1 6 2 11 3 33 4 5 5 12 6 15 7 2 8 3 9 13 10 16 11 1 12
REMARK SMILES IDX 4 13 14 14 31 15 17 16 18 17 30 18 32 19 19 20 29 21 28 22
REMARK SMILES IDX 21 23 20 24 25 25 22 26 23 27 26 28 27 29 8 30 9 31 10 32
REMARK SMILES IDX 24 33
REMARK H PARENT 24 34
REMARK Flexibility Score: inf
ROOT
ATOM      1  C   UNL     1      21.575   4.845  29.645  1.00  0.00     0.017 C 
ATOM      2  C   UNL     1      20.720   5.795  28.764  1.00  0.00     0.014 C 
ATOM      3  C   UNL     1      22.527   5.711  30.481  1.00  0.00     0.014 C 
ATOM      4  C   UNL     1      20.595   4.045  30.583  1.00  0.00     0.030 C 
ATOM      5  C   UNL     1      19.726   5.026  27.891  1.00  0.00     0.004 C 
ATOM      6  C   UNL     1      23.412   4.848  31.380  1.00  0.00     0.013 C 
ATOM      7  C   UNL     1      21.330   3.375  31.785  1.00  0.00    -0.063 C 
ATOM      8  C   UNL     1      19.653   3.157  29.646  1.00  0.00    -0.003 C 
ATOM      9  C   UNL     1      18.811   4.110  28.726  1.00  0.00    -0.011 C 
ATOM     10  C   UNL     1      22.612   3.979  32.407  1.00  0.00    -0.006 C 
ATOM     11  C   UNL     1      20.630   2.634  32.662  1.00  0.00    -0.027 C 
ATOM     12  C   UNL     1      18.728   2.152  30.360  1.00  0.00     0.008 C 
ATOM     13  C   UNL     1      17.866   3.364  27.762  1.00  0.00     0.008 C 
ATOM     14  C   UNL     1      22.137   4.984  33.515  1.00  0.00     0.017 C 
ATOM     15  C   UNL     1      23.519   2.802  33.045  1.00  0.00    -0.020 C 
ATOM     16  C   UNL     1      21.270   1.661  33.607  1.00  0.00     0.032 C 
ATOM     17  C   UNL     1      22.697   2.013  34.148  1.00  0.00     0.006 C 
ATOM     18  C   UNL     1      23.924   1.762  31.964  1.00  0.00     0.008 C 
ATOM     19  C   UNL     1      24.817   3.442  33.631  1.00  0.00     0.012 C 
ATOM     20  C   UNL     1      23.404   0.713  34.777  1.00  0.00    -0.025 C 
ATOM     21  C   UNL     1      24.714   0.572  32.514  1.00  0.00     0.005 C 
ATOM     22  C   UNL     1      23.994  -0.234  33.638  1.00  0.00     0.003 C 
ATOM     23  C   UNL     1      24.489   1.125  35.848  1.00  0.00     0.010 C 
ATOM     24  C   UNL     1      22.321  -0.082  35.586  1.00  0.00     0.012 C 
ATOM     25  C   UNL     1      24.874  -1.471  34.177  1.00  0.00    -0.006 C 
ATOM     26  C   UNL     1      25.805   0.343  35.762  1.00  0.00     0.033 C 
ATOM     27  C   UNL     1      25.537  -1.156  35.572  1.00  0.00     0.120 C 
ATOM     28  C   UNL     1      25.974  -1.906  33.159  1.00  0.00     0.014 C 
ATOM     29  C   UNL     1      23.971  -2.726  34.334  1.00  0.00     0.014 C 
ENDROOT
BRANCH   1  30
ATOM     30  C   UNL     1      22.427   3.940  28.748  1.00  0.00     0.048 C 
ATOM     31  O   UNL     1      22.622   2.735  29.063  1.00  0.00    -0.550 OA
ATOM     32  O   UNL     1      22.911   4.395  27.527  1.00  0.00    -0.550 OA
ENDBRANCH   1  30
BRANCH  27  33
ATOM     33  O   UNL     1      26.703  -1.915  35.802  1.00  0.00    -0.393 OA
ATOM     34  H   UNL     1      26.838  -1.993  36.783  1.00  0.00     0.210 HD
ENDBRANCH  27  33
TORSDOF 2
ENDMDL
MODEL 4
REMARK VINA RESULT:    -5.508      4.114      7.537
REMARK INTER + INTRA:          -5.843
REMARK INTER:                  -5.987
REMARK INTRA:                   0.144
REMARK UNBOUND:                 0.148
REMARK SMILES C[C@H]1[C@H](C)CC[C@@]2(C(=O)[O-])CC[C@@]3(C)C(=CC[C@H]4[C@]5(C)CC[C@H](O)C(C)(C)[C@@H]5CC[C@]43C)[C@H]12
REMARK SMILES IDX 7 1 6 2 11 3 33 4 5 5 12 6 15 7 2 8 3 9 13 10 16 11 1 12
REMARK SMILES IDX 4 13 14 14 31 15 17 16 18 17 30 18 32 19 19 20 29 21 28 22
REMARK SMILES IDX 21 23 20 24 25 25 22 26 23 27 26 28 27 29 8 30 9 31 10 32
REMARK SMILES IDX 24 33
REMARK H PARENT 24 34
REMARK Flexibility Score: inf
ROOT
ATOM      1  C   UNL     1      30.531   5.643  33.385  1.00  0.00     0.017 C 
ATOM      2  C   UNL     1      31.432   6.756  32.786  1.00  0.00     0.014 C 
ATOM      3  C   UNL     1      29.748   6.253  34.555  1.00  0.00     0.014 C 
ATOM      4  C   UNL     1      29.546   5.159  32.257  1.00  0.00     0.030 C 
ATOM      5  C   UNL     1      32.256   6.249  31.601  1.00  0.00     0.004 C 
ATOM      6  C   UNL     1      28.833   5.217  35.208  1.00  0.00     0.013 C 
ATOM      7  C   UNL     1      28.333   4.359  32.825  1.00  0.00    -0.063 C 
ATOM      8  C   UNL     1      30.430   4.522  31.089  1.00  0.00    -0.003 C 
ATOM      9  C   UNL     1      31.370   5.633  30.501  1.00  0.00    -0.011 C 
ATOM     10  C   UNL     1      27.759   4.622  34.237  1.00  0.00    -0.006 C 
ATOM     11  C   UNL     1      27.415   3.856  31.979  1.00  0.00    -0.027 C 
ATOM     12  C   UNL     1      29.661   3.819  29.953  1.00  0.00     0.008 C 
ATOM     13  C   UNL     1      32.286   5.132  29.367  1.00  0.00     0.008 C 
ATOM     14  C   UNL     1      26.681   5.752  34.074  1.00  0.00     0.017 C 
ATOM     15  C   UNL     1      27.094   3.269  34.821  1.00  0.00    -0.020 C 
ATOM     16  C   UNL     1      26.446   2.779  32.367  1.00  0.00     0.032 C 
ATOM     17  C   UNL     1      25.946   2.760  33.852  1.00  0.00     0.006 C 
ATOM     18  C   UNL     1      28.142   2.125  34.907  1.00  0.00     0.008 C 
ATOM     19  C   UNL     1      26.557   3.563  36.258  1.00  0.00     0.012 C 
ATOM     20  C   UNL     1      25.282   1.340  34.211  1.00  0.00    -0.025 C 
ATOM     21  C   UNL     1      27.562   0.787  35.373  1.00  0.00     0.005 C 
ATOM     22  C   UNL     1      26.395   0.236  34.499  1.00  0.00     0.003 C 
ATOM     23  C   UNL     1      24.248   1.486  35.395  1.00  0.00     0.010 C 
ATOM     24  C   UNL     1      24.422   0.885  32.980  1.00  0.00     0.012 C 
ATOM     25  C   UNL     1      25.826  -1.172  35.038  1.00  0.00    -0.006 C 
ATOM     26  C   UNL     1      24.329   0.383  36.457  1.00  0.00     0.033 C 
ATOM     27  C   UNL     1      24.457  -0.998  35.799  1.00  0.00     0.120 C 
ATOM     28  C   UNL     1      26.847  -1.913  35.955  1.00  0.00     0.014 C 
ATOM     29  C   UNL     1      25.604  -2.138  33.842  1.00  0.00     0.014 C 
ENDROOT
BRANCH   1  30
ATOM     30  C   UNL     1      31.410   4.517  33.944  1.00  0.00     0.048 C 
ATOM     31  O   UNL     1      32.292   4.769  34.808  1.00  0.00    -0.550 OA
ATOM     32  O   UNL     1      31.184   3.192  33.591  1.00  0.00    -0.550 OA
ENDBRANCH   1  30
BRANCH  27  33
ATOM     33  O   UNL     1      24.220  -2.030  36.731  1.00  0.00    -0.393 OA
ATOM     34  H   UNL     1      24.975  -2.050  37.376  1.00  0.00     0.210 HD
ENDBRANCH  27  33
TORSDOF 2
ENDMDL
MODEL 5
REMARK VINA RESULT:    -5.469      2.018      7.840
REMARK INTER + INTRA:          -5.800
REMARK INTER:                  -5.944
REMARK INTRA:                   0.144
REMARK UNBOUND:                 0.148
REMARK SMILES C[C@H]1[C@H](C)CC[C@@]2(C(=O)[O-])CC[C@@]3(C)C(=CC[C@H]4[C@]5(C)CC[C@H](O)C(C)(C)[C@@H]5CC[C@]43C)[C@H]12
REMARK SMILES IDX 7 1 6 2 11 3 33 4 5 5 12 6 15 7 2 8 3 9 13 10 16 11 1 12
REMARK SMILES IDX 4 13 14 14 31 15 17 16 18 17 30 18 32 19 19 20 29 21 28 22
REMARK SMILES IDX 21 23 20 24 25 25 22 26 23 27 26 28 27 29 8 30 9 31 10 32
REMARK SMILES IDX 24 33
REMARK H PARENT 24 34
REMARK Flexibility Score: inf
ROOT
ATOM      1  C   UNL     1      22.654   6.589  40.300  1.00  0.00     0.017 C 
ATOM      2  C   UNL     1      22.310   7.598  41.428  1.00  0.00     0.014 C 
ATOM      3  C   UNL     1      23.453   7.341  39.227  1.00  0.00     0.014 C 
ATOM      4  C   UNL     1      23.526   5.440  40.930  1.00  0.00     0.030 C 
ATOM      5  C   UNL     1      21.513   6.943  42.558  1.00  0.00     0.004 C 
ATOM      6  C   UNL     1      23.832   6.416  38.071  1.00  0.00     0.013 C 
ATOM      7  C   UNL     1      24.278   4.599  39.851  1.00  0.00    -0.063 C 
ATOM      8  C   UNL     1      22.625   4.695  42.018  1.00  0.00    -0.003 C 
ATOM      9  C   UNL     1      22.242   5.718  43.145  1.00  0.00    -0.011 C 
ATOM     10  C   UNL     1      24.725   5.203  38.499  1.00  0.00    -0.006 C 
ATOM     11  C   UNL     1      25.045   3.562  40.233  1.00  0.00    -0.027 C 
ATOM     12  C   UNL     1      23.217   3.415  42.639  1.00  0.00     0.008 C 
ATOM     13  C   UNL     1      21.356   5.115  44.254  1.00  0.00     0.008 C 
ATOM     14  C   UNL     1      26.155   5.809  38.735  1.00  0.00     0.017 C 
ATOM     15  C   UNL     1      24.766   4.049  37.368  1.00  0.00    -0.020 C 
ATOM     16  C   UNL     1      25.492   2.483  39.292  1.00  0.00     0.032 C 
ATOM     17  C   UNL     1      25.758   2.890  37.803  1.00  0.00     0.006 C 
ATOM     18  C   UNL     1      23.368   3.393  37.190  1.00  0.00     0.008 C 
ATOM     19  C   UNL     1      25.188   4.700  36.013  1.00  0.00     0.012 C 
ATOM     20  C   UNL     1      25.802   1.591  36.857  1.00  0.00    -0.025 C 
ATOM     21  C   UNL     1      23.352   2.231  36.193  1.00  0.00     0.005 C 
ATOM     22  C   UNL     1      24.334   1.066  36.524  1.00  0.00     0.003 C 
ATOM     23  C   UNL     1      26.659   1.867  35.560  1.00  0.00     0.010 C 
ATOM     24  C   UNL     1      26.582   0.464  37.621  1.00  0.00     0.012 C 
ATOM     25  C   UNL     1      24.272  -0.125  35.440  1.00  0.00    -0.006 C 
ATOM     26  C   UNL     1      26.045   1.336  34.259  1.00  0.00     0.033 C 
ATOM     27  C   UNL     1      25.501  -0.086  34.455  1.00  0.00     0.120 C 
ATOM     28  C   UNL     1      22.943  -0.116  34.624  1.00  0.00     0.014 C 
ATOM     29  C   UNL     1      24.272  -1.496  36.171  1.00  0.00     0.014 C 
ENDROOT
BRANCH   1  30
ATOM     30  C   UNL     1      21.360   6.081  39.653  1.00  0.00     0.048 C 
ATOM     31  O   UNL     1      20.531   6.895  39.166  1.00  0.00    -0.550 OA
ATOM     32  O   UNL     1      21.125   4.720  39.498  1.00  0.00    -0.550 OA
ENDBRANCH   1  30
BRANCH  27  33
ATOM     33  O   UNL     1      25.222  -0.698  33.216  1.00  0.00    -0.393 OA
ATOM     34  H   UNL     1      24.274  -0.517  32.982  1.00  0.00     0.210 HD
ENDBRANCH  27  33
TORSDOF 2
ENDMDL
MODEL 6
REMARK VINA RESULT:    -5.433      4.004      7.467
REMARK INTER + INTRA:          -5.761
REMARK INTER:                  -5.907
REMARK INTRA:                   0.146
REMARK UNBOUND:                 0.148
REMARK SMILES C[C@H]1[C@H](C)CC[C@@]2(C(=O)[O-])CC[C@@]3(C)C(=CC[C@H]4[C@]5(C)CC[C@H](O)C(C)(C)[C@@H]5CC[C@]43C)[C@H]12
REMARK SMILES IDX 7 1 6 2 11 3 33 4 5 5 12 6 15 7 2 8 3 9 13 10 16 11 1 12
REMARK SMILES IDX 4 13 14 14 31 15 17 16 18 17 30 18 32 19 19 20 29 21 28 22
REMARK SMILES IDX 21 23 20 24 25 25 22 26 23 27 26 28 27 29 8 30 9 31 10 32
REMARK SMILES IDX 24 33
REMARK H PARENT 24 34
REMARK Flexibility Score: inf
ROOT
ATOM      1  C   UNL     1      23.766   1.285  34.667  1.00  0.00     0.017 C 
ATOM      2  C   UNL     1      22.540   0.506  35.212  1.00  0.00     0.014 C 
ATOM      3  C   UNL     1      23.756   2.680  35.306  1.00  0.00     0.014 C 
ATOM      4  C   UNL     1      25.063   0.498  35.086  1.00  0.00     0.030 C 
ATOM      5  C   UNL     1      22.459  -0.910  34.637  1.00  0.00     0.004 C 
ATOM      6  C   UNL     1      24.936   3.520  34.818  1.00  0.00     0.013 C 
ATOM      7  C   UNL     1      26.354   1.367  34.970  1.00  0.00    -0.063 C 
ATOM      8  C   UNL     1      25.011  -0.929  34.370  1.00  0.00    -0.003 C 
ATOM      9  C   UNL     1      23.752  -1.710  34.890  1.00  0.00    -0.011 C 
ATOM     10  C   UNL     1      26.334   2.903  35.158  1.00  0.00    -0.006 C 
ATOM     11  C   UNL     1      27.549   0.825  35.269  1.00  0.00    -0.027 C 
ATOM     12  C   UNL     1      26.271  -1.806  34.496  1.00  0.00     0.008 C 
ATOM     13  C   UNL     1      23.586  -3.107  34.257  1.00  0.00     0.008 C 
ATOM     14  C   UNL     1      26.537   3.164  36.693  1.00  0.00     0.017 C 
ATOM     15  C   UNL     1      27.523   3.577  34.295  1.00  0.00    -0.020 C 
ATOM     16  C   UNL     1      28.853   1.429  34.840  1.00  0.00     0.032 C 
ATOM     17  C   UNL     1      28.927   2.991  34.744  1.00  0.00     0.006 C 
ATOM     18  C   UNL     1      27.369   3.252  32.783  1.00  0.00     0.008 C 
ATOM     19  C   UNL     1      27.452   5.126  34.481  1.00  0.00     0.012 C 
ATOM     20  C   UNL     1      30.205   3.447  33.880  1.00  0.00    -0.025 C 
ATOM     21  C   UNL     1      28.510   3.788  31.914  1.00  0.00     0.005 C 
ATOM     22  C   UNL     1      29.932   3.294  32.317  1.00  0.00     0.003 C 
ATOM     23  C   UNL     1      30.661   4.905  34.279  1.00  0.00     0.010 C 
ATOM     24  C   UNL     1      31.410   2.525  34.277  1.00  0.00     0.012 C 
ATOM     25  C   UNL     1      31.089   3.893  31.368  1.00  0.00    -0.006 C 
ATOM     26  C   UNL     1      31.020   5.812  33.096  1.00  0.00     0.033 C 
ATOM     27  C   UNL     1      31.882   5.058  32.074  1.00  0.00     0.120 C 
ATOM     28  C   UNL     1      30.535   4.388  29.997  1.00  0.00     0.014 C 
ATOM     29  C   UNL     1      32.095   2.768  30.998  1.00  0.00     0.014 C 
ENDROOT
BRANCH   1  30
ATOM     30  C   UNL     1      23.629   1.462  33.150  1.00  0.00     0.048 C 
ATOM     31  O   UNL     1      22.588   1.977  32.662  1.00  0.00    -0.550 OA
ATOM     32  O   UNL     1      24.683   1.156  32.297  1.00  0.00    -0.550 OA
ENDBRANCH   1  30
BRANCH  27  33
ATOM     33  O   UNL     1      32.472   5.947  31.152  1.00  0.00    -0.393 OA
ATOM     34  H   UNL     1      32.879   5.415  30.419  1.00  0.00     0.210 HD
ENDBRANCH  27  33
TORSDOF 2
ENDMDL
MODEL 7
REMARK VINA RESULT:    -5.348      4.398      7.801
REMARK INTER + INTRA:          -5.669
REMARK INTER:                  -5.817
REMARK INTRA:                   0.148
REMARK UNBOUND:                 0.148
REMARK SMILES C[C@H]1[C@H](C)CC[C@@]2(C(=O)[O-])CC[C@@]3(C)C(=CC[C@H]4[C@]5(C)CC[C@H](O)C(C)(C)[C@@H]5CC[C@]43C)[C@H]12
REMARK SMILES IDX 7 1 6 2 11 3 33 4 5 5 12 6 15 7 2 8 3 9 13 10 16 11 1 12
REMARK SMILES IDX 4 13 14 14 31 15 17 16 18 17 30 18 32 19 19 20 29 21 28 22
REMARK SMILES IDX 21 23 20 24 25 25 22 26 23 27 26 28 27 29 8 30 9 31 10 32
REMARK SMILES IDX 24 33
REMARK H PARENT 24 34
REMARK Flexibility Score: inf
ROOT
ATOM      1  C   UNL     1      25.062   0.323  34.878  1.00  0.00     0.017 C 
ATOM      2  C   UNL     1      25.924  -0.345  35.983  1.00  0.00     0.014 C 
ATOM      3  C   UNL     1      23.648  -0.267  34.967  1.00  0.00     0.014 C 
ATOM      4  C   UNL     1      25.030   1.871  35.161  1.00  0.00     0.030 C 
ATOM      5  C   UNL     1      27.361   0.181  35.984  1.00  0.00     0.004 C 
ATOM      6  C   UNL     1      22.730   0.339  33.905  1.00  0.00     0.013 C 
ATOM      7  C   UNL     1      23.883   2.597  34.391  1.00  0.00    -0.063 C 
ATOM      8  C   UNL     1      26.528   2.413  35.033  1.00  0.00    -0.003 C 
ATOM      9  C   UNL     1      27.414   1.715  36.124  1.00  0.00    -0.011 C 
ATOM     10  C   UNL     1      22.556   1.889  34.030  1.00  0.00    -0.006 C 
ATOM     11  C   UNL     1      23.743   3.930  34.511  1.00  0.00    -0.027 C 
ATOM     12  C   UNL     1      26.711   3.942  35.096  1.00  0.00     0.008 C 
ATOM     13  C   UNL     1      28.893   2.151  36.092  1.00  0.00     0.008 C 
ATOM     14  C   UNL     1      21.595   2.098  35.255  1.00  0.00     0.017 C 
ATOM     15  C   UNL     1      21.933   2.542  32.689  1.00  0.00    -0.020 C 
ATOM     16  C   UNL     1      22.944   4.759  33.551  1.00  0.00     0.032 C 
ATOM     17  C   UNL     1      21.683   4.094  32.900  1.00  0.00     0.006 C 
ATOM     18  C   UNL     1      22.917   2.408  31.495  1.00  0.00     0.008 C 
ATOM     19  C   UNL     1      20.614   1.782  32.337  1.00  0.00     0.012 C 
ATOM     20  C   UNL     1      21.205   4.925  31.609  1.00  0.00    -0.025 C 
ATOM     21  C   UNL     1      22.427   3.081  30.209  1.00  0.00     0.005 C 
ATOM     22  C   UNL     1      22.115   4.602  30.341  1.00  0.00     0.003 C 
ATOM     23  C   UNL     1      19.668   4.694  31.329  1.00  0.00     0.010 C 
ATOM     24  C   UNL     1      21.327   6.452  31.946  1.00  0.00     0.012 C 
ATOM     25  C   UNL     1      21.604   5.253  28.959  1.00  0.00    -0.006 C 
ATOM     26  C   UNL     1      19.309   4.476  29.854  1.00  0.00     0.033 C 
ATOM     27  C   UNL     1      20.045   5.484  28.960  1.00  0.00     0.120 C 
ATOM     28  C   UNL     1      22.008   4.402  27.716  1.00  0.00     0.014 C 
ATOM     29  C   UNL     1      22.303   6.624  28.736  1.00  0.00     0.014 C 
ENDROOT
BRANCH   1  30
ATOM     30  C   UNL     1      25.633  -0.028  33.499  1.00  0.00     0.048 C 
ATOM     31  O   UNL     1      25.822  -1.231  33.177  1.00  0.00    -0.550 OA
ATOM     32  O   UNL     1      25.853   0.958  32.545  1.00  0.00    -0.550 OA
ENDBRANCH   1  30
BRANCH  27  33
ATOM     33  O   UNL     1      19.498   5.504  27.661  1.00  0.00    -0.393 OA
ATOM     34  H   UNL     1      19.342   4.567  27.371  1.00  0.00     0.210 HD
ENDBRANCH  27  33
TORSDOF 2
ENDMDL
MODEL 8
REMARK VINA RESULT:    -5.339      3.550      8.041
REMARK INTER + INTRA:          -5.659
REMARK INTER:                  -5.801
REMARK INTRA:                   0.142
REMARK UNBOUND:                 0.148
REMARK SMILES C[C@H]1[C@H](C)CC[C@@]2(C(=O)[O-])CC[C@@]3(C)C(=CC[C@H]4[C@]5(C)CC[C@H](O)C(C)(C)[C@@H]5CC[C@]43C)[C@H]12
REMARK SMILES IDX 7 1 6 2 11 3 33 4 5 5 12 6 15 7 2 8 3 9 13 10 16 11 1 12
REMARK SMILES IDX 4 13 14 14 31 15 17 16 18 17 30 18 32 19 19 20 29 21 28 22
REMARK SMILES IDX 21 23 20 24 25 25 22 26 23 27 26 28 27 29 8 30 9 31 10 32
REMARK SMILES IDX 24 33
REMARK H PARENT 24 34
REMARK Flexibility Score: inf
ROOT
ATOM      1  C   UNL     1      23.793   3.009  37.965  1.00  0.00     0.017 C 
ATOM      2  C   UNL     1      23.876   2.879  39.510  1.00  0.00     0.014 C 
ATOM      3  C   UNL     1      24.480   1.781  37.354  1.00  0.00     0.014 C 
ATOM      4  C   UNL     1      22.271   3.044  37.565  1.00  0.00     0.030 C 
ATOM      5  C   UNL     1      23.210   4.058  40.221  1.00  0.00     0.004 C 
ATOM      6  C   UNL     1      24.445   1.832  35.827  1.00  0.00     0.013 C 
ATOM      7  C   UNL     1      22.045   2.757  36.048  1.00  0.00    -0.063 C 
ATOM      8  C   UNL     1      21.633   4.354  38.220  1.00  0.00    -0.003 C 
ATOM      9  C   UNL     1      21.745   4.246  39.782  1.00  0.00    -0.011 C 
ATOM     10  C   UNL     1      22.999   1.857  35.228  1.00  0.00    -0.006 C 
ATOM     11  C   UNL     1      20.796   2.778  35.548  1.00  0.00    -0.027 C 
ATOM     12  C   UNL     1      20.185   4.688  37.811  1.00  0.00     0.008 C 
ATOM     13  C   UNL     1      21.170   5.465  40.529  1.00  0.00     0.008 C 
ATOM     14  C   UNL     1      22.465   0.388  35.381  1.00  0.00     0.017 C 
ATOM     15  C   UNL     1      22.990   2.316  33.678  1.00  0.00    -0.020 C 
ATOM     16  C   UNL     1      20.503   2.891  34.081  1.00  0.00     0.032 C 
ATOM     17  C   UNL     1      21.520   2.231  33.089  1.00  0.00     0.006 C 
ATOM     18  C   UNL     1      23.442   3.796  33.532  1.00  0.00     0.008 C 
ATOM     19  C   UNL     1      23.988   1.411  32.888  1.00  0.00     0.012 C 
ATOM     20  C   UNL     1      21.310   2.796  31.599  1.00  0.00    -0.025 C 
ATOM     21  C   UNL     1      23.376   4.326  32.097  1.00  0.00     0.005 C 
ATOM     22  C   UNL     1      21.971   4.236  31.426  1.00  0.00     0.003 C 
ATOM     23  C   UNL     1      21.823   1.758  30.525  1.00  0.00     0.010 C 
ATOM     24  C   UNL     1      19.767   2.913  31.340  1.00  0.00     0.012 C 
ATOM     25  C   UNL     1      21.965   4.807  29.919  1.00  0.00    -0.006 C 
ATOM     26  C   UNL     1      22.629   2.371  29.374  1.00  0.00     0.033 C 
ATOM     27  C   UNL     1      21.952   3.646  28.853  1.00  0.00     0.120 C 
ATOM     28  C   UNL     1      23.166   5.763  29.641  1.00  0.00     0.014 C 
ATOM     29  C   UNL     1      20.705   5.690  29.700  1.00  0.00     0.014 C 
ENDROOT
BRANCH   1  30
ATOM     30  C   UNL     1      24.566   4.254  37.513  1.00  0.00     0.048 C 
ATOM     31  O   UNL     1      25.780   4.394  37.820  1.00  0.00    -0.550 OA
ATOM     32  O   UNL     1      23.979   5.196  36.676  1.00  0.00    -0.550 OA
ENDBRANCH   1  30
BRANCH  27  33
ATOM     33  O   UNL     1      22.497   4.042  27.614  1.00  0.00    -0.393 OA
ATOM     34  H   UNL     1      23.487   4.017  27.684  1.00  0.00     0.210 HD
ENDBRANCH  27  33
TORSDOF 2
ENDMDL
MODEL 9
REMARK VINA RESULT:    -5.254      5.699      8.347
REMARK INTER + INTRA:          -5.567
REMARK INTER:                  -5.713
REMARK INTRA:                   0.146
REMARK UNBOUND:                 0.148
REMARK SMILES C[C@H]1[C@H](C)CC[C@@]2(C(=O)[O-])CC[C@@]3(C)C(=CC[C@H]4[C@]5(C)CC[C@H](O)C(C)(C)[C@@H]5CC[C@]43C)[C@H]12
REMARK SMILES IDX 7 1 6 2 11 3 33 4 5 5 12 6 15 7 2 8 3 9 13 10 16 11 1 12
REMARK SMILES IDX 4 13 14 14 31 15 17 16 18 17 30 18 32 19 19 20 29 21 28 22
REMARK SMILES IDX 21 23 20 24 25 25 22 26 23 27 26 28 27 29 8 30 9 31 10 32
REMARK SMILES IDX 24 33
REMARK H PARENT 24 34
REMARK Flexibility Score: inf
ROOT
ATOM      1  C   UNL     1      19.063   5.086  29.153  1.00  0.00     0.017 C 
ATOM      2  C   UNL     1      18.448   5.626  27.834  1.00  0.00     0.014 C 
ATOM      3  C   UNL     1      18.134   3.987  29.687  1.00  0.00     0.014 C 
ATOM      4  C   UNL     1      20.481   4.491  28.817  1.00  0.00     0.030 C 
ATOM      5  C   UNL     1      19.306   6.730  27.212  1.00  0.00     0.004 C 
ATOM      6  C   UNL     1      18.668   3.400  30.993  1.00  0.00     0.013 C 
ATOM      7  C   UNL     1      21.022   3.558  29.944  1.00  0.00    -0.063 C 
ATOM      8  C   UNL     1      21.392   5.692  28.287  1.00  0.00    -0.003 C 
ATOM      9  C   UNL     1      20.756   6.268  26.972  1.00  0.00    -0.011 C 
ATOM     10  C   UNL     1      20.080   2.739  30.859  1.00  0.00    -0.006 C 
ATOM     11  C   UNL     1      22.236   2.993  29.813  1.00  0.00    -0.027 C 
ATOM     12  C   UNL     1      22.883   5.375  28.064  1.00  0.00     0.008 C 
ATOM     13  C   UNL     1      21.545   7.448  26.369  1.00  0.00     0.008 C 
ATOM     14  C   UNL     1      19.827   1.374  30.126  1.00  0.00     0.017 C 
ATOM     15  C   UNL     1      20.780   2.502  32.296  1.00  0.00    -0.020 C 
ATOM     16  C   UNL     1      22.994   2.406  30.966  1.00  0.00     0.032 C 
ATOM     17  C   UNL     1      22.161   1.743  32.115  1.00  0.00     0.006 C 
ATOM     18  C   UNL     1      21.105   3.855  32.988  1.00  0.00     0.008 C 
ATOM     19  C   UNL     1      19.791   1.704  33.203  1.00  0.00     0.012 C 
ATOM     20  C   UNL     1      23.059   1.561  33.437  1.00  0.00    -0.025 C 
ATOM     21  C   UNL     1      21.849   3.708  34.319  1.00  0.00     0.005 C 
ATOM     22  C   UNL     1      23.198   2.932  34.237  1.00  0.00     0.003 C 
ATOM     23  C   UNL     1      22.506   0.386  34.335  1.00  0.00     0.010 C 
ATOM     24  C   UNL     1      24.485   1.087  32.990  1.00  0.00     0.012 C 
ATOM     25  C   UNL     1      23.932   2.810  35.666  1.00  0.00    -0.006 C 
ATOM     26  C   UNL     1      22.465   0.691  35.837  1.00  0.00     0.033 C 
ATOM     27  C   UNL     1      23.764   1.372  36.290  1.00  0.00     0.120 C 
ATOM     28  C   UNL     1      23.437   3.885  36.682  1.00  0.00     0.014 C 
ATOM     29  C   UNL     1      25.450   3.099  35.500  1.00  0.00     0.014 C 
ENDROOT
BRANCH   1  30
ATOM     30  C   UNL     1      19.110   6.209  30.195  1.00  0.00     0.048 C 
ATOM     31  O   UNL     1      18.059   6.827  30.511  1.00  0.00    -0.550 OA
ATOM     32  O   UNL     1      20.283   6.498  30.883  1.00  0.00    -0.550 OA
ENDBRANCH   1  30
BRANCH  27  33
ATOM     33  O   UNL     1      23.873   1.375  37.696  1.00  0.00    -0.393 OA
ATOM     34  H   UNL     1      22.983   1.164  38.081  1.00  0.00     0.210 HD
ENDBRANCH  27  33
TORSDOF 2
ENDMDL
