MODEL 1
REMARK VINA RESULT:    -4.935      0.000      0.000
REMARK INTER + INTRA:         -16.568
REMARK INTER:                 -12.435
REMARK INTRA:                  -4.133
REMARK UNBOUND:                -4.133
REMARK SMILES CCCCCCCCCCCCCCCCCCCCCCCCCCCC(=O)[O-]
REMARK SMILES IDX 15 1 16 2 17 3 18 4 19 5 20 6 21 7 22 8 23 9 24 10 25 11
REMARK SMILES IDX 26 12 27 13 28 14 29 15 30 16 14 17 13 18 12 19 11 20 10 21
REMARK SMILES IDX 9 22 8 23 7 24 6 25 5 26 4 27 3 28 2 29 1 30
REMARK H PARENT
REMARK Flexibility Score: inf
ROOT
ATOM      1  C   UNL     1      11.186 -15.919  14.762  1.00  0.00     0.000 C 
ENDROOT
BRANCH   1   2
ATOM      2  C   UNL     1      11.139 -15.117  13.447  1.00  0.00     0.000 C 
BRANCH   2   3
ATOM      3  C   UNL     1      10.680 -15.911  12.209  1.00  0.00     0.000 C 
BRANCH   3   4
ATOM      4  C   UNL     1      11.682 -15.929  11.037  1.00  0.00     0.000 C 
BRANCH   4   5
ATOM      5  C   UNL     1      11.334 -16.905   9.897  1.00  0.00     0.000 C 
BRANCH   5   6
ATOM      6  C   UNL     1      12.509 -17.767   9.391  1.00  0.00     0.000 C 
BRANCH   6   7
ATOM      7  C   UNL     1      12.126 -19.188   8.940  1.00  0.00     0.000 C 
BRANCH   7   8
ATOM      8  C   UNL     1      10.622 -19.515   9.033  1.00  0.00     0.000 C 
BRANCH   8   9
ATOM      9  C   UNL     1      10.030 -20.092   7.729  1.00  0.00     0.000 C 
BRANCH   9  10
ATOM     10  C   UNL     1       9.742 -19.003   6.680  1.00  0.00     0.000 C 
BRANCH  10  11
ATOM     11  C   UNL     1       8.500 -18.159   7.020  1.00  0.00     0.000 C 
BRANCH  11  12
ATOM     12  C   UNL     1       8.756 -16.645   7.145  1.00  0.00     0.006 C 
BRANCH  12  13
ATOM     13  C   UNL     1       9.185 -16.002   5.820  1.00  0.00     0.053 C 
BRANCH  13  14
ATOM     14  C   UNL     1      10.448 -15.222   6.002  1.00  0.00     0.041 C 
ATOM     15  O   UNL     1      10.463 -13.980   5.797  1.00  0.00    -0.550 OA
ATOM     16  O   UNL     1      11.600 -15.859   6.444  1.00  0.00    -0.550 OA
ENDBRANCH  13  14
ENDBRANCH  12  13
ENDBRANCH  11  12
ENDBRANCH  10  11
ENDBRANCH   9  10
ENDBRANCH   8   9
ENDBRANCH   7   8
ENDBRANCH   6   7
ENDBRANCH   5   6
ENDBRANCH   4   5
ENDBRANCH   3   4
ENDBRANCH   2   3
ENDBRANCH   1   2
BRANCH   1  17
ATOM     17  C   UNL     1      11.923 -15.197  15.911  1.00  0.00     0.000 C 
BRANCH  17  18
ATOM     18  C   UNL     1      13.221 -15.911  16.326  1.00  0.00     0.000 C 
BRANCH  18  19
ATOM     19  C   UNL     1      13.476 -17.204  15.532  1.00  0.00     0.000 C 
BRANCH  19  20
ATOM     20  C   UNL     1      14.949 -17.657  15.479  1.00  0.00     0.000 C 
BRANCH  20  21
ATOM     21  C   UNL     1      15.502 -17.917  14.064  1.00  0.00     0.000 C 
BRANCH  21  22
ATOM     22  C   UNL     1      14.613 -17.411  12.910  1.00  0.00    -0.000 C 
BRANCH  22  23
ATOM     23  C   UNL     1      15.361 -16.698  11.768  1.00  0.00    -0.000 C 
BRANCH  23  24
ATOM     24  C   UNL     1      15.143 -15.175  11.764  1.00  0.00    -0.000 C 
BRANCH  24  25
ATOM     25  C   UNL     1      14.743 -14.629  13.147  1.00  0.00    -0.000 C 
BRANCH  25  26
ATOM     26  C   UNL     1      15.911 -14.122  14.016  1.00  0.00    -0.000 C 
BRANCH  26  27
ATOM     27  C   UNL     1      15.756 -12.684  14.549  1.00  0.00    -0.000 C 
BRANCH  27  28
ATOM     28  C   UNL     1      14.402 -12.021  14.241  1.00  0.00    -0.000 C 
BRANCH  28  29
ATOM     29  C   UNL     1      13.366 -12.239  15.353  1.00  0.00    -0.003 C 
ATOM     30  C   UNL     1      12.108 -11.413  15.105  1.00  0.00     0.004 C 
ENDBRANCH  28  29
ENDBRANCH  27  28
ENDBRANCH  26  27
ENDBRANCH  25  26
ENDBRANCH  24  25
ENDBRANCH  23  24
ENDBRANCH  22  23
ENDBRANCH  21  22
ENDBRANCH  20  21
ENDBRANCH  19  20
ENDBRANCH  18  19
ENDBRANCH  17  18
ENDBRANCH   1  17
TORSDOF 26
ENDMDL
MODEL 2
REMARK VINA RESULT:    -4.869      3.267      9.726
REMARK INTER + INTRA:         -16.403
REMARK INTER:                 -12.844
REMARK INTRA:                  -3.559
REMARK UNBOUND:                -4.133
REMARK SMILES CCCCCCCCCCCCCCCCCCCCCCCCCCCC(=O)[O-]
REMARK SMILES IDX 15 1 16 2 17 3 18 4 19 5 20 6 21 7 22 8 23 9 24 10 25 11
REMARK SMILES IDX 26 12 27 13 28 14 29 15 30 16 14 17 13 18 12 19 11 20 10 21
REMARK SMILES IDX 9 22 8 23 7 24 6 25 5 26 4 27 3 28 2 29 1 30
REMARK H PARENT
REMARK Flexibility Score: inf
ROOT
ATOM      1  C   UNL     1      10.904 -16.304   6.775  1.00  0.00     0.000 C 
ENDROOT
BRANCH   1   2
ATOM      2  C   UNL     1      11.706 -16.792   7.998  1.00  0.00     0.000 C 
BRANCH   2   3
ATOM      3  C   UNL     1      11.102 -16.428   9.367  1.00  0.00     0.000 C 
BRANCH   3   4
ATOM      4  C   UNL     1      12.072 -16.544  10.560  1.00  0.00     0.000 C 
BRANCH   4   5
ATOM      5  C   UNL     1      13.437 -17.180  10.230  1.00  0.00     0.000 C 
BRANCH   5   6
ATOM      6  C   UNL     1      14.644 -16.550  10.954  1.00  0.00     0.000 C 
BRANCH   6   7
ATOM      7  C   UNL     1      15.275 -17.427  12.050  1.00  0.00     0.000 C 
BRANCH   7   8
ATOM      8  C   UNL     1      15.644 -16.680  13.348  1.00  0.00     0.000 C 
BRANCH   8   9
ATOM      9  C   UNL     1      14.792 -17.094  14.567  1.00  0.00     0.000 C 
BRANCH   9  10
ATOM     10  C   UNL     1      13.283 -16.916  14.320  1.00  0.00     0.000 C 
BRANCH  10  11
ATOM     11  C   UNL     1      12.901 -15.463  13.980  1.00  0.00     0.000 C 
BRANCH  11  12
ATOM     12  C   UNL     1      11.431 -15.095  14.253  1.00  0.00     0.006 C 
BRANCH  12  13
ATOM     13  C   UNL     1      11.062 -15.179  15.739  1.00  0.00     0.053 C 
BRANCH  13  14
ATOM     14  C   UNL     1      11.609 -14.000  16.481  1.00  0.00     0.041 C 
ATOM     15  O   UNL     1      12.195 -14.160  17.584  1.00  0.00    -0.550 OA
ATOM     16  O   UNL     1      11.513 -12.728  15.932  1.00  0.00    -0.550 OA
ENDBRANCH  13  14
ENDBRANCH  12  13
ENDBRANCH  11  12
ENDBRANCH  10  11
ENDBRANCH   9  10
ENDBRANCH   8   9
ENDBRANCH   7   8
ENDBRANCH   6   7
ENDBRANCH   5   6
ENDBRANCH   4   5
ENDBRANCH   3   4
ENDBRANCH   2   3
ENDBRANCH   1   2
BRANCH   1  17
ATOM     17  C   UNL     1       9.378 -16.251   7.005  1.00  0.00     0.000 C 
BRANCH  17  18
ATOM     18  C   UNL     1       8.592 -15.952   5.717  1.00  0.00     0.000 C 
BRANCH  18  19
ATOM     19  C   UNL     1       9.220 -16.593   4.467  1.00  0.00     0.000 C 
BRANCH  19  20
ATOM     20  C   UNL     1       8.278 -16.717   3.254  1.00  0.00     0.000 C 
BRANCH  20  21
ATOM     21  C   UNL     1       7.666 -18.116   3.041  1.00  0.00     0.000 C 
BRANCH  21  22
ATOM     22  C   UNL     1       6.457 -18.447   3.940  1.00  0.00    -0.000 C 
BRANCH  22  23
ATOM     23  C   UNL     1       6.782 -19.270   5.201  1.00  0.00    -0.000 C 
BRANCH  23  24
ATOM     24  C   UNL     1       7.724 -20.453   4.923  1.00  0.00    -0.000 C 
BRANCH  24  25
ATOM     25  C   UNL     1       8.566 -20.844   6.151  1.00  0.00    -0.000 C 
BRANCH  25  26
ATOM     26  C   UNL     1       8.764 -19.725   7.193  1.00  0.00    -0.000 C 
BRANCH  26  27
ATOM     27  C   UNL     1       9.016 -20.209   8.635  1.00  0.00    -0.000 C 
BRANCH  27  28
ATOM     28  C   UNL     1      10.456 -20.014   9.142  1.00  0.00    -0.000 C 
BRANCH  28  29
ATOM     29  C   UNL     1      11.427 -21.073   8.601  1.00  0.00    -0.003 C 
ATOM     30  C   UNL     1      12.641 -20.424   7.943  1.00  0.00     0.004 C 
ENDBRANCH  28  29
ENDBRANCH  27  28
ENDBRANCH  26  27
ENDBRANCH  25  26
ENDBRANCH  24  25
ENDBRANCH  23  24
ENDBRANCH  22  23
ENDBRANCH  21  22
ENDBRANCH  20  21
ENDBRANCH  19  20
ENDBRANCH  18  19
ENDBRANCH  17  18
ENDBRANCH   1  17
TORSDOF 26
ENDMDL
MODEL 3
REMARK VINA RESULT:    -4.857      4.352      8.409
REMARK INTER + INTRA:         -16.371
REMARK INTER:                 -12.093
REMARK INTRA:                  -4.278
REMARK UNBOUND:                -4.133
REMARK SMILES CCCCCCCCCCCCCCCCCCCCCCCCCCCC(=O)[O-]
REMARK SMILES IDX 15 1 16 2 17 3 18 4 19 5 20 6 21 7 22 8 23 9 24 10 25 11
REMARK SMILES IDX 26 12 27 13 28 14 29 15 30 16 14 17 13 18 12 19 11 20 10 21
REMARK SMILES IDX 9 22 8 23 7 24 6 25 5 26 4 27 3 28 2 29 1 30
REMARK H PARENT
REMARK Flexibility Score: inf
ROOT
ATOM      1  C   UNL     1      12.563 -11.228  15.131  1.00  0.00     0.000 C 
ENDROOT
BRANCH   1   2
ATOM      2  C   UNL     1      12.197  -9.738  15.283  1.00  0.00     0.000 C 
BRANCH   2   3
ATOM      3  C   UNL     1      13.371  -8.755  15.126  1.00  0.00     0.000 C 
BRANCH   3   4
ATOM      4  C   UNL     1      14.674  -9.375  14.580  1.00  0.00     0.000 C 
BRANCH   4   5
ATOM      5  C   UNL     1      15.889  -9.272  15.522  1.00  0.00     0.000 C 
BRANCH   5   6
ATOM      6  C   UNL     1      16.813 -10.508  15.535  1.00  0.00     0.000 C 
BRANCH   6   7
ATOM      7  C   UNL     1      16.131 -11.832  15.148  1.00  0.00     0.000 C 
BRANCH   7   8
ATOM      8  C   UNL     1      16.677 -12.493  13.866  1.00  0.00     0.000 C 
BRANCH   8   9
ATOM      9  C   UNL     1      15.782 -12.277  12.626  1.00  0.00     0.000 C 
BRANCH   9  10
ATOM     10  C   UNL     1      16.293 -11.142  11.721  1.00  0.00     0.000 C 
BRANCH  10  11
ATOM     11  C   UNL     1      17.778 -10.811  11.958  1.00  0.00     0.000 C 
BRANCH  11  12
ATOM     12  C   UNL     1      18.291  -9.556  11.227  1.00  0.00     0.006 C 
BRANCH  12  13
ATOM     13  C   UNL     1      19.403  -8.831  11.996  1.00  0.00     0.053 C 
BRANCH  13  14
ATOM     14  C   UNL     1      18.911  -7.516  12.511  1.00  0.00     0.041 C 
ATOM     15  O   UNL     1      17.881  -7.462  13.234  1.00  0.00    -0.550 OA
ATOM     16  O   UNL     1      19.614  -6.352  12.230  1.00  0.00    -0.550 OA
ENDBRANCH  13  14
ENDBRANCH  12  13
ENDBRANCH  11  12
ENDBRANCH  10  11
ENDBRANCH   9  10
ENDBRANCH   8   9
ENDBRANCH   7   8
ENDBRANCH   6   7
ENDBRANCH   5   6
ENDBRANCH   4   5
ENDBRANCH   3   4
ENDBRANCH   2   3
ENDBRANCH   1   2
BRANCH   1  17
ATOM     17  C   UNL     1      11.365 -12.188  15.295  1.00  0.00     0.000 C 
BRANCH  17  18
ATOM     18  C   UNL     1      11.684 -13.389  16.202  1.00  0.00     0.000 C 
BRANCH  18  19
ATOM     19  C   UNL     1      11.361 -14.742  15.543  1.00  0.00     0.000 C 
BRANCH  19  20
ATOM     20  C   UNL     1      11.648 -14.815  14.030  1.00  0.00     0.000 C 
BRANCH  20  21
ATOM     21  C   UNL     1      11.106 -16.073  13.323  1.00  0.00     0.000 C 
BRANCH  21  22
ATOM     22  C   UNL     1      11.023 -15.977  11.786  1.00  0.00    -0.000 C 
BRANCH  22  23
ATOM     23  C   UNL     1      12.361 -16.156  11.043  1.00  0.00    -0.000 C 
BRANCH  23  24
ATOM     24  C   UNL     1      13.194 -17.334  11.577  1.00  0.00    -0.000 C 
BRANCH  24  25
ATOM     25  C   UNL     1      14.706 -17.042  11.576  1.00  0.00    -0.000 C 
BRANCH  25  26
ATOM     26  C   UNL     1      15.136 -15.813  12.401  1.00  0.00    -0.000 C 
BRANCH  26  27
ATOM     27  C   UNL     1      15.717 -16.129  13.794  1.00  0.00    -0.000 C 
BRANCH  27  28
ATOM     28  C   UNL     1      14.841 -15.682  14.978  1.00  0.00    -0.000 C 
BRANCH  28  29
ATOM     29  C   UNL     1      14.482 -16.837  15.923  1.00  0.00    -0.003 C 
ATOM     30  C   UNL     1      13.674 -17.910  15.200  1.00  0.00     0.004 C 
ENDBRANCH  28  29
ENDBRANCH  27  28
ENDBRANCH  26  27
ENDBRANCH  25  26
ENDBRANCH  24  25
ENDBRANCH  23  24
ENDBRANCH  22  23
ENDBRANCH  21  22
ENDBRANCH  20  21
ENDBRANCH  19  20
ENDBRANCH  18  19
ENDBRANCH  17  18
ENDBRANCH   1  17
TORSDOF 26
ENDMDL
MODEL 4
REMARK VINA RESULT:    -4.841      2.675      9.298
REMARK INTER + INTRA:         -16.332
REMARK INTER:                 -12.390
REMARK INTRA:                  -3.942
REMARK UNBOUND:                -4.133
REMARK SMILES CCCCCCCCCCCCCCCCCCCCCCCCCCCC(=O)[O-]
REMARK SMILES IDX 15 1 16 2 17 3 18 4 19 5 20 6 21 7 22 8 23 9 24 10 25 11
REMARK SMILES IDX 26 12 27 13 28 14 29 15 30 16 14 17 13 18 12 19 11 20 10 21
REMARK SMILES IDX 9 22 8 23 7 24 6 25 5 26 4 27 3 28 2 29 1 30
REMARK H PARENT
REMARK Flexibility Score: inf
ROOT
ATOM      1  C   UNL     1      12.307 -17.695   9.697  1.00  0.00     0.000 C 
ENDROOT
BRANCH   1   2
ATOM      2  C   UNL     1      11.566 -16.372   9.418  1.00  0.00     0.000 C 
BRANCH   2   3
ATOM      3  C   UNL     1      11.016 -15.652  10.664  1.00  0.00     0.000 C 
BRANCH   3   4
ATOM      4  C   UNL     1      11.174 -16.425  11.988  1.00  0.00     0.000 C 
BRANCH   4   5
ATOM      5  C   UNL     1      10.653 -15.690  13.238  1.00  0.00     0.000 C 
BRANCH   5   6
ATOM      6  C   UNL     1      11.735 -14.974  14.074  1.00  0.00     0.000 C 
BRANCH   6   7
ATOM      7  C   UNL     1      11.905 -15.504  15.509  1.00  0.00     0.000 C 
BRANCH   7   8
ATOM      8  C   UNL     1      13.332 -15.966  15.865  1.00  0.00     0.000 C 
BRANCH   8   9
ATOM      9  C   UNL     1      13.651 -17.406  15.409  1.00  0.00     0.000 C 
BRANCH   9  10
ATOM     10  C   UNL     1      14.807 -17.460  14.395  1.00  0.00     0.000 C 
BRANCH  10  11
ATOM     11  C   UNL     1      14.321 -17.634  12.944  1.00  0.00     0.000 C 
BRANCH  11  12
ATOM     12  C   UNL     1      14.972 -16.685  11.921  1.00  0.00     0.006 C 
BRANCH  12  13
ATOM     13  C   UNL     1      14.804 -15.205  12.288  1.00  0.00     0.053 C 
BRANCH  13  14
ATOM     14  C   UNL     1      16.121 -14.499  12.232  1.00  0.00     0.041 C 
ATOM     15  O   UNL     1      16.864 -14.458  13.248  1.00  0.00    -0.550 OA
ATOM     16  O   UNL     1      16.551 -13.924  11.044  1.00  0.00    -0.550 OA
ENDBRANCH  13  14
ENDBRANCH  12  13
ENDBRANCH  11  12
ENDBRANCH  10  11
ENDBRANCH   9  10
ENDBRANCH   8   9
ENDBRANCH   7   8
ENDBRANCH   6   7
ENDBRANCH   5   6
ENDBRANCH   4   5
ENDBRANCH   3   4
ENDBRANCH   2   3
ENDBRANCH   1   2
BRANCH   1  17
ATOM     17  C   UNL     1      12.219 -18.718   8.545  1.00  0.00     0.000 C 
BRANCH  17  18
ATOM     18  C   UNL     1      11.439 -19.987   8.934  1.00  0.00     0.000 C 
BRANCH  18  19
ATOM     19  C   UNL     1       9.914 -19.792   8.885  1.00  0.00     0.000 C 
BRANCH  19  20
ATOM     20  C   UNL     1       9.395 -19.003   7.666  1.00  0.00     0.000 C 
BRANCH  20  21
ATOM     21  C   UNL     1       9.419 -19.775   6.332  1.00  0.00     0.000 C 
BRANCH  21  22
ATOM     22  C   UNL     1       8.303 -20.827   6.163  1.00  0.00    -0.000 C 
BRANCH  22  23
ATOM     23  C   UNL     1       7.311 -20.554   5.017  1.00  0.00    -0.000 C 
BRANCH  23  24
ATOM     24  C   UNL     1       6.483 -19.275   5.228  1.00  0.00    -0.000 C 
BRANCH  24  25
ATOM     25  C   UNL     1       6.370 -18.423   3.950  1.00  0.00    -0.000 C 
BRANCH  25  26
ATOM     26  C   UNL     1       7.395 -18.756   2.847  1.00  0.00    -0.000 C 
BRANCH  26  27
ATOM     27  C   UNL     1       8.621 -17.822   2.789  1.00  0.00    -0.000 C 
BRANCH  27  28
ATOM     28  C   UNL     1       8.478 -16.514   3.588  1.00  0.00    -0.000 C 
BRANCH  28  29
ATOM     29  C   UNL     1       9.491 -16.405   4.736  1.00  0.00    -0.003 C 
ATOM     30  C   UNL     1       8.869 -15.736   5.958  1.00  0.00     0.004 C 
ENDBRANCH  28  29
ENDBRANCH  27  28
ENDBRANCH  26  27
ENDBRANCH  25  26
ENDBRANCH  24  25
ENDBRANCH  23  24
ENDBRANCH  22  23
ENDBRANCH  21  22
ENDBRANCH  20  21
ENDBRANCH  19  20
ENDBRANCH  18  19
ENDBRANCH  17  18
ENDBRANCH   1  17
TORSDOF 26
ENDMDL
MODEL 5
REMARK VINA RESULT:    -4.818      1.549      3.240
REMARK INTER + INTRA:         -16.273
REMARK INTER:                 -12.543
REMARK INTRA:                  -3.731
REMARK UNBOUND:                -4.133
REMARK SMILES CCCCCCCCCCCCCCCCCCCCCCCCCCCC(=O)[O-]
REMARK SMILES IDX 15 1 16 2 17 3 18 4 19 5 20 6 21 7 22 8 23 9 24 10 25 11
REMARK SMILES IDX 26 12 27 13 28 14 29 15 30 16 14 17 13 18 12 19 11 20 10 21
REMARK SMILES IDX 9 22 8 23 7 24 6 25 5 26 4 27 3 28 2 29 1 30
REMARK H PARENT
REMARK Flexibility Score: inf
ROOT
ATOM      1  C   UNL     1      14.669 -16.308  15.855  1.00  0.00     0.000 C 
ENDROOT
BRANCH   1   2
ATOM      2  C   UNL     1      13.603 -15.317  15.346  1.00  0.00     0.000 C 
BRANCH   2   3
ATOM      3  C   UNL     1      12.300 -15.277  16.165  1.00  0.00     0.000 C 
BRANCH   3   4
ATOM      4  C   UNL     1      11.005 -15.224  15.329  1.00  0.00     0.000 C 
BRANCH   4   5
ATOM      5  C   UNL     1      11.200 -14.837  13.850  1.00  0.00     0.000 C 
BRANCH   5   6
ATOM      6  C   UNL     1      10.818 -15.931  12.832  1.00  0.00     0.000 C 
BRANCH   6   7
ATOM      7  C   UNL     1      10.748 -15.460  11.368  1.00  0.00     0.000 C 
BRANCH   7   8
ATOM      8  C   UNL     1      11.128 -16.529  10.324  1.00  0.00     0.000 C 
BRANCH   8   9
ATOM      9  C   UNL     1      11.438 -15.950   8.926  1.00  0.00     0.000 C 
BRANCH   9  10
ATOM     10  C   UNL     1      10.850 -16.806   7.790  1.00  0.00     0.000 C 
BRANCH  10  11
ATOM     11  C   UNL     1       9.333 -16.608   7.616  1.00  0.00     0.000 C 
BRANCH  11  12
ATOM     12  C   UNL     1       8.754 -17.142   6.293  1.00  0.00     0.006 C 
BRANCH  12  13
ATOM     13  C   UNL     1       9.832 -17.405   5.234  1.00  0.00     0.053 C 
BRANCH  13  14
ATOM     14  C   UNL     1       9.801 -16.342   4.181  1.00  0.00     0.041 C 
ATOM     15  O   UNL     1       9.054 -16.466   3.176  1.00  0.00    -0.550 OA
ATOM     16  O   UNL     1      10.564 -15.192   4.332  1.00  0.00    -0.550 OA
ENDBRANCH  13  14
ENDBRANCH  12  13
ENDBRANCH  11  12
ENDBRANCH  10  11
ENDBRANCH   9  10
ENDBRANCH   8   9
ENDBRANCH   7   8
ENDBRANCH   6   7
ENDBRANCH   5   6
ENDBRANCH   4   5
ENDBRANCH   3   4
ENDBRANCH   2   3
ENDBRANCH   1   2
BRANCH   1  17
ATOM     17  C   UNL     1      14.704 -17.644  15.082  1.00  0.00     0.000 C 
BRANCH  17  18
ATOM     18  C   UNL     1      13.572 -17.762  14.046  1.00  0.00     0.000 C 
BRANCH  18  19
ATOM     19  C   UNL     1      14.080 -17.729  12.594  1.00  0.00     0.000 C 
BRANCH  19  20
ATOM     20  C   UNL     1      15.539 -17.258  12.425  1.00  0.00     0.000 C 
BRANCH  20  21
ATOM     21  C   UNL     1      15.721 -15.995  11.560  1.00  0.00     0.000 C 
BRANCH  21  22
ATOM     22  C   UNL     1      15.498 -14.658  12.296  1.00  0.00    -0.000 C 
BRANCH  22  23
ATOM     23  C   UNL     1      16.577 -14.290  13.333  1.00  0.00    -0.000 C 
BRANCH  23  24
ATOM     24  C   UNL     1      16.428 -12.859  13.875  1.00  0.00    -0.000 C 
BRANCH  24  25
ATOM     25  C   UNL     1      15.061 -12.235  13.540  1.00  0.00    -0.000 C 
BRANCH  25  26
ATOM     26  C   UNL     1      14.881 -10.770  13.985  1.00  0.00    -0.000 C 
BRANCH  26  27
ATOM     27  C   UNL     1      13.743 -10.527  14.995  1.00  0.00    -0.000 C 
BRANCH  27  28
ATOM     28  C   UNL     1      12.760 -11.700  15.159  1.00  0.00    -0.000 C 
BRANCH  28  29
ATOM     29  C   UNL     1      11.291 -11.257  15.108  1.00  0.00    -0.003 C 
ATOM     30  C   UNL     1      11.157  -9.759  15.365  1.00  0.00     0.004 C 
ENDBRANCH  28  29
ENDBRANCH  27  28
ENDBRANCH  26  27
ENDBRANCH  25  26
ENDBRANCH  24  25
ENDBRANCH  23  24
ENDBRANCH  22  23
ENDBRANCH  21  22
ENDBRANCH  20  21
ENDBRANCH  19  20
ENDBRANCH  18  19
ENDBRANCH  17  18
ENDBRANCH   1  17
TORSDOF 26
ENDMDL
MODEL 6
REMARK VINA RESULT:    -4.797      2.197      4.616
REMARK INTER + INTRA:         -16.221
REMARK INTER:                 -12.291
REMARK INTRA:                  -3.930
REMARK UNBOUND:                -4.133
REMARK SMILES CCCCCCCCCCCCCCCCCCCCCCCCCCCC(=O)[O-]
REMARK SMILES IDX 15 1 16 2 17 3 18 4 19 5 20 6 21 7 22 8 23 9 24 10 25 11
REMARK SMILES IDX 26 12 27 13 28 14 29 15 30 16 14 17 13 18 12 19 11 20 10 21
REMARK SMILES IDX 9 22 8 23 7 24 6 25 5 26 4 27 3 28 2 29 1 30
REMARK H PARENT
REMARK Flexibility Score: inf
ROOT
ATOM      1  C   UNL     1      12.374 -16.523   9.136  1.00  0.00     0.000 C 
ENDROOT
BRANCH   1   2
ATOM      2  C   UNL     1      12.238 -17.987   9.599  1.00  0.00     0.000 C 
BRANCH   2   3
ATOM      3  C   UNL     1      12.409 -19.044   8.492  1.00  0.00     0.000 C 
BRANCH   3   4
ATOM      4  C   UNL     1      11.606 -20.344   8.701  1.00  0.00     0.000 C 
BRANCH   4   5
ATOM      5  C   UNL     1      10.135 -20.142   9.116  1.00  0.00     0.000 C 
BRANCH   5   6
ATOM      6  C   UNL     1       9.095 -20.505   8.036  1.00  0.00     0.000 C 
BRANCH   6   7
ATOM      7  C   UNL     1       9.062 -19.559   6.822  1.00  0.00     0.000 C 
BRANCH   7   8
ATOM      8  C   UNL     1       8.400 -18.192   7.083  1.00  0.00     0.000 C 
BRANCH   8   9
ATOM      9  C   UNL     1       9.375 -16.999   6.983  1.00  0.00     0.000 C 
BRANCH   9  10
ATOM     10  C   UNL     1       8.879 -15.912   6.014  1.00  0.00     0.000 C 
BRANCH  10  11
ATOM     11  C   UNL     1       9.183 -16.242   4.540  1.00  0.00     0.000 C 
BRANCH  11  12
ATOM     12  C   UNL     1       7.945 -16.510   3.665  1.00  0.00     0.006 C 
BRANCH  12  13
ATOM     13  C   UNL     1       8.088 -17.769   2.800  1.00  0.00     0.053 C 
BRANCH  13  14
ATOM     14  C   UNL     1       7.529 -18.959   3.513  1.00  0.00     0.041 C 
ATOM     15  O   UNL     1       8.139 -20.060   3.487  1.00  0.00    -0.550 OA
ATOM     16  O   UNL     1       6.356 -18.842   4.247  1.00  0.00    -0.550 OA
ENDBRANCH  13  14
ENDBRANCH  12  13
ENDBRANCH  11  12
ENDBRANCH  10  11
ENDBRANCH   9  10
ENDBRANCH   8   9
ENDBRANCH   7   8
ENDBRANCH   6   7
ENDBRANCH   5   6
ENDBRANCH   4   5
ENDBRANCH   3   4
ENDBRANCH   2   3
ENDBRANCH   1   2
BRANCH   1  17
ATOM     17  C   UNL     1      13.586 -15.783   9.743  1.00  0.00     0.000 C 
BRANCH  17  18
ATOM     18  C   UNL     1      14.831 -16.679   9.861  1.00  0.00     0.000 C 
BRANCH  18  19
ATOM     19  C   UNL     1      15.307 -16.858  11.314  1.00  0.00     0.000 C 
BRANCH  19  20
ATOM     20  C   UNL     1      15.014 -15.667  12.247  1.00  0.00     0.000 C 
BRANCH  20  21
ATOM     21  C   UNL     1      15.015 -16.000  13.752  1.00  0.00     0.000 C 
BRANCH  21  22
ATOM     22  C   UNL     1      14.566 -17.433  14.106  1.00  0.00    -0.000 C 
BRANCH  22  23
ATOM     23  C   UNL     1      13.907 -17.591  15.489  1.00  0.00    -0.000 C 
BRANCH  23  24
ATOM     24  C   UNL     1      14.104 -16.364  16.395  1.00  0.00    -0.000 C 
BRANCH  24  25
ATOM     25  C   UNL     1      12.777 -15.665  16.747  1.00  0.00    -0.000 C 
BRANCH  25  26
ATOM     26  C   UNL     1      12.585 -14.270  16.120  1.00  0.00    -0.000 C 
BRANCH  26  27
ATOM     27  C   UNL     1      11.843 -14.255  14.769  1.00  0.00    -0.000 C 
BRANCH  27  28
ATOM     28  C   UNL     1      11.049 -15.535  14.451  1.00  0.00    -0.000 C 
BRANCH  28  29
ATOM     29  C   UNL     1      11.339 -16.082  13.046  1.00  0.00    -0.003 C 
ATOM     30  C   UNL     1      10.351 -15.528  12.023  1.00  0.00     0.004 C 
ENDBRANCH  28  29
ENDBRANCH  27  28
ENDBRANCH  26  27
ENDBRANCH  25  26
ENDBRANCH  24  25
ENDBRANCH  23  24
ENDBRANCH  22  23
ENDBRANCH  21  22
ENDBRANCH  20  21
ENDBRANCH  19  20
ENDBRANCH  18  19
ENDBRANCH  17  18
ENDBRANCH   1  17
TORSDOF 26
ENDMDL
MODEL 7
REMARK VINA RESULT:    -4.792      1.909      5.790
REMARK INTER + INTRA:         -16.209
REMARK INTER:                 -12.823
REMARK INTRA:                  -3.386
REMARK UNBOUND:                -4.133
REMARK SMILES CCCCCCCCCCCCCCCCCCCCCCCCCCCC(=O)[O-]
REMARK SMILES IDX 15 1 16 2 17 3 18 4 19 5 20 6 21 7 22 8 23 9 24 10 25 11
REMARK SMILES IDX 26 12 27 13 28 14 29 15 30 16 14 17 13 18 12 19 11 20 10 21
REMARK SMILES IDX 9 22 8 23 7 24 6 25 5 26 4 27 3 28 2 29 1 30
REMARK H PARENT
REMARK Flexibility Score: inf
ROOT
ATOM      1  C   UNL     1      10.546 -19.601   8.864  1.00  0.00     0.000 C 
ENDROOT
BRANCH   1   2
ATOM      2  C   UNL     1       9.159 -19.806   8.223  1.00  0.00     0.000 C 
BRANCH   2   3
ATOM      3  C   UNL     1       9.089 -19.536   6.708  1.00  0.00     0.000 C 
BRANCH   3   4
ATOM      4  C   UNL     1       7.866 -18.718   6.246  1.00  0.00     0.000 C 
BRANCH   4   5
ATOM      5  C   UNL     1       6.953 -19.430   5.229  1.00  0.00     0.000 C 
BRANCH   5   6
ATOM      6  C   UNL     1       6.394 -18.529   4.109  1.00  0.00     0.000 C 
BRANCH   6   7
ATOM      7  C   UNL     1       7.424 -18.096   3.049  1.00  0.00     0.000 C 
BRANCH   7   8
ATOM      8  C   UNL     1       8.117 -16.747   3.331  1.00  0.00     0.000 C 
BRANCH   8   9
ATOM      9  C   UNL     1       9.513 -16.619   2.685  1.00  0.00     0.000 C 
BRANCH   9  10
ATOM     10  C   UNL     1      10.565 -16.061   3.660  1.00  0.00     0.000 C 
BRANCH  10  11
ATOM     11  C   UNL     1      10.088 -16.073   5.124  1.00  0.00     0.000 C 
BRANCH  11  12
ATOM     12  C   UNL     1      10.102 -14.701   5.825  1.00  0.00     0.006 C 
BRANCH  12  13
ATOM     13  C   UNL     1      11.383 -13.904   5.547  1.00  0.00     0.053 C 
BRANCH  13  14
ATOM     14  C   UNL     1      12.505 -14.402   6.402  1.00  0.00     0.041 C 
ATOM     15  O   UNL     1      13.314 -15.257   5.955  1.00  0.00    -0.550 OA
ATOM     16  O   UNL     1      12.686 -13.889   7.680  1.00  0.00    -0.550 OA
ENDBRANCH  13  14
ENDBRANCH  12  13
ENDBRANCH  11  12
ENDBRANCH  10  11
ENDBRANCH   9  10
ENDBRANCH   8   9
ENDBRANCH   7   8
ENDBRANCH   6   7
ENDBRANCH   5   6
ENDBRANCH   4   5
ENDBRANCH   3   4
ENDBRANCH   2   3
ENDBRANCH   1   2
BRANCH   1  17
ATOM     17  C   UNL     1      11.555 -18.867   7.955  1.00  0.00     0.000 C 
BRANCH  17  18
ATOM     18  C   UNL     1      12.031 -17.531   8.552  1.00  0.00     0.000 C 
BRANCH  18  19
ATOM     19  C   UNL     1      10.869 -16.600   8.940  1.00  0.00     0.000 C 
BRANCH  19  20
ATOM     20  C   UNL     1      11.072 -15.816  10.252  1.00  0.00     0.000 C 
BRANCH  20  21
ATOM     21  C   UNL     1      11.827 -16.580  11.358  1.00  0.00     0.000 C 
BRANCH  21  22
ATOM     22  C   UNL     1      12.102 -15.772  12.643  1.00  0.00    -0.000 C 
BRANCH  22  23
ATOM     23  C   UNL     1      10.901 -15.624  13.597  1.00  0.00    -0.000 C 
BRANCH  23  24
ATOM     24  C   UNL     1      11.319 -15.411  15.062  1.00  0.00    -0.000 C 
BRANCH  24  25
ATOM     25  C   UNL     1      12.847 -15.350  15.242  1.00  0.00    -0.000 C 
BRANCH  25  26
ATOM     26  C   UNL     1      13.460 -16.518  16.040  1.00  0.00    -0.000 C 
BRANCH  26  27
ATOM     27  C   UNL     1      13.886 -17.736  15.196  1.00  0.00    -0.000 C 
BRANCH  27  28
ATOM     28  C   UNL     1      15.370 -17.755  14.788  1.00  0.00    -0.000 C 
BRANCH  28  29
ATOM     29  C   UNL     1      15.696 -16.741  13.682  1.00  0.00    -0.003 C 
ATOM     30  C   UNL     1      15.472 -17.343  12.298  1.00  0.00     0.004 C 
ENDBRANCH  28  29
ENDBRANCH  27  28
ENDBRANCH  26  27
ENDBRANCH  25  26
ENDBRANCH  24  25
ENDBRANCH  23  24
ENDBRANCH  22  23
ENDBRANCH  21  22
ENDBRANCH  20  21
ENDBRANCH  19  20
ENDBRANCH  18  19
ENDBRANCH  17  18
ENDBRANCH   1  17
TORSDOF 26
ENDMDL
MODEL 8
REMARK VINA RESULT:    -4.723      2.738      7.639
REMARK INTER + INTRA:         -16.035
REMARK INTER:                 -11.611
REMARK INTRA:                  -4.424
REMARK UNBOUND:                -4.133
REMARK SMILES CCCCCCCCCCCCCCCCCCCCCCCCCCCC(=O)[O-]
REMARK SMILES IDX 15 1 16 2 17 3 18 4 19 5 20 6 21 7 22 8 23 9 24 10 25 11
REMARK SMILES IDX 26 12 27 13 28 14 29 15 30 16 14 17 13 18 12 19 11 20 10 21
REMARK SMILES IDX 9 22 8 23 7 24 6 25 5 26 4 27 3 28 2 29 1 30
REMARK H PARENT
REMARK Flexibility Score: inf
ROOT
ATOM      1  C   UNL     1      12.809 -15.161  16.144  1.00  0.00     0.000 C 
ENDROOT
BRANCH   1   2
ATOM      2  C   UNL     1      13.995 -16.092  15.823  1.00  0.00     0.000 C 
BRANCH   2   3
ATOM      3  C   UNL     1      13.612 -17.515  15.377  1.00  0.00     0.000 C 
BRANCH   3   4
ATOM      4  C   UNL     1      13.761 -17.787  13.866  1.00  0.00     0.000 C 
BRANCH   4   5
ATOM      5  C   UNL     1      14.595 -16.745  13.095  1.00  0.00     0.000 C 
BRANCH   5   6
ATOM      6  C   UNL     1      15.665 -17.332  12.152  1.00  0.00     0.000 C 
BRANCH   6   7
ATOM      7  C   UNL     1      15.594 -16.831  10.698  1.00  0.00     0.000 C 
BRANCH   7   8
ATOM      8  C   UNL     1      16.289 -15.479  10.443  1.00  0.00     0.000 C 
BRANCH   8   9
ATOM      9  C   UNL     1      15.319 -14.278  10.409  1.00  0.00     0.000 C 
BRANCH   9  10
ATOM     10  C   UNL     1      15.769 -13.130  11.329  1.00  0.00     0.000 C 
BRANCH  10  11
ATOM     11  C   UNL     1      16.633 -13.614  12.509  1.00  0.00     0.000 C 
BRANCH  11  12
ATOM     12  C   UNL     1      16.239 -13.040  13.882  1.00  0.00     0.006 C 
BRANCH  12  13
ATOM     13  C   UNL     1      14.721 -13.003  14.100  1.00  0.00     0.053 C 
BRANCH  13  14
ATOM     14  C   UNL     1      14.265 -11.603  14.364  1.00  0.00     0.041 C 
ATOM     15  O   UNL     1      14.915 -10.626  13.909  1.00  0.00    -0.550 OA
ATOM     16  O   UNL     1      13.094 -11.377  15.076  1.00  0.00    -0.550 OA
ENDBRANCH  13  14
ENDBRANCH  12  13
ENDBRANCH  11  12
ENDBRANCH  10  11
ENDBRANCH   9  10
ENDBRANCH   8   9
ENDBRANCH   7   8
ENDBRANCH   6   7
ENDBRANCH   5   6
ENDBRANCH   4   5
ENDBRANCH   3   4
ENDBRANCH   2   3
ENDBRANCH   1   2
BRANCH   1  17
ATOM     17  C   UNL     1      11.491 -15.562  15.448  1.00  0.00     0.000 C 
BRANCH  17  18
ATOM     18  C   UNL     1      11.373 -14.993  14.023  1.00  0.00     0.000 C 
BRANCH  18  19
ATOM     19  C   UNL     1      10.621 -15.931  13.062  1.00  0.00     0.000 C 
BRANCH  19  20
ATOM     20  C   UNL     1      10.702 -15.539  11.573  1.00  0.00     0.000 C 
BRANCH  20  21
ATOM     21  C   UNL     1      11.991 -15.979  10.851  1.00  0.00     0.000 C 
BRANCH  21  22
ATOM     22  C   UNL     1      11.940 -15.902   9.312  1.00  0.00    -0.000 C 
BRANCH  22  23
ATOM     23  C   UNL     1      12.438 -17.159   8.574  1.00  0.00    -0.000 C 
BRANCH  23  24
ATOM     24  C   UNL     1      12.107 -18.464   9.316  1.00  0.00    -0.000 C 
BRANCH  24  25
ATOM     25  C   UNL     1      10.961 -19.251   8.654  1.00  0.00    -0.000 C 
BRANCH  25  26
ATOM     26  C   UNL     1      10.500 -18.710   7.286  1.00  0.00    -0.000 C 
BRANCH  26  27
ATOM     27  C   UNL     1       9.041 -18.214   7.235  1.00  0.00    -0.000 C 
BRANCH  27  28
ATOM     28  C   UNL     1       8.871 -16.687   7.318  1.00  0.00    -0.000 C 
BRANCH  28  29
ATOM     29  C   UNL     1       9.501 -15.952   6.126  1.00  0.00    -0.003 C 
ATOM     30  C   UNL     1       8.710 -16.200   4.845  1.00  0.00     0.004 C 
ENDBRANCH  28  29
ENDBRANCH  27  28
ENDBRANCH  26  27
ENDBRANCH  25  26
ENDBRANCH  24  25
ENDBRANCH  23  24
ENDBRANCH  22  23
ENDBRANCH  21  22
ENDBRANCH  20  21
ENDBRANCH  19  20
ENDBRANCH  18  19
ENDBRANCH  17  18
ENDBRANCH   1  17
TORSDOF 26
ENDMDL
MODEL 9
REMARK VINA RESULT:    -4.701      3.229      9.477
REMARK INTER + INTRA:         -15.980
REMARK INTER:                 -11.740
REMARK INTRA:                  -4.239
REMARK UNBOUND:                -4.133
REMARK SMILES CCCCCCCCCCCCCCCCCCCCCCCCCCCC(=O)[O-]
REMARK SMILES IDX 15 1 16 2 17 3 18 4 19 5 20 6 21 7 22 8 23 9 24 10 25 11
REMARK SMILES IDX 26 12 27 13 28 14 29 15 30 16 14 17 13 18 12 19 11 20 10 21
REMARK SMILES IDX 9 22 8 23 7 24 6 25 5 26 4 27 3 28 2 29 1 30
REMARK H PARENT
REMARK Flexibility Score: inf
ROOT
ATOM      1  C   UNL     1       9.257 -16.748   3.992  1.00  0.00     0.000 C 
ENDROOT
BRANCH   1   2
ATOM      2  C   UNL     1       8.720 -15.991   5.223  1.00  0.00     0.000 C 
BRANCH   2   3
ATOM      3  C   UNL     1       9.764 -15.153   5.985  1.00  0.00     0.000 C 
BRANCH   3   4
ATOM      4  C   UNL     1      10.485 -15.893   7.131  1.00  0.00     0.000 C 
BRANCH   4   5
ATOM      5  C   UNL     1      11.968 -15.518   7.316  1.00  0.00     0.000 C 
BRANCH   5   6
ATOM      6  C   UNL     1      12.454 -15.475   8.780  1.00  0.00     0.000 C 
BRANCH   6   7
ATOM      7  C   UNL     1      11.397 -15.875   9.827  1.00  0.00     0.000 C 
BRANCH   7   8
ATOM      8  C   UNL     1      11.838 -16.983  10.804  1.00  0.00     0.000 C 
BRANCH   8   9
ATOM      9  C   UNL     1      13.366 -17.202  10.846  1.00  0.00     0.000 C 
BRANCH   9  10
ATOM     10  C   UNL     1      14.041 -16.428  11.993  1.00  0.00     0.000 C 
BRANCH  10  11
ATOM     11  C   UNL     1      14.563 -17.350  13.110  1.00  0.00     0.000 C 
BRANCH  11  12
ATOM     12  C   UNL     1      13.526 -17.722  14.186  1.00  0.00     0.006 C 
BRANCH  12  13
ATOM     13  C   UNL     1      12.529 -16.591  14.468  1.00  0.00     0.053 C 
BRANCH  13  14
ATOM     14  C   UNL     1      13.055 -15.685  15.537  1.00  0.00     0.041 C 
ATOM     15  O   UNL     1      12.847 -14.445  15.478  1.00  0.00    -0.550 OA
ATOM     16  O   UNL     1      13.737 -16.216  16.623  1.00  0.00    -0.550 OA
ENDBRANCH  13  14
ENDBRANCH  12  13
ENDBRANCH  11  12
ENDBRANCH  10  11
ENDBRANCH   9  10
ENDBRANCH   8   9
ENDBRANCH   7   8
ENDBRANCH   6   7
ENDBRANCH   5   6
ENDBRANCH   4   5
ENDBRANCH   3   4
ENDBRANCH   2   3
ENDBRANCH   1   2
BRANCH   1  17
ATOM     17  C   UNL     1       8.215 -16.936   2.868  1.00  0.00     0.000 C 
BRANCH  17  18
ATOM     18  C   UNL     1       7.572 -18.333   2.880  1.00  0.00     0.000 C 
BRANCH  18  19
ATOM     19  C   UNL     1       6.494 -18.489   3.967  1.00  0.00     0.000 C 
BRANCH  19  20
ATOM     20  C   UNL     1       6.885 -19.402   5.146  1.00  0.00     0.000 C 
BRANCH  20  21
ATOM     21  C   UNL     1       8.091 -20.327   4.885  1.00  0.00     0.000 C 
BRANCH  21  22
ATOM     22  C   UNL     1       9.007 -20.570   6.101  1.00  0.00    -0.000 C 
BRANCH  22  23
ATOM     23  C   UNL     1       8.991 -19.460   7.169  1.00  0.00    -0.000 C 
BRANCH  23  24
ATOM     24  C   UNL     1       9.112 -20.003   8.603  1.00  0.00    -0.000 C 
BRANCH  24  25
ATOM     25  C   UNL     1      10.300 -20.967   8.776  1.00  0.00    -0.000 C 
BRANCH  25  26
ATOM     26  C   UNL     1      11.654 -20.292   9.069  1.00  0.00    -0.000 C 
BRANCH  26  27
ATOM     27  C   UNL     1      12.678 -20.348   7.918  1.00  0.00    -0.000 C 
BRANCH  27  28
ATOM     28  C   UNL     1      13.304 -18.994   7.539  1.00  0.00    -0.000 C 
BRANCH  28  29
ATOM     29  C   UNL     1      13.468 -18.817   6.023  1.00  0.00    -0.003 C 
ATOM     30  C   UNL     1      12.113 -18.728   5.328  1.00  0.00     0.004 C 
ENDBRANCH  28  29
ENDBRANCH  27  28
ENDBRANCH  26  27
ENDBRANCH  25  26
ENDBRANCH  24  25
ENDBRANCH  23  24
ENDBRANCH  22  23
ENDBRANCH  21  22
ENDBRANCH  20  21
ENDBRANCH  19  20
ENDBRANCH  18  19
ENDBRANCH  17  18
ENDBRANCH   1  17
TORSDOF 26
ENDMDL
