MODEL 1
REMARK VINA RESULT:    -5.358      0.000      0.000
REMARK INTER + INTRA:          -5.671
REMARK INTER:                  -5.671
REMARK INTRA:                   0.000
REMARK UNBOUND:                 0.000
REMARK SMILES O=c1ccc2cc(O)c(O)cc2o1
REMARK SMILES IDX 4 1 3 2 2 3 1 4 13 5 12 6 11 7 9 8 7 9 6 10 5 11 8 12 10 14
REMARK H PARENT 8 13 10 15
REMARK Flexibility Score: inf
ROOT
ATOM      1  C   UNL     1       8.899  51.387  25.125  1.00  0.00     0.019 A 
ATOM      2  C   UNL     1       7.786  51.840  24.417  1.00  0.00     0.094 A 
ATOM      3  C   UNL     1       7.916  52.108  23.049  1.00  0.00     0.336 A 
ATOM      4  O   UNL     1       6.923  52.517  22.393  1.00  0.00    -0.246 OA
ATOM      5  O   UNL     1       9.084  51.933  22.436  1.00  0.00    -0.423 OA
ATOM      6  C   UNL     1      10.170  51.503  23.075  1.00  0.00     0.142 A 
ATOM      7  C   UNL     1      11.371  51.338  22.379  1.00  0.00     0.098 A 
ATOM      8  C   UNL     1      12.518  50.885  23.046  1.00  0.00     0.161 A 
ATOM      9  C   UNL     1      12.464  50.596  24.417  1.00  0.00     0.158 A 
ATOM     10  C   UNL     1      11.261  50.760  25.122  1.00  0.00     0.062 A 
ATOM     11  C   UNL     1      10.115  51.212  24.455  1.00  0.00     0.022 A 
ENDROOT
BRANCH   9  12
ATOM     12  O   UNL     1      13.609  50.147  25.073  1.00  0.00    -0.504 OA
ATOM     13  H   UNL     1      14.295  50.794  25.444  1.00  0.00     0.293 HD
ENDBRANCH   9  12
BRANCH   8  14
ATOM     14  O   UNL     1      13.717  50.719  22.354  1.00  0.00    -0.504 OA
ATOM     15  H   UNL     1      14.613  50.876  22.801  1.00  0.00     0.293 HD
ENDBRANCH   8  14
TORSDOF 2
ENDMDL
MODEL 2
REMARK VINA RESULT:    -5.207      2.038      4.740
REMARK INTER + INTRA:          -5.511
REMARK INTER:                  -5.511
REMARK INTRA:                   0.000
REMARK UNBOUND:                 0.000
REMARK SMILES O=c1ccc2cc(O)c(O)cc2o1
REMARK SMILES IDX 4 1 3 2 2 3 1 4 13 5 12 6 11 7 9 8 7 9 6 10 5 11 8 12 10 14
REMARK H PARENT 8 13 10 15
REMARK Flexibility Score: inf
ROOT
ATOM      1  C   UNL     1       8.351  51.749  24.404  1.00  0.00     0.019 A 
ATOM      2  C   UNL     1       9.545  51.738  25.125  1.00  0.00     0.094 A 
ATOM      3  C   UNL     1      10.731  52.100  24.476  1.00  0.00     0.336 A 
ATOM      4  O   UNL     1      11.819  52.096  25.109  1.00  0.00    -0.246 OA
ATOM      5  O   UNL     1      10.717  52.449  23.191  1.00  0.00    -0.423 OA
ATOM      6  C   UNL     1       9.600  52.473  22.468  1.00  0.00     0.142 A 
ATOM      7  C   UNL     1       9.646  52.848  21.123  1.00  0.00     0.098 A 
ATOM      8  C   UNL     1       8.472  52.875  20.356  1.00  0.00     0.161 A 
ATOM      9  C   UNL     1       7.246  52.525  20.939  1.00  0.00     0.158 A 
ATOM     10  C   UNL     1       7.193  52.148  22.289  1.00  0.00     0.062 A 
ATOM     11  C   UNL     1       8.366  52.120  23.056  1.00  0.00     0.022 A 
ENDROOT
BRANCH   9  12
ATOM     12  O   UNL     1       6.084  52.555  20.170  1.00  0.00    -0.504 OA
ATOM     13  H   UNL     1       6.109  52.769  19.180  1.00  0.00     0.293 HD
ENDBRANCH   9  12
BRANCH   8  14
ATOM     14  O   UNL     1       8.515  53.249  19.014  1.00  0.00    -0.504 OA
ATOM     15  H   UNL     1       9.015  52.697  18.325  1.00  0.00     0.293 HD
ENDBRANCH   8  14
TORSDOF 2
ENDMDL
MODEL 3
REMARK VINA RESULT:    -5.125      1.126      4.546
REMARK INTER + INTRA:          -5.425
REMARK INTER:                  -5.425
REMARK INTRA:                   0.000
REMARK UNBOUND:                 0.000
REMARK SMILES O=c1ccc2cc(O)c(O)cc2o1
REMARK SMILES IDX 4 1 3 2 2 3 1 4 13 5 12 6 11 7 9 8 7 9 6 10 5 11 8 12 10 14
REMARK H PARENT 8 13 10 15
REMARK Flexibility Score: inf
ROOT
ATOM      1  C   UNL     1      11.235  50.982  25.125  1.00  0.00     0.019 A 
ATOM      2  C   UNL     1      12.479  50.964  24.495  1.00  0.00     0.094 A 
ATOM      3  C   UNL     1      12.565  51.354  23.153  1.00  0.00     0.336 A 
ATOM      4  O   UNL     1      13.678  51.345  22.567  1.00  0.00    -0.246 OA
ATOM      5  O   UNL     1      11.475  51.735  22.491  1.00  0.00    -0.423 OA
ATOM      6  C   UNL     1      10.269  51.767  23.056  1.00  0.00     0.142 A 
ATOM      7  C   UNL     1       9.160  52.176  22.311  1.00  0.00     0.098 A 
ATOM      8  C   UNL     1       7.887  52.211  22.899  1.00  0.00     0.161 A 
ATOM      9  C   UNL     1       7.725  51.834  24.241  1.00  0.00     0.158 A 
ATOM     10  C   UNL     1       8.835  51.422  24.993  1.00  0.00     0.062 A 
ATOM     11  C   UNL     1      10.106  51.387  24.405  1.00  0.00     0.022 A 
ENDROOT
BRANCH   9  12
ATOM     12  O   UNL     1       6.457  51.872  24.818  1.00  0.00    -0.504 OA
ATOM     13  H   UNL     1       5.777  51.138  24.653  1.00  0.00     0.293 HD
ENDBRANCH   9  12
BRANCH   8  14
ATOM     14  O   UNL     1       6.780  52.619  22.160  1.00  0.00    -0.504 OA
ATOM     15  H   UNL     1       6.878  53.020  21.233  1.00  0.00     0.293 HD
ENDBRANCH   8  14
TORSDOF 2
ENDMDL
MODEL 4
REMARK VINA RESULT:    -5.070      2.270      3.383
REMARK INTER + INTRA:          -5.366
REMARK INTER:                  -5.366
REMARK INTRA:                   0.000
REMARK UNBOUND:                 0.000
REMARK SMILES O=c1ccc2cc(O)c(O)cc2o1
REMARK SMILES IDX 4 1 3 2 2 3 1 4 13 5 12 6 11 7 9 8 7 9 6 10 5 11 8 12 10 14
REMARK H PARENT 8 13 10 15
REMARK Flexibility Score: inf
ROOT
ATOM      1  C   UNL     1       9.454  50.730  24.228  1.00  0.00     0.019 A 
ATOM      2  C   UNL     1       8.255  50.636  24.934  1.00  0.00     0.094 A 
ATOM      3  C   UNL     1       7.153  51.382  24.500  1.00  0.00     0.336 A 
ATOM      4  O   UNL     1       6.062  51.311  25.124  1.00  0.00    -0.246 OA
ATOM      5  O   UNL     1       7.250  52.168  23.430  1.00  0.00    -0.423 OA
ATOM      6  C   UNL     1       8.375  52.285  22.728  1.00  0.00     0.142 A 
ATOM      7  C   UNL     1       8.418  53.126  21.613  1.00  0.00     0.098 A 
ATOM      8  C   UNL     1       9.600  53.255  20.870  1.00  0.00     0.161 A 
ATOM      9  C   UNL     1      10.746  52.538  21.245  1.00  0.00     0.158 A 
ATOM     10  C   UNL     1      10.709  51.692  22.364  1.00  0.00     0.062 A 
ATOM     11  C   UNL     1       9.527  51.563  23.107  1.00  0.00     0.022 A 
ENDROOT
BRANCH   9  12
ATOM     12  O   UNL     1      11.917  52.670  20.501  1.00  0.00    -0.504 OA
ATOM     13  H   UNL     1      12.778  52.216  20.783  1.00  0.00     0.293 HD
ENDBRANCH   9  12
BRANCH   8  14
ATOM     14  O   UNL     1       9.646  54.092  19.757  1.00  0.00    -0.504 OA
ATOM     15  H   UNL     1      10.464  54.135  19.158  1.00  0.00     0.293 HD
ENDBRANCH   8  14
TORSDOF 2
ENDMDL
MODEL 5
REMARK VINA RESULT:    -5.017      1.170      2.274
REMARK INTER + INTRA:          -5.310
REMARK INTER:                  -5.310
REMARK INTRA:                   0.000
REMARK UNBOUND:                 0.000
REMARK SMILES O=c1ccc2cc(O)c(O)cc2o1
REMARK SMILES IDX 4 1 3 2 2 3 1 4 13 5 12 6 11 7 9 8 7 9 6 10 5 11 8 12 10 14
REMARK H PARENT 8 13 10 15
REMARK Flexibility Score: inf
ROOT
ATOM      1  C   UNL     1       8.808  52.112  22.430  1.00  0.00     0.019 A 
ATOM      2  C   UNL     1       7.614  52.277  23.132  1.00  0.00     0.094 A 
ATOM      3  C   UNL     1       7.558  51.885  24.474  1.00  0.00     0.336 A 
ATOM      4  O   UNL     1       6.490  52.026  25.125  1.00  0.00    -0.246 OA
ATOM      5  O   UNL     1       8.629  51.365  25.070  1.00  0.00    -0.423 OA
ATOM      6  C   UNL     1       9.786  51.191  24.436  1.00  0.00     0.142 A 
ATOM      7  C   UNL     1      10.877  50.639  25.113  1.00  0.00     0.098 A 
ATOM      8  C   UNL     1      12.100  50.454  24.451  1.00  0.00     0.161 A 
ATOM      9  C   UNL     1      12.230  50.823  23.103  1.00  0.00     0.158 A 
ATOM     10  C   UNL     1      11.139  51.377  22.419  1.00  0.00     0.062 A 
ATOM     11  C   UNL     1       9.917  51.563  23.080  1.00  0.00     0.022 A 
ENDROOT
BRANCH   9  12
ATOM     12  O   UNL     1      13.449  50.635  22.453  1.00  0.00    -0.504 OA
ATOM     13  H   UNL     1      14.139  51.375  22.397  1.00  0.00     0.293 HD
ENDBRANCH   9  12
BRANCH   8  14
ATOM     14  O   UNL     1      13.189  49.904  25.123  1.00  0.00    -0.504 OA
ATOM     15  H   UNL     1      13.687  50.421  25.840  1.00  0.00     0.293 HD
ENDBRANCH   8  14
TORSDOF 2
ENDMDL
MODEL 6
REMARK VINA RESULT:    -4.841      4.169      7.014
REMARK INTER + INTRA:          -5.124
REMARK INTER:                  -5.124
REMARK INTRA:                   0.000
REMARK UNBOUND:                 0.000
REMARK SMILES O=c1ccc2cc(O)c(O)cc2o1
REMARK SMILES IDX 4 1 3 2 2 3 1 4 13 5 12 6 11 7 9 8 7 9 6 10 5 11 8 12 10 14
REMARK H PARENT 8 13 10 15
REMARK Flexibility Score: inf
ROOT
ATOM      1  C   UNL     1       8.311  53.234  21.416  1.00  0.00     0.019 A 
ATOM      2  C   UNL     1       9.636  53.072  21.009  1.00  0.00     0.094 A 
ATOM      3  C   UNL     1       9.898  52.711  19.682  1.00  0.00     0.336 A 
ATOM      4  O   UNL     1      11.086  52.560  19.296  1.00  0.00    -0.246 OA
ATOM      5  O   UNL     1       8.897  52.527  18.824  1.00  0.00    -0.423 OA
ATOM      6  C   UNL     1       7.620  52.672  19.171  1.00  0.00     0.142 A 
ATOM      7  C   UNL     1       6.612  52.465  18.226  1.00  0.00     0.098 A 
ATOM      8  C   UNL     1       5.265  52.617  18.585  1.00  0.00     0.161 A 
ATOM      9  C   UNL     1       4.926  52.976  19.898  1.00  0.00     0.158 A 
ATOM     10  C   UNL     1       5.934  53.186  20.851  1.00  0.00     0.062 A 
ATOM     11  C   UNL     1       7.280  53.034  20.492  1.00  0.00     0.022 A 
ENDROOT
BRANCH   9  12
ATOM     12  O   UNL     1       3.584  53.125  20.247  1.00  0.00    -0.504 OA
ATOM     13  H   UNL     1       3.110  52.444  20.829  1.00  0.00     0.293 HD
ENDBRANCH   9  12
BRANCH   8  14
ATOM     14  O   UNL     1       4.257  52.411  17.646  1.00  0.00    -0.504 OA
ATOM     15  H   UNL     1       4.371  51.757  16.879  1.00  0.00     0.293 HD
ENDBRANCH   8  14
TORSDOF 2
ENDMDL
MODEL 7
REMARK VINA RESULT:    -4.773      2.250      5.141
REMARK INTER + INTRA:          -5.052
REMARK INTER:                  -5.052
REMARK INTRA:                   0.000
REMARK UNBOUND:                 0.000
REMARK SMILES O=c1ccc2cc(O)c(O)cc2o1
REMARK SMILES IDX 4 1 3 2 2 3 1 4 13 5 12 6 11 7 9 8 7 9 6 10 5 11 8 12 10 14
REMARK H PARENT 8 13 10 15
REMARK Flexibility Score: inf
ROOT
ATOM      1  C   UNL     1      12.052  51.060  21.463  1.00  0.00     0.019 A 
ATOM      2  C   UNL     1      12.392  50.686  22.763  1.00  0.00     0.094 A 
ATOM      3  C   UNL     1      11.569  51.090  23.821  1.00  0.00     0.336 A 
ATOM      4  O   UNL     1      11.859  50.762  25.001  1.00  0.00    -0.246 OA
ATOM      5  O   UNL     1      10.480  51.818  23.588  1.00  0.00    -0.423 OA
ATOM      6  C   UNL     1      10.119  52.195  22.364  1.00  0.00     0.142 A 
ATOM      7  C   UNL     1       8.964  52.959  22.180  1.00  0.00     0.098 A 
ATOM      8  C   UNL     1       8.579  53.360  20.892  1.00  0.00     0.161 A 
ATOM      9  C   UNL     1       9.356  52.994  19.782  1.00  0.00     0.158 A 
ATOM     10  C   UNL     1      10.516  52.226  19.961  1.00  0.00     0.062 A 
ATOM     11  C   UNL     1      10.901  51.825  21.248  1.00  0.00     0.022 A 
ENDROOT
BRANCH   9  12
ATOM     12  O   UNL     1       8.966  53.396  18.506  1.00  0.00    -0.504 OA
ATOM     13  H   UNL     1       9.386  52.996  17.674  1.00  0.00     0.293 HD
ENDBRANCH   9  12
BRANCH   8  14
ATOM     14  O   UNL     1       7.428  54.122  20.705  1.00  0.00    -0.504 OA
ATOM     15  H   UNL     1       6.608  53.741  20.247  1.00  0.00     0.293 HD
ENDBRANCH   8  14
TORSDOF 2
ENDMDL
MODEL 8
REMARK VINA RESULT:    -4.757      3.719      7.151
REMARK INTER + INTRA:          -5.035
REMARK INTER:                  -5.035
REMARK INTRA:                   0.000
REMARK UNBOUND:                 0.000
REMARK SMILES O=c1ccc2cc(O)c(O)cc2o1
REMARK SMILES IDX 4 1 3 2 2 3 1 4 13 5 12 6 11 7 9 8 7 9 6 10 5 11 8 12 10 14
REMARK H PARENT 8 13 10 15
REMARK Flexibility Score: inf
ROOT
ATOM      1  C   UNL     1       8.801  52.417  19.457  1.00  0.00     0.019 A 
ATOM      2  C   UNL     1       9.599  52.492  20.599  1.00  0.00     0.094 A 
ATOM      3  C   UNL     1       8.996  52.785  21.828  1.00  0.00     0.336 A 
ATOM      4  O   UNL     1       9.698  52.856  22.870  1.00  0.00    -0.246 OA
ATOM      5  O   UNL     1       7.683  52.987  21.903  1.00  0.00    -0.423 OA
ATOM      6  C   UNL     1       6.886  52.924  20.839  1.00  0.00     0.142 A 
ATOM      7  C   UNL     1       5.514  53.145  20.979  1.00  0.00     0.098 A 
ATOM      8  C   UNL     1       4.670  53.080  19.860  1.00  0.00     0.161 A 
ATOM      9  C   UNL     1       5.203  52.793  18.595  1.00  0.00     0.158 A 
ATOM     10  C   UNL     1       6.580  52.569  18.449  1.00  0.00     0.062 A 
ATOM     11  C   UNL     1       7.424  52.634  19.566  1.00  0.00     0.022 A 
ENDROOT
BRANCH   9  12
ATOM     12  O   UNL     1       4.357  52.730  17.489  1.00  0.00    -0.504 OA
ATOM     13  H   UNL     1       4.164  51.853  17.020  1.00  0.00     0.293 HD
ENDBRANCH   9  12
BRANCH   8  14
ATOM     14  O   UNL     1       3.301  53.301  19.997  1.00  0.00    -0.504 OA
ATOM     15  H   UNL     1       2.629  52.878  19.364  1.00  0.00     0.293 HD
ENDBRANCH   8  14
TORSDOF 2
ENDMDL
