MODEL 1
REMARK VINA RESULT:    -4.558      0.000      0.000
REMARK INTER + INTRA:         -12.502
REMARK INTER:                  -9.887
REMARK INTRA:                  -2.615
REMARK UNBOUND:                -2.615
REMARK SMILES CCCCCCCCCCCCCCCCCCCCCC(=O)[O-]
REMARK SMILES IDX 12 1 11 2 10 3 9 4 8 5 7 6 6 7 5 8 4 9 3 10 2 11 1 12 13 13
REMARK SMILES IDX 14 14 15 15 16 16 17 17 18 18 19 19 20 20 21 21 22 22 23 23
REMARK SMILES IDX 24 24
REMARK H PARENT
REMARK Flexibility Score: inf
ROOT
ATOM      1  C   UNL     1     -18.854 -25.806 -19.751  1.00  0.00     0.000 C 
ENDROOT
BRANCH   1   2
ATOM      2  C   UNL     1     -20.175 -26.576 -19.559  1.00  0.00     0.000 C 
BRANCH   2   3
ATOM      3  C   UNL     1     -21.234 -25.859 -18.699  1.00  0.00     0.000 C 
BRANCH   3   4
ATOM      4  C   UNL     1     -20.775 -24.519 -18.095  1.00  0.00    -0.000 C 
BRANCH   4   5
ATOM      5  C   UNL     1     -21.047 -24.425 -16.584  1.00  0.00    -0.000 C 
BRANCH   5   6
ATOM      6  C   UNL     1     -21.355 -25.794 -15.956  1.00  0.00    -0.000 C 
BRANCH   6   7
ATOM      7  C   UNL     1     -22.828 -25.928 -15.531  1.00  0.00    -0.000 C 
BRANCH   7   8
ATOM      8  C   UNL     1     -23.571 -24.580 -15.519  1.00  0.00    -0.000 C 
BRANCH   8   9
ATOM      9  C   UNL     1     -24.346 -24.253 -16.810  1.00  0.00    -0.000 C 
BRANCH   9  10
ATOM     10  C   UNL     1     -24.711 -25.505 -17.624  1.00  0.00    -0.000 C 
BRANCH  10  11
ATOM     11  C   UNL     1     -25.768 -25.218 -18.702  1.00  0.00    -0.003 C 
ATOM     12  C   UNL     1     -27.071 -24.666 -18.125  1.00  0.00     0.004 C 
ENDBRANCH  10  11
ENDBRANCH   9  10
ENDBRANCH   8   9
ENDBRANCH   7   8
ENDBRANCH   6   7
ENDBRANCH   5   6
ENDBRANCH   4   5
ENDBRANCH   3   4
ENDBRANCH   2   3
ENDBRANCH   1   2
BRANCH   1  13
ATOM     13  C   UNL     1     -17.649 -26.381 -18.984  1.00  0.00     0.000 C 
BRANCH  13  14
ATOM     14  C   UNL     1     -18.057 -27.403 -17.913  1.00  0.00     0.000 C 
BRANCH  14  15
ATOM     15  C   UNL     1     -17.827 -26.841 -16.503  1.00  0.00     0.000 C 
BRANCH  15  16
ATOM     16  C   UNL     1     -17.326 -25.386 -16.512  1.00  0.00     0.000 C 
BRANCH  16  17
ATOM     17  C   UNL     1     -15.899 -25.183 -15.962  1.00  0.00     0.000 C 
BRANCH  17  18
ATOM     18  C   UNL     1     -14.919 -26.335 -16.248  1.00  0.00     0.000 C 
BRANCH  18  19
ATOM     19  C   UNL     1     -14.308 -26.263 -17.655  1.00  0.00     0.000 C 
BRANCH  19  20
ATOM     20  C   UNL     1     -13.727 -27.622 -18.073  1.00  0.00     0.006 C 
BRANCH  20  21
ATOM     21  C   UNL     1     -12.650 -28.117 -17.099  1.00  0.00     0.053 C 
BRANCH  21  22
ATOM     22  C   UNL     1     -11.424 -27.255 -17.145  1.00  0.00     0.041 C 
ATOM     23  O   UNL     1     -11.061 -26.728 -18.230  1.00  0.00    -0.550 OA
ATOM     24  O   UNL     1     -10.667 -27.061 -15.998  1.00  0.00    -0.550 OA
ENDBRANCH  21  22
ENDBRANCH  20  21
ENDBRANCH  19  20
ENDBRANCH  18  19
ENDBRANCH  17  18
ENDBRANCH  16  17
ENDBRANCH  15  16
ENDBRANCH  14  15
ENDBRANCH  13  14
ENDBRANCH   1  13
TORSDOF 20
ENDMDL
MODEL 2
REMARK VINA RESULT:    -4.404      1.757      2.840
REMARK INTER + INTRA:         -12.168
REMARK INTER:                  -9.007
REMARK INTRA:                  -3.161
REMARK UNBOUND:                -2.615
REMARK SMILES CCCCCCCCCCCCCCCCCCCCCC(=O)[O-]
REMARK SMILES IDX 12 1 11 2 10 3 9 4 8 5 7 6 6 7 5 8 4 9 3 10 2 11 1 12 13 13
REMARK SMILES IDX 14 14 15 15 16 16 17 17 18 18 19 19 20 20 21 21 22 22 23 23
REMARK SMILES IDX 24 24
REMARK H PARENT
REMARK Flexibility Score: inf
ROOT
ATOM      1  C   UNL     1     -18.063 -27.974 -16.837  1.00  0.00     0.000 C 
ENDROOT
BRANCH   1   2
ATOM      2  C   UNL     1     -18.768 -27.682 -18.176  1.00  0.00     0.000 C 
BRANCH   2   3
ATOM      3  C   UNL     1     -18.262 -26.434 -18.926  1.00  0.00     0.000 C 
BRANCH   3   4
ATOM      4  C   UNL     1     -19.368 -25.541 -19.515  1.00  0.00    -0.000 C 
BRANCH   4   5
ATOM      5  C   UNL     1     -20.781 -26.055 -19.193  1.00  0.00    -0.000 C 
BRANCH   5   6
ATOM      6  C   UNL     1     -21.746 -24.921 -18.811  1.00  0.00    -0.000 C 
BRANCH   6   7
ATOM      7  C   UNL     1     -22.674 -25.305 -17.646  1.00  0.00    -0.000 C 
BRANCH   7   8
ATOM      8  C   UNL     1     -24.157 -25.016 -17.941  1.00  0.00    -0.000 C 
BRANCH   8   9
ATOM      9  C   UNL     1     -24.770 -23.861 -17.126  1.00  0.00    -0.000 C 
BRANCH   9  10
ATOM     10  C   UNL     1     -26.292 -23.740 -17.309  1.00  0.00    -0.000 C 
BRANCH  10  11
ATOM     11  C   UNL     1     -26.881 -24.905 -18.120  1.00  0.00    -0.003 C 
ATOM     12  C   UNL     1     -28.401 -25.007 -17.993  1.00  0.00     0.004 C 
ENDBRANCH  10  11
ENDBRANCH   9  10
ENDBRANCH   8   9
ENDBRANCH   7   8
ENDBRANCH   6   7
ENDBRANCH   5   6
ENDBRANCH   4   5
ENDBRANCH   3   4
ENDBRANCH   2   3
ENDBRANCH   1   2
BRANCH   1  13
ATOM     13  C   UNL     1     -18.976 -27.925 -15.598  1.00  0.00     0.000 C 
BRANCH  13  14
ATOM     14  C   UNL     1     -20.040 -26.822 -15.685  1.00  0.00     0.000 C 
BRANCH  14  15
ATOM     15  C   UNL     1     -19.570 -25.548 -14.969  1.00  0.00     0.000 C 
BRANCH  15  16
ATOM     16  C   UNL     1     -19.339 -24.371 -15.932  1.00  0.00     0.000 C 
BRANCH  16  17
ATOM     17  C   UNL     1     -17.888 -23.850 -15.990  1.00  0.00     0.000 C 
BRANCH  17  18
ATOM     18  C   UNL     1     -16.829 -24.799 -15.402  1.00  0.00     0.000 C 
BRANCH  18  19
ATOM     19  C   UNL     1     -15.858 -25.340 -16.463  1.00  0.00     0.000 C 
BRANCH  19  20
ATOM     20  C   UNL     1     -14.879 -26.351 -15.847  1.00  0.00     0.006 C 
BRANCH  20  21
ATOM     21  C   UNL     1     -13.874 -26.885 -16.876  1.00  0.00     0.053 C 
BRANCH  21  22
ATOM     22  C   UNL     1     -14.404 -28.089 -17.594  1.00  0.00     0.041 C 
ATOM     23  O   UNL     1     -14.337 -29.226 -17.057  1.00  0.00    -0.550 OA
ATOM     24  O   UNL     1     -14.941 -27.959 -18.867  1.00  0.00    -0.550 OA
ENDBRANCH  21  22
ENDBRANCH  20  21
ENDBRANCH  19  20
ENDBRANCH  18  19
ENDBRANCH  17  18
ENDBRANCH  16  17
ENDBRANCH  15  16
ENDBRANCH  14  15
ENDBRANCH  13  14
ENDBRANCH   1  13
TORSDOF 20
ENDMDL
MODEL 3
REMARK VINA RESULT:    -4.398     14.434     17.084
REMARK INTER + INTRA:         -12.156
REMARK INTER:                  -9.240
REMARK INTRA:                  -2.916
REMARK UNBOUND:                -2.615
REMARK SMILES CCCCCCCCCCCCCCCCCCCCCC(=O)[O-]
REMARK SMILES IDX 12 1 11 2 10 3 9 4 8 5 7 6 6 7 5 8 4 9 3 10 2 11 1 12 13 13
REMARK SMILES IDX 14 14 15 15 16 16 17 17 18 18 19 19 20 20 21 21 22 22 23 23
REMARK SMILES IDX 24 24
REMARK H PARENT
REMARK Flexibility Score: inf
ROOT
ATOM      1  C   UNL     1     -15.036 -34.748 -27.604  1.00  0.00     0.000 C 
ENDROOT
BRANCH   1   2
ATOM      2  C   UNL     1     -15.595 -36.168 -27.389  1.00  0.00     0.000 C 
BRANCH   2   3
ATOM      3  C   UNL     1     -14.909 -36.981 -26.273  1.00  0.00     0.000 C 
BRANCH   3   4
ATOM      4  C   UNL     1     -13.809 -37.942 -26.757  1.00  0.00    -0.000 C 
BRANCH   4   5
ATOM      5  C   UNL     1     -12.538 -37.873 -25.894  1.00  0.00    -0.000 C 
BRANCH   5   6
ATOM      6  C   UNL     1     -12.804 -37.270 -24.505  1.00  0.00    -0.000 C 
BRANCH   6   7
ATOM      7  C   UNL     1     -12.108 -35.911 -24.311  1.00  0.00    -0.000 C 
BRANCH   7   8
ATOM      8  C   UNL     1     -10.778 -36.025 -23.544  1.00  0.00    -0.000 C 
BRANCH   8   9
ATOM      9  C   UNL     1     -10.493 -37.412 -22.937  1.00  0.00    -0.000 C 
BRANCH   9  10
ATOM     10  C   UNL     1      -9.957 -37.338 -21.499  1.00  0.00    -0.000 C 
BRANCH  10  11
ATOM     11  C   UNL     1     -10.993 -37.794 -20.460  1.00  0.00    -0.003 C 
ATOM     12  C   UNL     1     -11.036 -36.890 -19.228  1.00  0.00     0.004 C 
ENDBRANCH  10  11
ENDBRANCH   9  10
ENDBRANCH   8   9
ENDBRANCH   7   8
ENDBRANCH   6   7
ENDBRANCH   5   6
ENDBRANCH   4   5
ENDBRANCH   3   4
ENDBRANCH   2   3
ENDBRANCH   1   2
BRANCH   1  13
ATOM     13  C   UNL     1     -13.759 -34.675 -28.460  1.00  0.00     0.000 C 
BRANCH  13  14
ATOM     14  C   UNL     1     -12.496 -34.420 -27.627  1.00  0.00     0.000 C 
BRANCH  14  15
ATOM     15  C   UNL     1     -11.234 -34.815 -28.408  1.00  0.00     0.000 C 
BRANCH  15  16
ATOM     16  C   UNL     1     -10.244 -35.642 -27.569  1.00  0.00     0.000 C 
BRANCH  16  17
ATOM     17  C   UNL     1      -8.991 -36.125 -28.327  1.00  0.00     0.000 C 
BRANCH  17  18
ATOM     18  C   UNL     1      -9.214 -36.461 -29.812  1.00  0.00     0.000 C 
BRANCH  18  19
ATOM     19  C   UNL     1      -9.948 -37.795 -30.018  1.00  0.00     0.000 C 
BRANCH  19  20
ATOM     20  C   UNL     1     -11.124 -37.631 -30.992  1.00  0.00     0.006 C 
BRANCH  20  21
ATOM     21  C   UNL     1     -12.481 -37.808 -30.299  1.00  0.00     0.053 C 
BRANCH  21  22
ATOM     22  C   UNL     1     -13.608 -37.306 -31.150  1.00  0.00     0.041 C 
ATOM     23  O   UNL     1     -14.776 -37.250 -30.685  1.00  0.00    -0.550 OA
ATOM     24  O   UNL     1     -13.371 -36.931 -32.466  1.00  0.00    -0.550 OA
ENDBRANCH  21  22
ENDBRANCH  20  21
ENDBRANCH  19  20
ENDBRANCH  18  19
ENDBRANCH  17  18
ENDBRANCH  16  17
ENDBRANCH  15  16
ENDBRANCH  14  15
ENDBRANCH  13  14
ENDBRANCH   1  13
TORSDOF 20
ENDMDL
MODEL 4
REMARK VINA RESULT:    -4.396     14.763     16.909
REMARK INTER + INTRA:         -12.150
REMARK INTER:                  -8.456
REMARK INTRA:                  -3.694
REMARK UNBOUND:                -2.615
REMARK SMILES CCCCCCCCCCCCCCCCCCCCCC(=O)[O-]
REMARK SMILES IDX 12 1 11 2 10 3 9 4 8 5 7 6 6 7 5 8 4 9 3 10 2 11 1 12 13 13
REMARK SMILES IDX 14 14 15 15 16 16 17 17 18 18 19 19 20 20 21 21 22 22 23 23
REMARK SMILES IDX 24 24
REMARK H PARENT
REMARK Flexibility Score: inf
ROOT
ATOM      1  C   UNL     1     -24.811 -22.722 -30.246  1.00  0.00     0.000 C 
ENDROOT
BRANCH   1   2
ATOM      2  C   UNL     1     -26.234 -22.666 -29.656  1.00  0.00     0.000 C 
BRANCH   2   3
ATOM      3  C   UNL     1     -26.460 -21.578 -28.588  1.00  0.00     0.000 C 
BRANCH   3   4
ATOM      4  C   UNL     1     -27.830 -20.880 -28.655  1.00  0.00    -0.000 C 
BRANCH   4   5
ATOM      5  C   UNL     1     -28.581 -21.171 -29.965  1.00  0.00    -0.000 C 
BRANCH   5   6
ATOM      6  C   UNL     1     -28.758 -19.914 -30.831  1.00  0.00    -0.000 C 
BRANCH   6   7
ATOM      7  C   UNL     1     -28.070 -20.043 -32.202  1.00  0.00    -0.000 C 
BRANCH   7   8
ATOM      8  C   UNL     1     -27.186 -18.830 -32.544  1.00  0.00    -0.000 C 
BRANCH   8   9
ATOM      9  C   UNL     1     -26.592 -18.093 -31.328  1.00  0.00    -0.000 C 
BRANCH   9  10
ATOM     10  C   UNL     1     -25.388 -18.826 -30.714  1.00  0.00    -0.000 C 
BRANCH  10  11
ATOM     11  C   UNL     1     -24.940 -18.205 -29.381  1.00  0.00    -0.003 C 
ATOM     12  C   UNL     1     -26.112 -17.875 -28.456  1.00  0.00     0.004 C 
ENDBRANCH  10  11
ENDBRANCH   9  10
ENDBRANCH   8   9
ENDBRANCH   7   8
ENDBRANCH   6   7
ENDBRANCH   5   6
ENDBRANCH   4   5
ENDBRANCH   3   4
ENDBRANCH   2   3
ENDBRANCH   1   2
BRANCH   1  13
ATOM     13  C   UNL     1     -24.659 -22.081 -31.637  1.00  0.00     0.000 C 
BRANCH  13  14
ATOM     14  C   UNL     1     -25.593 -22.702 -32.685  1.00  0.00     0.000 C 
BRANCH  14  15
ATOM     15  C   UNL     1     -25.455 -21.985 -34.036  1.00  0.00     0.000 C 
BRANCH  15  16
ATOM     16  C   UNL     1     -24.374 -20.890 -34.026  1.00  0.00     0.000 C 
BRANCH  16  17
ATOM     17  C   UNL     1     -23.231 -21.092 -35.041  1.00  0.00     0.000 C 
BRANCH  17  18
ATOM     18  C   UNL     1     -21.847 -21.359 -34.423  1.00  0.00     0.000 C 
BRANCH  18  19
ATOM     19  C   UNL     1     -21.269 -22.726 -34.822  1.00  0.00     0.000 C 
BRANCH  19  20
ATOM     20  C   UNL     1     -22.192 -23.867 -34.368  1.00  0.00     0.006 C 
BRANCH  20  21
ATOM     21  C   UNL     1     -21.745 -24.477 -33.033  1.00  0.00     0.053 C 
BRANCH  21  22
ATOM     22  C   UNL     1     -20.486 -25.275 -33.183  1.00  0.00     0.041 C 
ATOM     23  O   UNL     1     -20.389 -26.141 -34.091  1.00  0.00    -0.550 OA
ATOM     24  O   UNL     1     -19.432 -25.083 -32.300  1.00  0.00    -0.550 OA
ENDBRANCH  21  22
ENDBRANCH  20  21
ENDBRANCH  19  20
ENDBRANCH  18  19
ENDBRANCH  17  18
ENDBRANCH  16  17
ENDBRANCH  15  16
ENDBRANCH  14  15
ENDBRANCH  13  14
ENDBRANCH   1  13
TORSDOF 20
ENDMDL
MODEL 5
REMARK VINA RESULT:    -4.371      1.412      2.722
REMARK INTER + INTRA:         -12.096
REMARK INTER:                  -9.232
REMARK INTRA:                  -2.864
REMARK UNBOUND:                -2.615
REMARK SMILES CCCCCCCCCCCCCCCCCCCCCC(=O)[O-]
REMARK SMILES IDX 12 1 11 2 10 3 9 4 8 5 7 6 6 7 5 8 4 9 3 10 2 11 1 12 13 13
REMARK SMILES IDX 14 14 15 15 16 16 17 17 18 18 19 19 20 20 21 21 22 22 23 23
REMARK SMILES IDX 24 24
REMARK H PARENT
REMARK Flexibility Score: inf
ROOT
ATOM      1  C   UNL     1     -21.781 -25.848 -17.505  1.00  0.00     0.000 C 
ENDROOT
BRANCH   1   2
ATOM      2  C   UNL     1     -20.621 -26.279 -16.587  1.00  0.00     0.000 C 
BRANCH   2   3
ATOM      3  C   UNL     1     -19.896 -25.129 -15.860  1.00  0.00     0.000 C 
BRANCH   3   4
ATOM      4  C   UNL     1     -19.670 -23.867 -16.713  1.00  0.00    -0.000 C 
BRANCH   4   5
ATOM      5  C   UNL     1     -20.065 -22.575 -15.978  1.00  0.00    -0.000 C 
BRANCH   5   6
ATOM      6  C   UNL     1     -21.379 -21.978 -16.506  1.00  0.00    -0.000 C 
BRANCH   6   7
ATOM      7  C   UNL     1     -22.619 -22.624 -15.862  1.00  0.00    -0.000 C 
BRANCH   7   8
ATOM      8  C   UNL     1     -23.830 -22.669 -16.812  1.00  0.00    -0.000 C 
BRANCH   8   9
ATOM      9  C   UNL     1     -24.725 -23.916 -16.666  1.00  0.00    -0.000 C 
BRANCH   9  10
ATOM     10  C   UNL     1     -26.129 -23.717 -17.259  1.00  0.00    -0.000 C 
BRANCH  10  11
ATOM     11  C   UNL     1     -26.514 -24.830 -18.247  1.00  0.00    -0.003 C 
ATOM     12  C   UNL     1     -25.337 -25.738 -18.606  1.00  0.00     0.004 C 
ENDBRANCH  10  11
ENDBRANCH   9  10
ENDBRANCH   8   9
ENDBRANCH   7   8
ENDBRANCH   6   7
ENDBRANCH   5   6
ENDBRANCH   4   5
ENDBRANCH   3   4
ENDBRANCH   2   3
ENDBRANCH   1   2
BRANCH   1  13
ATOM     13  C   UNL     1     -21.426 -25.754 -19.000  1.00  0.00     0.000 C 
BRANCH  13  14
ATOM     14  C   UNL     1     -20.226 -26.630 -19.384  1.00  0.00     0.000 C 
BRANCH  14  15
ATOM     15  C   UNL     1     -19.067 -25.772 -19.913  1.00  0.00     0.000 C 
BRANCH  15  16
ATOM     16  C   UNL     1     -17.748 -26.016 -19.158  1.00  0.00     0.000 C 
BRANCH  16  17
ATOM     17  C   UNL     1     -17.661 -27.366 -18.417  1.00  0.00     0.000 C 
BRANCH  17  18
ATOM     18  C   UNL     1     -17.003 -27.306 -17.027  1.00  0.00     0.000 C 
BRANCH  18  19
ATOM     19  C   UNL     1     -16.081 -26.090 -16.855  1.00  0.00     0.000 C 
BRANCH  19  20
ATOM     20  C   UNL     1     -14.685 -26.521 -16.380  1.00  0.00     0.006 C 
BRANCH  20  21
ATOM     21  C   UNL     1     -13.890 -27.231 -17.484  1.00  0.00     0.053 C 
BRANCH  21  22
ATOM     22  C   UNL     1     -12.824 -28.118 -16.916  1.00  0.00     0.041 C 
ATOM     23  O   UNL     1     -11.733 -27.625 -16.525  1.00  0.00    -0.550 OA
ATOM     24  O   UNL     1     -13.024 -29.489 -16.847  1.00  0.00    -0.550 OA
ENDBRANCH  21  22
ENDBRANCH  20  21
ENDBRANCH  19  20
ENDBRANCH  18  19
ENDBRANCH  17  18
ENDBRANCH  16  17
ENDBRANCH  15  16
ENDBRANCH  14  15
ENDBRANCH  13  14
ENDBRANCH   1  13
TORSDOF 20
ENDMDL
MODEL 6
REMARK VINA RESULT:    -4.323      1.558      2.091
REMARK INTER + INTRA:         -11.993
REMARK INTER:                  -8.897
REMARK INTRA:                  -3.096
REMARK UNBOUND:                -2.615
REMARK SMILES CCCCCCCCCCCCCCCCCCCCCC(=O)[O-]
REMARK SMILES IDX 12 1 11 2 10 3 9 4 8 5 7 6 6 7 5 8 4 9 3 10 2 11 1 12 13 13
REMARK SMILES IDX 14 14 15 15 16 16 17 17 18 18 19 19 20 20 21 21 22 22 23 23
REMARK SMILES IDX 24 24
REMARK H PARENT
REMARK Flexibility Score: inf
ROOT
ATOM      1  C   UNL     1     -19.056 -25.455 -18.197  1.00  0.00     0.000 C 
ENDROOT
BRANCH   1   2
ATOM      2  C   UNL     1     -19.308 -24.395 -17.106  1.00  0.00     0.000 C 
BRANCH   2   3
ATOM      3  C   UNL     1     -20.265 -23.256 -17.507  1.00  0.00     0.000 C 
BRANCH   3   4
ATOM      4  C   UNL     1     -21.019 -22.602 -16.335  1.00  0.00    -0.000 C 
BRANCH   4   5
ATOM      5  C   UNL     1     -22.470 -23.098 -16.211  1.00  0.00    -0.000 C 
BRANCH   5   6
ATOM      6  C   UNL     1     -22.578 -24.398 -15.398  1.00  0.00    -0.000 C 
BRANCH   6   7
ATOM      7  C   UNL     1     -23.309 -25.513 -16.168  1.00  0.00    -0.000 C 
BRANCH   7   8
ATOM      8  C   UNL     1     -22.819 -25.656 -17.620  1.00  0.00    -0.000 C 
BRANCH   8   9
ATOM      9  C   UNL     1     -23.892 -25.401 -18.697  1.00  0.00    -0.000 C 
BRANCH   9  10
ATOM     10  C   UNL     1     -25.308 -25.777 -18.233  1.00  0.00    -0.000 C 
BRANCH  10  11
ATOM     11  C   UNL     1     -26.317 -24.636 -18.438  1.00  0.00    -0.003 C 
ATOM     12  C   UNL     1     -26.533 -23.800 -17.177  1.00  0.00     0.004 C 
ENDBRANCH  10  11
ENDBRANCH   9  10
ENDBRANCH   8   9
ENDBRANCH   7   8
ENDBRANCH   6   7
ENDBRANCH   5   6
ENDBRANCH   4   5
ENDBRANCH   3   4
ENDBRANCH   2   3
ENDBRANCH   1   2
BRANCH   1  13
ATOM     13  C   UNL     1     -19.312 -26.909 -17.761  1.00  0.00     0.000 C 
BRANCH  13  14
ATOM     14  C   UNL     1     -19.630 -27.036 -16.265  1.00  0.00     0.000 C 
BRANCH  14  15
ATOM     15  C   UNL     1     -18.631 -27.971 -15.569  1.00  0.00     0.000 C 
BRANCH  15  16
ATOM     16  C   UNL     1     -17.202 -27.842 -16.126  1.00  0.00     0.000 C 
BRANCH  16  17
ATOM     17  C   UNL     1     -16.328 -26.772 -15.440  1.00  0.00     0.000 C 
BRANCH  17  18
ATOM     18  C   UNL     1     -15.685 -25.746 -16.391  1.00  0.00     0.000 C 
BRANCH  18  19
ATOM     19  C   UNL     1     -15.564 -26.262 -17.832  1.00  0.00     0.000 C 
BRANCH  19  20
ATOM     20  C   UNL     1     -14.103 -26.580 -18.182  1.00  0.00     0.006 C 
BRANCH  20  21
ATOM     21  C   UNL     1     -13.828 -28.089 -18.215  1.00  0.00     0.053 C 
BRANCH  21  22
ATOM     22  C   UNL     1     -13.005 -28.528 -17.042  1.00  0.00     0.041 C 
ATOM     23  O   UNL     1     -12.248 -27.708 -16.457  1.00  0.00    -0.550 OA
ATOM     24  O   UNL     1     -13.049 -29.848 -16.616  1.00  0.00    -0.550 OA
ENDBRANCH  21  22
ENDBRANCH  20  21
ENDBRANCH  19  20
ENDBRANCH  18  19
ENDBRANCH  17  18
ENDBRANCH  16  17
ENDBRANCH  15  16
ENDBRANCH  14  15
ENDBRANCH  13  14
ENDBRANCH   1  13
TORSDOF 20
ENDMDL
MODEL 7
REMARK VINA RESULT:    -4.274     14.952     16.863
REMARK INTER + INTRA:         -11.887
REMARK INTER:                  -8.634
REMARK INTRA:                  -3.253
REMARK UNBOUND:                -2.615
REMARK SMILES CCCCCCCCCCCCCCCCCCCCCC(=O)[O-]
REMARK SMILES IDX 12 1 11 2 10 3 9 4 8 5 7 6 6 7 5 8 4 9 3 10 2 11 1 12 13 13
REMARK SMILES IDX 14 14 15 15 16 16 17 17 18 18 19 19 20 20 21 21 22 22 23 23
REMARK SMILES IDX 24 24
REMARK H PARENT
REMARK Flexibility Score: inf
ROOT
ATOM      1  C   UNL     1     -26.669 -21.594 -29.209  1.00  0.00     0.000 C 
ENDROOT
BRANCH   1   2
ATOM      2  C   UNL     1     -27.995 -20.942 -28.769  1.00  0.00     0.000 C 
BRANCH   2   3
ATOM      3  C   UNL     1     -27.849 -19.650 -27.943  1.00  0.00     0.000 C 
BRANCH   3   4
ATOM      4  C   UNL     1     -28.290 -18.366 -28.668  1.00  0.00    -0.000 C 
BRANCH   4   5
ATOM      5  C   UNL     1     -28.756 -18.628 -30.110  1.00  0.00    -0.000 C 
BRANCH   5   6
ATOM      6  C   UNL     1     -27.684 -18.258 -31.149  1.00  0.00    -0.000 C 
BRANCH   6   7
ATOM      7  C   UNL     1     -28.050 -18.734 -32.566  1.00  0.00    -0.000 C 
BRANCH   7   8
ATOM      8  C   UNL     1     -27.118 -19.844 -33.083  1.00  0.00    -0.000 C 
BRANCH   8   9
ATOM      9  C   UNL     1     -27.814 -21.180 -33.407  1.00  0.00    -0.000 C 
BRANCH   9  10
ATOM     10  C   UNL     1     -28.806 -21.618 -32.317  1.00  0.00    -0.000 C 
BRANCH  10  11
ATOM     11  C   UNL     1     -29.017 -23.140 -32.290  1.00  0.00    -0.003 C 
ATOM     12  C   UNL     1     -27.800 -23.898 -31.762  1.00  0.00     0.004 C 
ENDBRANCH  10  11
ENDBRANCH   9  10
ENDBRANCH   8   9
ENDBRANCH   7   8
ENDBRANCH   6   7
ENDBRANCH   5   6
ENDBRANCH   4   5
ENDBRANCH   3   4
ENDBRANCH   2   3
ENDBRANCH   1   2
BRANCH   1  13
ATOM     13  C   UNL     1     -25.444 -20.662 -29.171  1.00  0.00     0.000 C 
BRANCH  13  14
ATOM     14  C   UNL     1     -24.678 -20.632 -30.501  1.00  0.00     0.000 C 
BRANCH  14  15
ATOM     15  C   UNL     1     -24.631 -22.028 -31.138  1.00  0.00     0.000 C 
BRANCH  15  16
ATOM     16  C   UNL     1     -24.122 -22.006 -32.590  1.00  0.00     0.000 C 
BRANCH  16  17
ATOM     17  C   UNL     1     -24.671 -23.132 -33.491  1.00  0.00     0.000 C 
BRANCH  17  18
ATOM     18  C   UNL     1     -23.602 -23.957 -34.229  1.00  0.00     0.000 C 
BRANCH  18  19
ATOM     19  C   UNL     1     -22.321 -24.150 -33.403  1.00  0.00     0.000 C 
BRANCH  19  20
ATOM     20  C   UNL     1     -21.115 -23.504 -34.100  1.00  0.00     0.006 C 
BRANCH  20  21
ATOM     21  C   UNL     1     -20.111 -24.548 -34.607  1.00  0.00     0.053 C 
BRANCH  21  22
ATOM     22  C   UNL     1     -19.702 -25.497 -33.522  1.00  0.00     0.041 C 
ATOM     23  O   UNL     1     -20.030 -26.711 -33.585  1.00  0.00    -0.550 OA
ATOM     24  O   UNL     1     -18.988 -25.033 -32.425  1.00  0.00    -0.550 OA
ENDBRANCH  21  22
ENDBRANCH  20  21
ENDBRANCH  19  20
ENDBRANCH  18  19
ENDBRANCH  17  18
ENDBRANCH  16  17
ENDBRANCH  15  16
ENDBRANCH  14  15
ENDBRANCH  13  14
ENDBRANCH   1  13
TORSDOF 20
ENDMDL
MODEL 8
REMARK VINA RESULT:    -4.225      5.120      9.649
REMARK INTER + INTRA:         -11.780
REMARK INTER:                  -8.947
REMARK INTRA:                  -2.833
REMARK UNBOUND:                -2.615
REMARK SMILES CCCCCCCCCCCCCCCCCCCCCC(=O)[O-]
REMARK SMILES IDX 12 1 11 2 10 3 9 4 8 5 7 6 6 7 5 8 4 9 3 10 2 11 1 12 13 13
REMARK SMILES IDX 14 14 15 15 16 16 17 17 18 18 19 19 20 20 21 21 22 22 23 23
REMARK SMILES IDX 24 24
REMARK H PARENT
REMARK Flexibility Score: inf
ROOT
ATOM      1  C   UNL     1     -18.922 -27.591 -17.721  1.00  0.00     0.000 C 
ENDROOT
BRANCH   1   2
ATOM      2  C   UNL     1     -18.511 -27.246 -16.276  1.00  0.00     0.000 C 
BRANCH   2   3
ATOM      3  C   UNL     1     -19.567 -26.474 -15.460  1.00  0.00     0.000 C 
BRANCH   3   4
ATOM      4  C   UNL     1     -19.083 -25.132 -14.884  1.00  0.00    -0.000 C 
BRANCH   4   5
ATOM      5  C   UNL     1     -18.471 -24.212 -15.954  1.00  0.00    -0.000 C 
BRANCH   5   6
ATOM      6  C   UNL     1     -17.173 -23.539 -15.476  1.00  0.00    -0.000 C 
BRANCH   6   7
ATOM      7  C   UNL     1     -16.062 -24.558 -15.168  1.00  0.00    -0.000 C 
BRANCH   7   8
ATOM      8  C   UNL     1     -15.675 -25.409 -16.391  1.00  0.00    -0.000 C 
BRANCH   8   9
ATOM      9  C   UNL     1     -14.698 -26.564 -16.098  1.00  0.00    -0.000 C 
BRANCH   9  10
ATOM     10  C   UNL     1     -14.927 -27.786 -17.002  1.00  0.00    -0.000 C 
BRANCH  10  11
ATOM     11  C   UNL     1     -13.970 -27.817 -18.203  1.00  0.00    -0.003 C 
ATOM     12  C   UNL     1     -12.595 -27.231 -17.882  1.00  0.00     0.004 C 
ENDBRANCH  10  11
ENDBRANCH   9  10
ENDBRANCH   8   9
ENDBRANCH   7   8
ENDBRANCH   6   7
ENDBRANCH   5   6
ENDBRANCH   4   5
ENDBRANCH   3   4
ENDBRANCH   2   3
ENDBRANCH   1   2
BRANCH   1  13
ATOM     13  C   UNL     1     -18.256 -26.729 -18.809  1.00  0.00     0.000 C 
BRANCH  13  14
ATOM     14  C   UNL     1     -19.224 -25.725 -19.449  1.00  0.00     0.000 C 
BRANCH  14  15
ATOM     15  C   UNL     1     -20.683 -26.154 -19.231  1.00  0.00     0.000 C 
BRANCH  15  16
ATOM     16  C   UNL     1     -21.628 -24.963 -18.998  1.00  0.00     0.000 C 
BRANCH  16  17
ATOM     17  C   UNL     1     -21.847 -24.583 -17.519  1.00  0.00     0.000 C 
BRANCH  17  18
ATOM     18  C   UNL     1     -22.969 -25.357 -16.804  1.00  0.00     0.000 C 
BRANCH  18  19
ATOM     19  C   UNL     1     -24.287 -25.360 -17.593  1.00  0.00     0.000 C 
BRANCH  19  20
ATOM     20  C   UNL     1     -25.224 -24.247 -17.101  1.00  0.00     0.006 C 
BRANCH  20  21
ATOM     21  C   UNL     1     -26.300 -23.894 -18.137  1.00  0.00     0.053 C 
BRANCH  21  22
ATOM     22  C   UNL     1     -27.594 -24.594 -17.852  1.00  0.00     0.041 C 
ATOM     23  O   UNL     1     -28.005 -25.503 -18.621  1.00  0.00    -0.550 OA
ATOM     24  O   UNL     1     -28.360 -24.221 -16.756  1.00  0.00    -0.550 OA
ENDBRANCH  21  22
ENDBRANCH  20  21
ENDBRANCH  19  20
ENDBRANCH  18  19
ENDBRANCH  17  18
ENDBRANCH  16  17
ENDBRANCH  15  16
ENDBRANCH  14  15
ENDBRANCH  13  14
ENDBRANCH   1  13
TORSDOF 20
ENDMDL
MODEL 9
REMARK VINA RESULT:    -4.148     14.982     18.081
REMARK INTER + INTRA:         -11.613
REMARK INTER:                  -8.205
REMARK INTRA:                  -3.408
REMARK UNBOUND:                -2.615
REMARK SMILES CCCCCCCCCCCCCCCCCCCCCC(=O)[O-]
REMARK SMILES IDX 12 1 11 2 10 3 9 4 8 5 7 6 6 7 5 8 4 9 3 10 2 11 1 12 13 13
REMARK SMILES IDX 14 14 15 15 16 16 17 17 18 18 19 19 20 20 21 21 22 22 23 23
REMARK SMILES IDX 24 24
REMARK H PARENT
REMARK Flexibility Score: inf
ROOT
ATOM      1  C   UNL     1     -15.005 -34.481 -28.582  1.00  0.00     0.000 C 
ENDROOT
BRANCH   1   2
ATOM      2  C   UNL     1     -13.721 -34.424 -29.433  1.00  0.00     0.000 C 
BRANCH   2   3
ATOM      3  C   UNL     1     -12.402 -34.462 -28.635  1.00  0.00     0.000 C 
BRANCH   3   4
ATOM      4  C   UNL     1     -11.126 -34.422 -29.494  1.00  0.00    -0.000 C 
BRANCH   4   5
ATOM      5  C   UNL     1     -10.283 -35.702 -29.366  1.00  0.00    -0.000 C 
BRANCH   5   6
ATOM      6  C   UNL     1      -9.283 -35.633 -28.201  1.00  0.00    -0.000 C 
BRANCH   6   7
ATOM      7  C   UNL     1      -8.892 -37.026 -27.678  1.00  0.00    -0.000 C 
BRANCH   7   8
ATOM      8  C   UNL     1     -10.051 -37.744 -26.964  1.00  0.00    -0.000 C 
BRANCH   8   9
ATOM      9  C   UNL     1     -10.368 -37.223 -25.549  1.00  0.00    -0.000 C 
BRANCH   9  10
ATOM     10  C   UNL     1     -11.533 -36.220 -25.528  1.00  0.00    -0.000 C 
BRANCH  10  11
ATOM     11  C   UNL     1     -11.845 -35.711 -24.112  1.00  0.00    -0.003 C 
ATOM     12  C   UNL     1     -10.738 -36.032 -23.108  1.00  0.00     0.004 C 
ENDBRANCH  10  11
ENDBRANCH   9  10
ENDBRANCH   8   9
ENDBRANCH   7   8
ENDBRANCH   6   7
ENDBRANCH   5   6
ENDBRANCH   4   5
ENDBRANCH   3   4
ENDBRANCH   2   3
ENDBRANCH   1   2
BRANCH   1  13
ATOM     13  C   UNL     1     -14.867 -35.238 -27.249  1.00  0.00     0.000 C 
BRANCH  13  14
ATOM     14  C   UNL     1     -15.315 -36.702 -27.345  1.00  0.00     0.000 C 
BRANCH  14  15
ATOM     15  C   UNL     1     -14.153 -37.654 -27.024  1.00  0.00     0.000 C 
BRANCH  15  16
ATOM     16  C   UNL     1     -13.345 -38.054 -28.270  1.00  0.00     0.000 C 
BRANCH  16  17
ATOM     17  C   UNL     1     -14.155 -38.119 -29.581  1.00  0.00     0.000 C 
BRANCH  17  18
ATOM     18  C   UNL     1     -13.439 -37.556 -30.821  1.00  0.00     0.000 C 
BRANCH  18  19
ATOM     19  C   UNL     1     -14.398 -37.271 -31.986  1.00  0.00     0.000 C 
BRANCH  19  20
ATOM     20  C   UNL     1     -15.789 -36.875 -31.468  1.00  0.00     0.006 C 
BRANCH  20  21
ATOM     21  C   UNL     1     -16.235 -35.504 -31.993  1.00  0.00     0.053 C 
BRANCH  21  22
ATOM     22  C   UNL     1     -17.414 -35.619 -32.911  1.00  0.00     0.041 C 
ATOM     23  O   UNL     1     -17.522 -34.851 -33.903  1.00  0.00    -0.550 OA
ATOM     24  O   UNL     1     -18.408 -36.552 -32.652  1.00  0.00    -0.550 OA
ENDBRANCH  21  22
ENDBRANCH  20  21
ENDBRANCH  19  20
ENDBRANCH  18  19
ENDBRANCH  17  18
ENDBRANCH  16  17
ENDBRANCH  15  16
ENDBRANCH  14  15
ENDBRANCH  13  14
ENDBRANCH   1  13
TORSDOF 20
ENDMDL
