MODEL 1
REMARK VINA RESULT:    -6.484      0.000      0.000
REMARK INTER + INTRA:          -8.136
REMARK INTER:                  -7.811
REMARK INTRA:                  -0.326
REMARK UNBOUND:                -0.326
REMARK SMILES O=c1c(O)c(-c2ccc(O)c(O)c2)oc2cc(O)cc(O)c12
REMARK SMILES IDX 5 1 3 2 2 3 1 4 22 5 20 6 19 7 17 8 16 9 15 10 14 11 6 12
REMARK SMILES IDX 7 13 8 14 9 15 13 16 11 17 10 18 12 20 4 22 21 24 18 26
REMARK H PARENT 10 19 12 21 4 23 21 25 18 27
REMARK Flexibility Score: inf
ROOT
ATOM      1  C   UNL     1     -18.239 -12.156   8.560  1.00  0.00     0.180 A 
ATOM      2  C   UNL     1     -18.800 -13.184   9.337  1.00  0.00     0.208 A 
ATOM      3  C   UNL     1     -20.183 -13.174   9.582  1.00  0.00     0.238 A 
ATOM      4  O   UNL     1     -20.691 -14.136  10.214  1.00  0.00    -0.285 OA
ATOM      5  C   UNL     1     -20.978 -12.107   9.097  1.00  0.00     0.111 A 
ATOM      6  C   UNL     1     -22.381 -11.970   9.324  1.00  0.00     0.134 A 
ATOM      7  C   UNL     1     -23.083 -10.929   8.704  1.00  0.00     0.093 A 
ATOM      8  C   UNL     1     -22.421  -9.982   7.918  1.00  0.00     0.123 A 
ATOM      9  C   UNL     1     -21.045 -10.074   7.736  1.00  0.00     0.094 A 
ATOM     10  C   UNL     1     -20.322 -11.124   8.309  1.00  0.00     0.146 A 
ATOM     11  O   UNL     1     -19.014 -11.186   8.092  1.00  0.00    -0.452 OA
ENDROOT
BRANCH   1  12
ATOM     12  C   UNL     1     -16.792 -12.105   8.247  1.00  0.00     0.025 A 
ATOM     13  C   UNL     1     -16.252 -12.824   7.166  1.00  0.00     0.016 A 
ATOM     14  C   UNL     1     -14.888 -12.741   6.875  1.00  0.00     0.051 A 
ATOM     15  C   UNL     1     -14.048 -11.930   7.648  1.00  0.00     0.157 A 
ATOM     16  C   UNL     1     -15.950 -11.276   9.005  1.00  0.00     0.062 A 
ATOM     17  C   UNL     1     -14.583 -11.192   8.716  1.00  0.00     0.158 A 
BRANCH  15  18
ATOM     18  O   UNL     1     -12.687 -11.850   7.356  1.00  0.00    -0.504 OA
ATOM     19  H   UNL     1     -12.252 -12.471   6.683  1.00  0.00     0.293 HD
ENDBRANCH  15  18
BRANCH  17  20
ATOM     20  O   UNL     1     -13.775 -10.368   9.500  1.00  0.00    -0.504 OA
ATOM     21  H   UNL     1     -14.161  -9.640  10.089  1.00  0.00     0.293 HD
ENDBRANCH  17  20
ENDBRANCH   1  12
BRANCH   2  22
ATOM     22  O   UNL     1     -17.988 -14.187   9.872  1.00  0.00    -0.502 OA
ATOM     23  H   UNL     1     -18.088 -15.162   9.619  1.00  0.00     0.293 HD
ENDBRANCH   2  22
BRANCH   6  24
ATOM     24  O   UNL     1     -23.125 -12.808  10.161  1.00  0.00    -0.507 OA
ATOM     25  H   UNL     1     -22.946 -12.948  11.144  1.00  0.00     0.293 HD
ENDBRANCH   6  24
BRANCH   8  26
ATOM     26  O   UNL     1     -23.125  -8.939   7.320  1.00  0.00    -0.508 OA
ATOM     27  H   UNL     1     -23.855  -8.439   7.814  1.00  0.00     0.293 HD
ENDBRANCH   8  26
TORSDOF 6
ENDMDL
MODEL 2
REMARK VINA RESULT:    -6.116      1.156      2.864
REMARK INTER + INTRA:          -7.693
REMARK INTER:                  -7.449
REMARK INTRA:                  -0.245
REMARK UNBOUND:                -0.326
REMARK SMILES O=c1c(O)c(-c2ccc(O)c(O)c2)oc2cc(O)cc(O)c12
REMARK SMILES IDX 5 1 3 2 2 3 1 4 22 5 20 6 19 7 17 8 16 9 15 10 14 11 6 12
REMARK SMILES IDX 7 13 8 14 9 15 13 16 11 17 10 18 12 20 4 22 21 24 18 26
REMARK H PARENT 10 19 12 21 4 23 21 25 18 27
REMARK Flexibility Score: inf
ROOT
ATOM      1  C   UNL     1     -18.086 -11.321   8.146  1.00  0.00     0.180 A 
ATOM      2  C   UNL     1     -18.733 -10.188   7.624  1.00  0.00     0.208 A 
ATOM      3  C   UNL     1     -20.120 -10.055   7.800  1.00  0.00     0.238 A 
ATOM      4  O   UNL     1     -20.682  -9.003   7.397  1.00  0.00    -0.285 OA
ATOM      5  C   UNL     1     -20.851 -11.083   8.444  1.00  0.00     0.111 A 
ATOM      6  C   UNL     1     -22.266 -11.075   8.638  1.00  0.00     0.134 A 
ATOM      7  C   UNL     1     -22.867 -12.096   9.384  1.00  0.00     0.093 A 
ATOM      8  C   UNL     1     -22.113 -13.159   9.889  1.00  0.00     0.123 A 
ATOM      9  C   UNL     1     -20.741 -13.204   9.659  1.00  0.00     0.094 A 
ATOM     10  C   UNL     1     -20.106 -12.180   8.951  1.00  0.00     0.146 A 
ATOM     11  O   UNL     1     -18.793 -12.253   8.774  1.00  0.00    -0.452 OA
ENDROOT
BRANCH   1  12
ATOM     12  C   UNL     1     -16.625 -11.526   8.013  1.00  0.00     0.025 A 
ATOM     13  C   UNL     1     -16.096 -12.453   7.098  1.00  0.00     0.016 A 
ATOM     14  C   UNL     1     -14.713 -12.611   6.973  1.00  0.00     0.051 A 
ATOM     15  C   UNL     1     -13.840 -11.837   7.748  1.00  0.00     0.157 A 
ATOM     16  C   UNL     1     -15.745 -10.737   8.772  1.00  0.00     0.062 A 
ATOM     17  C   UNL     1     -14.360 -10.894   8.650  1.00  0.00     0.158 A 
BRANCH  15  18
ATOM     18  O   UNL     1     -12.461 -11.998   7.622  1.00  0.00    -0.504 OA
ATOM     19  H   UNL     1     -11.879 -12.226   8.420  1.00  0.00     0.293 HD
ENDBRANCH  15  18
BRANCH  17  20
ATOM     20  O   UNL     1     -13.518 -10.102   9.430  1.00  0.00    -0.504 OA
ATOM     21  H   UNL     1     -13.470  -9.097   9.320  1.00  0.00     0.293 HD
ENDBRANCH  17  20
ENDBRANCH   1  12
BRANCH   2  22
ATOM     22  O   UNL     1     -18.007  -9.221   6.924  1.00  0.00    -0.502 OA
ATOM     23  H   UNL     1     -17.165  -9.442   6.406  1.00  0.00     0.293 HD
ENDBRANCH   2  22
BRANCH   6  24
ATOM     24  O   UNL     1     -23.125 -10.110   8.102  1.00  0.00    -0.507 OA
ATOM     25  H   UNL     1     -23.748 -10.259   7.323  1.00  0.00     0.293 HD
ENDBRANCH   6  24
BRANCH   8  26
ATOM     26  O   UNL     1     -22.722 -14.180  10.615  1.00  0.00    -0.508 OA
ATOM     27  H   UNL     1     -23.722 -14.191  10.778  1.00  0.00     0.293 HD
ENDBRANCH   8  26
TORSDOF 6
ENDMDL
MODEL 3
REMARK VINA RESULT:    -5.986      1.946      3.653
REMARK INTER + INTRA:          -7.537
REMARK INTER:                  -7.999
REMARK INTRA:                   0.462
REMARK UNBOUND:                -0.326
REMARK SMILES O=c1c(O)c(-c2ccc(O)c(O)c2)oc2cc(O)cc(O)c12
REMARK SMILES IDX 5 1 3 2 2 3 1 4 22 5 20 6 19 7 17 8 16 9 15 10 14 11 6 12
REMARK SMILES IDX 7 13 8 14 9 15 13 16 11 17 10 18 12 20 4 22 21 24 18 26
REMARK H PARENT 10 19 12 21 4 23 21 25 18 27
REMARK Flexibility Score: inf
ROOT
ATOM      1  C   UNL     1     -17.901  -9.690   8.044  1.00  0.00     0.180 A 
ATOM      2  C   UNL     1     -18.780  -8.651   7.692  1.00  0.00     0.208 A 
ATOM      3  C   UNL     1     -20.164  -8.883   7.740  1.00  0.00     0.238 A 
ATOM      4  O   UNL     1     -20.945  -7.927   7.496  1.00  0.00    -0.285 OA
ATOM      5  C   UNL     1     -20.652 -10.167   8.084  1.00  0.00     0.111 A 
ATOM      6  C   UNL     1     -22.033 -10.529   8.121  1.00  0.00     0.134 A 
ATOM      7  C   UNL     1     -22.402 -11.799   8.579  1.00  0.00     0.093 A 
ATOM      8  C   UNL     1     -21.438 -12.744   8.941  1.00  0.00     0.123 A 
ATOM      9  C   UNL     1     -20.087 -12.420   8.856  1.00  0.00     0.094 A 
ATOM     10  C   UNL     1     -19.688 -11.147   8.439  1.00  0.00     0.146 A 
ATOM     11  O   UNL     1     -18.390 -10.874   8.394  1.00  0.00    -0.452 OA
ENDROOT
BRANCH   1  12
ATOM     12  C   UNL     1     -16.430  -9.518   8.032  1.00  0.00     0.025 A 
ATOM     13  C   UNL     1     -15.835  -8.346   7.532  1.00  0.00     0.016 A 
ATOM     14  C   UNL     1     -14.446  -8.197   7.554  1.00  0.00     0.051 A 
ATOM     15  C   UNL     1     -13.634  -9.206   8.085  1.00  0.00     0.157 A 
ATOM     16  C   UNL     1     -15.614 -10.518   8.583  1.00  0.00     0.062 A 
ATOM     17  C   UNL     1     -14.222 -10.371   8.605  1.00  0.00     0.158 A 
BRANCH  15  18
ATOM     18  O   UNL     1     -12.248  -9.054   8.104  1.00  0.00    -0.504 OA
ATOM     19  H   UNL     1     -11.781  -8.541   8.843  1.00  0.00     0.293 HD
ENDBRANCH  15  18
BRANCH  17  20
ATOM     20  O   UNL     1     -13.442 -11.391   9.149  1.00  0.00    -0.504 OA
ATOM     21  H   UNL     1     -12.732 -11.871   8.609  1.00  0.00     0.293 HD
ENDBRANCH  17  20
ENDBRANCH   1  12
BRANCH   2  22
ATOM     22  O   UNL     1     -18.277  -7.413   7.280  1.00  0.00    -0.502 OA
ATOM     23  H   UNL     1     -17.327  -7.293   6.951  1.00  0.00     0.293 HD
ENDBRANCH   2  22
BRANCH   6  24
ATOM     24  O   UNL     1     -23.073  -9.694   7.699  1.00  0.00    -0.507 OA
ATOM     25  H   UNL     1     -23.477  -9.697   6.774  1.00  0.00     0.293 HD
ENDBRANCH   6  24
BRANCH   8  26
ATOM     26  O   UNL     1     -21.815 -14.011   9.379  1.00  0.00    -0.508 OA
ATOM     27  H   UNL     1     -21.800 -14.258  10.362  1.00  0.00     0.293 HD
ENDBRANCH   8  26
TORSDOF 6
ENDMDL
MODEL 4
REMARK VINA RESULT:    -5.688      2.443      3.941
REMARK INTER + INTRA:          -7.178
REMARK INTER:                  -7.673
REMARK INTRA:                   0.495
REMARK UNBOUND:                -0.326
REMARK SMILES O=c1c(O)c(-c2ccc(O)c(O)c2)oc2cc(O)cc(O)c12
REMARK SMILES IDX 5 1 3 2 2 3 1 4 22 5 20 6 19 7 17 8 16 9 15 10 14 11 6 12
REMARK SMILES IDX 7 13 8 14 9 15 13 16 11 17 10 18 12 20 4 22 21 24 18 26
REMARK H PARENT 10 19 12 21 4 23 21 25 18 27
REMARK Flexibility Score: inf
ROOT
ATOM      1  C   UNL     1     -17.969  -9.407   7.915  1.00  0.00     0.180 A 
ATOM      2  C   UNL     1     -18.963  -8.453   7.633  1.00  0.00     0.208 A 
ATOM      3  C   UNL     1     -20.313  -8.825   7.740  1.00  0.00     0.238 A 
ATOM      4  O   UNL     1     -21.196  -7.947   7.558  1.00  0.00    -0.285 OA
ATOM      5  C   UNL     1     -20.653 -10.159   8.071  1.00  0.00     0.111 A 
ATOM      6  C   UNL     1     -21.988 -10.658   8.163  1.00  0.00     0.134 A 
ATOM      7  C   UNL     1     -22.206 -11.969   8.604  1.00  0.00     0.093 A 
ATOM      8  C   UNL     1     -21.136 -12.820   8.894  1.00  0.00     0.123 A 
ATOM      9  C   UNL     1     -19.830 -12.360   8.754  1.00  0.00     0.094 A 
ATOM     10  C   UNL     1     -19.580 -11.044   8.354  1.00  0.00     0.146 A 
ATOM     11  O   UNL     1     -18.319 -10.641   8.255  1.00  0.00    -0.452 OA
ENDROOT
BRANCH   1  12
ATOM     12  C   UNL     1     -16.525  -9.087   7.838  1.00  0.00     0.025 A 
ATOM     13  C   UNL     1     -15.552 -10.101   7.810  1.00  0.00     0.016 A 
ATOM     14  C   UNL     1     -14.196  -9.775   7.712  1.00  0.00     0.051 A 
ATOM     15  C   UNL     1     -13.795  -8.437   7.628  1.00  0.00     0.157 A 
ATOM     16  C   UNL     1     -16.119  -7.747   7.732  1.00  0.00     0.062 A 
ATOM     17  C   UNL     1     -14.762  -7.418   7.635  1.00  0.00     0.158 A 
BRANCH  15  18
ATOM     18  O   UNL     1     -12.442  -8.115   7.533  1.00  0.00    -0.504 OA
ATOM     19  H   UNL     1     -12.055  -7.691   6.697  1.00  0.00     0.293 HD
ENDBRANCH  15  18
BRANCH  17  20
ATOM     20  O   UNL     1     -14.396  -6.075   7.545  1.00  0.00    -0.504 OA
ATOM     21  H   UNL     1     -14.388  -5.465   8.353  1.00  0.00     0.293 HD
ENDBRANCH  17  20
ENDBRANCH   1  12
BRANCH   2  22
ATOM     22  O   UNL     1     -18.607  -7.163   7.232  1.00  0.00    -0.502 OA
ATOM     23  H   UNL     1     -19.244  -6.378   7.296  1.00  0.00     0.293 HD
ENDBRANCH   2  22
BRANCH   6  24
ATOM     24  O   UNL     1     -23.125  -9.924   7.813  1.00  0.00    -0.507 OA
ATOM     25  H   UNL     1     -23.180  -9.275   7.043  1.00  0.00     0.293 HD
ENDBRANCH   6  24
BRANCH   8  26
ATOM     26  O   UNL     1     -21.362 -14.128   9.315  1.00  0.00    -0.508 OA
ATOM     27  H   UNL     1     -21.324 -14.384  10.295  1.00  0.00     0.293 HD
ENDBRANCH   8  26
TORSDOF 6
ENDMDL
MODEL 5
REMARK VINA RESULT:    -5.687      2.981      4.424
REMARK INTER + INTRA:          -7.177
REMARK INTER:                  -7.106
REMARK INTRA:                  -0.071
REMARK UNBOUND:                -0.326
REMARK SMILES O=c1c(O)c(-c2ccc(O)c(O)c2)oc2cc(O)cc(O)c12
REMARK SMILES IDX 5 1 3 2 2 3 1 4 22 5 20 6 19 7 17 8 16 9 15 10 14 11 6 12
REMARK SMILES IDX 7 13 8 14 9 15 13 16 11 17 10 18 12 20 4 22 21 24 18 26
REMARK H PARENT 10 19 12 21 4 23 21 25 18 27
REMARK Flexibility Score: inf
ROOT
ATOM      1  C   UNL     1     -19.865 -12.888   9.022  1.00  0.00     0.180 A 
ATOM      2  C   UNL     1     -21.268 -12.810   8.971  1.00  0.00     0.208 A 
ATOM      3  C   UNL     1     -21.868 -11.603   8.579  1.00  0.00     0.238 A 
ATOM      4  O   UNL     1     -23.121 -11.561   8.464  1.00  0.00    -0.285 OA
ATOM      5  C   UNL     1     -21.062 -10.472   8.299  1.00  0.00     0.111 A 
ATOM      6  C   UNL     1     -21.565  -9.186   7.937  1.00  0.00     0.134 A 
ATOM      7  C   UNL     1     -20.670  -8.170   7.578  1.00  0.00     0.093 A 
ATOM      8  C   UNL     1     -19.289  -8.376   7.630  1.00  0.00     0.123 A 
ATOM      9  C   UNL     1     -18.788  -9.609   8.035  1.00  0.00     0.094 A 
ATOM     10  C   UNL     1     -19.656 -10.655   8.362  1.00  0.00     0.146 A 
ATOM     11  O   UNL     1     -19.135 -11.821   8.722  1.00  0.00    -0.452 OA
ENDROOT
BRANCH   1  12
ATOM     12  C   UNL     1     -19.158 -14.130   9.412  1.00  0.00     0.025 A 
ATOM     13  C   UNL     1     -18.203 -14.724   8.568  1.00  0.00     0.016 A 
ATOM     14  C   UNL     1     -17.531 -15.882   8.969  1.00  0.00     0.051 A 
ATOM     15  C   UNL     1     -17.793 -16.455  10.219  1.00  0.00     0.157 A 
ATOM     16  C   UNL     1     -19.401 -14.696  10.674  1.00  0.00     0.062 A 
ATOM     17  C   UNL     1     -18.730 -15.856  11.077  1.00  0.00     0.158 A 
BRANCH  15  18
ATOM     18  O   UNL     1     -17.122 -17.611  10.615  1.00  0.00    -0.504 OA
ATOM     19  H   UNL     1     -16.724 -17.702  11.544  1.00  0.00     0.293 HD
ENDBRANCH  15  18
BRANCH  17  20
ATOM     20  O   UNL     1     -19.007 -16.397  12.332  1.00  0.00    -0.504 OA
ATOM     21  H   UNL     1     -18.486 -17.179  12.708  1.00  0.00     0.293 HD
ENDBRANCH  17  20
ENDBRANCH   1  12
BRANCH   2  22
ATOM     22  O   UNL     1     -22.048 -13.913   9.326  1.00  0.00    -0.502 OA
ATOM     23  H   UNL     1     -21.908 -14.425  10.189  1.00  0.00     0.293 HD
ENDBRANCH   2  22
BRANCH   6  24
ATOM     24  O   UNL     1     -22.921  -8.846   7.937  1.00  0.00    -0.507 OA
ATOM     25  H   UNL     1     -23.370  -8.256   7.252  1.00  0.00     0.293 HD
ENDBRANCH   6  24
BRANCH   8  26
ATOM     26  O   UNL     1     -18.405  -7.354   7.288  1.00  0.00    -0.508 OA
ATOM     27  H   UNL     1     -18.625  -6.381   7.466  1.00  0.00     0.293 HD
ENDBRANCH   8  26
TORSDOF 6
ENDMDL
MODEL 6
REMARK VINA RESULT:    -5.649      2.517      6.750
REMARK INTER + INTRA:          -7.130
REMARK INTER:                  -7.397
REMARK INTRA:                   0.267
REMARK UNBOUND:                -0.326
REMARK SMILES O=c1c(O)c(-c2ccc(O)c(O)c2)oc2cc(O)cc(O)c12
REMARK SMILES IDX 5 1 3 2 2 3 1 4 22 5 20 6 19 7 17 8 16 9 15 10 14 11 6 12
REMARK SMILES IDX 7 13 8 14 9 15 13 16 11 17 10 18 12 20 4 22 21 24 18 26
REMARK H PARENT 10 19 12 21 4 23 21 25 18 27
REMARK Flexibility Score: inf
ROOT
ATOM      1  C   UNL     1     -16.881 -10.948   8.388  1.00  0.00     0.180 A 
ATOM      2  C   UNL     1     -15.652 -11.623   8.480  1.00  0.00     0.208 A 
ATOM      3  C   UNL     1     -14.462 -10.898   8.303  1.00  0.00     0.238 A 
ATOM      4  O   UNL     1     -13.364 -11.493   8.459  1.00  0.00    -0.285 OA
ATOM      5  C   UNL     1     -14.517  -9.520   7.981  1.00  0.00     0.111 A 
ATOM      6  C   UNL     1     -13.376  -8.697   7.736  1.00  0.00     0.134 A 
ATOM      7  C   UNL     1     -13.548  -7.322   7.531  1.00  0.00     0.093 A 
ATOM      8  C   UNL     1     -14.823  -6.752   7.499  1.00  0.00     0.123 A 
ATOM      9  C   UNL     1     -15.944  -7.555   7.682  1.00  0.00     0.094 A 
ATOM     10  C   UNL     1     -15.804  -8.924   7.927  1.00  0.00     0.146 A 
ATOM     11  O   UNL     1     -16.900  -9.648   8.117  1.00  0.00    -0.452 OA
ENDROOT
BRANCH   1  12
ATOM     12  C   UNL     1     -18.177 -11.640   8.576  1.00  0.00     0.025 A 
ATOM     13  C   UNL     1     -19.311 -11.285   7.825  1.00  0.00     0.016 A 
ATOM     14  C   UNL     1     -20.517 -11.969   8.003  1.00  0.00     0.051 A 
ATOM     15  C   UNL     1     -20.603 -13.024   8.920  1.00  0.00     0.157 A 
ATOM     16  C   UNL     1     -18.263 -12.712   9.478  1.00  0.00     0.062 A 
ATOM     17  C   UNL     1     -19.469 -13.399   9.658  1.00  0.00     0.158 A 
BRANCH  15  18
ATOM     18  O   UNL     1     -21.808 -13.704   9.096  1.00  0.00    -0.504 OA
ATOM     19  H   UNL     1     -22.385 -13.557   9.916  1.00  0.00     0.293 HD
ENDBRANCH  15  18
BRANCH  17  20
ATOM     20  O   UNL     1     -19.519 -14.450  10.574  1.00  0.00    -0.504 OA
ATOM     21  H   UNL     1     -19.159 -15.371  10.355  1.00  0.00     0.293 HD
ENDBRANCH  17  20
ENDBRANCH   1  12
BRANCH   2  22
ATOM     22  O   UNL     1     -15.620 -12.999   8.721  1.00  0.00    -0.502 OA
ATOM     23  H   UNL     1     -15.239 -13.660   8.056  1.00  0.00     0.293 HD
ENDBRANCH   2  22
BRANCH   6  24
ATOM     24  O   UNL     1     -12.065  -9.177   7.658  1.00  0.00    -0.507 OA
ATOM     25  H   UNL     1     -11.763  -9.940   7.071  1.00  0.00     0.293 HD
ENDBRANCH   6  24
BRANCH   8  26
ATOM     26  O   UNL     1     -14.985  -5.386   7.277  1.00  0.00    -0.508 OA
ATOM     27  H   UNL     1     -14.317  -4.855   6.730  1.00  0.00     0.293 HD
ENDBRANCH   8  26
TORSDOF 6
ENDMDL
MODEL 7
REMARK VINA RESULT:    -5.568      2.335      7.137
REMARK INTER + INTRA:          -7.033
REMARK INTER:                  -7.422
REMARK INTRA:                   0.389
REMARK UNBOUND:                -0.326
REMARK SMILES O=c1c(O)c(-c2ccc(O)c(O)c2)oc2cc(O)cc(O)c12
REMARK SMILES IDX 5 1 3 2 2 3 1 4 22 5 20 6 19 7 17 8 16 9 15 10 14 11 6 12
REMARK SMILES IDX 7 13 8 14 9 15 13 16 11 17 10 18 12 20 4 22 21 24 18 26
REMARK H PARENT 10 19 12 21 4 23 21 25 18 27
REMARK Flexibility Score: inf
ROOT
ATOM      1  C   UNL     1     -17.677 -10.553   8.344  1.00  0.00     0.180 A 
ATOM      2  C   UNL     1     -17.916  -9.290   7.773  1.00  0.00     0.208 A 
ATOM      3  C   UNL     1     -16.824  -8.458   7.478  1.00  0.00     0.238 A 
ATOM      4  O   UNL     1     -17.039  -7.362   6.900  1.00  0.00    -0.285 OA
ATOM      5  C   UNL     1     -15.511  -8.875   7.808  1.00  0.00     0.111 A 
ATOM      6  C   UNL     1     -14.334  -8.094   7.596  1.00  0.00     0.134 A 
ATOM      7  C   UNL     1     -13.078  -8.653   7.864  1.00  0.00     0.093 A 
ATOM      8  C   UNL     1     -12.959  -9.939   8.397  1.00  0.00     0.123 A 
ATOM      9  C   UNL     1     -14.103 -10.687   8.659  1.00  0.00     0.094 A 
ATOM     10  C   UNL     1     -15.370 -10.172   8.366  1.00  0.00     0.146 A 
ATOM     11  O   UNL     1     -16.432 -10.928   8.612  1.00  0.00    -0.452 OA
ENDROOT
BRANCH   1  12
ATOM     12  C   UNL     1     -18.775 -11.491   8.670  1.00  0.00     0.025 A 
ATOM     13  C   UNL     1     -20.060 -11.333   8.122  1.00  0.00     0.016 A 
ATOM     14  C   UNL     1     -21.074 -12.245   8.426  1.00  0.00     0.051 A 
ATOM     15  C   UNL     1     -20.816 -13.334   9.268  1.00  0.00     0.157 A 
ATOM     16  C   UNL     1     -18.516 -12.596   9.497  1.00  0.00     0.062 A 
ATOM     17  C   UNL     1     -19.530 -13.511   9.803  1.00  0.00     0.158 A 
BRANCH  15  18
ATOM     18  O   UNL     1     -21.830 -14.242   9.571  1.00  0.00    -0.504 OA
ATOM     19  H   UNL     1     -22.290 -14.242  10.474  1.00  0.00     0.293 HD
ENDBRANCH  15  18
BRANCH  17  20
ATOM     20  O   UNL     1     -19.238 -14.589  10.638  1.00  0.00    -0.504 OA
ATOM     21  H   UNL     1     -18.791 -14.467  11.538  1.00  0.00     0.293 HD
ENDBRANCH  17  20
ENDBRANCH   1  12
BRANCH   2  22
ATOM     22  O   UNL     1     -19.224  -8.865   7.526  1.00  0.00    -0.502 OA
ATOM     23  H   UNL     1     -19.985  -9.043   8.169  1.00  0.00     0.293 HD
ENDBRANCH   2  22
BRANCH   6  24
ATOM     24  O   UNL     1     -14.342  -6.769   7.151  1.00  0.00    -0.507 OA
ATOM     25  H   UNL     1     -13.727  -6.043   7.487  1.00  0.00     0.293 HD
ENDBRANCH   6  24
BRANCH   8  26
ATOM     26  O   UNL     1     -11.706 -10.480   8.676  1.00  0.00    -0.508 OA
ATOM     27  H   UNL     1     -11.338 -11.265   8.151  1.00  0.00     0.293 HD
ENDBRANCH   8  26
TORSDOF 6
ENDMDL
MODEL 8
REMARK VINA RESULT:    -5.410      2.224      7.146
REMARK INTER + INTRA:          -6.842
REMARK INTER:                  -7.386
REMARK INTRA:                   0.543
REMARK UNBOUND:                -0.326
REMARK SMILES O=c1c(O)c(-c2ccc(O)c(O)c2)oc2cc(O)cc(O)c12
REMARK SMILES IDX 5 1 3 2 2 3 1 4 22 5 20 6 19 7 17 8 16 9 15 10 14 11 6 12
REMARK SMILES IDX 7 13 8 14 9 15 13 16 11 17 10 18 12 20 4 22 21 24 18 26
REMARK H PARENT 10 19 12 21 4 23 21 25 18 27
REMARK Flexibility Score: inf
ROOT
ATOM      1  C   UNL     1     -17.931 -10.747   8.430  1.00  0.00     0.180 A 
ATOM      2  C   UNL     1     -18.210  -9.506   7.831  1.00  0.00     0.208 A 
ATOM      3  C   UNL     1     -17.144  -8.649   7.512  1.00  0.00     0.238 A 
ATOM      4  O   UNL     1     -17.394  -7.574   6.909  1.00  0.00    -0.285 OA
ATOM      5  C   UNL     1     -15.819  -9.018   7.848  1.00  0.00     0.111 A 
ATOM      6  C   UNL     1     -14.666  -8.208   7.613  1.00  0.00     0.134 A 
ATOM      7  C   UNL     1     -13.393  -8.722   7.890  1.00  0.00     0.093 A 
ATOM      8  C   UNL     1     -13.234  -9.991   8.452  1.00  0.00     0.123 A 
ATOM      9  C   UNL     1     -14.355 -10.766   8.736  1.00  0.00     0.094 A 
ATOM     10  C   UNL     1     -15.637 -10.297   8.435  1.00  0.00     0.146 A 
ATOM     11  O   UNL     1     -16.675 -11.079   8.703  1.00  0.00    -0.452 OA
ENDROOT
BRANCH   1  12
ATOM     12  C   UNL     1     -19.000 -11.710   8.782  1.00  0.00     0.025 A 
ATOM     13  C   UNL     1     -18.720 -12.878   9.514  1.00  0.00     0.016 A 
ATOM     14  C   UNL     1     -19.749 -13.760   9.856  1.00  0.00     0.051 A 
ATOM     15  C   UNL     1     -21.070 -13.482   9.485  1.00  0.00     0.157 A 
ATOM     16  C   UNL     1     -20.329 -11.425   8.432  1.00  0.00     0.062 A 
ATOM     17  C   UNL     1     -21.362 -12.307   8.773  1.00  0.00     0.158 A 
BRANCH  15  18
ATOM     18  O   UNL     1     -22.094 -14.364   9.827  1.00  0.00    -0.504 OA
ATOM     19  H   UNL     1     -23.038 -14.038  10.004  1.00  0.00     0.293 HD
ENDBRANCH  15  18
BRANCH  17  20
ATOM     20  O   UNL     1     -22.668 -11.997   8.397  1.00  0.00    -0.504 OA
ATOM     21  H   UNL     1     -23.338 -11.609   9.049  1.00  0.00     0.293 HD
ENDBRANCH  17  20
ENDBRANCH   1  12
BRANCH   2  22
ATOM     22  O   UNL     1     -19.531  -9.127   7.578  1.00  0.00    -0.502 OA
ATOM     23  H   UNL     1     -20.146  -9.662   6.977  1.00  0.00     0.293 HD
ENDBRANCH   2  22
BRANCH   6  24
ATOM     24  O   UNL     1     -14.715  -6.894   7.137  1.00  0.00    -0.507 OA
ATOM     25  H   UNL     1     -14.992  -6.627   6.205  1.00  0.00     0.293 HD
ENDBRANCH   6  24
BRANCH   8  26
ATOM     26  O   UNL     1     -11.965 -10.487   8.740  1.00  0.00    -0.508 OA
ATOM     27  H   UNL     1     -11.129 -10.053   8.366  1.00  0.00     0.293 HD
ENDBRANCH   8  26
TORSDOF 6
ENDMDL
MODEL 9
REMARK VINA RESULT:    -5.398      2.223      2.743
REMARK INTER + INTRA:          -6.828
REMARK INTER:                  -7.052
REMARK INTRA:                   0.224
REMARK UNBOUND:                -0.326
REMARK SMILES O=c1c(O)c(-c2ccc(O)c(O)c2)oc2cc(O)cc(O)c12
REMARK SMILES IDX 5 1 3 2 2 3 1 4 22 5 20 6 19 7 17 8 16 9 15 10 14 11 6 12
REMARK SMILES IDX 7 13 8 14 9 15 13 16 11 17 10 18 12 20 4 22 21 24 18 26
REMARK H PARENT 10 19 12 21 4 23 21 25 18 27
REMARK Flexibility Score: inf
ROOT
ATOM      1  C   UNL     1     -17.101 -10.634   8.240  1.00  0.00     0.180 A 
ATOM      2  C   UNL     1     -16.947 -11.941   8.732  1.00  0.00     0.208 A 
ATOM      3  C   UNL     1     -18.093 -12.712   8.988  1.00  0.00     0.238 A 
ATOM      4  O   UNL     1     -17.947 -13.906   9.358  1.00  0.00    -0.285 OA
ATOM      5  C   UNL     1     -19.378 -12.147   8.803  1.00  0.00     0.111 A 
ATOM      6  C   UNL     1     -20.608 -12.821   9.074  1.00  0.00     0.134 A 
ATOM      7  C   UNL     1     -21.821 -12.200   8.751  1.00  0.00     0.093 A 
ATOM      8  C   UNL     1     -21.851 -10.905   8.227  1.00  0.00     0.123 A 
ATOM      9  C   UNL     1     -20.660 -10.219   8.012  1.00  0.00     0.094 A 
ATOM     10  C   UNL     1     -19.431 -10.826   8.287  1.00  0.00     0.146 A 
ATOM     11  O   UNL     1     -18.320 -10.143   8.045  1.00  0.00    -0.452 OA
ENDROOT
BRANCH   1  12
ATOM     12  C   UNL     1     -15.942  -9.765   7.933  1.00  0.00     0.025 A 
ATOM     13  C   UNL     1     -14.725 -10.302   7.479  1.00  0.00     0.016 A 
ATOM     14  C   UNL     1     -13.653  -9.460   7.172  1.00  0.00     0.051 A 
ATOM     15  C   UNL     1     -13.784  -8.072   7.301  1.00  0.00     0.157 A 
ATOM     16  C   UNL     1     -16.076  -8.371   8.040  1.00  0.00     0.062 A 
ATOM     17  C   UNL     1     -15.003  -7.525   7.734  1.00  0.00     0.158 A 
BRANCH  15  18
ATOM     18  O   UNL     1     -12.712  -7.235   6.996  1.00  0.00    -0.504 OA
ATOM     19  H   UNL     1     -12.245  -6.688   7.711  1.00  0.00     0.293 HD
ENDBRANCH  15  18
BRANCH  17  20
ATOM     20  O   UNL     1     -15.170  -6.147   7.865  1.00  0.00    -0.504 OA
ATOM     21  H   UNL     1     -14.698  -5.615   8.586  1.00  0.00     0.293 HD
ENDBRANCH  17  20
ENDBRANCH   1  12
BRANCH   2  22
ATOM     22  O   UNL     1     -15.671 -12.454   8.982  1.00  0.00    -0.502 OA
ATOM     23  H   UNL     1     -14.937 -11.903   9.409  1.00  0.00     0.293 HD
ENDBRANCH   2  22
BRANCH   6  24
ATOM     24  O   UNL     1     -20.696 -14.080   9.677  1.00  0.00    -0.507 OA
ATOM     25  H   UNL     1     -21.172 -14.877   9.282  1.00  0.00     0.293 HD
ENDBRANCH   6  24
BRANCH   8  26
ATOM     26  O   UNL     1     -23.064 -10.289   7.926  1.00  0.00    -0.508 OA
ATOM     27  H   UNL     1     -23.631 -10.590   7.142  1.00  0.00     0.293 HD
ENDBRANCH   8  26
TORSDOF 6
ENDMDL
