MODEL 1
REMARK VINA RESULT:     6.048      0.000      0.000
REMARK INTER + INTRA:          12.939
REMARK INTER:                  11.705
REMARK INTRA:                   1.234
REMARK UNBOUND:                 1.234
REMARK SMILES CCCCCCCCCCCCCCCCCC(=O)[O-]
REMARK SMILES IDX 10 1 11 2 12 3 13 4 14 5 15 6 16 7 17 8 18 9 19 10 20 11
REMARK SMILES IDX 9 12 8 13 7 14 6 15 5 16 4 17 3 18 2 19 1 20
REMARK H PARENT
REMARK Flexibility Score: inf
ROOT
ATOM      1  C   UNL     1     -19.851   4.834 -19.841  1.00  0.00     0.000 C 
ENDROOT
BRANCH   1   2
ATOM      2  C   UNL     1     -20.286   6.289 -20.087  1.00  0.00     0.000 C 
BRANCH   2   3
ATOM      3  C   UNL     1     -21.585   6.662 -19.348  1.00  0.00     0.000 C 
BRANCH   3   4
ATOM      4  C   UNL     1     -21.618   8.076 -18.738  1.00  0.00     0.000 C 
BRANCH   4   5
ATOM      5  C   UNL     1     -22.784   8.931 -19.260  1.00  0.00     0.000 C 
BRANCH   5   6
ATOM      6  C   UNL     1     -23.908   9.098 -18.223  1.00  0.00     0.000 C 
BRANCH   6   7
ATOM      7  C   UNL     1     -23.653  10.235 -17.208  1.00  0.00     0.006 C 
BRANCH   7   8
ATOM      8  C   UNL     1     -23.489   9.732 -15.765  1.00  0.00     0.053 C 
BRANCH   8   9
ATOM      9  C   UNL     1     -22.055   9.753 -15.331  1.00  0.00     0.041 C 
ATOM     10  O   UNL     1     -21.232  10.519 -15.900  1.00  0.00    -0.550 OA
ATOM     11  O   UNL     1     -21.630   8.943 -14.284  1.00  0.00    -0.550 OA
ENDBRANCH   8   9
ENDBRANCH   7   8
ENDBRANCH   6   7
ENDBRANCH   5   6
ENDBRANCH   4   5
ENDBRANCH   3   4
ENDBRANCH   2   3
ENDBRANCH   1   2
BRANCH   1  12
ATOM     12  C   UNL     1     -20.873   4.033 -19.014  1.00  0.00     0.000 C 
BRANCH  12  13
ATOM     13  C   UNL     1     -20.333   3.437 -17.701  1.00  0.00    -0.000 C 
BRANCH  13  14
ATOM     14  C   UNL     1     -18.869   2.984 -17.802  1.00  0.00    -0.000 C 
BRANCH  14  15
ATOM     15  C   UNL     1     -18.238   3.453 -19.121  1.00  0.00    -0.000 C 
BRANCH  15  16
ATOM     16  C   UNL     1     -16.780   2.990 -19.286  1.00  0.00    -0.000 C 
BRANCH  16  17
ATOM     17  C   UNL     1     -15.978   2.875 -17.973  1.00  0.00    -0.000 C 
BRANCH  17  18
ATOM     18  C   UNL     1     -14.449   2.960 -18.135  1.00  0.00    -0.000 C 
BRANCH  18  19
ATOM     19  C   UNL     1     -13.939   4.405 -18.226  1.00  0.00    -0.003 C 
ATOM     20  C   UNL     1     -14.559   5.132 -19.416  1.00  0.00     0.004 C 
ENDBRANCH  18  19
ENDBRANCH  17  18
ENDBRANCH  16  17
ENDBRANCH  15  16
ENDBRANCH  14  15
ENDBRANCH  13  14
ENDBRANCH  12  13
ENDBRANCH   1  12
TORSDOF 16
ENDMDL
MODEL 2
REMARK VINA RESULT:     8.141      2.275      2.954
REMARK INTER + INTRA:          16.989
REMARK INTER:                  17.509
REMARK INTRA:                  -0.520
REMARK UNBOUND:                 1.234
REMARK SMILES CCCCCCCCCCCCCCCCCC(=O)[O-]
REMARK SMILES IDX 10 1 11 2 12 3 13 4 14 5 15 6 16 7 17 8 18 9 19 10 20 11
REMARK SMILES IDX 9 12 8 13 7 14 6 15 5 16 4 17 3 18 2 19 1 20
REMARK H PARENT
REMARK Flexibility Score: inf
ROOT
ATOM      1  C   UNL     1     -20.650   5.930 -19.137  1.00  0.00     0.000 C 
ENDROOT
BRANCH   1   2
ATOM      2  C   UNL     1     -21.476   7.228 -19.158  1.00  0.00     0.000 C 
BRANCH   2   3
ATOM      3  C   UNL     1     -22.291   7.444 -17.869  1.00  0.00     0.000 C 
BRANCH   3   4
ATOM      4  C   UNL     1     -21.690   8.443 -16.862  1.00  0.00     0.000 C 
BRANCH   4   5
ATOM      5  C   UNL     1     -22.506   9.739 -16.739  1.00  0.00     0.000 C 
BRANCH   5   6
ATOM      6  C   UNL     1     -23.634   9.833 -17.782  1.00  0.00     0.000 C 
BRANCH   6   7
ATOM      7  C   UNL     1     -23.179  10.419 -19.138  1.00  0.00     0.006 C 
BRANCH   7   8
ATOM      8  C   UNL     1     -24.279  11.225 -19.847  1.00  0.00     0.053 C 
BRANCH   8   9
ATOM      9  C   UNL     1     -23.988  12.695 -19.826  1.00  0.00     0.041 C 
ATOM     10  O   UNL     1     -22.840  13.118 -20.125  1.00  0.00    -0.550 OA
ATOM     11  O   UNL     1     -24.991  13.601 -19.500  1.00  0.00    -0.550 OA
ENDBRANCH   8   9
ENDBRANCH   7   8
ENDBRANCH   6   7
ENDBRANCH   5   6
ENDBRANCH   4   5
ENDBRANCH   3   4
ENDBRANCH   2   3
ENDBRANCH   1   2
BRANCH   1  12
ATOM     12  C   UNL     1     -21.522   4.665 -19.051  1.00  0.00     0.000 C 
BRANCH  12  13
ATOM     13  C   UNL     1     -20.850   3.448 -18.388  1.00  0.00    -0.000 C 
BRANCH  13  14
ATOM     14  C   UNL     1     -19.432   3.183 -18.914  1.00  0.00    -0.000 C 
BRANCH  14  15
ATOM     15  C   UNL     1     -18.378   3.823 -17.999  1.00  0.00    -0.000 C 
BRANCH  15  16
ATOM     16  C   UNL     1     -17.016   3.110 -18.064  1.00  0.00    -0.000 C 
BRANCH  16  17
ATOM     17  C   UNL     1     -16.262   3.259 -19.402  1.00  0.00    -0.000 C 
BRANCH  17  18
ATOM     18  C   UNL     1     -14.766   2.898 -19.350  1.00  0.00    -0.000 C 
BRANCH  18  19
ATOM     19  C   UNL     1     -13.947   3.874 -18.494  1.00  0.00    -0.003 C 
ATOM     20  C   UNL     1     -14.190   5.318 -18.923  1.00  0.00     0.004 C 
ENDBRANCH  18  19
ENDBRANCH  17  18
ENDBRANCH  16  17
ENDBRANCH  15  16
ENDBRANCH  14  15
ENDBRANCH  13  14
ENDBRANCH  12  13
ENDBRANCH   1  12
TORSDOF 16
ENDMDL
MODEL 3
REMARK VINA RESULT:     9.019      3.001      4.106
REMARK INTER + INTRA:          18.688
REMARK INTER:                  19.365
REMARK INTRA:                  -0.677
REMARK UNBOUND:                 1.234
REMARK SMILES CCCCCCCCCCCCCCCCCC(=O)[O-]
REMARK SMILES IDX 10 1 11 2 12 3 13 4 14 5 15 6 16 7 17 8 18 9 19 10 20 11
REMARK SMILES IDX 9 12 8 13 7 14 6 15 5 16 4 17 3 18 2 19 1 20
REMARK H PARENT
REMARK Flexibility Score: inf
ROOT
ATOM      1  C   UNL     1     -21.547   8.211 -18.470  1.00  0.00     0.000 C 
ENDROOT
BRANCH   1   2
ATOM      2  C   UNL     1     -21.813   8.964 -17.155  1.00  0.00     0.000 C 
BRANCH   2   3
ATOM      3  C   UNL     1     -23.215   9.601 -17.098  1.00  0.00     0.000 C 
BRANCH   3   4
ATOM      4  C   UNL     1     -23.707  10.240 -18.410  1.00  0.00     0.000 C 
BRANCH   4   5
ATOM      5  C   UNL     1     -23.257  11.701 -18.575  1.00  0.00     0.000 C 
BRANCH   5   6
ATOM      6  C   UNL     1     -23.841  12.363 -19.835  1.00  0.00     0.000 C 
BRANCH   6   7
ATOM      7  C   UNL     1     -23.496  13.864 -19.965  1.00  0.00     0.006 C 
BRANCH   7   8
ATOM      8  C   UNL     1     -21.989  14.126 -20.117  1.00  0.00     0.053 C 
BRANCH   8   9
ATOM      9  C   UNL     1     -21.496  15.121 -19.112  1.00  0.00     0.041 C 
ATOM     10  O   UNL     1     -20.594  14.801 -18.293  1.00  0.00    -0.550 OA
ATOM     11  O   UNL     1     -22.015  16.410 -19.093  1.00  0.00    -0.550 OA
ENDBRANCH   8   9
ENDBRANCH   7   8
ENDBRANCH   6   7
ENDBRANCH   5   6
ENDBRANCH   4   5
ENDBRANCH   3   4
ENDBRANCH   2   3
ENDBRANCH   1   2
BRANCH   1  12
ATOM     12  C   UNL     1     -21.080   6.761 -18.247  1.00  0.00     0.000 C 
BRANCH  12  13
ATOM     13  C   UNL     1     -20.489   6.064 -19.486  1.00  0.00    -0.000 C 
BRANCH  13  14
ATOM     14  C   UNL     1     -20.564   4.532 -19.409  1.00  0.00    -0.000 C 
BRANCH  14  15
ATOM     15  C   UNL     1     -19.220   3.896 -19.790  1.00  0.00    -0.000 C 
BRANCH  15  16
ATOM     16  C   UNL     1     -18.650   2.991 -18.683  1.00  0.00    -0.000 C 
BRANCH  16  17
ATOM     17  C   UNL     1     -17.110   2.949 -18.600  1.00  0.00    -0.000 C 
BRANCH  17  18
ATOM     18  C   UNL     1     -16.377   3.720 -19.712  1.00  0.00    -0.000 C 
BRANCH  18  19
ATOM     19  C   UNL     1     -14.917   3.277 -19.881  1.00  0.00    -0.003 C 
ATOM     20  C   UNL     1     -14.060   3.752 -18.710  1.00  0.00     0.004 C 
ENDBRANCH  18  19
ENDBRANCH  17  18
ENDBRANCH  16  17
ENDBRANCH  15  16
ENDBRANCH  14  15
ENDBRANCH  13  14
ENDBRANCH  12  13
ENDBRANCH   1  12
TORSDOF 16
ENDMDL
