MODEL 1
REMARK VINA RESULT:    -7.499      0.000      0.000
REMARK INTER + INTRA:          -8.700
REMARK INTER:                  -9.033
REMARK INTRA:                   0.334
REMARK UNBOUND:                 0.334
REMARK SMILES O=c1c(O)c(-c2ccc(O)cc2O)oc2cc(O)cc(O)c12
REMARK SMILES IDX 5 1 3 2 2 3 1 4 22 5 20 6 19 7 17 8 16 9 15 10 14 11 6 12
REMARK SMILES IDX 8 13 7 14 9 15 11 16 12 17 10 18 13 20 4 22 21 24 18 26
REMARK H PARENT 10 19 13 21 4 23 21 25 18 27
REMARK Flexibility Score: inf
ROOT
ATOM      1  C   UNL     1      17.661  22.447  40.207  1.00  0.00     0.184 A 
ATOM      2  C   UNL     1      17.474  23.544  39.351  1.00  0.00     0.208 A 
ATOM      3  C   UNL     1      16.364  24.381  39.551  1.00  0.00     0.238 A 
ATOM      4  O   UNL     1      16.231  25.393  38.816  1.00  0.00    -0.285 OA
ATOM      5  C   UNL     1      15.449  24.099  40.594  1.00  0.00     0.111 A 
ATOM      6  C   UNL     1      14.269  24.855  40.863  1.00  0.00     0.134 A 
ATOM      7  C   UNL     1      13.505  24.562  42.000  1.00  0.00     0.093 A 
ATOM      8  C   UNL     1      13.843  23.500  42.841  1.00  0.00     0.123 A 
ATOM      9  C   UNL     1      14.961  22.719  42.554  1.00  0.00     0.094 A 
ATOM     10  C   UNL     1      15.762  23.008  41.448  1.00  0.00     0.146 A 
ATOM     11  O   UNL     1      16.825  22.245  41.216  1.00  0.00    -0.451 OA
ENDROOT
BRANCH   1  12
ATOM     12  C   UNL     1      18.799  21.519  40.041  1.00  0.00     0.063 A 
ATOM     13  C   UNL     1      21.062  21.128  39.241  1.00  0.00     0.047 A 
ATOM     14  C   UNL     1      19.966  21.978  39.409  1.00  0.00     0.020 A 
ATOM     15  C   UNL     1      21.013  19.815  39.714  1.00  0.00     0.119 A 
ATOM     16  C   UNL     1      19.863  19.354  40.369  1.00  0.00     0.093 A 
ATOM     17  C   UNL     1      18.760  20.203  40.546  1.00  0.00     0.130 A 
BRANCH  15  18
ATOM     18  O   UNL     1      22.112  18.978  39.537  1.00  0.00    -0.508 OA
ATOM     19  H   UNL     1      22.231  18.432  38.692  1.00  0.00     0.293 HD
ENDBRANCH  15  18
BRANCH  17  20
ATOM     20  O   UNL     1      17.639  19.748  41.241  1.00  0.00    -0.507 OA
ATOM     21  H   UNL     1      17.189  20.312  41.953  1.00  0.00     0.293 HD
ENDBRANCH  17  20
ENDBRANCH   1  12
BRANCH   2  22
ATOM     22  O   UNL     1      18.404  23.811  38.342  1.00  0.00    -0.502 OA
ATOM     23  H   UNL     1      18.165  24.334  37.508  1.00  0.00     0.293 HD
ENDBRANCH   2  22
BRANCH   6  24
ATOM     24  O   UNL     1      13.791  25.877  40.036  1.00  0.00    -0.507 OA
ATOM     25  H   UNL     1      14.277  26.236  39.228  1.00  0.00     0.293 HD
ENDBRANCH   6  24
BRANCH   8  26
ATOM     26  O   UNL     1      13.069  23.206  43.961  1.00  0.00    -0.508 OA
ATOM     27  H   UNL     1      12.081  23.433  43.997  1.00  0.00     0.293 HD
ENDBRANCH   8  26
TORSDOF 6
ENDMDL
MODEL 2
REMARK VINA RESULT:    -7.491      1.532      6.552
REMARK INTER + INTRA:          -8.690
REMARK INTER:                  -8.839
REMARK INTRA:                   0.149
REMARK UNBOUND:                 0.334
REMARK SMILES O=c1c(O)c(-c2ccc(O)cc2O)oc2cc(O)cc(O)c12
REMARK SMILES IDX 5 1 3 2 2 3 1 4 22 5 20 6 19 7 17 8 16 9 15 10 14 11 6 12
REMARK SMILES IDX 8 13 7 14 9 15 11 16 12 17 10 18 13 20 4 22 21 24 18 26
REMARK H PARENT 10 19 13 21 4 23 21 25 18 27
REMARK Flexibility Score: inf
ROOT
ATOM      1  C   UNL     1      14.882  23.508  41.749  1.00  0.00     0.184 A 
ATOM      2  C   UNL     1      14.993  24.482  40.745  1.00  0.00     0.208 A 
ATOM      3  C   UNL     1      15.989  24.338  39.766  1.00  0.00     0.238 A 
ATOM      4  O   UNL     1      16.050  25.186  38.837  1.00  0.00    -0.285 OA
ATOM      5  C   UNL     1      16.871  23.231  39.815  1.00  0.00     0.111 A 
ATOM      6  C   UNL     1      17.942  23.007  38.899  1.00  0.00     0.134 A 
ATOM      7  C   UNL     1      18.669  21.811  38.966  1.00  0.00     0.093 A 
ATOM      8  C   UNL     1      18.405  20.862  39.956  1.00  0.00     0.123 A 
ATOM      9  C   UNL     1      17.400  21.098  40.891  1.00  0.00     0.094 A 
ATOM     10  C   UNL     1      16.635  22.265  40.829  1.00  0.00     0.146 A 
ATOM     11  O   UNL     1      15.678  22.447  41.733  1.00  0.00    -0.451 OA
ENDROOT
BRANCH   1  12
ATOM     12  C   UNL     1      13.866  23.607  42.819  1.00  0.00     0.063 A 
ATOM     13  C   UNL     1      11.643  24.306  43.513  1.00  0.00     0.047 A 
ATOM     14  C   UNL     1      12.627  24.201  42.527  1.00  0.00     0.020 A 
ATOM     15  C   UNL     1      11.878  23.807  44.797  1.00  0.00     0.119 A 
ATOM     16  C   UNL     1      13.101  23.192  45.091  1.00  0.00     0.093 A 
ATOM     17  C   UNL     1      14.093  23.078  44.106  1.00  0.00     0.130 A 
BRANCH  15  18
ATOM     18  O   UNL     1      10.888  23.922  45.770  1.00  0.00    -0.508 OA
ATOM     19  H   UNL     1      10.680  23.161  46.406  1.00  0.00     0.293 HD
ENDBRANCH  15  18
BRANCH  17  20
ATOM     20  O   UNL     1      15.288  22.420  44.397  1.00  0.00    -0.507 OA
ATOM     21  H   UNL     1      15.300  21.474  44.760  1.00  0.00     0.293 HD
ENDBRANCH  17  20
ENDBRANCH   1  12
BRANCH   2  22
ATOM     22  O   UNL     1      14.098  25.554  40.709  1.00  0.00    -0.502 OA
ATOM     23  H   UNL     1      13.612  25.885  41.534  1.00  0.00     0.293 HD
ENDBRANCH   2  22
BRANCH   6  24
ATOM     24  O   UNL     1      18.348  23.930  37.931  1.00  0.00    -0.507 OA
ATOM     25  H   UNL     1      17.723  24.527  37.408  1.00  0.00     0.293 HD
ENDBRANCH   6  24
BRANCH   8  26
ATOM     26  O   UNL     1      19.143  19.683  40.025  1.00  0.00    -0.508 OA
ATOM     27  H   UNL     1      19.272  19.091  39.212  1.00  0.00     0.293 HD
ENDBRANCH   8  26
TORSDOF 6
ENDMDL
MODEL 3
REMARK VINA RESULT:    -7.183      1.716      2.386
REMARK INTER + INTRA:          -8.319
REMARK INTER:                  -8.063
REMARK INTRA:                  -0.256
REMARK UNBOUND:                 0.334
REMARK SMILES O=c1c(O)c(-c2ccc(O)cc2O)oc2cc(O)cc(O)c12
REMARK SMILES IDX 5 1 3 2 2 3 1 4 22 5 20 6 19 7 17 8 16 9 15 10 14 11 6 12
REMARK SMILES IDX 8 13 7 14 9 15 11 16 12 17 10 18 13 20 4 22 21 24 18 26
REMARK H PARENT 10 19 13 21 4 23 21 25 18 27
REMARK Flexibility Score: inf
ROOT
ATOM      1  C   UNL     1      16.123  23.113  40.595  1.00  0.00     0.184 A 
ATOM      2  C   UNL     1      15.434  24.270  40.199  1.00  0.00     0.208 A 
ATOM      3  C   UNL     1      14.387  24.747  41.004  1.00  0.00     0.238 A 
ATOM      4  O   UNL     1      13.808  25.814  40.673  1.00  0.00    -0.285 OA
ATOM      5  C   UNL     1      14.035  24.050  42.186  1.00  0.00     0.111 A 
ATOM      6  C   UNL     1      12.966  24.420  43.056  1.00  0.00     0.134 A 
ATOM      7  C   UNL     1      12.790  23.734  44.264  1.00  0.00     0.093 A 
ATOM      8  C   UNL     1      13.604  22.651  44.602  1.00  0.00     0.123 A 
ATOM      9  C   UNL     1      14.613  22.245  43.733  1.00  0.00     0.094 A 
ATOM     10  C   UNL     1      14.836  22.931  42.537  1.00  0.00     0.146 A 
ATOM     11  O   UNL     1      15.816  22.519  41.740  1.00  0.00    -0.451 OA
ENDROOT
BRANCH   1  12
ATOM     12  C   UNL     1      17.224  22.550  39.784  1.00  0.00     0.063 A 
ATOM     13  C   UNL     1      19.381  22.863  38.706  1.00  0.00     0.047 A 
ATOM     14  C   UNL     1      18.321  23.366  39.465  1.00  0.00     0.020 A 
ATOM     15  C   UNL     1      19.364  21.537  38.268  1.00  0.00     0.119 A 
ATOM     16  C   UNL     1      18.286  20.707  38.601  1.00  0.00     0.093 A 
ATOM     17  C   UNL     1      17.220  21.202  39.368  1.00  0.00     0.130 A 
BRANCH  15  18
ATOM     18  O   UNL     1      20.426  21.050  37.509  1.00  0.00    -0.508 OA
ATOM     19  H   UNL     1      20.378  20.151  37.046  1.00  0.00     0.293 HD
ENDBRANCH  15  18
BRANCH  17  20
ATOM     20  O   UNL     1      16.176  20.354  39.734  1.00  0.00    -0.507 OA
ATOM     21  H   UNL     1      15.464  20.070  39.071  1.00  0.00     0.293 HD
ENDBRANCH  17  20
ENDBRANCH   1  12
BRANCH   2  22
ATOM     22  O   UNL     1      15.815  24.949  39.038  1.00  0.00    -0.502 OA
ATOM     23  H   UNL     1      15.304  25.748  38.683  1.00  0.00     0.293 HD
ENDBRANCH   2  22
BRANCH   6  24
ATOM     24  O   UNL     1      12.038  25.427  42.770  1.00  0.00    -0.507 OA
ATOM     25  H   UNL     1      11.398  25.826  43.440  1.00  0.00     0.293 HD
ENDBRANCH   6  24
BRANCH   8  26
ATOM     26  O   UNL     1      13.413  21.964  45.799  1.00  0.00    -0.508 OA
ATOM     27  H   UNL     1      13.208  20.971  45.814  1.00  0.00     0.293 HD
ENDBRANCH   8  26
TORSDOF 6
ENDMDL
MODEL 4
REMARK VINA RESULT:    -7.093      1.159      6.340
REMARK INTER + INTRA:          -8.210
REMARK INTER:                  -8.560
REMARK INTRA:                   0.350
REMARK UNBOUND:                 0.334
REMARK SMILES O=c1c(O)c(-c2ccc(O)cc2O)oc2cc(O)cc(O)c12
REMARK SMILES IDX 5 1 3 2 2 3 1 4 22 5 20 6 19 7 17 8 16 9 15 10 14 11 6 12
REMARK SMILES IDX 8 13 7 14 9 15 11 16 12 17 10 18 13 20 4 22 21 24 18 26
REMARK H PARENT 10 19 13 21 4 23 21 25 18 27
REMARK Flexibility Score: inf
ROOT
ATOM      1  C   UNL     1      16.379  23.147  40.665  1.00  0.00     0.184 A 
ATOM      2  C   UNL     1      16.851  23.966  39.627  1.00  0.00     0.208 A 
ATOM      3  C   UNL     1      18.009  23.582  38.932  1.00  0.00     0.238 A 
ATOM      4  O   UNL     1      18.397  24.291  37.967  1.00  0.00    -0.285 OA
ATOM      5  C   UNL     1      18.687  22.393  39.296  1.00  0.00     0.111 A 
ATOM      6  C   UNL     1      19.892  21.929  38.687  1.00  0.00     0.134 A 
ATOM      7  C   UNL     1      20.404  20.674  39.040  1.00  0.00     0.093 A 
ATOM      8  C   UNL     1      19.791  19.897  40.025  1.00  0.00     0.123 A 
ATOM      9  C   UNL     1      18.648  20.367  40.667  1.00  0.00     0.094 A 
ATOM     10  C   UNL     1      18.093  21.599  40.312  1.00  0.00     0.146 A 
ATOM     11  O   UNL     1      16.996  22.006  40.941  1.00  0.00    -0.451 OA
ENDROOT
BRANCH   1  12
ATOM     12  C   UNL     1      15.175  23.502  41.447  1.00  0.00     0.063 A 
ATOM     13  C   UNL     1      13.065  24.703  41.582  1.00  0.00     0.047 A 
ATOM     14  C   UNL     1      14.217  24.352  40.873  1.00  0.00     0.020 A 
ATOM     15  C   UNL     1      12.849  24.197  42.866  1.00  0.00     0.119 A 
ATOM     16  C   UNL     1      13.788  23.329  43.439  1.00  0.00     0.093 A 
ATOM     17  C   UNL     1      14.944  22.968  42.732  1.00  0.00     0.130 A 
BRANCH  15  18
ATOM     18  O   UNL     1      11.698  24.558  43.563  1.00  0.00    -0.508 OA
ATOM     19  H   UNL     1      11.661  25.400  44.125  1.00  0.00     0.293 HD
ENDBRANCH  15  18
BRANCH  17  20
ATOM     20  O   UNL     1      15.847  22.065  43.293  1.00  0.00    -0.507 OA
ATOM     21  H   UNL     1      15.537  21.297  43.877  1.00  0.00     0.293 HD
ENDBRANCH  17  20
ENDBRANCH   1  12
BRANCH   2  22
ATOM     22  O   UNL     1      16.151  25.123  39.276  1.00  0.00    -0.502 OA
ATOM     23  H   UNL     1      15.760  25.753  39.966  1.00  0.00     0.293 HD
ENDBRANCH   2  22
BRANCH   6  24
ATOM     24  O   UNL     1      20.632  22.667  37.760  1.00  0.00    -0.507 OA
ATOM     25  H   UNL     1      20.237  23.175  36.981  1.00  0.00     0.293 HD
ENDBRANCH   6  24
BRANCH   8  26
ATOM     26  O   UNL     1      20.317  18.657  40.381  1.00  0.00    -0.508 OA
ATOM     27  H   UNL     1      20.844  18.530  41.237  1.00  0.00     0.293 HD
ENDBRANCH   8  26
TORSDOF 6
ENDMDL
MODEL 5
REMARK VINA RESULT:    -6.460      2.370      7.150
REMARK INTER + INTRA:          -7.449
REMARK INTER:                  -7.046
REMARK INTRA:                  -0.402
REMARK UNBOUND:                 0.334
REMARK SMILES O=c1c(O)c(-c2ccc(O)cc2O)oc2cc(O)cc(O)c12
REMARK SMILES IDX 5 1 3 2 2 3 1 4 22 5 20 6 19 7 17 8 16 9 15 10 14 11 6 12
REMARK SMILES IDX 8 13 7 14 9 15 11 16 12 17 10 18 13 20 4 22 21 24 18 26
REMARK H PARENT 10 19 13 21 4 23 21 25 18 27
REMARK Flexibility Score: inf
ROOT
ATOM      1  C   UNL     1      13.729  23.998  43.071  1.00  0.00     0.184 A 
ATOM      2  C   UNL     1      13.516  25.086  42.211  1.00  0.00     0.208 A 
ATOM      3  C   UNL     1      14.244  25.159  41.012  1.00  0.00     0.238 A 
ATOM      4  O   UNL     1      14.010  26.108  40.220  1.00  0.00    -0.285 OA
ATOM      5  C   UNL     1      15.187  24.150  40.699  1.00  0.00     0.111 A 
ATOM      6  C   UNL     1      16.009  24.143  39.533  1.00  0.00     0.134 A 
ATOM      7  C   UNL     1      16.814  23.030  39.262  1.00  0.00     0.093 A 
ATOM      8  C   UNL     1      16.874  21.952  40.148  1.00  0.00     0.123 A 
ATOM      9  C   UNL     1      16.119  21.975  41.318  1.00  0.00     0.094 A 
ATOM     10  C   UNL     1      15.281  23.055  41.599  1.00  0.00     0.146 A 
ATOM     11  O   UNL     1      14.570  23.033  42.721  1.00  0.00    -0.451 OA
ENDROOT
BRANCH   1  12
ATOM     12  C   UNL     1      13.007  23.869  44.354  1.00  0.00     0.063 A 
ATOM     13  C   UNL     1      12.927  24.305  46.745  1.00  0.00     0.047 A 
ATOM     14  C   UNL     1      13.585  24.404  45.516  1.00  0.00     0.020 A 
ATOM     15  C   UNL     1      11.678  23.684  46.826  1.00  0.00     0.119 A 
ATOM     16  C   UNL     1      11.082  23.168  45.667  1.00  0.00     0.093 A 
ATOM     17  C   UNL     1      11.733  23.268  44.429  1.00  0.00     0.130 A 
BRANCH  15  18
ATOM     18  O   UNL     1      11.035  23.590  48.058  1.00  0.00    -0.508 OA
ATOM     19  H   UNL     1      10.152  23.103  48.158  1.00  0.00     0.293 HD
ENDBRANCH  15  18
BRANCH  17  20
ATOM     20  O   UNL     1      11.108  22.795  43.276  1.00  0.00    -0.507 OA
ATOM     21  H   UNL     1      10.620  21.907  43.262  1.00  0.00     0.293 HD
ENDBRANCH  17  20
ENDBRANCH   1  12
BRANCH   2  22
ATOM     22  O   UNL     1      12.564  26.058  42.535  1.00  0.00    -0.502 OA
ATOM     23  H   UNL     1      11.569  25.871  42.518  1.00  0.00     0.293 HD
ENDBRANCH   2  22
BRANCH   6  24
ATOM     24  O   UNL     1      16.094  25.208  38.631  1.00  0.00    -0.507 OA
ATOM     25  H   UNL     1      16.494  25.148  37.706  1.00  0.00     0.293 HD
ENDBRANCH   6  24
BRANCH   8  26
ATOM     26  O   UNL     1      17.689  20.854  39.878  1.00  0.00    -0.508 OA
ATOM     27  H   UNL     1      17.413  20.140  39.213  1.00  0.00     0.293 HD
ENDBRANCH   8  26
TORSDOF 6
ENDMDL
MODEL 6
REMARK VINA RESULT:    -6.393      1.478      6.891
REMARK INTER + INTRA:          -7.368
REMARK INTER:                  -7.035
REMARK INTRA:                  -0.332
REMARK UNBOUND:                 0.334
REMARK SMILES O=c1c(O)c(-c2ccc(O)cc2O)oc2cc(O)cc(O)c12
REMARK SMILES IDX 5 1 3 2 2 3 1 4 22 5 20 6 19 7 17 8 16 9 15 10 14 11 6 12
REMARK SMILES IDX 8 13 7 14 9 15 11 16 12 17 10 18 13 20 4 22 21 24 18 26
REMARK H PARENT 10 19 13 21 4 23 21 25 18 27
REMARK Flexibility Score: inf
ROOT
ATOM      1  C   UNL     1      17.080  22.211  40.869  1.00  0.00     0.184 A 
ATOM      2  C   UNL     1      17.230  20.828  40.681  1.00  0.00     0.208 A 
ATOM      3  C   UNL     1      18.434  20.341  40.149  1.00  0.00     0.238 A 
ATOM      4  O   UNL     1      18.585  19.097  40.032  1.00  0.00    -0.285 OA
ATOM      5  C   UNL     1      19.465  21.246  39.796  1.00  0.00     0.111 A 
ATOM      6  C   UNL     1      20.711  20.868  39.211  1.00  0.00     0.134 A 
ATOM      7  C   UNL     1      21.707  21.834  39.023  1.00  0.00     0.093 A 
ATOM      8  C   UNL     1      21.478  23.175  39.339  1.00  0.00     0.123 A 
ATOM      9  C   UNL     1      20.245  23.564  39.856  1.00  0.00     0.094 A 
ATOM     10  C   UNL     1      19.244  22.618  40.088  1.00  0.00     0.146 A 
ATOM     11  O   UNL     1      18.086  23.030  40.592  1.00  0.00    -0.451 OA
ENDROOT
BRANCH   1  12
ATOM     12  C   UNL     1      15.832  22.789  41.411  1.00  0.00     0.063 A 
ATOM     13  C   UNL     1      14.258  22.977  43.255  1.00  0.00     0.047 A 
ATOM     14  C   UNL     1      15.429  22.444  42.711  1.00  0.00     0.020 A 
ATOM     15  C   UNL     1      13.483  23.872  42.514  1.00  0.00     0.119 A 
ATOM     16  C   UNL     1      13.888  24.242  41.225  1.00  0.00     0.093 A 
ATOM     17  C   UNL     1      15.065  23.716  40.673  1.00  0.00     0.130 A 
BRANCH  15  18
ATOM     18  O   UNL     1      12.316  24.393  43.069  1.00  0.00    -0.508 OA
ATOM     19  H   UNL     1      11.579  23.791  43.416  1.00  0.00     0.293 HD
ENDBRANCH  15  18
BRANCH  17  20
ATOM     20  O   UNL     1      15.484  24.129  39.408  1.00  0.00    -0.507 OA
ATOM     21  H   UNL     1      15.708  23.463  38.679  1.00  0.00     0.293 HD
ENDBRANCH  17  20
ENDBRANCH   1  12
BRANCH   2  22
ATOM     22  O   UNL     1      16.204  19.955  41.056  1.00  0.00    -0.502 OA
ATOM     23  H   UNL     1      16.386  19.027  41.420  1.00  0.00     0.293 HD
ENDBRANCH   2  22
BRANCH   6  24
ATOM     24  O   UNL     1      21.007  19.573  38.774  1.00  0.00    -0.507 OA
ATOM     25  H   UNL     1      20.919  19.254  37.820  1.00  0.00     0.293 HD
ENDBRANCH   6  24
BRANCH   8  26
ATOM     26  O   UNL     1      22.470  24.132  39.134  1.00  0.00    -0.508 OA
ATOM     27  H   UNL     1      22.253  25.122  39.106  1.00  0.00     0.293 HD
ENDBRANCH   8  26
TORSDOF 6
ENDMDL
MODEL 7
REMARK VINA RESULT:    -5.932     13.318     16.868
REMARK INTER + INTRA:          -6.812
REMARK INTER:                  -6.533
REMARK INTRA:                  -0.279
REMARK UNBOUND:                 0.334
REMARK SMILES O=c1c(O)c(-c2ccc(O)cc2O)oc2cc(O)cc(O)c12
REMARK SMILES IDX 5 1 3 2 2 3 1 4 22 5 20 6 19 7 17 8 16 9 15 10 14 11 6 12
REMARK SMILES IDX 8 13 7 14 9 15 11 16 12 17 10 18 13 20 4 22 21 24 18 26
REMARK H PARENT 10 19 13 21 4 23 21 25 18 27
REMARK Flexibility Score: inf
ROOT
ATOM      1  C   UNL     1      28.932  10.547  37.389  1.00  0.00     0.184 A 
ATOM      2  C   UNL     1      29.734  11.401  36.615  1.00  0.00     0.208 A 
ATOM      3  C   UNL     1      29.122  12.434  35.887  1.00  0.00     0.238 A 
ATOM      4  O   UNL     1      29.851  13.229  35.238  1.00  0.00    -0.285 OA
ATOM      5  C   UNL     1      27.715  12.588  35.930  1.00  0.00     0.111 A 
ATOM      6  C   UNL     1      26.985  13.574  35.201  1.00  0.00     0.134 A 
ATOM      7  C   UNL     1      25.609  13.717  35.420  1.00  0.00     0.093 A 
ATOM      8  C   UNL     1      24.927  12.867  36.293  1.00  0.00     0.123 A 
ATOM      9  C   UNL     1      25.620  11.864  36.966  1.00  0.00     0.094 A 
ATOM     10  C   UNL     1      26.999  11.719  36.795  1.00  0.00     0.146 A 
ATOM     11  O   UNL     1      27.624  10.756  37.463  1.00  0.00    -0.451 OA
ENDROOT
BRANCH   1  12
ATOM     12  C   UNL     1      29.511   9.431  38.166  1.00  0.00     0.063 A 
ATOM     13  C   UNL     1      29.766   7.034  38.483  1.00  0.00     0.047 A 
ATOM     14  C   UNL     1      29.230   8.112  37.775  1.00  0.00     0.020 A 
ATOM     15  C   UNL     1      30.599   7.259  39.582  1.00  0.00     0.119 A 
ATOM     16  C   UNL     1      30.905   8.571  39.965  1.00  0.00     0.093 A 
ATOM     17  C   UNL     1      30.376   9.659  39.256  1.00  0.00     0.130 A 
BRANCH  15  18
ATOM     18  O   UNL     1      31.124   6.174  40.281  1.00  0.00    -0.508 OA
ATOM     19  H   UNL     1      30.797   5.935  41.210  1.00  0.00     0.293 HD
ENDBRANCH  15  18
BRANCH  17  20
ATOM     20  O   UNL     1      30.727  10.960  39.618  1.00  0.00    -0.507 OA
ATOM     21  H   UNL     1      31.214  11.158  40.484  1.00  0.00     0.293 HD
ENDBRANCH  17  20
ENDBRANCH   1  12
BRANCH   2  22
ATOM     22  O   UNL     1      31.122  11.239  36.606  1.00  0.00    -0.502 OA
ATOM     23  H   UNL     1      31.588  10.512  37.136  1.00  0.00     0.293 HD
ENDBRANCH   2  22
BRANCH   6  24
ATOM     24  O   UNL     1      27.554  14.412  34.237  1.00  0.00    -0.507 OA
ATOM     25  H   UNL     1      27.645  15.413  34.327  1.00  0.00     0.293 HD
ENDBRANCH   6  24
BRANCH   8  26
ATOM     26  O   UNL     1      23.555  13.006  36.494  1.00  0.00    -0.508 OA
ATOM     27  H   UNL     1      22.892  12.355  36.089  1.00  0.00     0.293 HD
ENDBRANCH   8  26
TORSDOF 6
ENDMDL
MODEL 8
REMARK VINA RESULT:    -5.894     14.879     18.203
REMARK INTER + INTRA:          -6.766
REMARK INTER:                  -6.349
REMARK INTRA:                  -0.418
REMARK UNBOUND:                 0.334
REMARK SMILES O=c1c(O)c(-c2ccc(O)cc2O)oc2cc(O)cc(O)c12
REMARK SMILES IDX 5 1 3 2 2 3 1 4 22 5 20 6 19 7 17 8 16 9 15 10 14 11 6 12
REMARK SMILES IDX 8 13 7 14 9 15 11 16 12 17 10 18 13 20 4 22 21 24 18 26
REMARK H PARENT 10 19 13 21 4 23 21 25 18 27
REMARK Flexibility Score: inf
ROOT
ATOM      1  C   UNL     1      29.830  11.786  37.611  1.00  0.00     0.184 A 
ATOM      2  C   UNL     1      30.279  12.235  38.863  1.00  0.00     0.208 A 
ATOM      3  C   UNL     1      30.641  11.288  39.835  1.00  0.00     0.238 A 
ATOM      4  O   UNL     1      31.093  11.696  40.936  1.00  0.00    -0.285 OA
ATOM      5  C   UNL     1      30.532   9.906  39.546  1.00  0.00     0.111 A 
ATOM      6  C   UNL     1      30.833   8.860  40.469  1.00  0.00     0.134 A 
ATOM      7  C   UNL     1      30.813   7.529  40.034  1.00  0.00     0.093 A 
ATOM      8  C   UNL     1      30.442   7.204  38.727  1.00  0.00     0.123 A 
ATOM      9  C   UNL     1      30.091   8.214  37.835  1.00  0.00     0.094 A 
ATOM     10  C   UNL     1      30.134   9.553  38.229  1.00  0.00     0.146 A 
ATOM     11  O   UNL     1      29.802  10.487  37.345  1.00  0.00    -0.451 OA
ENDROOT
BRANCH   1  12
ATOM     12  C   UNL     1      29.420  12.730  36.550  1.00  0.00     0.063 A 
ATOM     13  C   UNL     1      30.006  14.010  34.568  1.00  0.00     0.047 A 
ATOM     14  C   UNL     1      30.363  13.125  35.588  1.00  0.00     0.020 A 
ATOM     15  C   UNL     1      28.701  14.501  34.487  1.00  0.00     0.119 A 
ATOM     16  C   UNL     1      27.746  14.095  35.428  1.00  0.00     0.093 A 
ATOM     17  C   UNL     1      28.094  13.201  36.452  1.00  0.00     0.130 A 
BRANCH  15  18
ATOM     18  O   UNL     1      28.360  15.386  33.467  1.00  0.00    -0.508 OA
ATOM     19  H   UNL     1      28.689  15.253  32.518  1.00  0.00     0.293 HD
ENDBRANCH  15  18
BRANCH  17  20
ATOM     20  O   UNL     1      27.122  12.766  37.354  1.00  0.00    -0.507 OA
ATOM     21  H   UNL     1      26.481  12.017  37.123  1.00  0.00     0.293 HD
ENDBRANCH  17  20
ENDBRANCH   1  12
BRANCH   2  22
ATOM     22  O   UNL     1      30.395  13.605  39.115  1.00  0.00    -0.502 OA
ATOM     23  H   UNL     1      29.718  14.115  39.670  1.00  0.00     0.293 HD
ENDBRANCH   2  22
BRANCH   6  24
ATOM     24  O   UNL     1      31.125   9.070  41.820  1.00  0.00    -0.507 OA
ATOM     25  H   UNL     1      31.957   9.527  42.163  1.00  0.00     0.293 HD
ENDBRANCH   6  24
BRANCH   8  26
ATOM     26  O   UNL     1      30.411   5.876  38.307  1.00  0.00    -0.508 OA
ATOM     27  H   UNL     1      30.101   5.132  38.923  1.00  0.00     0.293 HD
ENDBRANCH   8  26
TORSDOF 6
ENDMDL
MODEL 9
REMARK VINA RESULT:    -5.799     14.909     17.979
REMARK INTER + INTRA:          -6.652
REMARK INTER:                  -6.224
REMARK INTRA:                  -0.428
REMARK UNBOUND:                 0.334
REMARK SMILES O=c1c(O)c(-c2ccc(O)cc2O)oc2cc(O)cc(O)c12
REMARK SMILES IDX 5 1 3 2 2 3 1 4 22 5 20 6 19 7 17 8 16 9 15 10 14 11 6 12
REMARK SMILES IDX 8 13 7 14 9 15 11 16 12 17 10 18 13 20 4 22 21 24 18 26
REMARK H PARENT 10 19 13 21 4 23 21 25 18 27
REMARK Flexibility Score: inf
ROOT
ATOM      1  C   UNL     1      29.729  11.560  37.386  1.00  0.00     0.184 A 
ATOM      2  C   UNL     1      29.749  10.193  37.067  1.00  0.00     0.208 A 
ATOM      3  C   UNL     1      30.104   9.268  38.062  1.00  0.00     0.238 A 
ATOM      4  O   UNL     1      30.067   8.040  37.787  1.00  0.00    -0.285 OA
ATOM      5  C   UNL     1      30.450   9.725  39.357  1.00  0.00     0.111 A 
ATOM      6  C   UNL     1      30.864   8.881  40.431  1.00  0.00     0.134 A 
ATOM      7  C   UNL     1      31.058   9.428  41.705  1.00  0.00     0.093 A 
ATOM      8  C   UNL     1      30.914  10.799  41.929  1.00  0.00     0.123 A 
ATOM      9  C   UNL     1      30.567  11.641  40.874  1.00  0.00     0.094 A 
ATOM     10  C   UNL     1      30.334  11.120  39.600  1.00  0.00     0.146 A 
ATOM     11  O   UNL     1      29.994  11.955  38.624  1.00  0.00    -0.451 OA
ENDROOT
BRANCH   1  12
ATOM     12  C   UNL     1      29.381  12.586  36.381  1.00  0.00     0.063 A 
ATOM     13  C   UNL     1      30.033  13.902  34.442  1.00  0.00     0.047 A 
ATOM     14  C   UNL     1      30.332  12.940  35.410  1.00  0.00     0.020 A 
ATOM     15  C   UNL     1      28.776  14.512  34.423  1.00  0.00     0.119 A 
ATOM     16  C   UNL     1      27.812  14.149  35.372  1.00  0.00     0.093 A 
ATOM     17  C   UNL     1      28.102  13.180  36.344  1.00  0.00     0.130 A 
BRANCH  15  18
ATOM     18  O   UNL     1      28.493  15.472  33.454  1.00  0.00    -0.508 OA
ATOM     19  H   UNL     1      27.820  15.299  32.717  1.00  0.00     0.293 HD
ENDBRANCH  15  18
BRANCH  17  20
ATOM     20  O   UNL     1      27.117  12.793  37.253  1.00  0.00    -0.507 OA
ATOM     21  H   UNL     1      26.170  13.147  37.194  1.00  0.00     0.293 HD
ENDBRANCH  17  20
ENDBRANCH   1  12
BRANCH   2  22
ATOM     22  O   UNL     1      29.384   9.768  35.787  1.00  0.00    -0.502 OA
ATOM     23  H   UNL     1      29.867  10.079  34.952  1.00  0.00     0.293 HD
ENDBRANCH   2  22
BRANCH   6  24
ATOM     24  O   UNL     1      31.125   7.514  40.293  1.00  0.00    -0.507 OA
ATOM     25  H   UNL     1      32.043   7.114  40.168  1.00  0.00     0.293 HD
ENDBRANCH   6  24
BRANCH   8  26
ATOM     26  O   UNL     1      31.124  11.338  43.196  1.00  0.00    -0.508 OA
ATOM     27  H   UNL     1      31.838  12.040  43.363  1.00  0.00     0.293 HD
ENDBRANCH   8  26
TORSDOF 6
ENDMDL
