MODEL 1
REMARK VINA RESULT:    -4.749      0.000      0.000
REMARK INTER + INTRA:          -5.830
REMARK INTER:                  -5.582
REMARK INTRA:                  -0.249
REMARK UNBOUND:                -0.249
REMARK SMILES O=c1c(O)c(-c2ccc(O)cc2)oc2cc(O)cc(O)c12
REMARK SMILES IDX 5 1 3 2 2 3 1 4 21 5 19 6 18 7 16 8 15 9 14 10 13 11 6 12
REMARK SMILES IDX 7 13 8 14 9 15 12 16 11 17 10 18 4 20 20 22 17 24
REMARK H PARENT 10 19 4 21 20 23 17 25
REMARK Flexibility Score: inf
ROOT
ATOM      1  C   UNL     1     174.167 170.659 154.257  1.00  0.00     0.180 A 
ATOM      2  C   UNL     1     175.285 170.326 155.045  1.00  0.00     0.208 A 
ATOM      3  C   UNL     1     175.523 168.977 155.350  1.00  0.00     0.238 A 
ATOM      4  O   UNL     1     176.528 168.666 156.046  1.00  0.00    -0.285 OA
ATOM      5  C   UNL     1     174.633 167.989 154.881  1.00  0.00     0.111 A 
ATOM      6  C   UNL     1     174.799 166.608 155.147  1.00  0.00     0.134 A 
ATOM      7  C   UNL     1     173.863 165.687 154.652  1.00  0.00     0.093 A 
ATOM      8  C   UNL     1     172.769 166.119 153.899  1.00  0.00     0.123 A 
ATOM      9  C   UNL     1     172.600 167.481 153.633  1.00  0.00     0.094 A 
ATOM     10  C   UNL     1     173.522 168.415 154.116  1.00  0.00     0.146 A 
ATOM     11  O   UNL     1     173.340 169.702 153.844  1.00  0.00    -0.452 OA
ENDROOT
BRANCH   1  12
ATOM     12  C   UNL     1     173.859 172.056 153.877  1.00  0.00     0.021 A 
ATOM     13  C   UNL     1     172.881 172.804 154.559  1.00  0.00     0.016 A 
ATOM     14  C   UNL     1     172.626 174.130 154.197  1.00  0.00     0.047 A 
ATOM     15  C   UNL     1     173.349 174.730 153.161  1.00  0.00     0.115 A 
ATOM     16  C   UNL     1     174.597 172.673 152.851  1.00  0.00     0.016 A 
ATOM     17  C   UNL     1     174.337 173.998 152.490  1.00  0.00     0.047 A 
BRANCH  15  18
ATOM     18  O   UNL     1     173.081 176.051 152.811  1.00  0.00    -0.508 OA
ATOM     19  H   UNL     1     173.462 176.826 153.343  1.00  0.00     0.293 HD
ENDBRANCH  15  18
ENDBRANCH   1  12
BRANCH   2  20
ATOM     20  O   UNL     1     176.124 171.329 155.539  1.00  0.00    -0.502 OA
ATOM     21  H   UNL     1     176.158 171.571 156.522  1.00  0.00     0.293 HD
ENDBRANCH   2  20
BRANCH   6  22
ATOM     22  O   UNL     1     175.882 166.146 155.896  1.00  0.00    -0.507 OA
ATOM     23  H   UNL     1     176.203 165.187 155.833  1.00  0.00     0.293 HD
ENDBRANCH   6  22
BRANCH   8  24
ATOM     24  O   UNL     1     171.854 165.183 153.420  1.00  0.00    -0.508 OA
ATOM     25  H   UNL     1     171.947 164.775 152.497  1.00  0.00     0.293 HD
ENDBRANCH   8  24
TORSDOF 5
ENDMDL
MODEL 2
REMARK VINA RESULT:    -4.745      5.100      7.537
REMARK INTER + INTRA:          -5.826
REMARK INTER:                  -5.550
REMARK INTRA:                  -0.276
REMARK UNBOUND:                -0.249
REMARK SMILES O=c1c(O)c(-c2ccc(O)cc2)oc2cc(O)cc(O)c12
REMARK SMILES IDX 5 1 3 2 2 3 1 4 21 5 19 6 18 7 16 8 15 9 14 10 13 11 6 12
REMARK SMILES IDX 7 13 8 14 9 15 12 16 11 17 10 18 4 20 20 22 17 24
REMARK H PARENT 10 19 4 21 20 23 17 25
REMARK Flexibility Score: inf
ROOT
ATOM      1  C   UNL     1     177.510 174.184 154.288  1.00  0.00     0.180 A 
ATOM      2  C   UNL     1     177.879 175.287 155.080  1.00  0.00     0.208 A 
ATOM      3  C   UNL     1     179.236 175.482 155.383  1.00  0.00     0.238 A 
ATOM      4  O   UNL     1     179.578 176.474 156.083  1.00  0.00    -0.285 OA
ATOM      5  C   UNL     1     180.194 174.564 154.909  1.00  0.00     0.111 A 
ATOM      6  C   UNL     1     181.580 174.685 155.173  1.00  0.00     0.134 A 
ATOM      7  C   UNL     1     182.470 173.723 154.672  1.00  0.00     0.093 A 
ATOM      8  C   UNL     1     182.004 172.646 153.916  1.00  0.00     0.123 A 
ATOM      9  C   UNL     1     180.636 172.520 153.652  1.00  0.00     0.094 A 
ATOM     10  C   UNL     1     179.733 173.469 154.140  1.00  0.00     0.146 A 
ATOM     11  O   UNL     1     178.440 173.329 153.870  1.00  0.00    -0.452 OA
ENDROOT
BRANCH   1  12
ATOM     12  C   UNL     1     176.103 173.921 153.908  1.00  0.00     0.021 A 
ATOM     13  C   UNL     1     175.485 174.619 152.853  1.00  0.00     0.016 A 
ATOM     14  C   UNL     1     174.163 174.335 152.499  1.00  0.00     0.047 A 
ATOM     15  C   UNL     1     173.445 173.349 153.182  1.00  0.00     0.115 A 
ATOM     16  C   UNL     1     175.383 172.916 154.576  1.00  0.00     0.016 A 
ATOM     17  C   UNL     1     174.060 172.637 154.220  1.00  0.00     0.047 A 
BRANCH  15  18
ATOM     18  O   UNL     1     172.128 173.080 152.817  1.00  0.00    -0.508 OA
ATOM     19  H   UNL     1     171.660 172.232 153.115  1.00  0.00     0.293 HD
ENDBRANCH  15  18
ENDBRANCH   1  12
BRANCH   2  20
ATOM     20  O   UNL     1     176.903 176.155 155.579  1.00  0.00    -0.502 OA
ATOM     21  H   UNL     1     177.043 176.701 156.421  1.00  0.00     0.293 HD
ENDBRANCH   2  20
BRANCH   6  22
ATOM     22  O   UNL     1     182.077 175.750 155.926  1.00  0.00    -0.507 OA
ATOM     23  H   UNL     1     182.622 175.599 156.767  1.00  0.00     0.293 HD
ENDBRANCH   6  22
BRANCH   8  24
ATOM     24  O   UNL     1     182.910 171.704 153.432  1.00  0.00    -0.508 OA
ATOM     25  H   UNL     1     183.312 170.997 154.036  1.00  0.00     0.293 HD
ENDBRANCH   8  24
TORSDOF 5
ENDMDL
MODEL 3
REMARK VINA RESULT:    -4.730      5.076      7.481
REMARK INTER + INTRA:          -5.808
REMARK INTER:                  -5.558
REMARK INTRA:                  -0.250
REMARK UNBOUND:                -0.249
REMARK SMILES O=c1c(O)c(-c2ccc(O)cc2)oc2cc(O)cc(O)c12
REMARK SMILES IDX 5 1 3 2 2 3 1 4 21 5 19 6 18 7 16 8 15 9 14 10 13 11 6 12
REMARK SMILES IDX 7 13 8 14 9 15 12 16 11 17 10 18 4 20 20 22 17 24
REMARK H PARENT 10 19 4 21 20 23 17 25
REMARK Flexibility Score: inf
ROOT
ATOM      1  C   UNL     1     170.696 173.951 154.317  1.00  0.00     0.180 A 
ATOM      2  C   UNL     1     170.385 172.832 155.112  1.00  0.00     0.208 A 
ATOM      3  C   UNL     1     169.042 172.584 155.439  1.00  0.00     0.238 A 
ATOM      4  O   UNL     1     168.751 171.578 156.142  1.00  0.00    -0.285 OA
ATOM      5  C   UNL     1     168.040 173.466 154.986  1.00  0.00     0.111 A 
ATOM      6  C   UNL     1     166.665 173.291 155.274  1.00  0.00     0.134 A 
ATOM      7  C   UNL     1     165.730 174.219 154.793  1.00  0.00     0.093 A 
ATOM      8  C   UNL     1     166.140 175.315 154.032  1.00  0.00     0.123 A 
ATOM      9  C   UNL     1     167.497 175.494 153.744  1.00  0.00     0.094 A 
ATOM     10  C   UNL     1     168.445 174.579 154.212  1.00  0.00     0.146 A 
ATOM     11  O   UNL     1     169.726 174.770 153.919  1.00  0.00    -0.452 OA
ENDROOT
BRANCH   1  12
ATOM     12  C   UNL     1     172.085 174.269 153.913  1.00  0.00     0.021 A 
ATOM     13  C   UNL     1     172.837 175.252 154.583  1.00  0.00     0.016 A 
ATOM     14  C   UNL     1     174.155 175.516 154.199  1.00  0.00     0.047 A 
ATOM     15  C   UNL     1     174.742 174.799 153.152  1.00  0.00     0.115 A 
ATOM     16  C   UNL     1     172.689 173.537 152.876  1.00  0.00     0.016 A 
ATOM     17  C   UNL     1     174.006 173.805 152.493  1.00  0.00     0.047 A 
BRANCH  15  18
ATOM     18  O   UNL     1     176.055 175.075 152.780  1.00  0.00    -0.508 OA
ATOM     19  H   UNL     1     176.828 174.928 153.420  1.00  0.00     0.293 HD
ENDBRANCH  15  18
ENDBRANCH   1  12
BRANCH   2  20
ATOM     20  O   UNL     1     171.402 172.001 155.590  1.00  0.00    -0.502 OA
ATOM     21  H   UNL     1     171.252 171.019 155.787  1.00  0.00     0.293 HD
ENDBRANCH   2  20
BRANCH   6  22
ATOM     22  O   UNL     1     166.224 172.205 156.033  1.00  0.00    -0.507 OA
ATOM     23  H   UNL     1     166.869 171.626 156.559  1.00  0.00     0.293 HD
ENDBRANCH   6  22
BRANCH   8  24
ATOM     24  O   UNL     1     165.190 176.223 153.568  1.00  0.00    -0.508 OA
ATOM     25  H   UNL     1     165.461 177.098 153.136  1.00  0.00     0.293 HD
ENDBRANCH   8  24
TORSDOF 5
ENDMDL
MODEL 4
REMARK VINA RESULT:    -4.726      4.846     10.645
REMARK INTER + INTRA:          -5.804
REMARK INTER:                  -5.545
REMARK INTRA:                  -0.258
REMARK UNBOUND:                -0.249
REMARK SMILES O=c1c(O)c(-c2ccc(O)cc2)oc2cc(O)cc(O)c12
REMARK SMILES IDX 5 1 3 2 2 3 1 4 21 5 19 6 18 7 16 8 15 9 14 10 13 11 6 12
REMARK SMILES IDX 7 13 8 14 9 15 12 16 11 17 10 18 4 20 20 22 17 24
REMARK H PARENT 10 19 4 21 20 23 17 25
REMARK Flexibility Score: inf
ROOT
ATOM      1  C   UNL     1     173.962 177.475 154.302  1.00  0.00     0.180 A 
ATOM      2  C   UNL     1     172.838 177.787 155.088  1.00  0.00     0.208 A 
ATOM      3  C   UNL     1     172.583 179.131 155.406  1.00  0.00     0.238 A 
ATOM      4  O   UNL     1     171.572 179.423 156.101  1.00  0.00    -0.285 OA
ATOM      5  C   UNL     1     173.464 180.133 154.951  1.00  0.00     0.111 A 
ATOM      6  C   UNL     1     173.282 181.509 155.230  1.00  0.00     0.134 A 
ATOM      7  C   UNL     1     174.209 182.445 154.748  1.00  0.00     0.093 A 
ATOM      8  C   UNL     1     175.312 182.033 153.996  1.00  0.00     0.123 A 
ATOM      9  C   UNL     1     175.497 180.675 153.717  1.00  0.00     0.094 A 
ATOM     10  C   UNL     1     174.583 179.727 154.186  1.00  0.00     0.146 A 
ATOM     11  O   UNL     1     174.780 178.445 153.903  1.00  0.00    -0.452 OA
ENDROOT
BRANCH   1  12
ATOM     12  C   UNL     1     174.287 176.084 153.909  1.00  0.00     0.021 A 
ATOM     13  C   UNL     1     175.248 175.330 154.608  1.00  0.00     0.016 A 
ATOM     14  C   UNL     1     175.520 174.011 154.232  1.00  0.00     0.047 A 
ATOM     15  C   UNL     1     174.830 173.425 153.167  1.00  0.00     0.115 A 
ATOM     16  C   UNL     1     173.582 175.481 152.853  1.00  0.00     0.016 A 
ATOM     17  C   UNL     1     173.858 174.163 152.480  1.00  0.00     0.047 A 
BRANCH  15  18
ATOM     18  O   UNL     1     175.113 172.110 152.804  1.00  0.00    -0.508 OA
ATOM     19  H   UNL     1     175.995 171.673 153.047  1.00  0.00     0.293 HD
ENDBRANCH  15  18
ENDBRANCH   1  12
BRANCH   2  20
ATOM     20  O   UNL     1     172.007 176.770 155.569  1.00  0.00    -0.502 OA
ATOM     21  H   UNL     1     171.169 176.962 156.103  1.00  0.00     0.293 HD
ENDBRANCH   2  20
BRANCH   6  22
ATOM     22  O   UNL     1     172.191 181.951 155.979  1.00  0.00    -0.507 OA
ATOM     23  H   UNL     1     171.241 181.880 155.631  1.00  0.00     0.293 HD
ENDBRANCH   6  22
BRANCH   8  24
ATOM     24  O   UNL     1     176.219 182.984 153.531  1.00  0.00    -0.508 OA
ATOM     25  H   UNL     1     177.219 182.834 153.588  1.00  0.00     0.293 HD
ENDBRANCH   8  24
TORSDOF 5
ENDMDL
MODEL 5
REMARK VINA RESULT:    -4.549      4.750      7.472
REMARK INTER + INTRA:          -5.595
REMARK INTER:                  -5.325
REMARK INTRA:                  -0.270
REMARK UNBOUND:                -0.249
REMARK SMILES O=c1c(O)c(-c2ccc(O)cc2)oc2cc(O)cc(O)c12
REMARK SMILES IDX 5 1 3 2 2 3 1 4 21 5 19 6 18 7 16 8 15 9 14 10 13 11 6 12
REMARK SMILES IDX 7 13 8 14 9 15 12 16 11 17 10 18 4 20 20 22 17 24
REMARK H PARENT 10 19 4 21 20 23 17 25
REMARK Flexibility Score: inf
ROOT
ATOM      1  C   UNL     1     169.776 174.873 154.673  1.00  0.00     0.180 A 
ATOM      2  C   UNL     1     170.334 175.690 155.674  1.00  0.00     0.208 A 
ATOM      3  C   UNL     1     171.728 175.704 155.840  1.00  0.00     0.238 A 
ATOM      4  O   UNL     1     172.239 176.441 156.727  1.00  0.00    -0.285 OA
ATOM      5  C   UNL     1     172.536 174.890 155.021  1.00  0.00     0.111 A 
ATOM      6  C   UNL     1     173.947 174.842 155.126  1.00  0.00     0.134 A 
ATOM      7  C   UNL     1     174.680 173.998 154.279  1.00  0.00     0.093 A 
ATOM      8  C   UNL     1     174.031 173.202 153.332  1.00  0.00     0.123 A 
ATOM      9  C   UNL     1     172.637 173.245 153.223  1.00  0.00     0.094 A 
ATOM     10  C   UNL     1     171.889 174.081 154.056  1.00  0.00     0.146 A 
ATOM     11  O   UNL     1     170.568 174.106 153.929  1.00  0.00    -0.452 OA
ENDROOT
BRANCH   1  12
ATOM     12  C   UNL     1     168.318 174.818 154.423  1.00  0.00     0.021 A 
ATOM     13  C   UNL     1     167.515 173.805 154.981  1.00  0.00     0.016 A 
ATOM     14  C   UNL     1     166.137 173.789 154.750  1.00  0.00     0.047 A 
ATOM     15  C   UNL     1     165.540 174.786 153.973  1.00  0.00     0.115 A 
ATOM     16  C   UNL     1     167.708 175.829 153.661  1.00  0.00     0.016 A 
ATOM     17  C   UNL     1     166.329 175.809 153.431  1.00  0.00     0.047 A 
BRANCH  15  18
ATOM     18  O   UNL     1     164.165 174.755 153.751  1.00  0.00    -0.508 OA
ATOM     19  H   UNL     1     163.686 173.891 153.524  1.00  0.00     0.293 HD
ENDBRANCH  15  18
ENDBRANCH   1  12
BRANCH   2  20
ATOM     20  O   UNL     1     169.508 176.451 156.507  1.00  0.00    -0.502 OA
ATOM     21  H   UNL     1     168.581 176.747 156.226  1.00  0.00     0.293 HD
ENDBRANCH   2  20
BRANCH   6  22
ATOM     22  O   UNL     1     174.623 175.625 156.063  1.00  0.00    -0.507 OA
ATOM     23  H   UNL     1     174.213 176.468 156.449  1.00  0.00     0.293 HD
ENDBRANCH   6  22
BRANCH   8  24
ATOM     24  O   UNL     1     174.783 172.371 152.503  1.00  0.00    -0.508 OA
ATOM     25  H   UNL     1     174.357 171.857 151.741  1.00  0.00     0.293 HD
ENDBRANCH   8  24
TORSDOF 5
ENDMDL
MODEL 6
REMARK VINA RESULT:    -4.548      4.799      7.720
REMARK INTER + INTRA:          -5.594
REMARK INTER:                  -5.329
REMARK INTRA:                  -0.265
REMARK UNBOUND:                -0.249
REMARK SMILES O=c1c(O)c(-c2ccc(O)cc2)oc2cc(O)cc(O)c12
REMARK SMILES IDX 5 1 3 2 2 3 1 4 21 5 19 6 18 7 16 8 15 9 14 10 13 11 6 12
REMARK SMILES IDX 7 13 8 14 9 15 12 16 11 17 10 18 4 20 20 22 17 24
REMARK H PARENT 10 19 4 21 20 23 17 25
REMARK Flexibility Score: inf
ROOT
ATOM      1  C   UNL     1     174.835 178.295 154.659  1.00  0.00     0.180 A 
ATOM      2  C   UNL     1     175.660 177.748 155.660  1.00  0.00     0.208 A 
ATOM      3  C   UNL     1     175.685 176.355 155.833  1.00  0.00     0.238 A 
ATOM      4  O   UNL     1     176.429 175.854 156.719  1.00  0.00    -0.285 OA
ATOM      5  C   UNL     1     174.873 175.538 155.020  1.00  0.00     0.111 A 
ATOM      6  C   UNL     1     174.837 174.126 155.133  1.00  0.00     0.134 A 
ATOM      7  C   UNL     1     173.995 173.383 154.292  1.00  0.00     0.093 A 
ATOM      8  C   UNL     1     173.191 174.021 153.344  1.00  0.00     0.123 A 
ATOM      9  C   UNL     1     173.223 175.415 153.229  1.00  0.00     0.094 A 
ATOM     10  C   UNL     1     174.057 176.173 154.056  1.00  0.00     0.146 A 
ATOM     11  O   UNL     1     174.071 177.494 153.921  1.00  0.00    -0.452 OA
ENDROOT
BRANCH   1  12
ATOM     12  C   UNL     1     174.768 179.752 154.403  1.00  0.00     0.021 A 
ATOM     13  C   UNL     1     173.742 180.547 154.946  1.00  0.00     0.016 A 
ATOM     14  C   UNL     1     173.714 181.924 154.709  1.00  0.00     0.047 A 
ATOM     15  C   UNL     1     174.713 182.527 153.940  1.00  0.00     0.115 A 
ATOM     16  C   UNL     1     175.781 180.368 153.648  1.00  0.00     0.016 A 
ATOM     17  C   UNL     1     175.749 181.746 153.412  1.00  0.00     0.047 A 
BRANCH  15  18
ATOM     18  O   UNL     1     174.671 183.901 153.711  1.00  0.00    -0.508 OA
ATOM     19  H   UNL     1     174.038 184.304 153.031  1.00  0.00     0.293 HD
ENDBRANCH  15  18
ENDBRANCH   1  12
BRANCH   2  20
ATOM     20  O   UNL     1     176.417 178.584 156.486  1.00  0.00    -0.502 OA
ATOM     21  H   UNL     1     177.350 178.339 156.796  1.00  0.00     0.293 HD
ENDBRANCH   2  20
BRANCH   6  22
ATOM     22  O   UNL     1     175.628 173.461 156.070  1.00  0.00    -0.507 OA
ATOM     23  H   UNL     1     175.943 173.914 156.920  1.00  0.00     0.293 HD
ENDBRANCH   6  22
BRANCH   8  24
ATOM     24  O   UNL     1     172.363 173.259 152.523  1.00  0.00    -0.508 OA
ATOM     25  H   UNL     1     172.538 172.274 152.362  1.00  0.00     0.293 HD
ENDBRANCH   8  24
TORSDOF 5
ENDMDL
MODEL 7
REMARK VINA RESULT:    -4.544      4.506      7.222
REMARK INTER + INTRA:          -5.589
REMARK INTER:                  -5.324
REMARK INTRA:                  -0.265
REMARK UNBOUND:                -0.249
REMARK SMILES O=c1c(O)c(-c2ccc(O)cc2)oc2cc(O)cc(O)c12
REMARK SMILES IDX 5 1 3 2 2 3 1 4 21 5 19 6 18 7 16 8 15 9 14 10 13 11 6 12
REMARK SMILES IDX 7 13 8 14 9 15 12 16 11 17 10 18 4 20 20 22 17 24
REMARK H PARENT 10 19 4 21 20 23 17 25
REMARK Flexibility Score: inf
ROOT
ATOM      1  C   UNL     1     178.264 173.375 154.701  1.00  0.00     0.180 A 
ATOM      2  C   UNL     1     177.710 172.576 155.719  1.00  0.00     0.208 A 
ATOM      3  C   UNL     1     176.318 172.578 155.902  1.00  0.00     0.238 A 
ATOM      4  O   UNL     1     175.811 171.856 156.804  1.00  0.00    -0.285 OA
ATOM      5  C   UNL     1     175.509 173.390 155.083  1.00  0.00     0.111 A 
ATOM      6  C   UNL     1     174.099 173.452 155.204  1.00  0.00     0.134 A 
ATOM      7  C   UNL     1     173.364 174.294 154.356  1.00  0.00     0.093 A 
ATOM      8  C   UNL     1     174.009 175.072 153.391  1.00  0.00     0.123 A 
ATOM      9  C   UNL     1     175.400 175.014 153.266  1.00  0.00     0.094 A 
ATOM     10  C   UNL     1     176.151 174.180 154.101  1.00  0.00     0.146 A 
ATOM     11  O   UNL     1     177.470 174.141 153.957  1.00  0.00    -0.452 OA
ENDROOT
BRANCH   1  12
ATOM     12  C   UNL     1     179.719 173.413 154.433  1.00  0.00     0.021 A 
ATOM     13  C   UNL     1     180.535 174.435 154.954  1.00  0.00     0.016 A 
ATOM     14  C   UNL     1     181.911 174.435 154.707  1.00  0.00     0.047 A 
ATOM     15  C   UNL     1     182.492 173.413 153.950  1.00  0.00     0.115 A 
ATOM     16  C   UNL     1     180.313 172.377 153.692  1.00  0.00     0.016 A 
ATOM     17  C   UNL     1     181.689 172.382 153.445  1.00  0.00     0.047 A 
BRANCH  15  18
ATOM     18  O   UNL     1     183.864 173.429 153.711  1.00  0.00    -0.508 OA
ATOM     19  H   UNL     1     184.284 174.106 153.085  1.00  0.00     0.293 HD
ENDBRANCH  15  18
ENDBRANCH   1  12
BRANCH   2  20
ATOM     20  O   UNL     1     178.539 171.818 156.551  1.00  0.00    -0.502 OA
ATOM     21  H   UNL     1     178.685 170.825 156.412  1.00  0.00     0.293 HD
ENDBRANCH   2  20
BRANCH   6  22
ATOM     22  O   UNL     1     173.427 172.688 156.159  1.00  0.00    -0.507 OA
ATOM     23  H   UNL     1     173.912 172.013 156.740  1.00  0.00     0.293 HD
ENDBRANCH   6  22
BRANCH   8  24
ATOM     24  O   UNL     1     173.255 175.900 152.562  1.00  0.00    -0.508 OA
ATOM     25  H   UNL     1     172.561 175.523 151.927  1.00  0.00     0.293 HD
ENDBRANCH   8  24
TORSDOF 5
ENDMDL
MODEL 8
REMARK VINA RESULT:    -4.483      1.831      6.893
REMARK INTER + INTRA:          -5.518
REMARK INTER:                  -5.264
REMARK INTRA:                  -0.254
REMARK UNBOUND:                -0.249
REMARK SMILES O=c1c(O)c(-c2ccc(O)cc2)oc2cc(O)cc(O)c12
REMARK SMILES IDX 5 1 3 2 2 3 1 4 21 5 19 6 18 7 16 8 15 9 14 10 13 11 6 12
REMARK SMILES IDX 7 13 8 14 9 15 12 16 11 17 10 18 4 20 20 22 17 24
REMARK H PARENT 10 19 4 21 20 23 17 25
REMARK Flexibility Score: inf
ROOT
ATOM      1  C   UNL     1     173.412 170.107 154.704  1.00  0.00     0.180 A 
ATOM      2  C   UNL     1     172.535 170.688 155.639  1.00  0.00     0.208 A 
ATOM      3  C   UNL     1     172.508 172.086 155.767  1.00  0.00     0.238 A 
ATOM      4  O   UNL     1     171.717 172.617 156.594  1.00  0.00    -0.285 OA
ATOM      5  C   UNL     1     173.369 172.875 154.978  1.00  0.00     0.111 A 
ATOM      6  C   UNL     1     173.407 174.289 155.049  1.00  0.00     0.134 A 
ATOM      7  C   UNL     1     174.299 175.002 154.235  1.00  0.00     0.093 A 
ATOM      8  C   UNL     1     175.152 174.333 153.355  1.00  0.00     0.123 A 
ATOM      9  C   UNL     1     175.119 172.936 153.280  1.00  0.00     0.094 A 
ATOM     10  C   UNL     1     174.235 172.207 154.081  1.00  0.00     0.146 A 
ATOM     11  O   UNL     1     174.221 170.882 153.986  1.00  0.00    -0.452 OA
ENDROOT
BRANCH   1  12
ATOM     12  C   UNL     1     173.486 168.643 154.496  1.00  0.00     0.021 A 
ATOM     13  C   UNL     1     174.500 167.868 155.088  1.00  0.00     0.016 A 
ATOM     14  C   UNL     1     174.533 166.483 154.897  1.00  0.00     0.047 A 
ATOM     15  C   UNL     1     173.552 165.855 154.124  1.00  0.00     0.115 A 
ATOM     16  C   UNL     1     172.491 168.001 153.739  1.00  0.00     0.016 A 
ATOM     17  C   UNL     1     172.529 166.617 153.548  1.00  0.00     0.047 A 
BRANCH  15  18
ATOM     18  O   UNL     1     173.601 164.474 153.942  1.00  0.00    -0.508 OA
ATOM     19  H   UNL     1     172.830 163.970 153.519  1.00  0.00     0.293 HD
ENDBRANCH  15  18
ENDBRANCH   1  12
BRANCH   2  20
ATOM     20  O   UNL     1     171.728 169.881 156.445  1.00  0.00    -0.502 OA
ATOM     21  H   UNL     1     171.148 169.142 156.065  1.00  0.00     0.293 HD
ENDBRANCH   2  20
BRANCH   6  22
ATOM     22  O   UNL     1     172.567 174.986 155.919  1.00  0.00    -0.507 OA
ATOM     23  H   UNL     1     172.848 175.865 156.340  1.00  0.00     0.293 HD
ENDBRANCH   6  22
BRANCH   8  24
ATOM     24  O   UNL     1     176.030 175.066 152.559  1.00  0.00    -0.508 OA
ATOM     25  H   UNL     1     175.940 175.084 151.550  1.00  0.00     0.293 HD
ENDBRANCH   8  24
TORSDOF 5
ENDMDL
MODEL 9
REMARK VINA RESULT:    -4.411      2.003      7.115
REMARK INTER + INTRA:          -5.433
REMARK INTER:                  -5.136
REMARK INTRA:                  -0.296
REMARK UNBOUND:                -0.249
REMARK SMILES O=c1c(O)c(-c2ccc(O)cc2)oc2cc(O)cc(O)c12
REMARK SMILES IDX 5 1 3 2 2 3 1 4 21 5 19 6 18 7 16 8 15 9 14 10 13 11 6 12
REMARK SMILES IDX 7 13 8 14 9 15 12 16 11 17 10 18 4 20 20 22 17 24
REMARK H PARENT 10 19 4 21 20 23 17 25
REMARK Flexibility Score: inf
ROOT
ATOM      1  C   UNL     1     173.906 171.559 154.607  1.00  0.00     0.180 A 
ATOM      2  C   UNL     1     174.350 172.326 153.514  1.00  0.00     0.208 A 
ATOM      3  C   UNL     1     174.059 173.699 153.485  1.00  0.00     0.238 A 
ATOM      4  O   UNL     1     174.462 174.398 152.516  1.00  0.00    -0.285 OA
ATOM      5  C   UNL     1     173.314 174.275 154.534  1.00  0.00     0.111 A 
ATOM      6  C   UNL     1     172.974 175.649 154.580  1.00  0.00     0.134 A 
ATOM      7  C   UNL     1     172.221 176.145 155.655  1.00  0.00     0.093 A 
ATOM      8  C   UNL     1     171.802 175.296 156.682  1.00  0.00     0.123 A 
ATOM      9  C   UNL     1     172.135 173.938 156.643  1.00  0.00     0.094 A 
ATOM     10  C   UNL     1     172.886 173.425 155.581  1.00  0.00     0.146 A 
ATOM     11  O   UNL     1     173.192 172.133 155.572  1.00  0.00    -0.452 OA
ENDROOT
BRANCH   1  12
ATOM     12  C   UNL     1     174.190 170.110 154.719  1.00  0.00     0.021 A 
ATOM     13  C   UNL     1     175.384 169.639 155.296  1.00  0.00     0.016 A 
ATOM     14  C   UNL     1     175.619 168.266 155.413  1.00  0.00     0.047 A 
ATOM     15  C   UNL     1     174.663 167.347 154.969  1.00  0.00     0.115 A 
ATOM     16  C   UNL     1     173.225 169.181 154.295  1.00  0.00     0.016 A 
ATOM     17  C   UNL     1     173.463 167.808 154.412  1.00  0.00     0.047 A 
BRANCH  15  18
ATOM     18  O   UNL     1     174.912 165.982 155.091  1.00  0.00    -0.508 OA
ATOM     19  H   UNL     1     175.831 165.594 154.908  1.00  0.00     0.293 HD
ENDBRANCH  15  18
ENDBRANCH   1  12
BRANCH   2  20
ATOM     20  O   UNL     1     175.044 171.721 152.462  1.00  0.00    -0.502 OA
ATOM     21  H   UNL     1     175.244 170.728 152.445  1.00  0.00     0.293 HD
ENDBRANCH   2  20
BRANCH   6  22
ATOM     22  O   UNL     1     173.377 176.522 153.568  1.00  0.00    -0.507 OA
ATOM     23  H   UNL     1     173.273 176.285 152.587  1.00  0.00     0.293 HD
ENDBRANCH   6  22
BRANCH   8  24
ATOM     24  O   UNL     1     171.054 175.814 157.737  1.00  0.00    -0.508 OA
ATOM     25  H   UNL     1     171.283 176.705 158.162  1.00  0.00     0.293 HD
ENDBRANCH   8  24
TORSDOF 5
ENDMDL
