MODEL 1
REMARK VINA RESULT:    -5.246      0.000      0.000
REMARK INTER + INTRA:         -11.385
REMARK INTER:                 -10.154
REMARK INTRA:                  -1.231
REMARK UNBOUND:                -1.231
REMARK SMILES CCCCCCCCCCCCCCCCCC(=O)[O-]
REMARK SMILES IDX 10 1 11 2 12 3 13 4 14 5 15 6 16 7 17 8 18 9 19 10 20 11
REMARK SMILES IDX 9 12 8 13 7 14 6 15 5 16 4 17 3 18 2 19 1 20
REMARK H PARENT
REMARK Flexibility Score: inf
ROOT
ATOM      1  C   UNL     1      47.645  21.042  51.163  1.00  0.00     0.000 C 
ENDROOT
BRANCH   1   2
ATOM      2  C   UNL     1      48.345  22.213  51.874  1.00  0.00     0.000 C 
BRANCH   2   3
ATOM      3  C   UNL     1      47.462  22.920  52.925  1.00  0.00     0.000 C 
BRANCH   3   4
ATOM      4  C   UNL     1      47.815  22.491  54.360  1.00  0.00     0.000 C 
BRANCH   4   5
ATOM      5  C   UNL     1      46.571  22.289  55.240  1.00  0.00     0.000 C 
BRANCH   5   6
ATOM      6  C   UNL     1      46.417  20.836  55.722  1.00  0.00     0.000 C 
BRANCH   6   7
ATOM      7  C   UNL     1      45.091  20.199  55.274  1.00  0.00     0.006 C 
BRANCH   7   8
ATOM      8  C   UNL     1      45.207  19.465  53.931  1.00  0.00     0.053 C 
BRANCH   8   9
ATOM      9  C   UNL     1      44.073  18.505  53.756  1.00  0.00     0.041 C 
ATOM     10  O   UNL     1      43.477  18.040  54.763  1.00  0.00    -0.550 OA
ATOM     11  O   UNL     1      43.655  18.147  52.480  1.00  0.00    -0.550 OA
ENDBRANCH   8   9
ENDBRANCH   7   8
ENDBRANCH   6   7
ENDBRANCH   5   6
ENDBRANCH   4   5
ENDBRANCH   3   4
ENDBRANCH   2   3
ENDBRANCH   1   2
BRANCH   1  12
ATOM     12  C   UNL     1      48.322  20.658  49.837  1.00  0.00     0.000 C 
BRANCH  12  13
ATOM     13  C   UNL     1      48.954  19.258  49.878  1.00  0.00    -0.000 C 
BRANCH  13  14
ATOM     14  C   UNL     1      50.418  19.283  50.344  1.00  0.00    -0.000 C 
BRANCH  14  15
ATOM     15  C   UNL     1      51.123  20.614  50.027  1.00  0.00    -0.000 C 
BRANCH  15  16
ATOM     16  C   UNL     1      52.120  21.060  51.118  1.00  0.00    -0.000 C 
BRANCH  16  17
ATOM     17  C   UNL     1      53.573  21.076  50.609  1.00  0.00    -0.000 C 
BRANCH  17  18
ATOM     18  C   UNL     1      53.769  20.214  49.353  1.00  0.00    -0.000 C 
BRANCH  18  19
ATOM     19  C   UNL     1      55.201  20.287  48.801  1.00  0.00    -0.003 C 
ATOM     20  C   UNL     1      55.344  21.421  47.791  1.00  0.00     0.004 C 
ENDBRANCH  18  19
ENDBRANCH  17  18
ENDBRANCH  16  17
ENDBRANCH  15  16
ENDBRANCH  14  15
ENDBRANCH  13  14
ENDBRANCH  12  13
ENDBRANCH   1  12
TORSDOF 16
ENDMDL
MODEL 2
REMARK VINA RESULT:    -5.154      4.520      5.899
REMARK INTER + INTRA:         -11.205
REMARK INTER:                  -9.062
REMARK INTRA:                  -2.143
REMARK UNBOUND:                -1.231
REMARK SMILES CCCCCCCCCCCCCCCCCC(=O)[O-]
REMARK SMILES IDX 10 1 11 2 12 3 13 4 14 5 15 6 16 7 17 8 18 9 19 10 20 11
REMARK SMILES IDX 9 12 8 13 7 14 6 15 5 16 4 17 3 18 2 19 1 20
REMARK H PARENT
REMARK Flexibility Score: inf
ROOT
ATOM      1  C   UNL     1      48.136  22.816  52.121  1.00  0.00     0.000 C 
ENDROOT
BRANCH   1   2
ATOM      2  C   UNL     1      49.570  23.374  52.098  1.00  0.00     0.000 C 
BRANCH   2   3
ATOM      3  C   UNL     1      50.027  23.972  53.447  1.00  0.00     0.000 C 
BRANCH   3   4
ATOM      4  C   UNL     1      49.718  23.036  54.629  1.00  0.00     0.000 C 
BRANCH   4   5
ATOM      5  C   UNL     1      50.980  22.379  55.210  1.00  0.00     0.000 C 
BRANCH   5   6
ATOM      6  C   UNL     1      51.481  21.202  54.355  1.00  0.00     0.000 C 
BRANCH   6   7
ATOM      7  C   UNL     1      53.016  21.113  54.308  1.00  0.00     0.006 C 
BRANCH   7   8
ATOM      8  C   UNL     1      53.691  22.491  54.287  1.00  0.00     0.053 C 
BRANCH   8   9
ATOM      9  C   UNL     1      54.643  22.628  55.433  1.00  0.00     0.041 C 
ATOM     10  O   UNL     1      55.883  22.538  55.239  1.00  0.00    -0.550 OA
ATOM     11  O   UNL     1      54.161  22.886  56.711  1.00  0.00    -0.550 OA
ENDBRANCH   8   9
ENDBRANCH   7   8
ENDBRANCH   6   7
ENDBRANCH   5   6
ENDBRANCH   4   5
ENDBRANCH   3   4
ENDBRANCH   2   3
ENDBRANCH   1   2
BRANCH   1  12
ATOM     12  C   UNL     1      48.078  21.309  51.828  1.00  0.00     0.000 C 
BRANCH  12  13
ATOM     13  C   UNL     1      47.638  21.002  50.388  1.00  0.00    -0.000 C 
BRANCH  13  14
ATOM     14  C   UNL     1      48.776  20.421  49.533  1.00  0.00    -0.000 C 
BRANCH  14  15
ATOM     15  C   UNL     1      49.855  19.717  50.374  1.00  0.00    -0.000 C 
BRANCH  15  16
ATOM     16  C   UNL     1      51.294  19.985  49.883  1.00  0.00    -0.000 C 
BRANCH  16  17
ATOM     17  C   UNL     1      51.985  21.101  50.686  1.00  0.00    -0.000 C 
BRANCH  17  18
ATOM     18  C   UNL     1      53.512  21.094  50.516  1.00  0.00    -0.000 C 
BRANCH  18  19
ATOM     19  C   UNL     1      53.971  20.244  49.322  1.00  0.00    -0.003 C 
ATOM     20  C   UNL     1      54.864  21.050  48.384  1.00  0.00     0.004 C 
ENDBRANCH  18  19
ENDBRANCH  17  18
ENDBRANCH  16  17
ENDBRANCH  15  16
ENDBRANCH  14  15
ENDBRANCH  13  14
ENDBRANCH  12  13
ENDBRANCH   1  12
TORSDOF 16
ENDMDL
MODEL 3
REMARK VINA RESULT:    -5.144      3.333      5.309
REMARK INTER + INTRA:         -11.186
REMARK INTER:                  -8.794
REMARK INTRA:                  -2.393
REMARK UNBOUND:                -1.231
REMARK SMILES CCCCCCCCCCCCCCCCCC(=O)[O-]
REMARK SMILES IDX 10 1 11 2 12 3 13 4 14 5 15 6 16 7 17 8 18 9 19 10 20 11
REMARK SMILES IDX 9 12 8 13 7 14 6 15 5 16 4 17 3 18 2 19 1 20
REMARK H PARENT
REMARK Flexibility Score: inf
ROOT
ATOM      1  C   UNL     1      54.370  22.566  55.061  1.00  0.00     0.000 C 
ENDROOT
BRANCH   1   2
ATOM      2  C   UNL     1      53.906  23.893  54.436  1.00  0.00     0.000 C 
BRANCH   2   3
ATOM      3  C   UNL     1      54.210  24.009  52.926  1.00  0.00     0.000 C 
BRANCH   3   4
ATOM      4  C   UNL     1      53.090  24.741  52.165  1.00  0.00     0.000 C 
BRANCH   4   5
ATOM      5  C   UNL     1      51.706  24.531  52.801  1.00  0.00     0.000 C 
BRANCH   5   6
ATOM      6  C   UNL     1      50.596  24.343  51.753  1.00  0.00     0.000 C 
BRANCH   6   7
ATOM      7  C   UNL     1      49.188  24.354  52.372  1.00  0.00     0.006 C 
BRANCH   7   8
ATOM      8  C   UNL     1      48.505  22.980  52.318  1.00  0.00     0.053 C 
BRANCH   8   9
ATOM      9  C   UNL     1      48.231  22.475  53.699  1.00  0.00     0.041 C 
ATOM     10  O   UNL     1      48.796  23.006  54.691  1.00  0.00    -0.550 OA
ATOM     11  O   UNL     1      47.329  21.436  53.894  1.00  0.00    -0.550 OA
ENDBRANCH   8   9
ENDBRANCH   7   8
ENDBRANCH   6   7
ENDBRANCH   5   6
ENDBRANCH   4   5
ENDBRANCH   3   4
ENDBRANCH   2   3
ENDBRANCH   1   2
BRANCH   1  12
ATOM     12  C   UNL     1      53.767  21.335  54.365  1.00  0.00     0.000 C 
BRANCH  12  13
ATOM     13  C   UNL     1      52.286  21.123  54.716  1.00  0.00    -0.000 C 
BRANCH  13  14
ATOM     14  C   UNL     1      51.426  20.797  53.484  1.00  0.00    -0.000 C 
BRANCH  14  15
ATOM     15  C   UNL     1      52.134  21.128  52.158  1.00  0.00    -0.000 C 
BRANCH  15  16
ATOM     16  C   UNL     1      51.312  20.748  50.907  1.00  0.00    -0.000 C 
BRANCH  16  17
ATOM     17  C   UNL     1      52.207  20.373  49.713  1.00  0.00    -0.000 C 
BRANCH  17  18
ATOM     18  C   UNL     1      53.649  20.879  49.873  1.00  0.00    -0.000 C 
BRANCH  18  19
ATOM     19  C   UNL     1      54.616  20.239  48.866  1.00  0.00    -0.003 C 
ATOM     20  C   UNL     1      55.317  21.300  48.024  1.00  0.00     0.004 C 
ENDBRANCH  18  19
ENDBRANCH  17  18
ENDBRANCH  16  17
ENDBRANCH  15  16
ENDBRANCH  14  15
ENDBRANCH  13  14
ENDBRANCH  12  13
ENDBRANCH   1  12
TORSDOF 16
ENDMDL
MODEL 4
REMARK VINA RESULT:    -5.006      1.133      2.326
REMARK INTER + INTRA:         -10.920
REMARK INTER:                  -9.814
REMARK INTRA:                  -1.107
REMARK UNBOUND:                -1.231
REMARK SMILES CCCCCCCCCCCCCCCCCC(=O)[O-]
REMARK SMILES IDX 10 1 11 2 12 3 13 4 14 5 15 6 16 7 17 8 18 9 19 10 20 11
REMARK SMILES IDX 9 12 8 13 7 14 6 15 5 16 4 17 3 18 2 19 1 20
REMARK H PARENT
REMARK Flexibility Score: inf
ROOT
ATOM      1  C   UNL     1      48.931  21.962  53.398  1.00  0.00     0.000 C 
ENDROOT
BRANCH   1   2
ATOM      2  C   UNL     1      47.695  22.326  54.239  1.00  0.00     0.000 C 
BRANCH   2   3
ATOM      3  C   UNL     1      47.065  21.122  54.973  1.00  0.00     0.000 C 
BRANCH   3   4
ATOM      4  C   UNL     1      45.555  21.311  55.204  1.00  0.00     0.000 C 
BRANCH   4   5
ATOM      5  C   UNL     1      44.810  19.976  55.369  1.00  0.00     0.000 C 
BRANCH   5   6
ATOM      6  C   UNL     1      43.307  20.097  55.068  1.00  0.00     0.000 C 
BRANCH   6   7
ATOM      7  C   UNL     1      42.821  19.056  54.045  1.00  0.00     0.006 C 
BRANCH   7   8
ATOM      8  C   UNL     1      43.892  18.012  53.705  1.00  0.00     0.053 C 
BRANCH   8   9
ATOM      9  C   UNL     1      44.356  18.175  52.292  1.00  0.00     0.041 C 
ATOM     10  O   UNL     1      45.580  18.075  52.012  1.00  0.00    -0.550 OA
ATOM     11  O   UNL     1      43.434  18.409  51.279  1.00  0.00    -0.550 OA
ENDBRANCH   8   9
ENDBRANCH   7   8
ENDBRANCH   6   7
ENDBRANCH   5   6
ENDBRANCH   4   5
ENDBRANCH   3   4
ENDBRANCH   2   3
ENDBRANCH   1   2
BRANCH   1  12
ATOM     12  C   UNL     1      48.748  22.272  51.904  1.00  0.00     0.000 C 
BRANCH  12  13
ATOM     13  C   UNL     1      47.963  21.177  51.164  1.00  0.00    -0.000 C 
BRANCH  13  14
ATOM     14  C   UNL     1      48.715  20.635  49.939  1.00  0.00    -0.000 C 
BRANCH  14  15
ATOM     15  C   UNL     1      49.780  19.586  50.308  1.00  0.00    -0.000 C 
BRANCH  15  16
ATOM     16  C   UNL     1      51.203  19.961  49.842  1.00  0.00    -0.000 C 
BRANCH  16  17
ATOM     17  C   UNL     1      51.875  20.978  50.781  1.00  0.00    -0.000 C 
BRANCH  17  18
ATOM     18  C   UNL     1      53.377  21.139  50.502  1.00  0.00    -0.000 C 
BRANCH  18  19
ATOM     19  C   UNL     1      53.854  20.287  49.317  1.00  0.00    -0.003 C 
ATOM     20  C   UNL     1      54.840  21.058  48.445  1.00  0.00     0.004 C 
ENDBRANCH  18  19
ENDBRANCH  17  18
ENDBRANCH  16  17
ENDBRANCH  15  16
ENDBRANCH  14  15
ENDBRANCH  13  14
ENDBRANCH  12  13
ENDBRANCH   1  12
TORSDOF 16
ENDMDL
MODEL 5
REMARK VINA RESULT:    -4.964      1.978      3.233
REMARK INTER + INTRA:         -10.839
REMARK INTER:                  -9.223
REMARK INTRA:                  -1.615
REMARK UNBOUND:                -1.231
REMARK SMILES CCCCCCCCCCCCCCCCCC(=O)[O-]
REMARK SMILES IDX 10 1 11 2 12 3 13 4 14 5 15 6 16 7 17 8 18 9 19 10 20 11
REMARK SMILES IDX 9 12 8 13 7 14 6 15 5 16 4 17 3 18 2 19 1 20
REMARK H PARENT
REMARK Flexibility Score: inf
ROOT
ATOM      1  C   UNL     1      51.010  22.567  54.567  1.00  0.00     0.000 C 
ENDROOT
BRANCH   1   2
ATOM      2  C   UNL     1      49.487  22.435  54.388  1.00  0.00     0.000 C 
BRANCH   2   3
ATOM      3  C   UNL     1      48.838  23.638  53.670  1.00  0.00     0.000 C 
BRANCH   3   4
ATOM      4  C   UNL     1      47.987  23.202  52.463  1.00  0.00     0.000 C 
BRANCH   4   5
ATOM      5  C   UNL     1      47.926  21.674  52.303  1.00  0.00     0.000 C 
BRANCH   5   6
ATOM      6  C   UNL     1      47.762  21.240  50.837  1.00  0.00     0.000 C 
BRANCH   6   7
ATOM      7  C   UNL     1      47.011  19.905  50.694  1.00  0.00     0.006 C 
BRANCH   7   8
ATOM      8  C   UNL     1      46.256  19.508  51.970  1.00  0.00     0.053 C 
BRANCH   8   9
ATOM      9  C   UNL     1      45.289  18.402  51.686  1.00  0.00     0.041 C 
ATOM     10  O   UNL     1      45.447  17.271  52.217  1.00  0.00    -0.550 OA
ATOM     11  O   UNL     1      44.196  18.629  50.858  1.00  0.00    -0.550 OA
ENDBRANCH   8   9
ENDBRANCH   7   8
ENDBRANCH   6   7
ENDBRANCH   5   6
ENDBRANCH   4   5
ENDBRANCH   3   4
ENDBRANCH   2   3
ENDBRANCH   1   2
BRANCH   1  12
ATOM     12  C   UNL     1      51.756  21.247  54.314  1.00  0.00     0.000 C 
BRANCH  12  13
ATOM     13  C   UNL     1      52.880  21.392  53.276  1.00  0.00    -0.000 C 
BRANCH  13  14
ATOM     14  C   UNL     1      52.377  21.942  51.932  1.00  0.00    -0.000 C 
BRANCH  14  15
ATOM     15  C   UNL     1      51.388  20.995  51.231  1.00  0.00    -0.000 C 
BRANCH  15  16
ATOM     16  C   UNL     1      51.866  20.521  49.842  1.00  0.00    -0.000 C 
BRANCH  16  17
ATOM     17  C   UNL     1      53.264  21.060  49.491  1.00  0.00    -0.000 C 
BRANCH  17  18
ATOM     18  C   UNL     1      54.341  19.965  49.504  1.00  0.00    -0.000 C 
BRANCH  18  19
ATOM     19  C   UNL     1      55.501  20.263  48.542  1.00  0.00    -0.003 C 
ATOM     20  C   UNL     1      55.300  21.601  47.836  1.00  0.00     0.004 C 
ENDBRANCH  18  19
ENDBRANCH  17  18
ENDBRANCH  16  17
ENDBRANCH  15  16
ENDBRANCH  14  15
ENDBRANCH  13  14
ENDBRANCH  12  13
ENDBRANCH   1  12
TORSDOF 16
ENDMDL
MODEL 6
REMARK VINA RESULT:    -4.962      2.617      4.079
REMARK INTER + INTRA:         -10.836
REMARK INTER:                  -8.726
REMARK INTRA:                  -2.110
REMARK UNBOUND:                -1.231
REMARK SMILES CCCCCCCCCCCCCCCCCC(=O)[O-]
REMARK SMILES IDX 10 1 11 2 12 3 13 4 14 5 15 6 16 7 17 8 18 9 19 10 20 11
REMARK SMILES IDX 9 12 8 13 7 14 6 15 5 16 4 17 3 18 2 19 1 20
REMARK H PARENT
REMARK Flexibility Score: inf
ROOT
ATOM      1  C   UNL     1      51.601  23.037  54.972  1.00  0.00     0.000 C 
ENDROOT
BRANCH   1   2
ATOM      2  C   UNL     1      50.587  23.916  55.724  1.00  0.00     0.000 C 
BRANCH   2   3
ATOM      3  C   UNL     1      49.767  24.847  54.805  1.00  0.00     0.000 C 
BRANCH   3   4
ATOM      4  C   UNL     1      50.232  24.770  53.340  1.00  0.00     0.000 C 
BRANCH   4   5
ATOM      5  C   UNL     1      49.180  24.132  52.418  1.00  0.00     0.000 C 
BRANCH   5   6
ATOM      6  C   UNL     1      48.169  23.264  53.186  1.00  0.00     0.000 C 
BRANCH   6   7
ATOM      7  C   UNL     1      48.108  21.819  52.662  1.00  0.00     0.006 C 
BRANCH   7   8
ATOM      8  C   UNL     1      47.896  21.746  51.144  1.00  0.00     0.053 C 
BRANCH   8   9
ATOM      9  C   UNL     1      47.711  20.327  50.706  1.00  0.00     0.041 C 
ATOM     10  O   UNL     1      46.819  19.613  51.235  1.00  0.00    -0.550 OA
ATOM     11  O   UNL     1      48.504  19.802  49.693  1.00  0.00    -0.550 OA
ENDBRANCH   8   9
ENDBRANCH   7   8
ENDBRANCH   6   7
ENDBRANCH   5   6
ENDBRANCH   4   5
ENDBRANCH   3   4
ENDBRANCH   2   3
ENDBRANCH   1   2
BRANCH   1  12
ATOM     12  C   UNL     1      51.301  21.536  55.103  1.00  0.00     0.000 C 
BRANCH  12  13
ATOM     13  C   UNL     1      51.851  20.717  53.924  1.00  0.00    -0.000 C 
BRANCH  13  14
ATOM     14  C   UNL     1      52.863  21.504  53.077  1.00  0.00    -0.000 C 
BRANCH  14  15
ATOM     15  C   UNL     1      52.268  22.008  51.750  1.00  0.00    -0.000 C 
BRANCH  15  16
ATOM     16  C   UNL     1      51.535  20.912  50.946  1.00  0.00    -0.000 C 
BRANCH  16  17
ATOM     17  C   UNL     1      52.315  20.494  49.688  1.00  0.00    -0.000 C 
BRANCH  17  18
ATOM     18  C   UNL     1      53.831  20.691  49.838  1.00  0.00    -0.000 C 
BRANCH  18  19
ATOM     19  C   UNL     1      54.612  20.260  48.587  1.00  0.00    -0.003 C 
ATOM     20  C   UNL     1      55.387  21.430  47.990  1.00  0.00     0.004 C 
ENDBRANCH  18  19
ENDBRANCH  17  18
ENDBRANCH  16  17
ENDBRANCH  15  16
ENDBRANCH  14  15
ENDBRANCH  13  14
ENDBRANCH  12  13
ENDBRANCH   1  12
TORSDOF 16
ENDMDL
MODEL 7
REMARK VINA RESULT:    -4.927      4.669      7.397
REMARK INTER + INTRA:         -10.767
REMARK INTER:                  -8.656
REMARK INTRA:                  -2.111
REMARK UNBOUND:                -1.231
REMARK SMILES CCCCCCCCCCCCCCCCCC(=O)[O-]
REMARK SMILES IDX 10 1 11 2 12 3 13 4 14 5 15 6 16 7 17 8 18 9 19 10 20 11
REMARK SMILES IDX 9 12 8 13 7 14 6 15 5 16 4 17 3 18 2 19 1 20
REMARK H PARENT
REMARK Flexibility Score: inf
ROOT
ATOM      1  C   UNL     1      47.743  21.897  51.356  1.00  0.00     0.000 C 
ENDROOT
BRANCH   1   2
ATOM      2  C   UNL     1      47.635  20.432  50.896  1.00  0.00     0.000 C 
BRANCH   2   3
ATOM      3  C   UNL     1      48.592  20.070  49.740  1.00  0.00     0.000 C 
BRANCH   3   4
ATOM      4  C   UNL     1      50.017  19.771  50.239  1.00  0.00     0.000 C 
BRANCH   4   5
ATOM      5  C   UNL     1      50.959  20.978  50.098  1.00  0.00     0.000 C 
BRANCH   5   6
ATOM      6  C   UNL     1      52.039  21.015  51.192  1.00  0.00     0.000 C 
BRANCH   6   7
ATOM      7  C   UNL     1      53.466  21.030  50.617  1.00  0.00     0.006 C 
BRANCH   7   8
ATOM      8  C   UNL     1      53.499  20.789  49.101  1.00  0.00     0.053 C 
BRANCH   8   9
ATOM      9  C   UNL     1      54.909  20.644  48.622  1.00  0.00     0.041 C 
ATOM     10  O   UNL     1      55.620  19.688  49.029  1.00  0.00    -0.550 OA
ATOM     11  O   UNL     1      55.428  21.547  47.703  1.00  0.00    -0.550 OA
ENDBRANCH   8   9
ENDBRANCH   7   8
ENDBRANCH   6   7
ENDBRANCH   5   6
ENDBRANCH   4   5
ENDBRANCH   3   4
ENDBRANCH   2   3
ENDBRANCH   1   2
BRANCH   1  12
ATOM     12  C   UNL     1      48.224  22.031  52.809  1.00  0.00     0.000 C 
BRANCH  12  13
ATOM     13  C   UNL     1      48.807  23.420  53.114  1.00  0.00    -0.000 C 
BRANCH  13  14
ATOM     14  C   UNL     1      49.827  23.878  52.060  1.00  0.00    -0.000 C 
BRANCH  14  15
ATOM     15  C   UNL     1      51.121  24.433  52.682  1.00  0.00    -0.000 C 
BRANCH  15  16
ATOM     16  C   UNL     1      51.352  23.975  54.138  1.00  0.00    -0.000 C 
BRANCH  16  17
ATOM     17  C   UNL     1      52.835  24.047  54.542  1.00  0.00    -0.000 C 
BRANCH  17  18
ATOM     18  C   UNL     1      53.687  22.965  53.862  1.00  0.00    -0.000 C 
BRANCH  18  19
ATOM     19  C   UNL     1      54.035  21.804  54.805  1.00  0.00    -0.003 C 
ATOM     20  C   UNL     1      52.974  20.709  54.745  1.00  0.00     0.004 C 
ENDBRANCH  18  19
ENDBRANCH  17  18
ENDBRANCH  16  17
ENDBRANCH  15  16
ENDBRANCH  14  15
ENDBRANCH  13  14
ENDBRANCH  12  13
ENDBRANCH   1  12
TORSDOF 16
ENDMDL
MODEL 8
REMARK VINA RESULT:    -4.922      2.220      3.343
REMARK INTER + INTRA:         -10.758
REMARK INTER:                  -9.613
REMARK INTRA:                  -1.145
REMARK UNBOUND:                -1.231
REMARK SMILES CCCCCCCCCCCCCCCCCC(=O)[O-]
REMARK SMILES IDX 10 1 11 2 12 3 13 4 14 5 15 6 16 7 17 8 18 9 19 10 20 11
REMARK SMILES IDX 9 12 8 13 7 14 6 15 5 16 4 17 3 18 2 19 1 20
REMARK H PARENT
REMARK Flexibility Score: inf
ROOT
ATOM      1  C   UNL     1      46.928  19.226  51.158  1.00  0.00     0.000 C 
ENDROOT
BRANCH   1   2
ATOM      2  C   UNL     1      45.854  19.305  52.257  1.00  0.00     0.000 C 
BRANCH   2   3
ATOM      3  C   UNL     1      45.208  17.945  52.595  1.00  0.00     0.000 C 
BRANCH   3   4
ATOM      4  C   UNL     1      43.986  17.647  51.708  1.00  0.00     0.000 C 
BRANCH   4   5
ATOM      5  C   UNL     1      43.232  18.921  51.292  1.00  0.00     0.000 C 
BRANCH   5   6
ATOM      6  C   UNL     1      41.918  19.110  52.068  1.00  0.00     0.000 C 
BRANCH   6   7
ATOM      7  C   UNL     1      42.104  19.921  53.362  1.00  0.00     0.006 C 
BRANCH   7   8
ATOM      8  C   UNL     1      41.676  19.146  54.616  1.00  0.00     0.053 C 
BRANCH   8   9
ATOM      9  C   UNL     1      42.862  18.841  55.475  1.00  0.00     0.041 C 
ATOM     10  O   UNL     1      42.880  17.799  56.183  1.00  0.00    -0.550 OA
ATOM     11  O   UNL     1      43.962  19.692  55.473  1.00  0.00    -0.550 OA
ENDBRANCH   8   9
ENDBRANCH   7   8
ENDBRANCH   6   7
ENDBRANCH   5   6
ENDBRANCH   4   5
ENDBRANCH   3   4
ENDBRANCH   2   3
ENDBRANCH   1   2
BRANCH   1  12
ATOM     12  C   UNL     1      47.333  20.607  50.619  1.00  0.00     0.000 C 
BRANCH  12  13
ATOM     13  C   UNL     1      48.763  20.628  50.057  1.00  0.00    -0.000 C 
BRANCH  13  14
ATOM     14  C   UNL     1      49.751  21.357  50.981  1.00  0.00    -0.000 C 
BRANCH  14  15
ATOM     15  C   UNL     1      51.120  20.659  51.062  1.00  0.00    -0.000 C 
BRANCH  15  16
ATOM     16  C   UNL     1      52.284  21.617  51.397  1.00  0.00    -0.000 C 
BRANCH  16  17
ATOM     17  C   UNL     1      53.580  21.239  50.659  1.00  0.00    -0.000 C 
BRANCH  17  18
ATOM     18  C   UNL     1      53.335  20.284  49.481  1.00  0.00    -0.000 C 
BRANCH  18  19
ATOM     19  C   UNL     1      54.598  20.039  48.643  1.00  0.00    -0.003 C 
ATOM     20  C   UNL     1      55.209  21.355  48.170  1.00  0.00     0.004 C 
ENDBRANCH  18  19
ENDBRANCH  17  18
ENDBRANCH  16  17
ENDBRANCH  15  16
ENDBRANCH  14  15
ENDBRANCH  13  14
ENDBRANCH  12  13
ENDBRANCH   1  12
TORSDOF 16
ENDMDL
MODEL 9
REMARK VINA RESULT:    -4.900      2.260      3.373
REMARK INTER + INTRA:         -10.714
REMARK INTER:                 -10.116
REMARK INTRA:                  -0.599
REMARK UNBOUND:                -1.231
REMARK SMILES CCCCCCCCCCCCCCCCCC(=O)[O-]
REMARK SMILES IDX 10 1 11 2 12 3 13 4 14 5 15 6 16 7 17 8 18 9 19 10 20 11
REMARK SMILES IDX 9 12 8 13 7 14 6 15 5 16 4 17 3 18 2 19 1 20
REMARK H PARENT
REMARK Flexibility Score: inf
ROOT
ATOM      1  C   UNL     1      46.897  20.189  50.464  1.00  0.00     0.000 C 
ENDROOT
BRANCH   1   2
ATOM      2  C   UNL     1      46.410  19.416  51.703  1.00  0.00     0.000 C 
BRANCH   2   3
ATOM      3  C   UNL     1      45.440  18.261  51.374  1.00  0.00     0.000 C 
BRANCH   3   4
ATOM      4  C   UNL     1      44.145  18.339  52.202  1.00  0.00     0.000 C 
BRANCH   4   5
ATOM      5  C   UNL     1      44.395  18.179  53.710  1.00  0.00     0.000 C 
BRANCH   5   6
ATOM      6  C   UNL     1      43.747  19.301  54.539  1.00  0.00     0.000 C 
BRANCH   6   7
ATOM      7  C   UNL     1      42.218  19.164  54.630  1.00  0.00     0.006 C 
BRANCH   7   8
ATOM      8  C   UNL     1      41.481  20.041  53.607  1.00  0.00     0.053 C 
BRANCH   8   9
ATOM      9  C   UNL     1      41.118  21.361  54.211  1.00  0.00     0.041 C 
ATOM     10  O   UNL     1      41.799  21.831  55.160  1.00  0.00    -0.550 OA
ATOM     11  O   UNL     1      40.046  22.087  53.705  1.00  0.00    -0.550 OA
ENDBRANCH   8   9
ENDBRANCH   7   8
ENDBRANCH   6   7
ENDBRANCH   5   6
ENDBRANCH   4   5
ENDBRANCH   3   4
ENDBRANCH   2   3
ENDBRANCH   1   2
BRANCH   1  12
ATOM     12  C   UNL     1      48.304  20.779  50.644  1.00  0.00     0.000 C 
BRANCH  12  13
ATOM     13  C   UNL     1      48.377  21.797  51.794  1.00  0.00    -0.000 C 
BRANCH  13  14
ATOM     14  C   UNL     1      49.821  22.131  52.198  1.00  0.00    -0.000 C 
BRANCH  14  15
ATOM     15  C   UNL     1      50.846  21.769  51.108  1.00  0.00    -0.000 C 
BRANCH  15  16
ATOM     16  C   UNL     1      52.115  21.084  51.656  1.00  0.00    -0.000 C 
BRANCH  16  17
ATOM     17  C   UNL     1      53.306  21.202  50.687  1.00  0.00    -0.000 C 
BRANCH  17  18
ATOM     18  C   UNL     1      53.188  20.252  49.486  1.00  0.00    -0.000 C 
BRANCH  18  19
ATOM     19  C   UNL     1      54.537  20.002  48.794  1.00  0.00    -0.003 C 
ATOM     20  C   UNL     1      55.154  21.307  48.303  1.00  0.00     0.004 C 
ENDBRANCH  18  19
ENDBRANCH  17  18
ENDBRANCH  16  17
ENDBRANCH  15  16
ENDBRANCH  14  15
ENDBRANCH  13  14
ENDBRANCH  12  13
ENDBRANCH   1  12
TORSDOF 16
ENDMDL
