MODEL 1
REMARK VINA RESULT:    -4.466      0.000      0.000
REMARK INTER + INTRA:         -11.102
REMARK INTER:                  -8.644
REMARK INTRA:                  -2.457
REMARK UNBOUND:                -2.457
REMARK SMILES CCCCCCCCCCCCCCCCCC(=O)[O-]
REMARK SMILES IDX 10 1 11 2 12 3 13 4 14 5 15 6 16 7 17 8 18 9 19 10 20 11
REMARK SMILES IDX 9 12 8 13 7 14 6 15 5 16 4 17 3 18 2 19 1 20
REMARK H PARENT
REMARK Flexibility Score: inf
ROOT
ATOM      1  C   UNL     1      15.246   2.634   0.830  1.00  0.00     0.000 C 
ENDROOT
BRANCH   1   2
ATOM      2  C   UNL     1      15.046   2.938   2.324  1.00  0.00     0.000 C 
BRANCH   2   3
ATOM      3  C   UNL     1      13.567   2.900   2.748  1.00  0.00     0.000 C 
BRANCH   3   4
ATOM      4  C   UNL     1      12.669   2.072   1.804  1.00  0.00     0.000 C 
BRANCH   4   5
ATOM      5  C   UNL     1      11.427   2.855   1.351  1.00  0.00     0.000 C 
BRANCH   5   6
ATOM      6  C   UNL     1      11.684   4.366   1.387  1.00  0.00     0.000 C 
BRANCH   6   7
ATOM      7  C   UNL     1      10.522   5.106   2.065  1.00  0.00     0.006 C 
BRANCH   7   8
ATOM      8  C   UNL     1       9.196   4.911   1.317  1.00  0.00     0.053 C 
BRANCH   8   9
ATOM      9  C   UNL     1       8.823   6.123   0.520  1.00  0.00     0.041 C 
ATOM     10  O   UNL     1       8.061   6.996   1.014  1.00  0.00    -0.550 OA
ATOM     11  O   UNL     1       9.295   6.276  -0.777  1.00  0.00    -0.550 OA
ENDBRANCH   8   9
ENDBRANCH   7   8
ENDBRANCH   6   7
ENDBRANCH   5   6
ENDBRANCH   4   5
ENDBRANCH   3   4
ENDBRANCH   2   3
ENDBRANCH   1   2
BRANCH   1  12
ATOM     12  C   UNL     1      15.181   3.891  -0.057  1.00  0.00     0.000 C 
BRANCH  12  13
ATOM     13  C   UNL     1      15.214   3.631  -1.576  1.00  0.00    -0.000 C 
BRANCH  13  14
ATOM     14  C   UNL     1      13.875   3.935  -2.268  1.00  0.00    -0.000 C 
BRANCH  14  15
ATOM     15  C   UNL     1      12.770   2.938  -1.881  1.00  0.00    -0.000 C 
BRANCH  15  16
ATOM     16  C   UNL     1      12.973   1.552  -2.518  1.00  0.00    -0.000 C 
BRANCH  16  17
ATOM     17  C   UNL     1      13.161   0.450  -1.460  1.00  0.00    -0.000 C 
BRANCH  17  18
ATOM     18  C   UNL     1      14.353  -0.488  -1.758  1.00  0.00    -0.000 C 
BRANCH  18  19
ATOM     19  C   UNL     1      15.308   0.056  -2.832  1.00  0.00    -0.003 C 
ATOM     20  C   UNL     1      16.573   0.679  -2.243  1.00  0.00     0.004 C 
ENDBRANCH  18  19
ENDBRANCH  17  18
ENDBRANCH  16  17
ENDBRANCH  15  16
ENDBRANCH  14  15
ENDBRANCH  13  14
ENDBRANCH  12  13
ENDBRANCH   1  12
TORSDOF 16
ENDMDL
MODEL 2
REMARK VINA RESULT:    -4.387      2.062      4.909
REMARK INTER + INTRA:         -10.948
REMARK INTER:                  -8.717
REMARK INTRA:                  -2.231
REMARK UNBOUND:                -2.457
REMARK SMILES CCCCCCCCCCCCCCCCCC(=O)[O-]
REMARK SMILES IDX 10 1 11 2 12 3 13 4 14 5 15 6 16 7 17 8 18 9 19 10 20 11
REMARK SMILES IDX 9 12 8 13 7 14 6 15 5 16 4 17 3 18 2 19 1 20
REMARK H PARENT
REMARK Flexibility Score: inf
ROOT
ATOM      1  C   UNL     1      16.504   2.619  -0.759  1.00  0.00     0.000 C 
ENDROOT
BRANCH   1   2
ATOM      2  C   UNL     1      16.227   1.496  -1.771  1.00  0.00     0.000 C 
BRANCH   2   3
ATOM      3  C   UNL     1      15.019   0.626  -1.381  1.00  0.00     0.000 C 
BRANCH   3   4
ATOM      4  C   UNL     1      13.986   0.450  -2.514  1.00  0.00     0.000 C 
BRANCH   4   5
ATOM      5  C   UNL     1      12.924   1.560  -2.509  1.00  0.00     0.000 C 
BRANCH   5   6
ATOM      6  C   UNL     1      12.271   1.690  -1.128  1.00  0.00     0.000 C 
BRANCH   6   7
ATOM      7  C   UNL     1      11.670   3.091  -0.933  1.00  0.00     0.006 C 
BRANCH   7   8
ATOM      8  C   UNL     1      11.240   3.340   0.519  1.00  0.00     0.053 C 
BRANCH   8   9
ATOM      9  C   UNL     1       9.967   4.126   0.595  1.00  0.00     0.041 C 
ATOM     10  O   UNL     1       9.044   3.764   1.371  1.00  0.00    -0.550 OA
ATOM     11  O   UNL     1       9.790   5.243  -0.211  1.00  0.00    -0.550 OA
ENDBRANCH   8   9
ENDBRANCH   7   8
ENDBRANCH   6   7
ENDBRANCH   5   6
ENDBRANCH   4   5
ENDBRANCH   3   4
ENDBRANCH   2   3
ENDBRANCH   1   2
BRANCH   1  12
ATOM     12  C   UNL     1      15.399   3.691  -0.727  1.00  0.00     0.000 C 
BRANCH  12  13
ATOM     13  C   UNL     1      14.826   4.009   0.667  1.00  0.00    -0.000 C 
BRANCH  13  14
ATOM     14  C   UNL     1      15.328   3.047   1.758  1.00  0.00    -0.000 C 
BRANCH  14  15
ATOM     15  C   UNL     1      14.349   1.891   2.023  1.00  0.00    -0.000 C 
BRANCH  15  16
ATOM     16  C   UNL     1      13.795   1.902   3.459  1.00  0.00    -0.000 C 
BRANCH  16  17
ATOM     17  C   UNL     1      14.686   1.107   4.429  1.00  0.00    -0.000 C 
BRANCH  17  18
ATOM     18  C   UNL     1      14.465   1.484   5.912  1.00  0.00    -0.000 C 
BRANCH  18  19
ATOM     19  C   UNL     1      15.680   2.171   6.558  1.00  0.00    -0.003 C 
ATOM     20  C   UNL     1      16.775   2.514   5.549  1.00  0.00     0.004 C 
ENDBRANCH  18  19
ENDBRANCH  17  18
ENDBRANCH  16  17
ENDBRANCH  15  16
ENDBRANCH  14  15
ENDBRANCH  13  14
ENDBRANCH  12  13
ENDBRANCH   1  12
TORSDOF 16
ENDMDL
MODEL 3
REMARK VINA RESULT:    -4.379      2.293      5.461
REMARK INTER + INTRA:         -10.933
REMARK INTER:                  -8.357
REMARK INTRA:                  -2.576
REMARK UNBOUND:                -2.457
REMARK SMILES CCCCCCCCCCCCCCCCCC(=O)[O-]
REMARK SMILES IDX 10 1 11 2 12 3 13 4 14 5 15 6 16 7 17 8 18 9 19 10 20 11
REMARK SMILES IDX 9 12 8 13 7 14 6 15 5 16 4 17 3 18 2 19 1 20
REMARK H PARENT
REMARK Flexibility Score: inf
ROOT
ATOM      1  C   UNL     1      15.455   3.856  -0.517  1.00  0.00     0.000 C 
ENDROOT
BRANCH   1   2
ATOM      2  C   UNL     1      15.492   2.957  -1.763  1.00  0.00     0.000 C 
BRANCH   2   3
ATOM      3  C   UNL     1      15.896   1.507  -1.442  1.00  0.00     0.000 C 
BRANCH   3   4
ATOM      4  C   UNL     1      15.022   0.446  -2.145  1.00  0.00     0.000 C 
BRANCH   4   5
ATOM      5  C   UNL     1      13.824   0.018  -1.285  1.00  0.00     0.000 C 
BRANCH   5   6
ATOM      6  C   UNL     1      12.565   0.809  -1.661  1.00  0.00     0.000 C 
BRANCH   6   7
ATOM      7  C   UNL     1      12.021   1.586  -0.453  1.00  0.00     0.006 C 
BRANCH   7   8
ATOM      8  C   UNL     1      11.705   3.048  -0.799  1.00  0.00     0.053 C 
BRANCH   8   9
ATOM      9  C   UNL     1      10.756   3.660   0.185  1.00  0.00     0.041 C 
ATOM     10  O   UNL     1      10.258   4.795  -0.036  1.00  0.00    -0.550 OA
ATOM     11  O   UNL     1      10.442   2.988   1.360  1.00  0.00    -0.550 OA
ENDBRANCH   8   9
ENDBRANCH   7   8
ENDBRANCH   6   7
ENDBRANCH   5   6
ENDBRANCH   4   5
ENDBRANCH   3   4
ENDBRANCH   2   3
ENDBRANCH   1   2
BRANCH   1  12
ATOM     12  C   UNL     1      15.307   3.065   0.796  1.00  0.00     0.000 C 
BRANCH  12  13
ATOM     13  C   UNL     1      14.331   3.669   1.824  1.00  0.00    -0.000 C 
BRANCH  13  14
ATOM     14  C   UNL     1      13.727   2.618   2.772  1.00  0.00    -0.000 C 
BRANCH  14  15
ATOM     15  C   UNL     1      14.316   1.214   2.549  1.00  0.00    -0.000 C 
BRANCH  15  16
ATOM     16  C   UNL     1      15.172   0.737   3.736  1.00  0.00    -0.000 C 
BRANCH  16  17
ATOM     17  C   UNL     1      15.595   1.901   4.650  1.00  0.00    -0.000 C 
BRANCH  17  18
ATOM     18  C   UNL     1      15.243   1.669   6.138  1.00  0.00    -0.000 C 
BRANCH  18  19
ATOM     19  C   UNL     1      13.756   1.892   6.458  1.00  0.00    -0.003 C 
ATOM     20  C   UNL     1      13.038   0.608   6.872  1.00  0.00     0.004 C 
ENDBRANCH  18  19
ENDBRANCH  17  18
ENDBRANCH  16  17
ENDBRANCH  15  16
ENDBRANCH  14  15
ENDBRANCH  13  14
ENDBRANCH  12  13
ENDBRANCH   1  12
TORSDOF 16
ENDMDL
MODEL 4
REMARK VINA RESULT:    -4.334      4.094      5.549
REMARK INTER + INTRA:         -10.846
REMARK INTER:                  -8.258
REMARK INTRA:                  -2.588
REMARK UNBOUND:                -2.457
REMARK SMILES CCCCCCCCCCCCCCCCCC(=O)[O-]
REMARK SMILES IDX 10 1 11 2 12 3 13 4 14 5 15 6 16 7 17 8 18 9 19 10 20 11
REMARK SMILES IDX 9 12 8 13 7 14 6 15 5 16 4 17 3 18 2 19 1 20
REMARK H PARENT
REMARK Flexibility Score: inf
ROOT
ATOM      1  C   UNL     1      15.347   3.041   0.847  1.00  0.00     0.000 C 
ENDROOT
BRANCH   1   2
ATOM      2  C   UNL     1      14.370   3.598   1.895  1.00  0.00     0.000 C 
BRANCH   2   3
ATOM      3  C   UNL     1      13.845   2.517   2.857  1.00  0.00     0.000 C 
BRANCH   3   4
ATOM      4  C   UNL     1      14.570   1.161   2.724  1.00  0.00     0.000 C 
BRANCH   4   5
ATOM      5  C   UNL     1      15.229   0.724   4.041  1.00  0.00     0.000 C 
BRANCH   5   6
ATOM      6  C   UNL     1      15.656   1.940   4.873  1.00  0.00     0.000 C 
BRANCH   6   7
ATOM      7  C   UNL     1      15.253   1.768   6.345  1.00  0.00     0.006 C 
BRANCH   7   8
ATOM      8  C   UNL     1      13.731   1.669   6.522  1.00  0.00     0.053 C 
BRANCH   8   9
ATOM      9  C   UNL     1      13.335   0.415   7.239  1.00  0.00     0.041 C 
ATOM     10  O   UNL     1      12.220   0.343   7.820  1.00  0.00    -0.550 OA
ATOM     11  O   UNL     1      14.208  -0.664   7.290  1.00  0.00    -0.550 OA
ENDBRANCH   8   9
ENDBRANCH   7   8
ENDBRANCH   6   7
ENDBRANCH   5   6
ENDBRANCH   4   5
ENDBRANCH   3   4
ENDBRANCH   2   3
ENDBRANCH   1   2
BRANCH   1  12
ATOM     12  C   UNL     1      15.345   3.841  -0.468  1.00  0.00     0.000 C 
BRANCH  12  13
ATOM     13  C   UNL     1      15.473   3.001  -1.753  1.00  0.00    -0.000 C 
BRANCH  13  14
ATOM     14  C   UNL     1      15.963   1.567  -1.490  1.00  0.00    -0.000 C 
BRANCH  14  15
ATOM     15  C   UNL     1      15.065   0.505  -2.147  1.00  0.00    -0.000 C 
BRANCH  15  16
ATOM     16  C   UNL     1      14.373  -0.404  -1.117  1.00  0.00    -0.000 C 
BRANCH  16  17
ATOM     17  C   UNL     1      12.845  -0.218  -1.114  1.00  0.00    -0.000 C 
BRANCH  17  18
ATOM     18  C   UNL     1      12.380   1.010  -0.298  1.00  0.00    -0.000 C 
BRANCH  18  19
ATOM     19  C   UNL     1      11.960   2.204  -1.171  1.00  0.00    -0.003 C 
ATOM     20  C   UNL     1      11.371   3.356  -0.359  1.00  0.00     0.004 C 
ENDBRANCH  18  19
ENDBRANCH  17  18
ENDBRANCH  16  17
ENDBRANCH  15  16
ENDBRANCH  14  15
ENDBRANCH  13  14
ENDBRANCH  12  13
ENDBRANCH   1  12
TORSDOF 16
ENDMDL
MODEL 5
REMARK VINA RESULT:    -4.327      4.172      6.164
REMARK INTER + INTRA:         -10.832
REMARK INTER:                  -8.258
REMARK INTRA:                  -2.574
REMARK UNBOUND:                -2.457
REMARK SMILES CCCCCCCCCCCCCCCCCC(=O)[O-]
REMARK SMILES IDX 10 1 11 2 12 3 13 4 14 5 15 6 16 7 17 8 18 9 19 10 20 11
REMARK SMILES IDX 9 12 8 13 7 14 6 15 5 16 4 17 3 18 2 19 1 20
REMARK H PARENT
REMARK Flexibility Score: inf
ROOT
ATOM      1  C   UNL     1      16.122   2.832  -0.502  1.00  0.00     0.000 C 
ENDROOT
BRANCH   1   2
ATOM      2  C   UNL     1      15.232   4.044  -0.183  1.00  0.00     0.000 C 
BRANCH   2   3
ATOM      3  C   UNL     1      14.694   4.026   1.259  1.00  0.00     0.000 C 
BRANCH   3   4
ATOM      4  C   UNL     1      15.130   2.789   2.072  1.00  0.00     0.000 C 
BRANCH   4   5
ATOM      5  C   UNL     1      14.102   2.412   3.151  1.00  0.00     0.000 C 
BRANCH   5   6
ATOM      6  C   UNL     1      14.566   1.188   3.949  1.00  0.00     0.000 C 
BRANCH   6   7
ATOM      7  C   UNL     1      14.626   1.501   5.452  1.00  0.00     0.006 C 
BRANCH   7   8
ATOM      8  C   UNL     1      15.823   0.828   6.136  1.00  0.00     0.053 C 
BRANCH   8   9
ATOM      9  C   UNL     1      16.957   1.785   6.340  1.00  0.00     0.041 C 
ATOM     10  O   UNL     1      17.907   1.487   7.112  1.00  0.00    -0.550 OA
ATOM     11  O   UNL     1      16.953   3.017   5.698  1.00  0.00    -0.550 OA
ENDBRANCH   8   9
ENDBRANCH   7   8
ENDBRANCH   6   7
ENDBRANCH   5   6
ENDBRANCH   4   5
ENDBRANCH   3   4
ENDBRANCH   2   3
ENDBRANCH   1   2
BRANCH   1  12
ATOM     12  C   UNL     1      15.771   2.159  -1.842  1.00  0.00     0.000 C 
BRANCH  12  13
ATOM     13  C   UNL     1      15.429   0.659  -1.759  1.00  0.00    -0.000 C 
BRANCH  13  14
ATOM     14  C   UNL     1      13.919   0.379  -1.853  1.00  0.00    -0.000 C 
BRANCH  14  15
ATOM     15  C   UNL     1      13.288   0.072  -0.485  1.00  0.00    -0.000 C 
BRANCH  15  16
ATOM     16  C   UNL     1      12.453   1.245   0.058  1.00  0.00    -0.000 C 
BRANCH  16  17
ATOM     17  C   UNL     1      12.078   2.249  -1.046  1.00  0.00    -0.000 C 
BRANCH  17  18
ATOM     18  C   UNL     1      11.330   3.494  -0.514  1.00  0.00    -0.000 C 
BRANCH  18  19
ATOM     19  C   UNL     1      11.111   3.473   1.008  1.00  0.00    -0.003 C 
ATOM     20  C   UNL     1      11.122   4.869   1.629  1.00  0.00     0.004 C 
ENDBRANCH  18  19
ENDBRANCH  17  18
ENDBRANCH  16  17
ENDBRANCH  15  16
ENDBRANCH  14  15
ENDBRANCH  13  14
ENDBRANCH  12  13
ENDBRANCH   1  12
TORSDOF 16
ENDMDL
MODEL 6
REMARK VINA RESULT:    -4.302      5.019      6.659
REMARK INTER + INTRA:         -10.783
REMARK INTER:                  -8.594
REMARK INTRA:                  -2.189
REMARK UNBOUND:                -2.457
REMARK SMILES CCCCCCCCCCCCCCCCCC(=O)[O-]
REMARK SMILES IDX 10 1 11 2 12 3 13 4 14 5 15 6 16 7 17 8 18 9 19 10 20 11
REMARK SMILES IDX 9 12 8 13 7 14 6 15 5 16 4 17 3 18 2 19 1 20
REMARK H PARENT
REMARK Flexibility Score: inf
ROOT
ATOM      1  C   UNL     1      15.376   2.898   0.986  1.00  0.00     0.000 C 
ENDROOT
BRANCH   1   2
ATOM      2  C   UNL     1      14.255   3.407   1.906  1.00  0.00     0.000 C 
BRANCH   2   3
ATOM      3  C   UNL     1      13.796   2.353   2.929  1.00  0.00     0.000 C 
BRANCH   3   4
ATOM      4  C   UNL     1      14.727   1.126   3.019  1.00  0.00     0.000 C 
BRANCH   4   5
ATOM      5  C   UNL     1      15.282   0.921   4.437  1.00  0.00     0.000 C 
BRANCH   5   6
ATOM      6  C   UNL     1      16.020   2.174   4.926  1.00  0.00     0.000 C 
BRANCH   6   7
ATOM      7  C   UNL     1      16.282   2.103   6.438  1.00  0.00     0.006 C 
BRANCH   7   8
ATOM      8  C   UNL     1      16.918   0.770   6.854  1.00  0.00     0.053 C 
BRANCH   8   9
ATOM      9  C   UNL     1      18.365   0.930   7.207  1.00  0.00     0.041 C 
ATOM     10  O   UNL     1      19.257   0.666   6.358  1.00  0.00    -0.550 OA
ATOM     11  O   UNL     1      18.729   1.345   8.482  1.00  0.00    -0.550 OA
ENDBRANCH   8   9
ENDBRANCH   7   8
ENDBRANCH   6   7
ENDBRANCH   5   6
ENDBRANCH   4   5
ENDBRANCH   3   4
ENDBRANCH   2   3
ENDBRANCH   1   2
BRANCH   1  12
ATOM     12  C   UNL     1      15.606   3.797  -0.243  1.00  0.00     0.000 C 
BRANCH  12  13
ATOM     13  C   UNL     1      15.297   3.146  -1.605  1.00  0.00    -0.000 C 
BRANCH  13  14
ATOM     14  C   UNL     1      15.871   1.725  -1.739  1.00  0.00    -0.000 C 
BRANCH  14  15
ATOM     15  C   UNL     1      14.786   0.674  -2.027  1.00  0.00    -0.000 C 
BRANCH  15  16
ATOM     16  C   UNL     1      14.322  -0.060  -0.757  1.00  0.00    -0.000 C 
BRANCH  16  17
ATOM     17  C   UNL     1      12.851   0.241  -0.419  1.00  0.00    -0.000 C 
BRANCH  17  18
ATOM     18  C   UNL     1      12.046   0.787  -1.620  1.00  0.00    -0.000 C 
BRANCH  18  19
ATOM     19  C   UNL     1      11.067   1.911  -1.244  1.00  0.00    -0.003 C 
ATOM     20  C   UNL     1      11.774   3.187  -0.788  1.00  0.00     0.004 C 
ENDBRANCH  18  19
ENDBRANCH  17  18
ENDBRANCH  16  17
ENDBRANCH  15  16
ENDBRANCH  14  15
ENDBRANCH  13  14
ENDBRANCH  12  13
ENDBRANCH   1  12
TORSDOF 16
ENDMDL
MODEL 7
REMARK VINA RESULT:    -4.299      3.505      5.868
REMARK INTER + INTRA:         -10.777
REMARK INTER:                  -8.291
REMARK INTRA:                  -2.486
REMARK UNBOUND:                -2.457
REMARK SMILES CCCCCCCCCCCCCCCCCC(=O)[O-]
REMARK SMILES IDX 10 1 11 2 12 3 13 4 14 5 15 6 16 7 17 8 18 9 19 10 20 11
REMARK SMILES IDX 9 12 8 13 7 14 6 15 5 16 4 17 3 18 2 19 1 20
REMARK H PARENT
REMARK Flexibility Score: inf
ROOT
ATOM      1  C   UNL     1      16.012   1.911  -1.292  1.00  0.00     0.000 C 
ENDROOT
BRANCH   1   2
ATOM      2  C   UNL     1      15.374   3.270  -1.620  1.00  0.00     0.000 C 
BRANCH   2   3
ATOM      3  C   UNL     1      15.055   4.099  -0.363  1.00  0.00     0.000 C 
BRANCH   3   4
ATOM      4  C   UNL     1      15.315   3.348   0.961  1.00  0.00     0.000 C 
BRANCH   4   5
ATOM      5  C   UNL     1      14.160   3.517   1.960  1.00  0.00     0.000 C 
BRANCH   5   6
ATOM      6  C   UNL     1      13.966   2.248   2.798  1.00  0.00     0.000 C 
BRANCH   6   7
ATOM      7  C   UNL     1      15.243   1.901   3.577  1.00  0.00     0.006 C 
BRANCH   7   8
ATOM      8  C   UNL     1      14.960   0.985   4.775  1.00  0.00     0.053 C 
BRANCH   8   9
ATOM      9  C   UNL     1      14.754   1.765   6.037  1.00  0.00     0.041 C 
ATOM     10  O   UNL     1      13.595   1.919   6.505  1.00  0.00    -0.550 OA
ATOM     11  O   UNL     1      15.839   2.347   6.680  1.00  0.00    -0.550 OA
ENDBRANCH   8   9
ENDBRANCH   7   8
ENDBRANCH   6   7
ENDBRANCH   5   6
ENDBRANCH   4   5
ENDBRANCH   3   4
ENDBRANCH   2   3
ENDBRANCH   1   2
BRANCH   1  12
ATOM     12  C   UNL     1      15.436   0.754  -2.130  1.00  0.00     0.000 C 
BRANCH  12  13
ATOM     13  C   UNL     1      13.928   0.497  -1.952  1.00  0.00    -0.000 C 
BRANCH  13  14
ATOM     14  C   UNL     1      13.500   0.411  -0.477  1.00  0.00    -0.000 C 
BRANCH  14  15
ATOM     15  C   UNL     1      12.141   1.081  -0.215  1.00  0.00    -0.000 C 
BRANCH  15  16
ATOM     16  C   UNL     1      11.927   2.340  -1.073  1.00  0.00    -0.000 C 
BRANCH  16  17
ATOM     17  C   UNL     1      10.832   3.255  -0.497  1.00  0.00    -0.000 C 
BRANCH  17  18
ATOM     18  C   UNL     1      10.783   3.253   1.048  1.00  0.00    -0.000 C 
BRANCH  18  19
ATOM     19  C   UNL     1      10.402   4.615   1.651  1.00  0.00    -0.003 C 
ATOM     20  C   UNL     1       9.769   5.561   0.631  1.00  0.00     0.004 C 
ENDBRANCH  18  19
ENDBRANCH  17  18
ENDBRANCH  16  17
ENDBRANCH  15  16
ENDBRANCH  14  15
ENDBRANCH  13  14
ENDBRANCH  12  13
ENDBRANCH   1  12
TORSDOF 16
ENDMDL
MODEL 8
REMARK VINA RESULT:    -4.272      2.900      6.183
REMARK INTER + INTRA:         -10.726
REMARK INTER:                  -8.395
REMARK INTRA:                  -2.330
REMARK UNBOUND:                -2.457
REMARK SMILES CCCCCCCCCCCCCCCCCC(=O)[O-]
REMARK SMILES IDX 10 1 11 2 12 3 13 4 14 5 15 6 16 7 17 8 18 9 19 10 20 11
REMARK SMILES IDX 9 12 8 13 7 14 6 15 5 16 4 17 3 18 2 19 1 20
REMARK H PARENT
REMARK Flexibility Score: inf
ROOT
ATOM      1  C   UNL     1      15.340   2.988   0.805  1.00  0.00     0.000 C 
ENDROOT
BRANCH   1   2
ATOM      2  C   UNL     1      15.489   3.817  -0.481  1.00  0.00     0.000 C 
BRANCH   2   3
ATOM      3  C   UNL     1      15.559   2.947  -1.748  1.00  0.00     0.000 C 
BRANCH   3   4
ATOM      4  C   UNL     1      15.934   1.475  -1.474  1.00  0.00     0.000 C 
BRANCH   4   5
ATOM      5  C   UNL     1      14.939   0.494  -2.112  1.00  0.00     0.000 C 
BRANCH   5   6
ATOM      6  C   UNL     1      14.394  -0.492  -1.073  1.00  0.00     0.000 C 
BRANCH   6   7
ATOM      7  C   UNL     1      13.150   0.077  -0.374  1.00  0.00     0.006 C 
BRANCH   7   8
ATOM      8  C   UNL     1      12.245   0.852  -1.342  1.00  0.00     0.053 C 
BRANCH   8   9
ATOM      9  C   UNL     1      11.786   2.151  -0.754  1.00  0.00     0.041 C 
ATOM     10  O   UNL     1      11.097   2.162   0.300  1.00  0.00    -0.550 OA
ATOM     11  O   UNL     1      12.097   3.349  -1.385  1.00  0.00    -0.550 OA
ENDBRANCH   8   9
ENDBRANCH   7   8
ENDBRANCH   6   7
ENDBRANCH   5   6
ENDBRANCH   4   5
ENDBRANCH   3   4
ENDBRANCH   2   3
ENDBRANCH   1   2
BRANCH   1  12
ATOM     12  C   UNL     1      14.187   3.468   1.705  1.00  0.00     0.000 C 
BRANCH  12  13
ATOM     13  C   UNL     1      13.775   2.495   2.826  1.00  0.00    -0.000 C 
BRANCH  13  14
ATOM     14  C   UNL     1      14.622   1.211   2.851  1.00  0.00    -0.000 C 
BRANCH  14  15
ATOM     15  C   UNL     1      14.860   0.688   4.278  1.00  0.00    -0.000 C 
BRANCH  15  16
ATOM     16  C   UNL     1      14.225   1.588   5.352  1.00  0.00    -0.000 C 
BRANCH  16  17
ATOM     17  C   UNL     1      15.226   1.962   6.460  1.00  0.00    -0.000 C 
BRANCH  17  18
ATOM     18  C   UNL     1      16.666   2.172   5.939  1.00  0.00    -0.000 C 
BRANCH  18  19
ATOM     19  C   UNL     1      17.731   1.428   6.761  1.00  0.00    -0.003 C 
ATOM     20  C   UNL     1      17.514  -0.085   6.783  1.00  0.00     0.004 C 
ENDBRANCH  18  19
ENDBRANCH  17  18
ENDBRANCH  16  17
ENDBRANCH  15  16
ENDBRANCH  14  15
ENDBRANCH  13  14
ENDBRANCH  12  13
ENDBRANCH   1  12
TORSDOF 16
ENDMDL
MODEL 9
REMARK VINA RESULT:    -4.261      4.033      5.893
REMARK INTER + INTRA:         -10.705
REMARK INTER:                  -8.269
REMARK INTRA:                  -2.436
REMARK UNBOUND:                -2.457
REMARK SMILES CCCCCCCCCCCCCCCCCC(=O)[O-]
REMARK SMILES IDX 10 1 11 2 12 3 13 4 14 5 15 6 16 7 17 8 18 9 19 10 20 11
REMARK SMILES IDX 9 12 8 13 7 14 6 15 5 16 4 17 3 18 2 19 1 20
REMARK H PARENT
REMARK Flexibility Score: inf
ROOT
ATOM      1  C   UNL     1      10.408   4.788   1.682  1.00  0.00     0.000 C 
ENDROOT
BRANCH   1   2
ATOM      2  C   UNL     1      11.918   5.068   1.634  1.00  0.00     0.000 C 
BRANCH   2   3
ATOM      3  C   UNL     1      12.763   3.868   2.099  1.00  0.00     0.000 C 
BRANCH   3   4
ATOM      4  C   UNL     1      14.271   4.017   1.806  1.00  0.00     0.000 C 
BRANCH   4   5
ATOM      5  C   UNL     1      15.049   2.724   2.095  1.00  0.00     0.000 C 
BRANCH   5   6
ATOM      6  C   UNL     1      14.258   1.802   3.030  1.00  0.00     0.000 C 
BRANCH   6   7
ATOM      7  C   UNL     1      15.186   1.122   4.048  1.00  0.00     0.006 C 
BRANCH   7   8
ATOM      8  C   UNL     1      15.033   1.712   5.456  1.00  0.00     0.053 C 
BRANCH   8   9
ATOM      9  C   UNL     1      16.361   1.983   6.093  1.00  0.00     0.041 C 
ATOM     10  O   UNL     1      17.025   3.002   5.766  1.00  0.00    -0.550 OA
ATOM     11  O   UNL     1      16.878   1.097   7.029  1.00  0.00    -0.550 OA
ENDBRANCH   8   9
ENDBRANCH   7   8
ENDBRANCH   6   7
ENDBRANCH   5   6
ENDBRANCH   4   5
ENDBRANCH   3   4
ENDBRANCH   2   3
ENDBRANCH   1   2
BRANCH   1  12
ATOM     12  C   UNL     1       9.665   5.257   0.418  1.00  0.00     0.000 C 
BRANCH  12  13
ATOM     13  C   UNL     1       9.577   4.222  -0.720  1.00  0.00    -0.000 C 
BRANCH  13  14
ATOM     14  C   UNL     1       9.622   2.769  -0.218  1.00  0.00    -0.000 C 
BRANCH  14  15
ATOM     15  C   UNL     1      10.521   1.871  -1.084  1.00  0.00    -0.000 C 
BRANCH  15  16
ATOM     16  C   UNL     1      11.841   1.503  -0.384  1.00  0.00    -0.000 C 
BRANCH  16  17
ATOM     17  C   UNL     1      13.069   1.831  -1.252  1.00  0.00    -0.000 C 
BRANCH  17  18
ATOM     18  C   UNL     1      13.157   3.323  -1.647  1.00  0.00    -0.000 C 
BRANCH  18  19
ATOM     19  C   UNL     1      14.592   3.798  -1.934  1.00  0.00    -0.003 C 
ATOM     20  C   UNL     1      15.650   2.782  -1.506  1.00  0.00     0.004 C 
ENDBRANCH  18  19
ENDBRANCH  17  18
ENDBRANCH  16  17
ENDBRANCH  15  16
ENDBRANCH  14  15
ENDBRANCH  13  14
ENDBRANCH  12  13
ENDBRANCH   1  12
TORSDOF 16
ENDMDL
