MODEL 1
REMARK VINA RESULT:    -1.052      0.000      0.000
REMARK INTER + INTRA:          -2.466
REMARK INTER:                  -2.036
REMARK INTRA:                  -0.429
REMARK UNBOUND:                -0.429
REMARK SMILES CCCCCCCCCCCCCCCCCC(=O)[O-]
REMARK SMILES IDX 10 1 11 2 12 3 13 4 14 5 15 6 16 7 17 8 18 9 19 10 20 11
REMARK SMILES IDX 9 12 8 13 7 14 6 15 5 16 4 17 3 18 2 19 1 20
REMARK H PARENT
REMARK Flexibility Score: inf
ROOT
ATOM      1  C   UNL     1       3.634  43.395  11.393  1.00  0.00     0.000 C 
ENDROOT
BRANCH   1   2
ATOM      2  C   UNL     1       4.021  44.875  11.212  1.00  0.00     0.000 C 
BRANCH   2   3
ATOM      3  C   UNL     1       5.519  45.125  11.457  1.00  0.00     0.000 C 
BRANCH   3   4
ATOM      4  C   UNL     1       6.371  44.873  10.203  1.00  0.00     0.000 C 
BRANCH   4   5
ATOM      5  C   UNL     1       7.839  44.625  10.578  1.00  0.00     0.000 C 
BRANCH   5   6
ATOM      6  C   UNL     1       8.254  43.154  10.410  1.00  0.00     0.000 C 
BRANCH   6   7
ATOM      7  C   UNL     1       7.505  42.214  11.371  1.00  0.00     0.006 C 
BRANCH   7   8
ATOM      8  C   UNL     1       8.041  42.305  12.805  1.00  0.00     0.053 C 
BRANCH   8   9
ATOM      9  C   UNL     1       6.937  42.234  13.817  1.00  0.00     0.041 C 
ATOM     10  O   UNL     1       7.002  41.412  14.770  1.00  0.00    -0.550 OA
ATOM     11  O   UNL     1       5.846  43.088  13.717  1.00  0.00    -0.550 OA
ENDBRANCH   8   9
ENDBRANCH   7   8
ENDBRANCH   6   7
ENDBRANCH   5   6
ENDBRANCH   4   5
ENDBRANCH   3   4
ENDBRANCH   2   3
ENDBRANCH   1   2
BRANCH   1  12
ATOM     12  C   UNL     1       2.535  42.951  10.416  1.00  0.00     0.000 C 
BRANCH  12  13
ATOM     13  C   UNL     1       1.118  43.133  10.987  1.00  0.00    -0.000 C 
BRANCH  13  14
ATOM     14  C   UNL     1       1.142  43.698  12.423  1.00  0.00    -0.000 C 
BRANCH  14  15
ATOM     15  C   UNL     1      -0.247  44.098  12.954  1.00  0.00    -0.000 C 
BRANCH  15  16
ATOM     16  C   UNL     1      -0.181  44.843  14.297  1.00  0.00    -0.000 C 
BRANCH  16  17
ATOM     17  C   UNL     1      -1.569  45.119  14.902  1.00  0.00    -0.000 C 
BRANCH  17  18
ATOM     18  C   UNL     1      -2.629  44.034  14.635  1.00  0.00    -0.000 C 
BRANCH  18  19
ATOM     19  C   UNL     1      -2.147  42.622  15.003  1.00  0.00    -0.003 C 
ATOM     20  C   UNL     1      -2.979  41.556  14.297  1.00  0.00     0.004 C 
ENDBRANCH  18  19
ENDBRANCH  17  18
ENDBRANCH  16  17
ENDBRANCH  15  16
ENDBRANCH  14  15
ENDBRANCH  13  14
ENDBRANCH  12  13
ENDBRANCH   1  12
TORSDOF 16
ENDMDL
MODEL 2
REMARK VINA RESULT:     0.054      1.306      2.485
REMARK INTER + INTRA:          -0.326
REMARK INTER:                   0.736
REMARK INTRA:                  -1.062
REMARK UNBOUND:                -0.429
REMARK SMILES CCCCCCCCCCCCCCCCCC(=O)[O-]
REMARK SMILES IDX 10 1 11 2 12 3 13 4 14 5 15 6 16 7 17 8 18 9 19 10 20 11
REMARK SMILES IDX 9 12 8 13 7 14 6 15 5 16 4 17 3 18 2 19 1 20
REMARK H PARENT
REMARK Flexibility Score: inf
ROOT
ATOM      1  C   UNL     1       1.020  42.517  10.353  1.00  0.00     0.000 C 
ENDROOT
BRANCH   1   2
ATOM      2  C   UNL     1       2.508  42.910  10.416  1.00  0.00     0.000 C 
BRANCH   2   3
ATOM      3  C   UNL     1       2.762  44.336   9.900  1.00  0.00     0.000 C 
BRANCH   3   4
ATOM      4  C   UNL     1       4.078  44.928  10.428  1.00  0.00     0.000 C 
BRANCH   4   5
ATOM      5  C   UNL     1       4.335  44.488  11.876  1.00  0.00     0.000 C 
BRANCH   5   6
ATOM      6  C   UNL     1       5.756  43.938  12.086  1.00  0.00     0.000 C 
BRANCH   6   7
ATOM      7  C   UNL     1       6.807  44.673  11.234  1.00  0.00     0.006 C 
BRANCH   7   8
ATOM      8  C   UNL     1       7.885  43.723  10.697  1.00  0.00     0.053 C 
BRANCH   8   9
ATOM      9  C   UNL     1       7.886  42.413  11.424  1.00  0.00     0.041 C 
ATOM     10  O   UNL     1       7.639  41.344  10.805  1.00  0.00    -0.550 OA
ATOM     11  O   UNL     1       8.175  42.371  12.783  1.00  0.00    -0.550 OA
ENDBRANCH   8   9
ENDBRANCH   7   8
ENDBRANCH   6   7
ENDBRANCH   5   6
ENDBRANCH   4   5
ENDBRANCH   3   4
ENDBRANCH   2   3
ENDBRANCH   1   2
BRANCH   1  12
ATOM     12  C   UNL     1       0.235  42.990  11.586  1.00  0.00     0.000 C 
BRANCH  12  13
ATOM     13  C   UNL     1       1.140  43.584  12.680  1.00  0.00    -0.000 C 
BRANCH  13  14
ATOM     14  C   UNL     1       0.647  44.970  13.148  1.00  0.00    -0.000 C 
BRANCH  14  15
ATOM     15  C   UNL     1      -0.151  44.931  14.464  1.00  0.00    -0.000 C 
BRANCH  15  16
ATOM     16  C   UNL     1      -1.662  45.118  14.252  1.00  0.00    -0.000 C 
BRANCH  16  17
ATOM     17  C   UNL     1      -2.501  43.978  14.858  1.00  0.00    -0.000 C 
BRANCH  17  18
ATOM     18  C   UNL     1      -1.829  42.593  14.852  1.00  0.00    -0.000 C 
BRANCH  18  19
ATOM     19  C   UNL     1      -2.598  41.557  14.018  1.00  0.00    -0.003 C 
ATOM     20  C   UNL     1      -3.876  41.119  14.727  1.00  0.00     0.004 C 
ENDBRANCH  18  19
ENDBRANCH  17  18
ENDBRANCH  16  17
ENDBRANCH  15  16
ENDBRANCH  14  15
ENDBRANCH  13  14
ENDBRANCH  12  13
ENDBRANCH   1  12
TORSDOF 16
ENDMDL
MODEL 3
REMARK VINA RESULT:     0.297      3.050      8.018
REMARK INTER + INTRA:           0.146
REMARK INTER:                   1.226
REMARK INTRA:                  -1.080
REMARK UNBOUND:                -0.429
REMARK SMILES CCCCCCCCCCCCCCCCCC(=O)[O-]
REMARK SMILES IDX 10 1 11 2 12 3 13 4 14 5 15 6 16 7 17 8 18 9 19 10 20 11
REMARK SMILES IDX 9 12 8 13 7 14 6 15 5 16 4 17 3 18 2 19 1 20
REMARK H PARENT
REMARK Flexibility Score: inf
ROOT
ATOM      1  C   UNL     1       3.478  43.252  11.716  1.00  0.00     0.000 C 
ENDROOT
BRANCH   1   2
ATOM      2  C   UNL     1       2.643  42.472  10.684  1.00  0.00     0.000 C 
BRANCH   2   3
ATOM      3  C   UNL     1       1.259  43.101  10.450  1.00  0.00     0.000 C 
BRANCH   3   4
ATOM      4  C   UNL     1       0.121  42.259  11.046  1.00  0.00     0.000 C 
BRANCH   4   5
ATOM      5  C   UNL     1      -0.533  42.981  12.234  1.00  0.00     0.000 C 
BRANCH   5   6
ATOM      6  C   UNL     1       0.408  43.998  12.901  1.00  0.00     0.000 C 
BRANCH   6   7
ATOM      7  C   UNL     1      -0.122  44.494  14.258  1.00  0.00     0.006 C 
BRANCH   7   8
ATOM      8  C   UNL     1      -1.526  45.099  14.145  1.00  0.00     0.053 C 
BRANCH   8   9
ATOM      9  C   UNL     1      -2.532  44.327  14.944  1.00  0.00     0.041 C 
ATOM     10  O   UNL     1      -2.530  43.067  14.917  1.00  0.00    -0.550 OA
ATOM     11  O   UNL     1      -3.461  44.998  15.729  1.00  0.00    -0.550 OA
ENDBRANCH   8   9
ENDBRANCH   7   8
ENDBRANCH   6   7
ENDBRANCH   5   6
ENDBRANCH   4   5
ENDBRANCH   3   4
ENDBRANCH   2   3
ENDBRANCH   1   2
BRANCH   1  12
ATOM     12  C   UNL     1       3.494  44.763  11.437  1.00  0.00     0.000 C 
BRANCH  12  13
ATOM     13  C   UNL     1       4.259  45.125  10.151  1.00  0.00    -0.000 C 
BRANCH  13  14
ATOM     14  C   UNL     1       5.517  44.251   9.961  1.00  0.00    -0.000 C 
BRANCH  14  15
ATOM     15  C   UNL     1       6.824  44.952  10.373  1.00  0.00    -0.000 C 
BRANCH  15  16
ATOM     16  C   UNL     1       8.054  44.038  10.255  1.00  0.00    -0.000 C 
BRANCH  16  17
ATOM     17  C   UNL     1       8.540  43.503  11.614  1.00  0.00    -0.000 C 
BRANCH  17  18
ATOM     18  C   UNL     1       7.983  42.123  12.013  1.00  0.00    -0.000 C 
BRANCH  18  19
ATOM     19  C   UNL     1       7.278  42.133  13.378  1.00  0.00    -0.003 C 
ATOM     20  C   UNL     1       6.303  43.301  13.485  1.00  0.00     0.004 C 
ENDBRANCH  18  19
ENDBRANCH  17  18
ENDBRANCH  16  17
ENDBRANCH  15  16
ENDBRANCH  14  15
ENDBRANCH  13  14
ENDBRANCH  12  13
ENDBRANCH   1  12
TORSDOF 16
ENDMDL
MODEL 4
REMARK VINA RESULT:     0.316      1.568      2.149
REMARK INTER + INTRA:           0.182
REMARK INTER:                  -0.814
REMARK INTRA:                   0.995
REMARK UNBOUND:                -0.429
REMARK SMILES CCCCCCCCCCCCCCCCCC(=O)[O-]
REMARK SMILES IDX 10 1 11 2 12 3 13 4 14 5 15 6 16 7 17 8 18 9 19 10 20 11
REMARK SMILES IDX 9 12 8 13 7 14 6 15 5 16 4 17 3 18 2 19 1 20
REMARK H PARENT
REMARK Flexibility Score: inf
ROOT
ATOM      1  C   UNL     1       2.438  43.652  10.950  1.00  0.00     0.000 C 
ENDROOT
BRANCH   1   2
ATOM      2  C   UNL     1       3.748  43.722  10.143  1.00  0.00     0.000 C 
BRANCH   2   3
ATOM      3  C   UNL     1       4.379  45.124  10.167  1.00  0.00     0.000 C 
BRANCH   3   4
ATOM      4  C   UNL     1       5.915  45.078  10.187  1.00  0.00     0.000 C 
BRANCH   4   5
ATOM      5  C   UNL     1       6.447  45.125  11.627  1.00  0.00     0.000 C 
BRANCH   5   6
ATOM      6  C   UNL     1       5.653  44.218  12.582  1.00  0.00     0.000 C 
BRANCH   6   7
ATOM      7  C   UNL     1       6.450  42.977  13.021  1.00  0.00     0.006 C 
BRANCH   7   8
ATOM      8  C   UNL     1       7.749  42.810  12.222  1.00  0.00     0.053 C 
BRANCH   8   9
ATOM      9  C   UNL     1       7.579  41.861  11.075  1.00  0.00     0.041 C 
ATOM     10  O   UNL     1       6.798  42.145  10.127  1.00  0.00    -0.550 OA
ATOM     11  O   UNL     1       8.295  40.671  11.044  1.00  0.00    -0.550 OA
ENDBRANCH   8   9
ENDBRANCH   7   8
ENDBRANCH   6   7
ENDBRANCH   5   6
ENDBRANCH   4   5
ENDBRANCH   3   4
ENDBRANCH   2   3
ENDBRANCH   1   2
BRANCH   1  12
ATOM     12  C   UNL     1       1.277  43.059  10.136  1.00  0.00     0.000 C 
BRANCH  12  13
ATOM     13  C   UNL     1       0.310  42.225  10.994  1.00  0.00    -0.000 C 
BRANCH  13  14
ATOM     14  C   UNL     1      -0.064  42.945  12.308  1.00  0.00    -0.000 C 
BRANCH  14  15
ATOM     15  C   UNL     1       0.953  44.019  12.736  1.00  0.00    -0.000 C 
BRANCH  15  16
ATOM     16  C   UNL     1       0.380  45.008  13.763  1.00  0.00    -0.000 C 
BRANCH  16  17
ATOM     17  C   UNL     1      -1.157  45.097  13.722  1.00  0.00    -0.000 C 
BRANCH  17  18
ATOM     18  C   UNL     1      -1.856  45.004  15.091  1.00  0.00    -0.000 C 
BRANCH  18  19
ATOM     19  C   UNL     1      -3.017  43.997  15.104  1.00  0.00    -0.003 C 
ATOM     20  C   UNL     1      -2.533  42.595  14.745  1.00  0.00     0.004 C 
ENDBRANCH  18  19
ENDBRANCH  17  18
ENDBRANCH  16  17
ENDBRANCH  15  16
ENDBRANCH  14  15
ENDBRANCH  13  14
ENDBRANCH  12  13
ENDBRANCH   1  12
TORSDOF 16
ENDMDL
MODEL 5
REMARK VINA RESULT:     1.262      1.139      2.000
REMARK INTER + INTRA:           2.014
REMARK INTER:                   2.749
REMARK INTRA:                  -0.735
REMARK UNBOUND:                -0.429
REMARK SMILES CCCCCCCCCCCCCCCCCC(=O)[O-]
REMARK SMILES IDX 10 1 11 2 12 3 13 4 14 5 15 6 16 7 17 8 18 9 19 10 20 11
REMARK SMILES IDX 9 12 8 13 7 14 6 15 5 16 4 17 3 18 2 19 1 20
REMARK H PARENT
REMARK Flexibility Score: inf
ROOT
ATOM      1  C   UNL     1       3.503  42.797  11.293  1.00  0.00     0.000 C 
ENDROOT
BRANCH   1   2
ATOM      2  C   UNL     1       4.283  43.215  10.033  1.00  0.00     0.000 C 
BRANCH   2   3
ATOM      3  C   UNL     1       4.516  44.734   9.963  1.00  0.00     0.000 C 
BRANCH   3   4
ATOM      4  C   UNL     1       6.007  45.104  10.014  1.00  0.00     0.000 C 
BRANCH   4   5
ATOM      5  C   UNL     1       6.888  43.852   9.887  1.00  0.00     0.000 C 
BRANCH   5   6
ATOM      6  C   UNL     1       7.859  43.688  11.068  1.00  0.00     0.000 C 
BRANCH   6   7
ATOM      7  C   UNL     1       7.441  42.559  12.027  1.00  0.00     0.006 C 
BRANCH   7   8
ATOM      8  C   UNL     1       6.457  43.044  13.099  1.00  0.00     0.053 C 
BRANCH   8   9
ATOM      9  C   UNL     1       6.447  42.141  14.295  1.00  0.00     0.041 C 
ATOM     10  O   UNL     1       5.494  42.190  15.118  1.00  0.00    -0.550 OA
ATOM     11  O   UNL     1       7.481  41.235  14.492  1.00  0.00    -0.550 OA
ENDBRANCH   8   9
ENDBRANCH   7   8
ENDBRANCH   6   7
ENDBRANCH   5   6
ENDBRANCH   4   5
ENDBRANCH   3   4
ENDBRANCH   2   3
ENDBRANCH   1   2
BRANCH   1  12
ATOM     12  C   UNL     1       2.388  43.792  11.651  1.00  0.00     0.000 C 
BRANCH  12  13
ATOM     13  C   UNL     1       1.110  43.581  10.819  1.00  0.00    -0.000 C 
BRANCH  13  14
ATOM     14  C   UNL     1       0.689  42.097  10.773  1.00  0.00    -0.000 C 
BRANCH  14  15
ATOM     15  C   UNL     1      -0.608  41.797  11.547  1.00  0.00    -0.000 C 
BRANCH  15  16
ATOM     16  C   UNL     1      -0.957  42.888  12.572  1.00  0.00    -0.000 C 
BRANCH  16  17
ATOM     17  C   UNL     1      -1.535  42.321  13.882  1.00  0.00    -0.000 C 
BRANCH  17  18
ATOM     18  C   UNL     1      -2.339  43.323  14.732  1.00  0.00    -0.000 C 
BRANCH  18  19
ATOM     19  C   UNL     1      -1.905  44.781  14.510  1.00  0.00    -0.003 C 
ATOM     20  C   UNL     1      -0.387  44.892  14.396  1.00  0.00     0.004 C 
ENDBRANCH  18  19
ENDBRANCH  17  18
ENDBRANCH  16  17
ENDBRANCH  15  16
ENDBRANCH  14  15
ENDBRANCH  13  14
ENDBRANCH  12  13
ENDBRANCH   1  12
TORSDOF 16
ENDMDL
