MODEL 1
REMARK VINA RESULT:    -3.191      0.000      0.000
REMARK INTER + INTRA:          -8.138
REMARK INTER:                  -6.175
REMARK INTRA:                  -1.963
REMARK UNBOUND:                -1.963
REMARK SMILES CCCCCCCCCCCCCCCCCC(=O)[O-]
REMARK SMILES IDX 10 1 11 2 12 3 13 4 14 5 15 6 16 7 17 8 18 9 19 10 20 11
REMARK SMILES IDX 9 12 8 13 7 14 6 15 5 16 4 17 3 18 2 19 1 20
REMARK H PARENT
REMARK Flexibility Score: inf
ROOT
ATOM      1  C   UNL     1      50.096  47.869  42.123  1.00  0.00     0.000 C 
ENDROOT
BRANCH   1   2
ATOM      2  C   UNL     1      50.767  47.262  40.880  1.00  0.00     0.000 C 
BRANCH   2   3
ATOM      3  C   UNL     1      52.301  47.268  40.969  1.00  0.00     0.000 C 
BRANCH   3   4
ATOM      4  C   UNL     1      52.828  45.894  41.411  1.00  0.00     0.000 C 
BRANCH   4   5
ATOM      5  C   UNL     1      53.992  45.996  42.411  1.00  0.00     0.000 C 
BRANCH   5   6
ATOM      6  C   UNL     1      53.680  45.306  43.750  1.00  0.00     0.000 C 
BRANCH   6   7
ATOM      7  C   UNL     1      52.199  45.430  44.153  1.00  0.00     0.006 C 
BRANCH   7   8
ATOM      8  C   UNL     1      51.885  46.631  45.060  1.00  0.00     0.053 C 
BRANCH   8   9
ATOM      9  C   UNL     1      50.645  46.415  45.871  1.00  0.00     0.041 C 
ATOM     10  O   UNL     1      50.299  47.263  46.737  1.00  0.00    -0.550 OA
ATOM     11  O   UNL     1      49.851  45.297  45.647  1.00  0.00    -0.550 OA
ENDBRANCH   8   9
ENDBRANCH   7   8
ENDBRANCH   6   7
ENDBRANCH   5   6
ENDBRANCH   4   5
ENDBRANCH   3   4
ENDBRANCH   2   3
ENDBRANCH   1   2
BRANCH   1  12
ATOM     12  C   UNL     1      48.843  47.091  42.557  1.00  0.00     0.000 C 
BRANCH  12  13
ATOM     13  C   UNL     1      48.952  45.580  42.284  1.00  0.00    -0.000 C 
BRANCH  13  14
ATOM     14  C   UNL     1      47.657  44.913  41.784  1.00  0.00    -0.000 C 
BRANCH  14  15
ATOM     15  C   UNL     1      46.720  45.894  41.058  1.00  0.00    -0.000 C 
BRANCH  15  16
ATOM     16  C   UNL     1      45.232  45.543  41.263  1.00  0.00    -0.000 C 
BRANCH  16  17
ATOM     17  C   UNL     1      44.272  46.736  41.081  1.00  0.00    -0.000 C 
BRANCH  17  18
ATOM     18  C   UNL     1      44.979  48.091  40.875  1.00  0.00    -0.000 C 
BRANCH  18  19
ATOM     19  C   UNL     1      44.484  49.166  41.852  1.00  0.00    -0.003 C 
ATOM     20  C   UNL     1      43.066  48.866  42.329  1.00  0.00     0.004 C 
ENDBRANCH  18  19
ENDBRANCH  17  18
ENDBRANCH  16  17
ENDBRANCH  15  16
ENDBRANCH  14  15
ENDBRANCH  13  14
ENDBRANCH  12  13
ENDBRANCH   1  12
TORSDOF 16
ENDMDL
MODEL 2
REMARK VINA RESULT:    -3.020      2.666      7.245
REMARK INTER + INTRA:          -7.807
REMARK INTER:                  -6.854
REMARK INTRA:                  -0.953
REMARK UNBOUND:                -1.963
REMARK SMILES CCCCCCCCCCCCCCCCCC(=O)[O-]
REMARK SMILES IDX 10 1 11 2 12 3 13 4 14 5 15 6 16 7 17 8 18 9 19 10 20 11
REMARK SMILES IDX 9 12 8 13 7 14 6 15 5 16 4 17 3 18 2 19 1 20
REMARK H PARENT
REMARK Flexibility Score: inf
ROOT
ATOM      1  C   UNL     1      50.154  45.987  42.246  1.00  0.00     0.000 C 
ENDROOT
BRANCH   1   2
ATOM      2  C   UNL     1      48.721  45.886  42.793  1.00  0.00     0.000 C 
BRANCH   2   3
ATOM      3  C   UNL     1      47.859  44.876  42.019  1.00  0.00     0.000 C 
BRANCH   3   4
ATOM      4  C   UNL     1      46.556  45.530  41.532  1.00  0.00     0.000 C 
BRANCH   4   5
ATOM      5  C   UNL     1      46.581  47.063  41.645  1.00  0.00     0.000 C 
BRANCH   5   6
ATOM      6  C   UNL     1      45.400  47.727  40.916  1.00  0.00     0.000 C 
BRANCH   6   7
ATOM      7  C   UNL     1      44.033  47.273  41.461  1.00  0.00     0.006 C 
BRANCH   7   8
ATOM      8  C   UNL     1      43.087  48.423  41.844  1.00  0.00     0.053 C 
BRANCH   8   9
ATOM      9  C   UNL     1      43.835  49.650  42.267  1.00  0.00     0.041 C 
ATOM     10  O   UNL     1      43.840  50.003  43.476  1.00  0.00    -0.550 OA
ATOM     11  O   UNL     1      44.556  50.383  41.333  1.00  0.00    -0.550 OA
ENDBRANCH   8   9
ENDBRANCH   7   8
ENDBRANCH   6   7
ENDBRANCH   5   6
ENDBRANCH   4   5
ENDBRANCH   3   4
ENDBRANCH   2   3
ENDBRANCH   1   2
BRANCH   1  12
ATOM     12  C   UNL     1      50.390  47.277  41.443  1.00  0.00     0.000 C 
BRANCH  12  13
ATOM     13  C   UNL     1      51.883  47.612  41.272  1.00  0.00    -0.000 C 
BRANCH  13  14
ATOM     14  C   UNL     1      52.832  46.400  41.321  1.00  0.00    -0.000 C 
BRANCH  14  15
ATOM     15  C   UNL     1      53.567  46.268  42.666  1.00  0.00    -0.000 C 
BRANCH  15  16
ATOM     16  C   UNL     1      53.337  44.895  43.328  1.00  0.00    -0.000 C 
BRANCH  16  17
ATOM     17  C   UNL     1      52.452  44.944  44.590  1.00  0.00    -0.000 C 
BRANCH  17  18
ATOM     18  C   UNL     1      52.170  46.369  45.110  1.00  0.00    -0.000 C 
BRANCH  18  19
ATOM     19  C   UNL     1      51.294  46.371  46.371  1.00  0.00    -0.003 C 
ATOM     20  C   UNL     1      49.917  46.962  46.083  1.00  0.00     0.004 C 
ENDBRANCH  18  19
ENDBRANCH  17  18
ENDBRANCH  16  17
ENDBRANCH  15  16
ENDBRANCH  14  15
ENDBRANCH  13  14
ENDBRANCH  12  13
ENDBRANCH   1  12
TORSDOF 16
ENDMDL
MODEL 3
REMARK VINA RESULT:    -2.694     22.708     25.078
REMARK INTER + INTRA:          -7.176
REMARK INTER:                  -6.296
REMARK INTRA:                  -0.880
REMARK UNBOUND:                -1.963
REMARK SMILES CCCCCCCCCCCCCCCCCC(=O)[O-]
REMARK SMILES IDX 10 1 11 2 12 3 13 4 14 5 15 6 16 7 17 8 18 9 19 10 20 11
REMARK SMILES IDX 9 12 8 13 7 14 6 15 5 16 4 17 3 18 2 19 1 20
REMARK H PARENT
REMARK Flexibility Score: inf
ROOT
ATOM      1  C   UNL     1      44.368  63.833  56.693  1.00  0.00     0.000 C 
ENDROOT
BRANCH   1   2
ATOM      2  C   UNL     1      43.459  63.907  55.456  1.00  0.00     0.000 C 
BRANCH   2   3
ATOM      3  C   UNL     1      42.153  64.672  55.723  1.00  0.00     0.000 C 
BRANCH   3   4
ATOM      4  C   UNL     1      41.732  64.537  57.194  1.00  0.00     0.000 C 
BRANCH   4   5
ATOM      5  C   UNL     1      40.249  64.873  57.423  1.00  0.00     0.000 C 
BRANCH   5   6
ATOM      6  C   UNL     1      39.669  64.170  58.663  1.00  0.00     0.000 C 
BRANCH   6   7
ATOM      7  C   UNL     1      38.487  63.243  58.323  1.00  0.00     0.006 C 
BRANCH   7   8
ATOM      8  C   UNL     1      38.841  61.748  58.288  1.00  0.00     0.053 C 
BRANCH   8   9
ATOM      9  C   UNL     1      38.380  61.031  59.519  1.00  0.00     0.041 C 
ATOM     10  O   UNL     1      39.147  60.222  60.106  1.00  0.00    -0.550 OA
ATOM     11  O   UNL     1      37.117  61.282  60.040  1.00  0.00    -0.550 OA
ENDBRANCH   8   9
ENDBRANCH   7   8
ENDBRANCH   6   7
ENDBRANCH   5   6
ENDBRANCH   4   5
ENDBRANCH   3   4
ENDBRANCH   2   3
ENDBRANCH   1   2
BRANCH   1  12
ATOM     12  C   UNL     1      45.288  65.058  56.824  1.00  0.00     0.000 C 
BRANCH  12  13
ATOM     13  C   UNL     1      46.282  64.939  57.993  1.00  0.00    -0.000 C 
BRANCH  13  14
ATOM     14  C   UNL     1      46.232  63.603  58.757  1.00  0.00    -0.000 C 
BRANCH  14  15
ATOM     15  C   UNL     1      46.050  63.786  60.274  1.00  0.00    -0.000 C 
BRANCH  15  16
ATOM     16  C   UNL     1      47.395  63.949  61.011  1.00  0.00    -0.000 C 
BRANCH  16  17
ATOM     17  C   UNL     1      48.605  63.372  60.248  1.00  0.00    -0.000 C 
BRANCH  17  18
ATOM     18  C   UNL     1      49.850  64.282  60.256  1.00  0.00    -0.000 C 
BRANCH  18  19
ATOM     19  C   UNL     1      51.041  63.654  59.519  1.00  0.00    -0.003 C 
ATOM     20  C   UNL     1      51.874  64.718  58.811  1.00  0.00     0.004 C 
ENDBRANCH  18  19
ENDBRANCH  17  18
ENDBRANCH  16  17
ENDBRANCH  15  16
ENDBRANCH  14  15
ENDBRANCH  13  14
ENDBRANCH  12  13
ENDBRANCH   1  12
TORSDOF 16
ENDMDL
MODEL 4
REMARK VINA RESULT:    -2.574      2.907      7.203
REMARK INTER + INTRA:          -6.944
REMARK INTER:                  -5.999
REMARK INTRA:                  -0.945
REMARK UNBOUND:                -1.963
REMARK SMILES CCCCCCCCCCCCCCCCCC(=O)[O-]
REMARK SMILES IDX 10 1 11 2 12 3 13 4 14 5 15 6 16 7 17 8 18 9 19 10 20 11
REMARK SMILES IDX 9 12 8 13 7 14 6 15 5 16 4 17 3 18 2 19 1 20
REMARK H PARENT
REMARK Flexibility Score: inf
ROOT
ATOM      1  C   UNL     1      51.701  47.900  41.765  1.00  0.00     0.000 C 
ENDROOT
BRANCH   1   2
ATOM      2  C   UNL     1      50.643  47.226  40.875  1.00  0.00     0.000 C 
BRANCH   2   3
ATOM      3  C   UNL     1      49.265  47.901  40.975  1.00  0.00     0.000 C 
BRANCH   3   4
ATOM      4  C   UNL     1      48.325  47.090  41.879  1.00  0.00     0.000 C 
BRANCH   4   5
ATOM      5  C   UNL     1      47.016  46.695  41.176  1.00  0.00     0.000 C 
BRANCH   5   6
ATOM      6  C   UNL     1      45.783  47.370  41.801  1.00  0.00     0.000 C 
BRANCH   6   7
ATOM      7  C   UNL     1      45.503  48.764  41.209  1.00  0.00     0.006 C 
BRANCH   7   8
ATOM      8  C   UNL     1      44.023  49.037  40.898  1.00  0.00     0.053 C 
BRANCH   8   9
ATOM      9  C   UNL     1      43.115  48.497  41.960  1.00  0.00     0.041 C 
ATOM     10  O   UNL     1      42.714  47.305  41.904  1.00  0.00    -0.550 OA
ATOM     11  O   UNL     1      42.740  49.300  43.030  1.00  0.00    -0.550 OA
ENDBRANCH   8   9
ENDBRANCH   7   8
ENDBRANCH   6   7
ENDBRANCH   5   6
ENDBRANCH   4   5
ENDBRANCH   3   4
ENDBRANCH   2   3
ENDBRANCH   1   2
BRANCH   1  12
ATOM     12  C   UNL     1      53.112  47.829  41.160  1.00  0.00     0.000 C 
BRANCH  12  13
ATOM     13  C   UNL     1      53.573  46.388  40.881  1.00  0.00    -0.000 C 
BRANCH  13  14
ATOM     14  C   UNL     1      54.639  45.845  41.850  1.00  0.00    -0.000 C 
BRANCH  14  15
ATOM     15  C   UNL     1      54.061  44.875  42.895  1.00  0.00    -0.000 C 
BRANCH  15  16
ATOM     16  C   UNL     1      53.194  45.596  43.948  1.00  0.00    -0.000 C 
BRANCH  16  17
ATOM     17  C   UNL     1      51.759  45.046  44.067  1.00  0.00    -0.000 C 
BRANCH  17  18
ATOM     18  C   UNL     1      51.073  45.354  45.413  1.00  0.00    -0.000 C 
BRANCH  18  19
ATOM     19  C   UNL     1      51.415  46.755  45.940  1.00  0.00    -0.003 C 
ATOM     20  C   UNL     1      50.308  47.287  46.845  1.00  0.00     0.004 C 
ENDBRANCH  18  19
ENDBRANCH  17  18
ENDBRANCH  16  17
ENDBRANCH  15  16
ENDBRANCH  14  15
ENDBRANCH  13  14
ENDBRANCH  12  13
ENDBRANCH   1  12
TORSDOF 16
ENDMDL
MODEL 5
REMARK VINA RESULT:    -2.273      2.611      7.739
REMARK INTER + INTRA:          -6.363
REMARK INTER:                  -5.273
REMARK INTRA:                  -1.090
REMARK UNBOUND:                -1.963
REMARK SMILES CCCCCCCCCCCCCCCCCC(=O)[O-]
REMARK SMILES IDX 10 1 11 2 12 3 13 4 14 5 15 6 16 7 17 8 18 9 19 10 20 11
REMARK SMILES IDX 9 12 8 13 7 14 6 15 5 16 4 17 3 18 2 19 1 20
REMARK H PARENT
REMARK Flexibility Score: inf
ROOT
ATOM      1  C   UNL     1      48.656  46.700  43.296  1.00  0.00     0.000 C 
ENDROOT
BRANCH   1   2
ATOM      2  C   UNL     1      48.247  46.407  41.843  1.00  0.00     0.000 C 
BRANCH   2   3
ATOM      3  C   UNL     1      46.924  47.083  41.450  1.00  0.00     0.000 C 
BRANCH   3   4
ATOM      4  C   UNL     1      45.734  46.144  41.703  1.00  0.00     0.000 C 
BRANCH   4   5
ATOM      5  C   UNL     1      44.494  46.517  40.875  1.00  0.00     0.000 C 
BRANCH   5   6
ATOM      6  C   UNL     1      43.219  46.610  41.731  1.00  0.00     0.000 C 
BRANCH   6   7
ATOM      7  C   UNL     1      42.591  48.017  41.712  1.00  0.00     0.006 C 
BRANCH   7   8
ATOM      8  C   UNL     1      43.609  49.168  41.734  1.00  0.00     0.053 C 
BRANCH   8   9
ATOM      9  C   UNL     1      43.820  49.706  43.116  1.00  0.00     0.041 C 
ATOM     10  O   UNL     1      44.952  50.138  43.461  1.00  0.00    -0.550 OA
ATOM     11  O   UNL     1      42.759  49.763  44.011  1.00  0.00    -0.550 OA
ENDBRANCH   8   9
ENDBRANCH   7   8
ENDBRANCH   6   7
ENDBRANCH   5   6
ENDBRANCH   4   5
ENDBRANCH   3   4
ENDBRANCH   2   3
ENDBRANCH   1   2
BRANCH   1  12
ATOM     12  C   UNL     1      50.179  46.654  43.501  1.00  0.00     0.000 C 
BRANCH  12  13
ATOM     13  C   UNL     1      50.590  46.823  44.974  1.00  0.00    -0.000 C 
BRANCH  13  14
ATOM     14  C   UNL     1      51.709  45.879  45.451  1.00  0.00    -0.000 C 
BRANCH  14  15
ATOM     15  C   UNL     1      52.217  44.942  44.341  1.00  0.00    -0.000 C 
BRANCH  15  16
ATOM     16  C   UNL     1      53.679  45.236  43.949  1.00  0.00    -0.000 C 
BRANCH  16  17
ATOM     17  C   UNL     1      54.018  44.899  42.483  1.00  0.00    -0.000 C 
BRANCH  17  18
ATOM     18  C   UNL     1      54.191  46.132  41.573  1.00  0.00    -0.000 C 
BRANCH  18  19
ATOM     19  C   UNL     1      52.885  46.536  40.876  1.00  0.00    -0.003 C 
ATOM     20  C   UNL     1      52.311  47.814  41.480  1.00  0.00     0.004 C 
ENDBRANCH  18  19
ENDBRANCH  17  18
ENDBRANCH  16  17
ENDBRANCH  15  16
ENDBRANCH  14  15
ENDBRANCH  13  14
ENDBRANCH  12  13
ENDBRANCH   1  12
TORSDOF 16
ENDMDL
MODEL 6
REMARK VINA RESULT:    -2.091     22.025     24.013
REMARK INTER + INTRA:          -6.009
REMARK INTER:                  -5.184
REMARK INTRA:                  -0.825
REMARK UNBOUND:                -1.963
REMARK SMILES CCCCCCCCCCCCCCCCCC(=O)[O-]
REMARK SMILES IDX 10 1 11 2 12 3 13 4 14 5 15 6 16 7 17 8 18 9 19 10 20 11
REMARK SMILES IDX 9 12 8 13 7 14 6 15 5 16 4 17 3 18 2 19 1 20
REMARK H PARENT
REMARK Flexibility Score: inf
ROOT
ATOM      1  C   UNL     1      43.690  63.740  54.590  1.00  0.00     0.000 C 
ENDROOT
BRANCH   1   2
ATOM      2  C   UNL     1      45.002  64.463  54.932  1.00  0.00     0.000 C 
BRANCH   2   3
ATOM      3  C   UNL     1      45.003  65.053  56.352  1.00  0.00     0.000 C 
BRANCH   3   4
ATOM      4  C   UNL     1      45.489  64.013  57.374  1.00  0.00     0.000 C 
BRANCH   4   5
ATOM      5  C   UNL     1      45.232  64.443  58.828  1.00  0.00     0.000 C 
BRANCH   5   6
ATOM      6  C   UNL     1      46.353  63.996  59.782  1.00  0.00     0.000 C 
BRANCH   6   7
ATOM      7  C   UNL     1      47.398  65.100  60.032  1.00  0.00     0.006 C 
BRANCH   7   8
ATOM      8  C   UNL     1      48.707  64.925  59.246  1.00  0.00     0.053 C 
BRANCH   8   9
ATOM      9  C   UNL     1      49.828  64.451  60.118  1.00  0.00     0.041 C 
ATOM     10  O   UNL     1      50.176  65.125  61.125  1.00  0.00    -0.550 OA
ATOM     11  O   UNL     1      50.467  63.249  59.842  1.00  0.00    -0.550 OA
ENDBRANCH   8   9
ENDBRANCH   7   8
ENDBRANCH   6   7
ENDBRANCH   5   6
ENDBRANCH   4   5
ENDBRANCH   3   4
ENDBRANCH   2   3
ENDBRANCH   1   2
BRANCH   1  12
ATOM     12  C   UNL     1      42.625  64.689  54.016  1.00  0.00     0.000 C 
BRANCH  12  13
ATOM     13  C   UNL     1      41.559  65.090  55.052  1.00  0.00    -0.000 C 
BRANCH  13  14
ATOM     14  C   UNL     1      41.794  64.545  56.473  1.00  0.00    -0.000 C 
BRANCH  14  15
ATOM     15  C   UNL     1      40.562  63.829  57.052  1.00  0.00    -0.000 C 
BRANCH  15  16
ATOM     16  C   UNL     1      39.740  64.738  57.987  1.00  0.00    -0.000 C 
BRANCH  16  17
ATOM     17  C   UNL     1      38.393  64.134  58.430  1.00  0.00    -0.000 C 
BRANCH  17  18
ATOM     18  C   UNL     1      38.264  62.618  58.174  1.00  0.00    -0.000 C 
BRANCH  18  19
ATOM     19  C   UNL     1      37.659  61.869  59.369  1.00  0.00    -0.003 C 
ATOM     20  C   UNL     1      38.534  60.687  59.777  1.00  0.00     0.004 C 
ENDBRANCH  18  19
ENDBRANCH  17  18
ENDBRANCH  16  17
ENDBRANCH  15  16
ENDBRANCH  14  15
ENDBRANCH  13  14
ENDBRANCH  12  13
ENDBRANCH   1  12
TORSDOF 16
ENDMDL
MODEL 7
REMARK VINA RESULT:    -2.049     23.208     24.363
REMARK INTER + INTRA:          -5.929
REMARK INTER:                  -4.879
REMARK INTRA:                  -1.050
REMARK UNBOUND:                -1.963
REMARK SMILES CCCCCCCCCCCCCCCCCC(=O)[O-]
REMARK SMILES IDX 10 1 11 2 12 3 13 4 14 5 15 6 16 7 17 8 18 9 19 10 20 11
REMARK SMILES IDX 9 12 8 13 7 14 6 15 5 16 4 17 3 18 2 19 1 20
REMARK H PARENT
REMARK Flexibility Score: inf
ROOT
ATOM      1  C   UNL     1      42.494  64.152  56.156  1.00  0.00     0.000 C 
ENDROOT
BRANCH   1   2
ATOM      2  C   UNL     1      43.557  65.122  56.696  1.00  0.00     0.000 C 
BRANCH   2   3
ATOM      3  C   UNL     1      44.991  64.604  56.494  1.00  0.00     0.000 C 
BRANCH   3   4
ATOM      4  C   UNL     1      45.489  63.874  57.750  1.00  0.00     0.000 C 
BRANCH   4   5
ATOM      5  C   UNL     1      45.224  64.662  59.043  1.00  0.00     0.000 C 
BRANCH   5   6
ATOM      6  C   UNL     1      45.333  63.785  60.302  1.00  0.00     0.000 C 
BRANCH   6   7
ATOM      7  C   UNL     1      46.628  64.042  61.096  1.00  0.00     0.006 C 
BRANCH   7   8
ATOM      8  C   UNL     1      47.807  64.541  60.245  1.00  0.00     0.053 C 
BRANCH   8   9
ATOM      9  C   UNL     1      48.897  63.519  60.139  1.00  0.00     0.041 C 
ATOM     10  O   UNL     1      48.679  62.324  60.472  1.00  0.00    -0.550 OA
ATOM     11  O   UNL     1      50.143  63.878  59.640  1.00  0.00    -0.550 OA
ENDBRANCH   8   9
ENDBRANCH   7   8
ENDBRANCH   6   7
ENDBRANCH   5   6
ENDBRANCH   4   5
ENDBRANCH   3   4
ENDBRANCH   2   3
ENDBRANCH   1   2
BRANCH   1  12
ATOM     12  C   UNL     1      41.065  64.569  56.541  1.00  0.00     0.000 C 
BRANCH  12  13
ATOM     13  C   UNL     1      40.969  65.125  57.973  1.00  0.00    -0.000 C 
BRANCH  13  14
ATOM     14  C   UNL     1      40.086  64.305  58.932  1.00  0.00    -0.000 C 
BRANCH  14  15
ATOM     15  C   UNL     1      38.690  64.008  58.356  1.00  0.00    -0.000 C 
BRANCH  15  16
ATOM     16  C   UNL     1      38.434  62.496  58.191  1.00  0.00    -0.000 C 
BRANCH  16  17
ATOM     17  C   UNL     1      38.217  61.745  59.520  1.00  0.00    -0.000 C 
BRANCH  17  18
ATOM     18  C   UNL     1      38.315  60.210  59.402  1.00  0.00    -0.000 C 
BRANCH  18  19
ATOM     19  C   UNL     1      38.884  59.559  60.670  1.00  0.00    -0.003 C 
ATOM     20  C   UNL     1      40.179  60.239  61.105  1.00  0.00     0.004 C 
ENDBRANCH  18  19
ENDBRANCH  17  18
ENDBRANCH  16  17
ENDBRANCH  15  16
ENDBRANCH  14  15
ENDBRANCH  13  14
ENDBRANCH  12  13
ENDBRANCH   1  12
TORSDOF 16
ENDMDL
MODEL 8
REMARK VINA RESULT:    -2.023     21.655     24.615
REMARK INTER + INTRA:          -5.878
REMARK INTER:                  -4.935
REMARK INTRA:                  -0.943
REMARK UNBOUND:                -1.963
REMARK SMILES CCCCCCCCCCCCCCCCCC(=O)[O-]
REMARK SMILES IDX 10 1 11 2 12 3 13 4 14 5 15 6 16 7 17 8 18 9 19 10 20 11
REMARK SMILES IDX 9 12 8 13 7 14 6 15 5 16 4 17 3 18 2 19 1 20
REMARK H PARENT
REMARK Flexibility Score: inf
ROOT
ATOM      1  C   UNL     1      43.651  62.734  55.231  1.00  0.00     0.000 C 
ENDROOT
BRANCH   1   2
ATOM      2  C   UNL     1      43.741  63.758  54.088  1.00  0.00     0.000 C 
BRANCH   2   3
ATOM      3  C   UNL     1      43.143  65.123  54.465  1.00  0.00     0.000 C 
BRANCH   3   4
ATOM      4  C   UNL     1      41.712  64.964  55.000  1.00  0.00     0.000 C 
BRANCH   4   5
ATOM      5  C   UNL     1      41.629  65.094  56.529  1.00  0.00     0.000 C 
BRANCH   5   6
ATOM      6  C   UNL     1      40.180  65.075  57.046  1.00  0.00     0.000 C 
BRANCH   6   7
ATOM      7  C   UNL     1      39.937  63.972  58.094  1.00  0.00     0.006 C 
BRANCH   7   8
ATOM      8  C   UNL     1      38.474  63.839  58.548  1.00  0.00     0.053 C 
BRANCH   8   9
ATOM      9  C   UNL     1      38.201  62.510  59.182  1.00  0.00     0.041 C 
ATOM     10  O   UNL     1      37.517  62.441  60.238  1.00  0.00    -0.550 OA
ATOM     11  O   UNL     1      38.671  61.345  58.589  1.00  0.00    -0.550 OA
ENDBRANCH   8   9
ENDBRANCH   7   8
ENDBRANCH   6   7
ENDBRANCH   5   6
ENDBRANCH   4   5
ENDBRANCH   3   4
ENDBRANCH   2   3
ENDBRANCH   1   2
BRANCH   1  12
ATOM     12  C   UNL     1      45.033  62.323  55.765  1.00  0.00     0.000 C 
BRANCH  12  13
ATOM     13  C   UNL     1      45.668  63.394  56.669  1.00  0.00    -0.000 C 
BRANCH  13  14
ATOM     14  C   UNL     1      44.690  64.108  57.621  1.00  0.00    -0.000 C 
BRANCH  14  15
ATOM     15  C   UNL     1      45.337  64.500  58.961  1.00  0.00    -0.000 C 
BRANCH  15  16
ATOM     16  C   UNL     1      46.701  63.815  59.176  1.00  0.00    -0.000 C 
BRANCH  16  17
ATOM     17  C   UNL     1      47.598  64.511  60.219  1.00  0.00    -0.000 C 
BRANCH  17  18
ATOM     18  C   UNL     1      49.038  64.781  59.735  1.00  0.00    -0.000 C 
BRANCH  18  19
ATOM     19  C   UNL     1      49.981  63.602  60.009  1.00  0.00    -0.003 C 
ATOM     20  C   UNL     1      51.321  63.793  59.305  1.00  0.00     0.004 C 
ENDBRANCH  18  19
ENDBRANCH  17  18
ENDBRANCH  16  17
ENDBRANCH  15  16
ENDBRANCH  14  15
ENDBRANCH  13  14
ENDBRANCH  12  13
ENDBRANCH   1  12
TORSDOF 16
ENDMDL
MODEL 9
REMARK VINA RESULT:    -1.651     22.708     24.987
REMARK INTER + INTRA:          -5.158
REMARK INTER:                  -4.012
REMARK INTRA:                  -1.147
REMARK UNBOUND:                -1.963
REMARK SMILES CCCCCCCCCCCCCCCCCC(=O)[O-]
REMARK SMILES IDX 10 1 11 2 12 3 13 4 14 5 15 6 16 7 17 8 18 9 19 10 20 11
REMARK SMILES IDX 9 12 8 13 7 14 6 15 5 16 4 17 3 18 2 19 1 20
REMARK H PARENT
REMARK Flexibility Score: inf
ROOT
ATOM      1  C   UNL     1      42.589  63.372  56.053  1.00  0.00     0.000 C 
ENDROOT
BRANCH   1   2
ATOM      2  C   UNL     1      44.102  63.560  55.858  1.00  0.00     0.000 C 
BRANCH   2   3
ATOM      3  C   UNL     1      44.646  64.804  56.578  1.00  0.00     0.000 C 
BRANCH   3   4
ATOM      4  C   UNL     1      45.767  64.422  57.557  1.00  0.00     0.000 C 
BRANCH   4   5
ATOM      5  C   UNL     1      45.347  64.562  59.029  1.00  0.00     0.000 C 
BRANCH   5   6
ATOM      6  C   UNL     1      46.551  64.644  59.982  1.00  0.00     0.000 C 
BRANCH   6   7
ATOM      7  C   UNL     1      47.876  64.915  59.244  1.00  0.00     0.006 C 
BRANCH   7   8
ATOM      8  C   UNL     1      49.088  65.119  60.168  1.00  0.00     0.053 C 
BRANCH   8   9
ATOM      9  C   UNL     1      50.215  64.193  59.831  1.00  0.00     0.041 C 
ATOM     10  O   UNL     1      50.058  62.946  59.919  1.00  0.00    -0.550 OA
ATOM     11  O   UNL     1      51.428  64.704  59.385  1.00  0.00    -0.550 OA
ENDBRANCH   8   9
ENDBRANCH   7   8
ENDBRANCH   6   7
ENDBRANCH   5   6
ENDBRANCH   4   5
ENDBRANCH   3   4
ENDBRANCH   2   3
ENDBRANCH   1   2
BRANCH   1  12
ATOM     12  C   UNL     1      41.946  64.536  56.824  1.00  0.00     0.000 C 
BRANCH  12  13
ATOM     13  C   UNL     1      40.433  64.348  57.040  1.00  0.00    -0.000 C 
BRANCH  13  14
ATOM     14  C   UNL     1      39.844  65.125  58.232  1.00  0.00    -0.000 C 
BRANCH  14  15
ATOM     15  C   UNL     1      40.733  65.064  59.486  1.00  0.00    -0.000 C 
BRANCH  15  16
ATOM     16  C   UNL     1      39.965  64.567  60.727  1.00  0.00    -0.000 C 
BRANCH  16  17
ATOM     17  C   UNL     1      39.220  63.234  60.515  1.00  0.00    -0.000 C 
BRANCH  17  18
ATOM     18  C   UNL     1      37.733  63.267  60.924  1.00  0.00    -0.000 C 
BRANCH  18  19
ATOM     19  C   UNL     1      37.078  64.628  60.647  1.00  0.00    -0.003 C 
ATOM     20  C   UNL     1      35.609  64.624  61.057  1.00  0.00     0.004 C 
ENDBRANCH  18  19
ENDBRANCH  17  18
ENDBRANCH  16  17
ENDBRANCH  15  16
ENDBRANCH  14  15
ENDBRANCH  13  14
ENDBRANCH  12  13
ENDBRANCH   1  12
TORSDOF 16
ENDMDL
