MODEL 1
REMARK VINA RESULT:    -4.420      0.000      0.000
REMARK INTER + INTRA:         -14.444
REMARK INTER:                 -10.104
REMARK INTRA:                  -4.340
REMARK UNBOUND:                -4.340
REMARK SMILES CCCCCCCCCCCCCCCCCCCCCCCC(=O)[O-]
REMARK SMILES IDX 13 1 14 2 15 3 16 4 17 5 18 6 19 7 20 8 21 9 22 10 23 11
REMARK SMILES IDX 24 12 25 13 26 14 12 15 11 16 10 17 9 18 8 19 7 20 6 21 5 22
REMARK SMILES IDX 4 23 3 24 2 25 1 26
REMARK H PARENT
REMARK Flexibility Score: inf
ROOT
ATOM      1  C   UNL     1      15.741   2.460   2.661  1.00  0.00     0.000 C 
ENDROOT
BRANCH   1   2
ATOM      2  C   UNL     1      15.628   2.959   1.209  1.00  0.00     0.000 C 
BRANCH   2   3
ATOM      3  C   UNL     1      14.758   4.222   1.079  1.00  0.00     0.000 C 
BRANCH   3   4
ATOM      4  C   UNL     1      13.595   4.322   2.088  1.00  0.00     0.000 C 
BRANCH   4   5
ATOM      5  C   UNL     1      12.315   4.987   1.543  1.00  0.00     0.000 C 
BRANCH   5   6
ATOM      6  C   UNL     1      11.002   4.500   2.189  1.00  0.00     0.000 C 
BRANCH   6   7
ATOM      7  C   UNL     1      10.847   2.970   2.273  1.00  0.00     0.000 C 
BRANCH   7   8
ATOM      8  C   UNL     1       9.646   2.445   1.471  1.00  0.00     0.000 C 
BRANCH   8   9
ATOM      9  C   UNL     1       9.030   3.560   0.614  1.00  0.00     0.000 C 
BRANCH   9  10
ATOM     10  C   UNL     1       9.339   3.409  -0.887  1.00  0.00     0.006 C 
BRANCH  10  11
ATOM     11  C   UNL     1      10.216   4.536  -1.460  1.00  0.00     0.053 C 
BRANCH  11  12
ATOM     12  C   UNL     1       9.545   5.875  -1.398  1.00  0.00     0.041 C 
ATOM     13  O   UNL     1       9.765   6.649  -0.429  1.00  0.00    -0.550 OA
ATOM     14  O   UNL     1       8.651   6.257  -2.392  1.00  0.00    -0.550 OA
ENDBRANCH  11  12
ENDBRANCH  10  11
ENDBRANCH   9  10
ENDBRANCH   8   9
ENDBRANCH   7   8
ENDBRANCH   6   7
ENDBRANCH   5   6
ENDBRANCH   4   5
ENDBRANCH   3   4
ENDBRANCH   2   3
ENDBRANCH   1   2
BRANCH   1  15
ATOM     15  C   UNL     1      14.892   1.205   2.922  1.00  0.00     0.000 C 
BRANCH  15  16
ATOM     16  C   UNL     1      15.386  -0.022   2.138  1.00  0.00     0.000 C 
BRANCH  16  17
ATOM     17  C   UNL     1      14.239  -0.654   1.335  1.00  0.00     0.000 C 
BRANCH  17  18
ATOM     18  C   UNL     1      13.018   0.274   1.207  1.00  0.00    -0.000 C 
BRANCH  18  19
ATOM     19  C   UNL     1      12.500   0.464  -0.232  1.00  0.00    -0.000 C 
BRANCH  19  20
ATOM     20  C   UNL     1      12.738   1.880  -0.797  1.00  0.00    -0.000 C 
BRANCH  20  21
ATOM     21  C   UNL     1      13.639   1.869  -2.044  1.00  0.00    -0.000 C 
BRANCH  21  22
ATOM     22  C   UNL     1      13.909   0.440  -2.563  1.00  0.00    -0.000 C 
BRANCH  22  23
ATOM     23  C   UNL     1      15.405   0.092  -2.675  1.00  0.00    -0.000 C 
BRANCH  23  24
ATOM     24  C   UNL     1      16.257   0.488  -1.454  1.00  0.00    -0.000 C 
BRANCH  24  25
ATOM     25  C   UNL     1      17.275   1.613  -1.714  1.00  0.00    -0.003 C 
ATOM     26  C   UNL     1      18.723   1.126  -1.681  1.00  0.00     0.004 C 
ENDBRANCH  24  25
ENDBRANCH  23  24
ENDBRANCH  22  23
ENDBRANCH  21  22
ENDBRANCH  20  21
ENDBRANCH  19  20
ENDBRANCH  18  19
ENDBRANCH  17  18
ENDBRANCH  16  17
ENDBRANCH  15  16
ENDBRANCH   1  15
TORSDOF 22
ENDMDL
MODEL 2
REMARK VINA RESULT:    -4.378      1.719      3.513
REMARK INTER + INTRA:         -14.349
REMARK INTER:                 -10.447
REMARK INTRA:                  -3.902
REMARK UNBOUND:                -4.340
REMARK SMILES CCCCCCCCCCCCCCCCCCCCCCCC(=O)[O-]
REMARK SMILES IDX 13 1 14 2 15 3 16 4 17 5 18 6 19 7 20 8 21 9 22 10 23 11
REMARK SMILES IDX 24 12 25 13 26 14 12 15 11 16 10 17 9 18 8 19 7 20 6 21 5 22
REMARK SMILES IDX 4 23 3 24 2 25 1 26
REMARK H PARENT
REMARK Flexibility Score: inf
ROOT
ATOM      1  C   UNL     1      11.880   4.874   2.282  1.00  0.00     0.000 C 
ENDROOT
BRANCH   1   2
ATOM      2  C   UNL     1      11.247   3.741   3.109  1.00  0.00     0.000 C 
BRANCH   2   3
ATOM      3  C   UNL     1      11.118   2.426   2.317  1.00  0.00     0.000 C 
BRANCH   3   4
ATOM      4  C   UNL     1       9.979   1.494   2.776  1.00  0.00     0.000 C 
BRANCH   4   5
ATOM      5  C   UNL     1       9.272   0.722   1.645  1.00  0.00     0.000 C 
BRANCH   5   6
ATOM      6  C   UNL     1      10.070   0.618   0.330  1.00  0.00     0.000 C 
BRANCH   6   7
ATOM      7  C   UNL     1       9.330   1.121  -0.923  1.00  0.00     0.000 C 
BRANCH   7   8
ATOM      8  C   UNL     1       8.899   2.591  -0.814  1.00  0.00     0.000 C 
BRANCH   8   9
ATOM      9  C   UNL     1      10.046   3.530  -1.215  1.00  0.00     0.000 C 
BRANCH   9  10
ATOM     10  C   UNL     1       9.728   5.014  -0.961  1.00  0.00     0.006 C 
BRANCH  10  11
ATOM     11  C   UNL     1       9.799   5.892  -2.224  1.00  0.00     0.053 C 
BRANCH  11  12
ATOM     12  C   UNL     1       9.020   7.165  -2.084  1.00  0.00     0.041 C 
ATOM     13  O   UNL     1       9.019   7.788  -0.990  1.00  0.00    -0.550 OA
ATOM     14  O   UNL     1       8.268   7.647  -3.149  1.00  0.00    -0.550 OA
ENDBRANCH  11  12
ENDBRANCH  10  11
ENDBRANCH   9  10
ENDBRANCH   8   9
ENDBRANCH   7   8
ENDBRANCH   6   7
ENDBRANCH   5   6
ENDBRANCH   4   5
ENDBRANCH   3   4
ENDBRANCH   2   3
ENDBRANCH   1   2
BRANCH   1  15
ATOM     15  C   UNL     1      12.778   4.349   1.150  1.00  0.00     0.000 C 
BRANCH  15  16
ATOM     16  C   UNL     1      14.272   4.603   1.408  1.00  0.00     0.000 C 
BRANCH  16  17
ATOM     17  C   UNL     1      14.992   3.296   1.772  1.00  0.00     0.000 C 
BRANCH  17  18
ATOM     18  C   UNL     1      15.898   2.779   0.642  1.00  0.00    -0.000 C 
BRANCH  18  19
ATOM     19  C   UNL     1      16.191   3.804  -0.471  1.00  0.00    -0.000 C 
BRANCH  19  20
ATOM     20  C   UNL     1      15.746   3.342  -1.875  1.00  0.00    -0.000 C 
BRANCH  20  21
ATOM     21  C   UNL     1      14.257   3.628  -2.140  1.00  0.00    -0.000 C 
BRANCH  21  22
ATOM     22  C   UNL     1      13.467   2.352  -2.502  1.00  0.00    -0.000 C 
BRANCH  22  23
ATOM     23  C   UNL     1      13.273   1.386  -1.318  1.00  0.00    -0.000 C 
BRANCH  23  24
ATOM     24  C   UNL     1      13.812  -0.039  -1.547  1.00  0.00    -0.000 C 
BRANCH  24  25
ATOM     25  C   UNL     1      15.331  -0.124  -1.780  1.00  0.00    -0.003 C 
ATOM     26  C   UNL     1      15.696  -0.415  -3.235  1.00  0.00     0.004 C 
ENDBRANCH  24  25
ENDBRANCH  23  24
ENDBRANCH  22  23
ENDBRANCH  21  22
ENDBRANCH  20  21
ENDBRANCH  19  20
ENDBRANCH  18  19
ENDBRANCH  17  18
ENDBRANCH  16  17
ENDBRANCH  15  16
ENDBRANCH   1  15
TORSDOF 22
ENDMDL
MODEL 3
REMARK VINA RESULT:    -4.297      1.474      4.244
REMARK INTER + INTRA:         -14.163
REMARK INTER:                  -9.930
REMARK INTRA:                  -4.233
REMARK UNBOUND:                -4.340
REMARK SMILES CCCCCCCCCCCCCCCCCCCCCCCC(=O)[O-]
REMARK SMILES IDX 13 1 14 2 15 3 16 4 17 5 18 6 19 7 20 8 21 9 22 10 23 11
REMARK SMILES IDX 24 12 25 13 26 14 12 15 11 16 10 17 9 18 8 19 7 20 6 21 5 22
REMARK SMILES IDX 4 23 3 24 2 25 1 26
REMARK H PARENT
REMARK Flexibility Score: inf
ROOT
ATOM      1  C   UNL     1      17.073   2.267  -1.198  1.00  0.00     0.000 C 
ENDROOT
BRANCH   1   2
ATOM      2  C   UNL     1      16.035   3.399  -1.301  1.00  0.00     0.000 C 
BRANCH   2   3
ATOM      3  C   UNL     1      15.587   3.923   0.076  1.00  0.00     0.000 C 
BRANCH   3   4
ATOM      4  C   UNL     1      15.730   2.918   1.237  1.00  0.00     0.000 C 
BRANCH   4   5
ATOM      5  C   UNL     1      14.426   2.614   2.000  1.00  0.00     0.000 C 
BRANCH   5   6
ATOM      6  C   UNL     1      13.290   3.634   1.782  1.00  0.00     0.000 C 
BRANCH   6   7
ATOM      7  C   UNL     1      12.379   3.864   3.002  1.00  0.00     0.000 C 
BRANCH   7   8
ATOM      8  C   UNL     1      11.234   4.848   2.717  1.00  0.00     0.000 C 
BRANCH   8   9
ATOM      9  C   UNL     1      11.211   5.248   1.235  1.00  0.00     0.000 C 
BRANCH   9  10
ATOM     10  C   UNL     1       9.821   5.704   0.754  1.00  0.00     0.006 C 
BRANCH  10  11
ATOM     11  C   UNL     1       9.760   6.045  -0.745  1.00  0.00     0.053 C 
BRANCH  11  12
ATOM     12  C   UNL     1       9.026   7.323  -1.015  1.00  0.00     0.041 C 
ATOM     13  O   UNL     1       8.737   7.649  -2.197  1.00  0.00    -0.550 OA
ATOM     14  O   UNL     1       8.690   8.173   0.032  1.00  0.00    -0.550 OA
ENDBRANCH  11  12
ENDBRANCH  10  11
ENDBRANCH   9  10
ENDBRANCH   8   9
ENDBRANCH   7   8
ENDBRANCH   6   7
ENDBRANCH   5   6
ENDBRANCH   4   5
ENDBRANCH   3   4
ENDBRANCH   2   3
ENDBRANCH   1   2
BRANCH   1  15
ATOM     15  C   UNL     1      16.678   1.027  -2.016  1.00  0.00     0.000 C 
BRANCH  15  16
ATOM     16  C   UNL     1      15.809   0.040  -1.221  1.00  0.00     0.000 C 
BRANCH  16  17
ATOM     17  C   UNL     1      14.627  -0.452  -2.069  1.00  0.00     0.000 C 
BRANCH  17  18
ATOM     18  C   UNL     1      13.326  -0.586  -1.259  1.00  0.00    -0.000 C 
BRANCH  18  19
ATOM     19  C   UNL     1      12.856   0.711  -0.573  1.00  0.00    -0.000 C 
BRANCH  19  20
ATOM     20  C   UNL     1      12.700   1.905  -1.539  1.00  0.00    -0.000 C 
BRANCH  20  21
ATOM     21  C   UNL     1      11.395   2.684  -1.300  1.00  0.00    -0.000 C 
BRANCH  21  22
ATOM     22  C   UNL     1      10.171   1.753  -1.155  1.00  0.00    -0.000 C 
BRANCH  22  23
ATOM     23  C   UNL     1       8.963   2.420  -0.470  1.00  0.00    -0.000 C 
BRANCH  23  24
ATOM     24  C   UNL     1       8.701   1.960   0.976  1.00  0.00    -0.000 C 
BRANCH  24  25
ATOM     25  C   UNL     1       9.900   1.284   1.666  1.00  0.00    -0.003 C 
ATOM     26  C   UNL     1       9.754   1.217   3.185  1.00  0.00     0.004 C 
ENDBRANCH  24  25
ENDBRANCH  23  24
ENDBRANCH  22  23
ENDBRANCH  21  22
ENDBRANCH  20  21
ENDBRANCH  19  20
ENDBRANCH  18  19
ENDBRANCH  17  18
ENDBRANCH  16  17
ENDBRANCH  15  16
ENDBRANCH   1  15
TORSDOF 22
ENDMDL
MODEL 4
REMARK VINA RESULT:    -4.279      2.677      6.234
REMARK INTER + INTRA:         -14.122
REMARK INTER:                  -9.611
REMARK INTRA:                  -4.510
REMARK UNBOUND:                -4.340
REMARK SMILES CCCCCCCCCCCCCCCCCCCCCCCC(=O)[O-]
REMARK SMILES IDX 13 1 14 2 15 3 16 4 17 5 18 6 19 7 20 8 21 9 22 10 23 11
REMARK SMILES IDX 24 12 25 13 26 14 12 15 11 16 10 17 9 18 8 19 7 20 6 21 5 22
REMARK SMILES IDX 4 23 3 24 2 25 1 26
REMARK H PARENT
REMARK Flexibility Score: inf
ROOT
ATOM      1  C   UNL     1      15.662   2.915   1.304  1.00  0.00     0.000 C 
ENDROOT
BRANCH   1   2
ATOM      2  C   UNL     1      15.692   2.628   2.816  1.00  0.00     0.000 C 
BRANCH   2   3
ATOM      3  C   UNL     1      14.955   1.330   3.191  1.00  0.00     0.000 C 
BRANCH   3   4
ATOM      4  C   UNL     1      15.260   0.119   2.286  1.00  0.00     0.000 C 
BRANCH   4   5
ATOM      5  C   UNL     1      14.033  -0.727   1.894  1.00  0.00     0.000 C 
BRANCH   5   6
ATOM      6  C   UNL     1      13.068  -0.053   0.898  1.00  0.00     0.000 C 
BRANCH   6   7
ATOM      7  C   UNL     1      12.586  -0.955  -0.253  1.00  0.00     0.000 C 
BRANCH   7   8
ATOM      8  C   UNL     1      12.414  -0.196  -1.577  1.00  0.00     0.000 C 
BRANCH   8   9
ATOM      9  C   UNL     1      13.611   0.729  -1.839  1.00  0.00     0.000 C 
BRANCH   9  10
ATOM     10  C   UNL     1      14.901  -0.037  -2.186  1.00  0.00     0.006 C 
BRANCH  10  11
ATOM     11  C   UNL     1      16.094   0.306  -1.276  1.00  0.00     0.053 C 
BRANCH  11  12
ATOM     12  C   UNL     1      16.962   1.384  -1.849  1.00  0.00     0.041 C 
ATOM     13  O   UNL     1      18.124   1.113  -2.254  1.00  0.00    -0.550 OA
ATOM     14  O   UNL     1      16.505   2.696  -1.906  1.00  0.00    -0.550 OA
ENDBRANCH  11  12
ENDBRANCH  10  11
ENDBRANCH   9  10
ENDBRANCH   8   9
ENDBRANCH   7   8
ENDBRANCH   6   7
ENDBRANCH   5   6
ENDBRANCH   4   5
ENDBRANCH   3   4
ENDBRANCH   2   3
ENDBRANCH   1   2
BRANCH   1  15
ATOM     15  C   UNL     1      14.772   4.116   0.948  1.00  0.00     0.000 C 
BRANCH  15  16
ATOM     16  C   UNL     1      13.277   3.760   0.913  1.00  0.00     0.000 C 
BRANCH  16  17
ATOM     17  C   UNL     1      12.453   4.790   1.700  1.00  0.00     0.000 C 
BRANCH  17  18
ATOM     18  C   UNL     1      11.450   4.139   2.668  1.00  0.00    -0.000 C 
BRANCH  18  19
ATOM     19  C   UNL     1      11.087   2.678   2.335  1.00  0.00    -0.000 C 
BRANCH  19  20
ATOM     20  C   UNL     1       9.730   2.522   1.617  1.00  0.00    -0.000 C 
BRANCH  20  21
ATOM     21  C   UNL     1       9.850   1.723   0.308  1.00  0.00    -0.000 C 
BRANCH  21  22
ATOM     22  C   UNL     1      10.254   2.610  -0.890  1.00  0.00    -0.000 C 
BRANCH  22  23
ATOM     23  C   UNL     1       9.329   3.823  -1.103  1.00  0.00    -0.000 C 
BRANCH  23  24
ATOM     24  C   UNL     1      10.054   5.148  -1.408  1.00  0.00    -0.000 C 
BRANCH  24  25
ATOM     25  C   UNL     1       9.755   6.290  -0.421  1.00  0.00    -0.003 C 
ATOM     26  C   UNL     1       8.784   5.883   0.686  1.00  0.00     0.004 C 
ENDBRANCH  24  25
ENDBRANCH  23  24
ENDBRANCH  22  23
ENDBRANCH  21  22
ENDBRANCH  20  21
ENDBRANCH  19  20
ENDBRANCH  18  19
ENDBRANCH  17  18
ENDBRANCH  16  17
ENDBRANCH  15  16
ENDBRANCH   1  15
TORSDOF 22
ENDMDL
MODEL 5
REMARK VINA RESULT:    -4.270      3.462      6.682
REMARK INTER + INTRA:         -14.102
REMARK INTER:                  -9.567
REMARK INTRA:                  -4.534
REMARK UNBOUND:                -4.340
REMARK SMILES CCCCCCCCCCCCCCCCCCCCCCCC(=O)[O-]
REMARK SMILES IDX 13 1 14 2 15 3 16 4 17 5 18 6 19 7 20 8 21 9 22 10 23 11
REMARK SMILES IDX 24 12 25 13 26 14 12 15 11 16 10 17 9 18 8 19 7 20 6 21 5 22
REMARK SMILES IDX 4 23 3 24 2 25 1 26
REMARK H PARENT
REMARK Flexibility Score: inf
ROOT
ATOM      1  C   UNL     1      14.942   4.025   0.712  1.00  0.00     0.000 C 
ENDROOT
BRANCH   1   2
ATOM      2  C   UNL     1      14.539   3.622  -0.718  1.00  0.00     0.000 C 
BRANCH   2   3
ATOM      3  C   UNL     1      15.750   3.464  -1.655  1.00  0.00     0.000 C 
BRANCH   3   4
ATOM      4  C   UNL     1      16.710   2.311  -1.297  1.00  0.00     0.000 C 
BRANCH   4   5
ATOM      5  C   UNL     1      16.372   0.955  -1.948  1.00  0.00     0.000 C 
BRANCH   5   6
ATOM      6  C   UNL     1      15.850  -0.122  -0.976  1.00  0.00     0.000 C 
BRANCH   6   7
ATOM      7  C   UNL     1      14.349  -0.031  -0.647  1.00  0.00     0.000 C 
BRANCH   7   8
ATOM      8  C   UNL     1      14.078   0.267   0.835  1.00  0.00     0.000 C 
BRANCH   8   9
ATOM      9  C   UNL     1      15.392   0.430   1.611  1.00  0.00     0.000 C 
BRANCH   9  10
ATOM     10  C   UNL     1      15.179   0.639   3.122  1.00  0.00     0.006 C 
BRANCH  10  11
ATOM     11  C   UNL     1      15.893   1.880   3.687  1.00  0.00     0.053 C 
BRANCH  11  12
ATOM     12  C   UNL     1      16.643   1.587   4.950  1.00  0.00     0.041 C 
ATOM     13  O   UNL     1      16.580   0.443   5.473  1.00  0.00    -0.550 OA
ATOM     14  O   UNL     1      17.387   2.584   5.571  1.00  0.00    -0.550 OA
ENDBRANCH  11  12
ENDBRANCH  10  11
ENDBRANCH   9  10
ENDBRANCH   8   9
ENDBRANCH   7   8
ENDBRANCH   6   7
ENDBRANCH   5   6
ENDBRANCH   4   5
ENDBRANCH   3   4
ENDBRANCH   2   3
ENDBRANCH   1   2
BRANCH   1  15
ATOM     15  C   UNL     1      13.760   4.576   1.526  1.00  0.00     0.000 C 
BRANCH  15  16
ATOM     16  C   UNL     1      12.980   3.476   2.263  1.00  0.00     0.000 C 
BRANCH  16  17
ATOM     17  C   UNL     1      11.683   4.037   2.866  1.00  0.00     0.000 C 
BRANCH  17  18
ATOM     18  C   UNL     1      11.057   5.148   2.005  1.00  0.00    -0.000 C 
BRANCH  18  19
ATOM     19  C   UNL     1       9.941   4.675   1.053  1.00  0.00    -0.000 C 
BRANCH  19  20
ATOM     20  C   UNL     1      10.379   4.588  -0.424  1.00  0.00    -0.000 C 
BRANCH  20  21
ATOM     21  C   UNL     1      10.036   3.228  -1.057  1.00  0.00    -0.000 C 
BRANCH  21  22
ATOM     22  C   UNL     1      11.153   2.183  -0.849  1.00  0.00    -0.000 C 
BRANCH  22  23
ATOM     23  C   UNL     1      10.630   0.774  -0.514  1.00  0.00    -0.000 C 
BRANCH  23  24
ATOM     24  C   UNL     1       9.744   0.692   0.744  1.00  0.00    -0.000 C 
BRANCH  24  25
ATOM     25  C   UNL     1      10.515   0.612   2.073  1.00  0.00    -0.003 C 
ATOM     26  C   UNL     1       9.668   1.012   3.280  1.00  0.00     0.004 C 
ENDBRANCH  24  25
ENDBRANCH  23  24
ENDBRANCH  22  23
ENDBRANCH  21  22
ENDBRANCH  20  21
ENDBRANCH  19  20
ENDBRANCH  18  19
ENDBRANCH  17  18
ENDBRANCH  16  17
ENDBRANCH  15  16
ENDBRANCH   1  15
TORSDOF 22
ENDMDL
MODEL 6
REMARK VINA RESULT:    -4.262      1.378      2.834
REMARK INTER + INTRA:         -14.084
REMARK INTER:                 -10.158
REMARK INTRA:                  -3.926
REMARK UNBOUND:                -4.340
REMARK SMILES CCCCCCCCCCCCCCCCCCCCCCCC(=O)[O-]
REMARK SMILES IDX 13 1 14 2 15 3 16 4 17 5 18 6 19 7 20 8 21 9 22 10 23 11
REMARK SMILES IDX 24 12 25 13 26 14 12 15 11 16 10 17 9 18 8 19 7 20 6 21 5 22
REMARK SMILES IDX 4 23 3 24 2 25 1 26
REMARK H PARENT
REMARK Flexibility Score: inf
ROOT
ATOM      1  C   UNL     1      15.648   1.095   3.097  1.00  0.00     0.000 C 
ENDROOT
BRANCH   1   2
ATOM      2  C   UNL     1      14.342   0.364   3.456  1.00  0.00     0.000 C 
BRANCH   2   3
ATOM      3  C   UNL     1      13.692  -0.325   2.243  1.00  0.00     0.000 C 
BRANCH   3   4
ATOM      4  C   UNL     1      12.219   0.055   1.985  1.00  0.00     0.000 C 
BRANCH   4   5
ATOM      5  C   UNL     1      12.006   1.442   1.346  1.00  0.00     0.000 C 
BRANCH   5   6
ATOM      6  C   UNL     1      11.233   2.449   2.220  1.00  0.00     0.000 C 
BRANCH   6   7
ATOM      7  C   UNL     1      12.066   3.637   2.737  1.00  0.00     0.000 C 
BRANCH   7   8
ATOM      8  C   UNL     1      11.381   4.993   2.508  1.00  0.00     0.000 C 
BRANCH   8   9
ATOM      9  C   UNL     1      10.968   5.159   1.039  1.00  0.00     0.000 C 
BRANCH   9  10
ATOM     10  C   UNL     1       9.546   5.724   0.871  1.00  0.00     0.006 C 
BRANCH  10  11
ATOM     11  C   UNL     1       8.688   4.960  -0.154  1.00  0.00     0.053 C 
BRANCH  11  12
ATOM     12  C   UNL     1       9.497   4.426  -1.297  1.00  0.00     0.041 C 
ATOM     13  O   UNL     1       9.854   5.192  -2.230  1.00  0.00    -0.550 OA
ATOM     14  O   UNL     1       9.829   3.077  -1.351  1.00  0.00    -0.550 OA
ENDBRANCH  11  12
ENDBRANCH  10  11
ENDBRANCH   9  10
ENDBRANCH   8   9
ENDBRANCH   7   8
ENDBRANCH   6   7
ENDBRANCH   5   6
ENDBRANCH   4   5
ENDBRANCH   3   4
ENDBRANCH   2   3
ENDBRANCH   1   2
BRANCH   1  15
ATOM     15  C   UNL     1      15.405   2.528   2.596  1.00  0.00     0.000 C 
BRANCH  15  16
ATOM     16  C   UNL     1      15.859   2.736   1.143  1.00  0.00     0.000 C 
BRANCH  16  17
ATOM     17  C   UNL     1      14.948   3.743   0.425  1.00  0.00     0.000 C 
BRANCH  17  18
ATOM     18  C   UNL     1      15.461   4.122  -0.974  1.00  0.00    -0.000 C 
BRANCH  18  19
ATOM     19  C   UNL     1      14.692   3.474  -2.142  1.00  0.00    -0.000 C 
BRANCH  19  20
ATOM     20  C   UNL     1      13.342   2.851  -1.727  1.00  0.00    -0.000 C 
BRANCH  20  21
ATOM     21  C   UNL     1      13.233   1.370  -2.133  1.00  0.00    -0.000 C 
BRANCH  21  22
ATOM     22  C   UNL     1      14.326   0.498  -1.478  1.00  0.00    -0.000 C 
BRANCH  22  23
ATOM     23  C   UNL     1      15.206  -0.257  -2.492  1.00  0.00    -0.000 C 
BRANCH  23  24
ATOM     24  C   UNL     1      16.565   0.404  -2.792  1.00  0.00    -0.000 C 
BRANCH  24  25
ATOM     25  C   UNL     1      17.276   1.004  -1.566  1.00  0.00    -0.003 C 
ATOM     26  C   UNL     1      18.788   1.123  -1.752  1.00  0.00     0.004 C 
ENDBRANCH  24  25
ENDBRANCH  23  24
ENDBRANCH  22  23
ENDBRANCH  21  22
ENDBRANCH  20  21
ENDBRANCH  19  20
ENDBRANCH  18  19
ENDBRANCH  17  18
ENDBRANCH  16  17
ENDBRANCH  15  16
ENDBRANCH   1  15
TORSDOF 22
ENDMDL
MODEL 7
REMARK VINA RESULT:    -4.261      1.481      4.361
REMARK INTER + INTRA:         -14.081
REMARK INTER:                  -9.369
REMARK INTRA:                  -4.713
REMARK UNBOUND:                -4.340
REMARK SMILES CCCCCCCCCCCCCCCCCCCCCCCC(=O)[O-]
REMARK SMILES IDX 13 1 14 2 15 3 16 4 17 5 18 6 19 7 20 8 21 9 22 10 23 11
REMARK SMILES IDX 24 12 25 13 26 14 12 15 11 16 10 17 9 18 8 19 7 20 6 21 5 22
REMARK SMILES IDX 4 23 3 24 2 25 1 26
REMARK H PARENT
REMARK Flexibility Score: inf
ROOT
ATOM      1  C   UNL     1      16.838   1.666  -0.692  1.00  0.00     0.000 C 
ENDROOT
BRANCH   1   2
ATOM      2  C   UNL     1      16.254   0.249  -0.833  1.00  0.00     0.000 C 
BRANCH   2   3
ATOM      3  C   UNL     1      15.396   0.082  -2.100  1.00  0.00     0.000 C 
BRANCH   3   4
ATOM      4  C   UNL     1      13.876  -0.014  -1.854  1.00  0.00     0.000 C 
BRANCH   4   5
ATOM      5  C   UNL     1      13.034   1.079  -2.541  1.00  0.00     0.000 C 
BRANCH   5   6
ATOM      6  C   UNL     1      11.995   1.768  -1.633  1.00  0.00     0.000 C 
BRANCH   6   7
ATOM      7  C   UNL     1      10.588   1.143  -1.663  1.00  0.00     0.000 C 
BRANCH   7   8
ATOM      8  C   UNL     1      10.273   0.316  -0.407  1.00  0.00     0.000 C 
BRANCH   8   9
ATOM      9  C   UNL     1       9.154   0.971   0.415  1.00  0.00     0.000 C 
BRANCH   9  10
ATOM     10  C   UNL     1       8.745   2.357  -0.118  1.00  0.00     0.006 C 
BRANCH  10  11
ATOM     11  C   UNL     1       9.136   3.522   0.809  1.00  0.00     0.053 C 
BRANCH  11  12
ATOM     12  C   UNL     1       9.664   4.705   0.056  1.00  0.00     0.041 C 
ATOM     13  O   UNL     1       9.709   4.684  -1.202  1.00  0.00    -0.550 OA
ATOM     14  O   UNL     1      10.136   5.818   0.741  1.00  0.00    -0.550 OA
ENDBRANCH  11  12
ENDBRANCH  10  11
ENDBRANCH   9  10
ENDBRANCH   8   9
ENDBRANCH   7   8
ENDBRANCH   6   7
ENDBRANCH   5   6
ENDBRANCH   4   5
ENDBRANCH   3   4
ENDBRANCH   2   3
ENDBRANCH   1   2
BRANCH   1  15
ATOM     15  C   UNL     1      16.223   2.661  -1.690  1.00  0.00     0.000 C 
BRANCH  15  16
ATOM     16  C   UNL     1      15.362   3.735  -1.007  1.00  0.00     0.000 C 
BRANCH  16  17
ATOM     17  C   UNL     1      15.699   3.835   0.488  1.00  0.00     0.000 C 
BRANCH  17  18
ATOM     18  C   UNL     1      14.592   4.522   1.305  1.00  0.00    -0.000 C 
BRANCH  18  19
ATOM     19  C   UNL     1      13.178   3.949   1.088  1.00  0.00    -0.000 C 
BRANCH  19  20
ATOM     20  C   UNL     1      12.504   3.448   2.383  1.00  0.00    -0.000 C 
BRANCH  20  21
ATOM     21  C   UNL     1      12.209   1.938   2.342  1.00  0.00    -0.000 C 
BRANCH  21  22
ATOM     22  C   UNL     1      13.312   1.142   1.611  1.00  0.00    -0.000 C 
BRANCH  22  23
ATOM     23  C   UNL     1      14.182   0.282   2.548  1.00  0.00    -0.000 C 
BRANCH  23  24
ATOM     24  C   UNL     1      15.629   0.778   2.725  1.00  0.00    -0.000 C 
BRANCH  24  25
ATOM     25  C   UNL     1      15.799   1.931   3.731  1.00  0.00    -0.003 C 
ATOM     26  C   UNL     1      16.472   1.493   5.031  1.00  0.00     0.004 C 
ENDBRANCH  24  25
ENDBRANCH  23  24
ENDBRANCH  22  23
ENDBRANCH  21  22
ENDBRANCH  20  21
ENDBRANCH  19  20
ENDBRANCH  18  19
ENDBRANCH  17  18
ENDBRANCH  16  17
ENDBRANCH  15  16
ENDBRANCH   1  15
TORSDOF 22
ENDMDL
MODEL 8
REMARK VINA RESULT:    -4.223      3.463      6.903
REMARK INTER + INTRA:         -13.995
REMARK INTER:                  -9.853
REMARK INTRA:                  -4.142
REMARK UNBOUND:                -4.340
REMARK SMILES CCCCCCCCCCCCCCCCCCCCCCCC(=O)[O-]
REMARK SMILES IDX 13 1 14 2 15 3 16 4 17 5 18 6 19 7 20 8 21 9 22 10 23 11
REMARK SMILES IDX 24 12 25 13 26 14 12 15 11 16 10 17 9 18 8 19 7 20 6 21 5 22
REMARK SMILES IDX 4 23 3 24 2 25 1 26
REMARK H PARENT
REMARK Flexibility Score: inf
ROOT
ATOM      1  C   UNL     1      16.877   2.517  -0.881  1.00  0.00     0.000 C 
ENDROOT
BRANCH   1   2
ATOM      2  C   UNL     1      16.721   0.996  -1.056  1.00  0.00     0.000 C 
BRANCH   2   3
ATOM      3  C   UNL     1      16.496   0.585  -2.522  1.00  0.00     0.000 C 
BRANCH   3   4
ATOM      4  C   UNL     1      15.105  -0.006  -2.830  1.00  0.00     0.000 C 
BRANCH   4   5
ATOM      5  C   UNL     1      14.374  -0.619  -1.619  1.00  0.00     0.000 C 
BRANCH   5   6
ATOM      6  C   UNL     1      13.088   0.117  -1.194  1.00  0.00     0.000 C 
BRANCH   6   7
ATOM      7  C   UNL     1      13.008   0.478   0.301  1.00  0.00     0.000 C 
BRANCH   7   8
ATOM      8  C   UNL     1      14.042  -0.272   1.154  1.00  0.00     0.000 C 
BRANCH   8   9
ATOM      9  C   UNL     1      14.325   0.481   2.462  1.00  0.00     0.000 C 
BRANCH   9  10
ATOM     10  C   UNL     1      15.753   1.053   2.532  1.00  0.00     0.006 C 
BRANCH  10  11
ATOM     11  C   UNL     1      15.975   2.033   3.698  1.00  0.00     0.053 C 
BRANCH  11  12
ATOM     12  C   UNL     1      16.700   1.403   4.849  1.00  0.00     0.041 C 
ATOM     13  O   UNL     1      16.421   0.227   5.204  1.00  0.00    -0.550 OA
ATOM     14  O   UNL     1      17.660   2.122   5.551  1.00  0.00    -0.550 OA
ENDBRANCH  11  12
ENDBRANCH  10  11
ENDBRANCH   9  10
ENDBRANCH   8   9
ENDBRANCH   7   8
ENDBRANCH   6   7
ENDBRANCH   5   6
ENDBRANCH   4   5
ENDBRANCH   3   4
ENDBRANCH   2   3
ENDBRANCH   1   2
BRANCH   1  15
ATOM     15  C   UNL     1      15.768   3.311  -1.591  1.00  0.00     0.000 C 
BRANCH  15  16
ATOM     16  C   UNL     1      14.550   3.570  -0.691  1.00  0.00     0.000 C 
BRANCH  16  17
ATOM     17  C   UNL     1      14.981   4.202   0.641  1.00  0.00     0.000 C 
BRANCH  17  18
ATOM     18  C   UNL     1      13.865   4.182   1.700  1.00  0.00    -0.000 C 
BRANCH  18  19
ATOM     19  C   UNL     1      12.441   4.019   1.135  1.00  0.00    -0.000 C 
BRANCH  19  20
ATOM     20  C   UNL     1      11.557   5.272   1.305  1.00  0.00    -0.000 C 
BRANCH  20  21
ATOM     21  C   UNL     1      10.057   4.952   1.172  1.00  0.00    -0.000 C 
BRANCH  21  22
ATOM     22  C   UNL     1       9.498   5.317  -0.220  1.00  0.00    -0.000 C 
BRANCH  22  23
ATOM     23  C   UNL     1       8.905   4.118  -0.984  1.00  0.00    -0.000 C 
BRANCH  23  24
ATOM     24  C   UNL     1       9.902   2.985  -1.291  1.00  0.00    -0.000 C 
BRANCH  24  25
ATOM     25  C   UNL     1       9.425   1.578  -0.887  1.00  0.00    -0.003 C 
ATOM     26  C   UNL     1       9.385   1.373   0.626  1.00  0.00     0.004 C 
ENDBRANCH  24  25
ENDBRANCH  23  24
ENDBRANCH  22  23
ENDBRANCH  21  22
ENDBRANCH  20  21
ENDBRANCH  19  20
ENDBRANCH  18  19
ENDBRANCH  17  18
ENDBRANCH  16  17
ENDBRANCH  15  16
ENDBRANCH   1  15
TORSDOF 22
ENDMDL
MODEL 9
REMARK VINA RESULT:    -4.180      2.361      6.367
REMARK INTER + INTRA:         -13.896
REMARK INTER:                  -9.365
REMARK INTRA:                  -4.531
REMARK UNBOUND:                -4.340
REMARK SMILES CCCCCCCCCCCCCCCCCCCCCCCC(=O)[O-]
REMARK SMILES IDX 13 1 14 2 15 3 16 4 17 5 18 6 19 7 20 8 21 9 22 10 23 11
REMARK SMILES IDX 24 12 25 13 26 14 12 15 11 16 10 17 9 18 8 19 7 20 6 21 5 22
REMARK SMILES IDX 4 23 3 24 2 25 1 26
REMARK H PARENT
REMARK Flexibility Score: inf
ROOT
ATOM      1  C   UNL     1       9.404   0.860   2.496  1.00  0.00     0.000 C 
ENDROOT
BRANCH   1   2
ATOM      2  C   UNL     1       9.240   1.864   1.341  1.00  0.00     0.000 C 
BRANCH   2   3
ATOM      3  C   UNL     1       8.448   1.283   0.155  1.00  0.00     0.000 C 
BRANCH   3   4
ATOM      4  C   UNL     1       9.049   1.570  -1.236  1.00  0.00     0.000 C 
BRANCH   4   5
ATOM      5  C   UNL     1      10.576   1.776  -1.257  1.00  0.00     0.000 C 
BRANCH   5   6
ATOM      6  C   UNL     1      11.377   0.653  -1.946  1.00  0.00     0.000 C 
BRANCH   6   7
ATOM      7  C   UNL     1      12.821   1.024  -2.331  1.00  0.00     0.000 C 
BRANCH   7   8
ATOM      8  C   UNL     1      13.834  -0.077  -1.986  1.00  0.00     0.000 C 
BRANCH   8   9
ATOM      9  C   UNL     1      15.267   0.378  -2.299  1.00  0.00     0.000 C 
BRANCH   9  10
ATOM     10  C   UNL     1      15.988   0.985  -1.081  1.00  0.00     0.006 C 
BRANCH  10  11
ATOM     11  C   UNL     1      16.845   2.219  -1.415  1.00  0.00     0.053 C 
BRANCH  11  12
ATOM     12  C   UNL     1      16.093   3.504  -1.248  1.00  0.00     0.041 C 
ATOM     13  O   UNL     1      16.332   4.254  -0.265  1.00  0.00    -0.550 OA
ATOM     14  O   UNL     1      15.104   3.861  -2.157  1.00  0.00    -0.550 OA
ENDBRANCH  11  12
ENDBRANCH  10  11
ENDBRANCH   9  10
ENDBRANCH   8   9
ENDBRANCH   7   8
ENDBRANCH   6   7
ENDBRANCH   5   6
ENDBRANCH   4   5
ENDBRANCH   3   4
ENDBRANCH   2   3
ENDBRANCH   1   2
BRANCH   1  15
ATOM     15  C   UNL     1      10.878   0.564   2.817  1.00  0.00     0.000 C 
BRANCH  15  16
ATOM     16  C   UNL     1      11.596  -0.187   1.684  1.00  0.00     0.000 C 
BRANCH  16  17
ATOM     17  C   UNL     1      13.024   0.347   1.494  1.00  0.00     0.000 C 
BRANCH  17  18
ATOM     18  C   UNL     1      13.176   1.812   1.935  1.00  0.00    -0.000 C 
BRANCH  18  19
ATOM     19  C   UNL     1      13.162   2.838   0.785  1.00  0.00    -0.000 C 
BRANCH  19  20
ATOM     20  C   UNL     1      13.172   4.306   1.260  1.00  0.00    -0.000 C 
BRANCH  20  21
ATOM     21  C   UNL     1      12.353   4.510   2.546  1.00  0.00    -0.000 C 
BRANCH  21  22
ATOM     22  C   UNL     1      10.851   4.724   2.261  1.00  0.00    -0.000 C 
BRANCH  22  23
ATOM     23  C   UNL     1      10.566   5.398   0.905  1.00  0.00    -0.000 C 
BRANCH  23  24
ATOM     24  C   UNL     1       9.074   5.528   0.545  1.00  0.00    -0.000 C 
BRANCH  24  25
ATOM     25  C   UNL     1       8.761   5.422  -0.958  1.00  0.00    -0.003 C 
ATOM     26  C   UNL     1      10.017   5.330  -1.823  1.00  0.00     0.004 C 
ENDBRANCH  24  25
ENDBRANCH  23  24
ENDBRANCH  22  23
ENDBRANCH  21  22
ENDBRANCH  20  21
ENDBRANCH  19  20
ENDBRANCH  18  19
ENDBRANCH  17  18
ENDBRANCH  16  17
ENDBRANCH  15  16
ENDBRANCH   1  15
TORSDOF 22
ENDMDL
