MODEL 1
REMARK VINA RESULT:    -5.017      0.000      0.000
REMARK INTER + INTRA:          -5.164
REMARK INTER:                  -5.164
REMARK INTRA:                   0.000
REMARK UNBOUND:                 0.000
REMARK SMILES O=c1ccc2ccc(O)cc2o1
REMARK SMILES IDX 6 1 7 2 8 3 10 4 11 5 5 6 4 7 3 8 2 9 1 10 12 11 9 12
REMARK H PARENT 9 13
REMARK Flexibility Score: inf
ROOT
ATOM      1  C   UNL     1      18.436  30.304  28.029  1.00  0.00     0.016 A 
ATOM      2  C   UNL     1      18.389  31.069  29.199  1.00  0.00     0.047 A 
ATOM      3  C   UNL     1      18.363  30.442  30.454  1.00  0.00     0.119 A 
ATOM      4  C   UNL     1      18.383  29.045  30.537  1.00  0.00     0.094 A 
ATOM      5  C   UNL     1      18.431  28.271  29.373  1.00  0.00     0.142 A 
ATOM      6  C   UNL     1      18.457  28.904  28.110  1.00  0.00     0.018 A 
ATOM      7  C   UNL     1      18.504  28.105  26.964  1.00  0.00     0.019 A 
ATOM      8  C   UNL     1      18.524  26.717  27.099  1.00  0.00     0.094 A 
ATOM      9  C   UNL     1      18.495  26.159  28.381  1.00  0.00     0.336 A 
ATOM     10  O   UNL     1      18.512  24.908  28.523  1.00  0.00    -0.246 OA
ATOM     11  O   UNL     1      18.451  26.943  29.456  1.00  0.00    -0.423 OA
ENDROOT
BRANCH   3  12
ATOM     12  O   UNL     1      18.315  31.199  31.623  1.00  0.00    -0.508 OA
ATOM     13  H   UNL     1      19.037  31.127  32.330  1.00  0.00     0.293 HD
ENDBRANCH   3  12
TORSDOF 1
ENDMDL
MODEL 2
REMARK VINA RESULT:    -4.987      1.644      2.400
REMARK INTER + INTRA:          -5.133
REMARK INTER:                  -5.133
REMARK INTRA:                   0.000
REMARK UNBOUND:                 0.000
REMARK SMILES O=c1ccc2ccc(O)cc2o1
REMARK SMILES IDX 6 1 7 2 8 3 10 4 11 5 5 6 4 7 3 8 2 9 1 10 12 11 9 12
REMARK H PARENT 9 13
REMARK Flexibility Score: inf
ROOT
ATOM      1  C   UNL     1      18.294  29.985  30.842  1.00  0.00     0.016 A 
ATOM      2  C   UNL     1      18.425  31.363  30.643  1.00  0.00     0.047 A 
ATOM      3  C   UNL     1      18.517  31.885  29.343  1.00  0.00     0.119 A 
ATOM      4  C   UNL     1      18.477  31.023  28.240  1.00  0.00     0.094 A 
ATOM      5  C   UNL     1      18.345  29.644  28.430  1.00  0.00     0.142 A 
ATOM      6  C   UNL     1      18.253  29.120  29.739  1.00  0.00     0.018 A 
ATOM      7  C   UNL     1      18.122  27.737  29.897  1.00  0.00     0.019 A 
ATOM      8  C   UNL     1      18.086  26.920  28.767  1.00  0.00     0.094 A 
ATOM      9  C   UNL     1      18.183  27.508  27.501  1.00  0.00     0.336 A 
ATOM     10  O   UNL     1      18.153  26.787  26.470  1.00  0.00    -0.246 OA
ATOM     11  O   UNL     1      18.307  28.828  27.379  1.00  0.00    -0.423 OA
ENDROOT
BRANCH   3  12
ATOM     12  O   UNL     1      18.649  33.256  29.138  1.00  0.00    -0.508 OA
ATOM     13  H   UNL     1      19.082  33.856  29.830  1.00  0.00     0.293 HD
ENDBRANCH   3  12
TORSDOF 1
ENDMDL
MODEL 3
REMARK VINA RESULT:    -4.938      3.583      4.822
REMARK INTER + INTRA:          -5.082
REMARK INTER:                  -5.082
REMARK INTRA:                   0.000
REMARK UNBOUND:                 0.000
REMARK SMILES O=c1ccc2ccc(O)cc2o1
REMARK SMILES IDX 6 1 7 2 8 3 10 4 11 5 5 6 4 7 3 8 2 9 1 10 12 11 9 12
REMARK H PARENT 9 13
REMARK Flexibility Score: inf
ROOT
ATOM      1  C   UNL     1      18.203  29.111  35.118  1.00  0.00     0.016 A 
ATOM      2  C   UNL     1      17.387  30.233  34.937  1.00  0.00     0.047 A 
ATOM      3  C   UNL     1      17.080  30.684  33.644  1.00  0.00     0.119 A 
ATOM      4  C   UNL     1      17.593  30.010  32.529  1.00  0.00     0.094 A 
ATOM      5  C   UNL     1      18.409  28.887  32.700  1.00  0.00     0.142 A 
ATOM      6  C   UNL     1      18.717  28.434  34.003  1.00  0.00     0.018 A 
ATOM      7  C   UNL     1      19.535  27.310  34.142  1.00  0.00     0.019 A 
ATOM      8  C   UNL     1      20.021  26.672  33.001  1.00  0.00     0.094 A 
ATOM      9  C   UNL     1      19.676  27.176  31.742  1.00  0.00     0.336 A 
ATOM     10  O   UNL     1      20.104  26.614  30.701  1.00  0.00    -0.246 OA
ATOM     11  O   UNL     1      18.894  28.249  31.637  1.00  0.00    -0.423 OA
ENDROOT
BRANCH   3  12
ATOM     12  O   UNL     1      16.268  31.801  33.457  1.00  0.00    -0.508 OA
ATOM     13  H   UNL     1      15.515  32.020  34.097  1.00  0.00     0.293 HD
ENDBRANCH   3  12
TORSDOF 1
ENDMDL
MODEL 4
REMARK VINA RESULT:    -4.936      1.695      4.816
REMARK INTER + INTRA:          -5.080
REMARK INTER:                  -5.080
REMARK INTRA:                   0.000
REMARK UNBOUND:                 0.000
REMARK SMILES O=c1ccc2ccc(O)cc2o1
REMARK SMILES IDX 6 1 7 2 8 3 10 4 11 5 5 6 4 7 3 8 2 9 1 10 12 11 9 12
REMARK H PARENT 9 13
REMARK Flexibility Score: inf
ROOT
ATOM      1  C   UNL     1      18.247  27.718  30.011  1.00  0.00     0.016 A 
ATOM      2  C   UNL     1      18.226  26.820  28.939  1.00  0.00     0.047 A 
ATOM      3  C   UNL     1      18.272  27.294  27.618  1.00  0.00     0.119 A 
ATOM      4  C   UNL     1      18.340  28.670  27.372  1.00  0.00     0.094 A 
ATOM      5  C   UNL     1      18.362  29.575  28.438  1.00  0.00     0.142 A 
ATOM      6  C   UNL     1      18.315  29.097  29.767  1.00  0.00     0.018 A 
ATOM      7  C   UNL     1      18.339  30.025  30.811  1.00  0.00     0.019 A 
ATOM      8  C   UNL     1      18.408  31.387  30.515  1.00  0.00     0.094 A 
ATOM      9  C   UNL     1      18.451  31.789  29.176  1.00  0.00     0.336 A 
ATOM     10  O   UNL     1      18.513  33.012  28.888  1.00  0.00    -0.246 OA
ATOM     11  O   UNL     1      18.427  30.883  28.200  1.00  0.00    -0.423 OA
ENDROOT
BRANCH   3  12
ATOM     12  O   UNL     1      18.251  26.405  26.546  1.00  0.00    -0.508 OA
ATOM     13  H   UNL     1      18.593  26.671  25.631  1.00  0.00     0.293 HD
ENDBRANCH   3  12
TORSDOF 1
ENDMDL
MODEL 5
REMARK VINA RESULT:    -4.912      4.271      6.274
REMARK INTER + INTRA:          -5.056
REMARK INTER:                  -5.056
REMARK INTRA:                   0.000
REMARK UNBOUND:                 0.000
REMARK SMILES O=c1ccc2ccc(O)cc2o1
REMARK SMILES IDX 6 1 7 2 8 3 10 4 11 5 5 6 4 7 3 8 2 9 1 10 12 11 9 12
REMARK H PARENT 9 13
REMARK Flexibility Score: inf
ROOT
ATOM      1  C   UNL     1      19.077  28.066  31.973  1.00  0.00     0.016 A 
ATOM      2  C   UNL     1      19.893  27.026  32.430  1.00  0.00     0.047 A 
ATOM      3  C   UNL     1      20.000  26.762  33.804  1.00  0.00     0.119 A 
ATOM      4  C   UNL     1      19.287  27.541  34.723  1.00  0.00     0.094 A 
ATOM      5  C   UNL     1      18.467  28.582  34.275  1.00  0.00     0.142 A 
ATOM      6  C   UNL     1      18.361  28.847  32.891  1.00  0.00     0.018 A 
ATOM      7  C   UNL     1      17.533  29.893  32.474  1.00  0.00     0.019 A 
ATOM      8  C   UNL     1      16.842  30.641  33.427  1.00  0.00     0.094 A 
ATOM      9  C   UNL     1      16.995  30.322  34.781  1.00  0.00     0.336 A 
ATOM     10  O   UNL     1      16.380  30.985  35.656  1.00  0.00    -0.246 OA
ATOM     11  O   UNL     1      17.789  29.320  35.152  1.00  0.00    -0.423 OA
ENDROOT
BRANCH   3  12
ATOM     12  O   UNL     1      20.813  25.728  34.266  1.00  0.00    -0.508 OA
ATOM     13  H   UNL     1      21.335  25.811  35.130  1.00  0.00     0.293 HD
ENDBRANCH   3  12
TORSDOF 1
ENDMDL
MODEL 6
REMARK VINA RESULT:    -4.902      4.112      4.860
REMARK INTER + INTRA:          -5.045
REMARK INTER:                  -5.045
REMARK INTRA:                   0.000
REMARK UNBOUND:                 0.000
REMARK SMILES O=c1ccc2ccc(O)cc2o1
REMARK SMILES IDX 6 1 7 2 8 3 10 4 11 5 5 6 4 7 3 8 2 9 1 10 12 11 9 12
REMARK H PARENT 9 13
REMARK Flexibility Score: inf
ROOT
ATOM      1  C   UNL     1      17.600  29.901  32.324  1.00  0.00     0.016 A 
ATOM      2  C   UNL     1      16.914  30.638  33.295  1.00  0.00     0.047 A 
ATOM      3  C   UNL     1      17.028  30.300  34.652  1.00  0.00     0.119 A 
ATOM      4  C   UNL     1      17.831  29.219  35.038  1.00  0.00     0.094 A 
ATOM      5  C   UNL     1      18.521  28.476  34.074  1.00  0.00     0.142 A 
ATOM      6  C   UNL     1      18.405  28.819  32.708  1.00  0.00     0.018 A 
ATOM      7  C   UNL     1      19.106  28.058  31.768  1.00  0.00     0.019 A 
ATOM      8  C   UNL     1      19.894  26.992  32.201  1.00  0.00     0.094 A 
ATOM      9  C   UNL     1      19.961  26.710  33.570  1.00  0.00     0.336 A 
ATOM     10  O   UNL     1      20.666  25.751  33.980  1.00  0.00    -0.246 OA
ATOM     11  O   UNL     1      19.283  27.450  34.444  1.00  0.00    -0.423 OA
ENDROOT
BRANCH   3  12
ATOM     12  O   UNL     1      16.347  31.030  35.624  1.00  0.00    -0.508 OA
ATOM     13  H   UNL     1      15.906  30.576  36.415  1.00  0.00     0.293 HD
ENDBRANCH   3  12
TORSDOF 1
ENDMDL
MODEL 7
REMARK VINA RESULT:    -4.901      2.845      5.686
REMARK INTER + INTRA:          -5.045
REMARK INTER:                  -5.045
REMARK INTRA:                   0.000
REMARK UNBOUND:                 0.000
REMARK SMILES O=c1ccc2ccc(O)cc2o1
REMARK SMILES IDX 6 1 7 2 8 3 10 4 11 5 5 6 4 7 3 8 2 9 1 10 12 11 9 12
REMARK H PARENT 9 13
REMARK Flexibility Score: inf
ROOT
ATOM      1  C   UNL     1      19.542  27.332  32.328  1.00  0.00     0.016 A 
ATOM      2  C   UNL     1      19.532  27.334  30.930  1.00  0.00     0.047 A 
ATOM      3  C   UNL     1      18.750  28.264  30.228  1.00  0.00     0.119 A 
ATOM      4  C   UNL     1      17.975  29.195  30.930  1.00  0.00     0.094 A 
ATOM      5  C   UNL     1      17.979  29.202  32.329  1.00  0.00     0.142 A 
ATOM      6  C   UNL     1      18.767  28.264  33.033  1.00  0.00     0.018 A 
ATOM      7  C   UNL     1      18.751  28.295  34.431  1.00  0.00     0.019 A 
ATOM      8  C   UNL     1      17.963  29.242  35.085  1.00  0.00     0.094 A 
ATOM      9  C   UNL     1      17.207  30.140  34.323  1.00  0.00     0.336 A 
ATOM     10  O   UNL     1      16.490  31.001  34.894  1.00  0.00    -0.246 OA
ATOM     11  O   UNL     1      17.241  30.089  32.992  1.00  0.00    -0.423 OA
ENDROOT
BRANCH   3  12
ATOM     12  O   UNL     1      18.735  28.270  28.835  1.00  0.00    -0.508 OA
ATOM     13  H   UNL     1      19.356  27.678  28.297  1.00  0.00     0.293 HD
ENDBRANCH   3  12
TORSDOF 1
ENDMDL
MODEL 8
REMARK VINA RESULT:    -4.889      1.446      4.110
REMARK INTER + INTRA:          -5.032
REMARK INTER:                  -5.032
REMARK INTRA:                   0.000
REMARK UNBOUND:                 0.000
REMARK SMILES O=c1ccc2ccc(O)cc2o1
REMARK SMILES IDX 6 1 7 2 8 3 10 4 11 5 5 6 4 7 3 8 2 9 1 10 12 11 9 12
REMARK H PARENT 9 13
REMARK Flexibility Score: inf
ROOT
ATOM      1  C   UNL     1      18.415  29.636  27.976  1.00  0.00     0.016 A 
ATOM      2  C   UNL     1      18.453  28.499  27.161  1.00  0.00     0.047 A 
ATOM      3  C   UNL     1      18.456  27.218  27.734  1.00  0.00     0.119 A 
ATOM      4  C   UNL     1      18.422  27.075  29.126  1.00  0.00     0.094 A 
ATOM      5  C   UNL     1      18.384  28.206  29.949  1.00  0.00     0.142 A 
ATOM      6  C   UNL     1      18.381  29.495  29.370  1.00  0.00     0.018 A 
ATOM      7  C   UNL     1      18.342  30.606  30.217  1.00  0.00     0.019 A 
ATOM      8  C   UNL     1      18.308  30.413  31.598  1.00  0.00     0.094 A 
ATOM      9  C   UNL     1      18.314  29.107  32.101  1.00  0.00     0.336 A 
ATOM     10  O   UNL     1      18.284  28.912  33.344  1.00  0.00    -0.246 OA
ATOM     11  O   UNL     1      18.351  28.066  31.272  1.00  0.00    -0.423 OA
ENDROOT
BRANCH   3  12
ATOM     12  O   UNL     1      18.494  26.082  26.928  1.00  0.00    -0.508 OA
ATOM     13  H   UNL     1      19.043  25.270  27.184  1.00  0.00     0.293 HD
ENDBRANCH   3  12
TORSDOF 1
ENDMDL
MODEL 9
REMARK VINA RESULT:    -4.836      3.465      4.871
REMARK INTER + INTRA:          -4.977
REMARK INTER:                  -4.977
REMARK INTRA:                   0.000
REMARK UNBOUND:                 0.000
REMARK SMILES O=c1ccc2ccc(O)cc2o1
REMARK SMILES IDX 6 1 7 2 8 3 10 4 11 5 5 6 4 7 3 8 2 9 1 10 12 11 9 12
REMARK H PARENT 9 13
REMARK Flexibility Score: inf
ROOT
ATOM      1  C   UNL     1      18.724  28.686  34.272  1.00  0.00     0.016 A 
ATOM      2  C   UNL     1      19.446  27.849  35.129  1.00  0.00     0.047 A 
ATOM      3  C   UNL     1      20.173  26.765  34.613  1.00  0.00     0.119 A 
ATOM      4  C   UNL     1      20.177  26.519  33.235  1.00  0.00     0.094 A 
ATOM      5  C   UNL     1      19.458  27.351  32.370  1.00  0.00     0.142 A 
ATOM      6  C   UNL     1      18.727  28.442  32.891  1.00  0.00     0.018 A 
ATOM      7  C   UNL     1      18.018  29.256  32.003  1.00  0.00     0.019 A 
ATOM      8  C   UNL     1      18.053  28.971  30.638  1.00  0.00     0.094 A 
ATOM      9  C   UNL     1      18.798  27.873  30.192  1.00  0.00     0.336 A 
ATOM     10  O   UNL     1      18.842  27.599  28.965  1.00  0.00    -0.246 OA
ATOM     11  O   UNL     1      19.464  27.114  31.060  1.00  0.00    -0.423 OA
ENDROOT
BRANCH   3  12
ATOM     12  O   UNL     1      20.894  25.927  35.461  1.00  0.00    -0.508 OA
ATOM     13  H   UNL     1      20.544  25.673  36.377  1.00  0.00     0.293 HD
ENDBRANCH   3  12
TORSDOF 1
ENDMDL
