MODEL 1
REMARK VINA RESULT:    -2.683      0.000      0.000
REMARK INTER + INTRA:          -2.683
REMARK INTER:                  -2.683
REMARK INTRA:                   0.000
REMARK UNBOUND:                 0.000
REMARK SMILES CC1(C)C(=O)[C@]2(C)CC[C@H]1C2
REMARK SMILES IDX 1 1 2 2 10 3 9 4 8 5 6 6 11 7 4 8 5 9 7 10 3 11
REMARK H PARENT
REMARK Flexibility Score: inf
ROOT
ATOM      1  C   UNL     1     123.868 127.169 119.019  1.00  0.00     0.020 C 
ATOM      2  C   UNL     1     124.998 128.097 119.512  1.00  0.00     0.027 C 
ATOM      3  C   UNL     1     125.636 128.912 118.330  1.00  0.00     0.003 C 
ATOM      4  C   UNL     1     126.640 129.969 118.857  1.00  0.00     0.005 C 
ATOM      5  C   UNL     1     127.799 129.107 119.407  1.00  0.00     0.015 C 
ATOM      6  C   UNL     1     127.360 127.677 119.035  1.00  0.00     0.027 C 
ATOM      7  C   UNL     1     126.625 127.913 117.732  1.00  0.00     0.019 C 
ATOM      8  C   UNL     1     126.207 127.308 119.928  1.00  0.00     0.144 C 
ATOM      9  O   UNL     1     126.261 126.549 120.883  1.00  0.00    -0.298 OA
ATOM     10  C   UNL     1     128.486 126.644 118.960  1.00  0.00     0.020 C 
ATOM     11  C   UNL     1     124.468 128.970 120.671  1.00  0.00     0.020 C 
ENDROOT
TORSDOF 0
ENDMDL
MODEL 2
REMARK VINA RESULT:    -2.654     13.876     15.466
REMARK INTER + INTRA:          -2.654
REMARK INTER:                  -2.654
REMARK INTRA:                   0.000
REMARK UNBOUND:                 0.000
REMARK SMILES CC1(C)C(=O)[C@]2(C)CC[C@H]1C2
REMARK SMILES IDX 1 1 2 2 10 3 9 4 8 5 6 6 11 7 4 8 5 9 7 10 3 11
REMARK H PARENT
REMARK Flexibility Score: inf
ROOT
ATOM      1  C   UNL     1     127.333 115.223 119.566  1.00  0.00     0.020 C 
ATOM      2  C   UNL     1     128.326 114.069 119.816  1.00  0.00     0.027 C 
ATOM      3  C   UNL     1     128.998 113.583 118.481  1.00  0.00     0.003 C 
ATOM      4  C   UNL     1     130.122 112.554 118.763  1.00  0.00     0.005 C 
ATOM      5  C   UNL     1     129.346 111.321 119.281  1.00  0.00     0.015 C 
ATOM      6  C   UNL     1     127.877 111.763 119.135  1.00  0.00     0.027 C 
ATOM      7  C   UNL     1     127.944 112.641 117.902  1.00  0.00     0.019 C 
ATOM      8  C   UNL     1     127.608 112.803 120.187  1.00  0.00     0.144 C 
ATOM      9  O   UNL     1     126.971 112.627 121.215  1.00  0.00    -0.298 OA
ATOM     10  C   UNL     1     126.855 110.628 119.059  1.00  0.00     0.020 C 
ATOM     11  C   UNL     1     129.329 114.491 120.913  1.00  0.00     0.020 C 
ENDROOT
TORSDOF 0
ENDMDL
MODEL 3
REMARK VINA RESULT:    -2.578      1.261      3.158
REMARK INTER + INTRA:          -2.578
REMARK INTER:                  -2.578
REMARK INTRA:                   0.000
REMARK UNBOUND:                 0.000
REMARK SMILES CC1(C)C(=O)[C@]2(C)CC[C@H]1C2
REMARK SMILES IDX 1 1 2 2 10 3 9 4 8 5 6 6 11 7 4 8 5 9 7 10 3 11
REMARK H PARENT
REMARK Flexibility Score: inf
ROOT
ATOM      1  C   UNL     1     128.244 129.509 118.398  1.00  0.00     0.020 C 
ATOM      2  C   UNL     1     127.081 128.502 118.523  1.00  0.00     0.027 C 
ATOM      3  C   UNL     1     125.691 129.228 118.599  1.00  0.00     0.003 C 
ATOM      4  C   UNL     1     124.523 128.210 118.540  1.00  0.00     0.005 C 
ATOM      5  C   UNL     1     124.646 127.459 119.885  1.00  0.00     0.015 C 
ATOM      6  C   UNL     1     125.799 128.207 120.584  1.00  0.00     0.027 C 
ATOM      7  C   UNL     1     125.599 129.619 120.073  1.00  0.00     0.019 C 
ATOM      8  C   UNL     1     127.073 127.844 119.873  1.00  0.00     0.144 C 
ATOM      9  O   UNL     1     127.929 127.080 120.293  1.00  0.00    -0.298 OA
ATOM     10  C   UNL     1     125.838 128.076 122.107  1.00  0.00     0.020 C 
ATOM     11  C   UNL     1     127.191 127.459 117.388  1.00  0.00     0.020 C 
ENDROOT
TORSDOF 0
ENDMDL
MODEL 4
REMARK VINA RESULT:    -2.566     14.055     15.676
REMARK INTER + INTRA:          -2.566
REMARK INTER:                  -2.566
REMARK INTRA:                   0.000
REMARK UNBOUND:                 0.000
REMARK SMILES CC1(C)C(=O)[C@]2(C)CC[C@H]1C2
REMARK SMILES IDX 1 1 2 2 10 3 9 4 8 5 6 6 11 7 4 8 5 9 7 10 3 11
REMARK H PARENT
REMARK Flexibility Score: inf
ROOT
ATOM      1  C   UNL     1     129.479 110.773 118.391  1.00  0.00     0.020 C 
ATOM      2  C   UNL     1     128.501 111.956 118.547  1.00  0.00     0.027 C 
ATOM      3  C   UNL     1     129.258 113.331 118.597  1.00  0.00     0.003 C 
ATOM      4  C   UNL     1     128.264 114.520 118.569  1.00  0.00     0.005 C 
ATOM      5  C   UNL     1     127.555 114.414 119.939  1.00  0.00     0.015 C 
ATOM      6  C   UNL     1     128.301 113.247 120.614  1.00  0.00     0.027 C 
ATOM      7  C   UNL     1     129.700 113.416 120.057  1.00  0.00     0.019 C 
ATOM      8  C   UNL     1     127.889 111.980 119.918  1.00  0.00     0.144 C 
ATOM      9  O   UNL     1     127.121 111.140 120.364  1.00  0.00    -0.298 OA
ATOM     10  C   UNL     1     128.219 113.212 122.141  1.00  0.00     0.020 C 
ATOM     11  C   UNL     1     127.419 111.867 117.447  1.00  0.00     0.020 C 
ENDROOT
TORSDOF 0
ENDMDL
MODEL 5
REMARK VINA RESULT:    -2.414     18.708     20.785
REMARK INTER + INTRA:          -2.414
REMARK INTER:                  -2.414
REMARK INTRA:                   0.000
REMARK UNBOUND:                 0.000
REMARK SMILES CC1(C)C(=O)[C@]2(C)CC[C@H]1C2
REMARK SMILES IDX 1 1 2 2 10 3 9 4 8 5 6 6 11 7 4 8 5 9 7 10 3 11
REMARK H PARENT
REMARK Flexibility Score: inf
ROOT
ATOM      1  C   UNL     1     115.277 113.677 120.101  1.00  0.00     0.020 C 
ATOM      2  C   UNL     1     114.406 112.469 120.508  1.00  0.00     0.027 C 
ATOM      3  C   UNL     1     115.045 111.112 120.042  1.00  0.00     0.003 C 
ATOM      4  C   UNL     1     114.262 109.901 120.610  1.00  0.00     0.005 C 
ATOM      5  C   UNL     1     112.912 109.975 119.863  1.00  0.00     0.015 C 
ATOM      6  C   UNL     1     113.129 111.152 118.891  1.00  0.00     0.027 C 
ATOM      7  C   UNL     1     114.606 111.021 118.581  1.00  0.00     0.019 C 
ATOM      8  C   UNL     1     113.138 112.416 119.704  1.00  0.00     0.144 C 
ATOM      9  O   UNL     1     112.231 113.232 119.761  1.00  0.00    -0.298 OA
ATOM     10  C   UNL     1     112.215 111.168 117.665  1.00  0.00     0.020 C 
ATOM     11  C   UNL     1     114.112 112.545 122.023  1.00  0.00     0.020 C 
ENDROOT
TORSDOF 0
ENDMDL
MODEL 6
REMARK VINA RESULT:    -2.412     13.628     15.273
REMARK INTER + INTRA:          -2.412
REMARK INTER:                  -2.412
REMARK INTRA:                   0.000
REMARK UNBOUND:                 0.000
REMARK SMILES CC1(C)C(=O)[C@]2(C)CC[C@H]1C2
REMARK SMILES IDX 1 1 2 2 10 3 9 4 8 5 6 6 11 7 4 8 5 9 7 10 3 11
REMARK H PARENT
REMARK Flexibility Score: inf
ROOT
ATOM      1  C   UNL     1     127.846 112.086 122.244  1.00  0.00     0.020 C 
ATOM      2  C   UNL     1     128.118 112.185 120.728  1.00  0.00     0.027 C 
ATOM      3  C   UNL     1     129.404 113.034 120.424  1.00  0.00     0.003 C 
ATOM      4  C   UNL     1     129.770 112.976 118.919  1.00  0.00     0.005 C 
ATOM      5  C   UNL     1     128.618 113.758 118.248  1.00  0.00     0.015 C 
ATOM      6  C   UNL     1     127.798 114.250 119.457  1.00  0.00     0.027 C 
ATOM      7  C   UNL     1     128.881 114.468 120.492  1.00  0.00     0.019 C 
ATOM      8  C   UNL     1     127.100 113.056 120.048  1.00  0.00     0.144 C 
ATOM      9  O   UNL     1     125.912 112.797 119.933  1.00  0.00    -0.298 OA
ATOM     10  C   UNL     1     126.907 115.465 119.194  1.00  0.00     0.020 C 
ATOM     11  C   UNL     1     128.138 110.764 120.123  1.00  0.00     0.020 C 
ENDROOT
TORSDOF 0
ENDMDL
MODEL 7
REMARK VINA RESULT:    -2.409      1.155      2.997
REMARK INTER + INTRA:          -2.409
REMARK INTER:                  -2.409
REMARK INTRA:                   0.000
REMARK UNBOUND:                 0.000
REMARK SMILES CC1(C)C(=O)[C@]2(C)CC[C@H]1C2
REMARK SMILES IDX 1 1 2 2 10 3 9 4 8 5 6 6 11 7 4 8 5 9 7 10 3 11
REMARK H PARENT
REMARK Flexibility Score: inf
ROOT
ATOM      1  C   UNL     1     126.962 127.873 122.254  1.00  0.00     0.020 C 
ATOM      2  C   UNL     1     126.871 128.138 120.736  1.00  0.00     0.027 C 
ATOM      3  C   UNL     1     126.027 129.425 120.422  1.00  0.00     0.003 C 
ATOM      4  C   UNL     1     126.093 129.785 118.916  1.00  0.00     0.005 C 
ATOM      5  C   UNL     1     125.312 128.632 118.246  1.00  0.00     0.015 C 
ATOM      6  C   UNL     1     124.812 127.818 119.456  1.00  0.00     0.027 C 
ATOM      7  C   UNL     1     124.591 128.906 120.486  1.00  0.00     0.019 C 
ATOM      8  C   UNL     1     126.001 127.120 120.056  1.00  0.00     0.144 C 
ATOM      9  O   UNL     1     126.258 125.931 119.947  1.00  0.00    -0.298 OA
ATOM     10  C   UNL     1     123.596 126.929 119.190  1.00  0.00     0.020 C 
ATOM     11  C   UNL     1     128.296 128.153 120.138  1.00  0.00     0.020 C 
ENDROOT
TORSDOF 0
ENDMDL
MODEL 8
REMARK VINA RESULT:    -2.402     13.470     14.932
REMARK INTER + INTRA:          -2.402
REMARK INTER:                  -2.402
REMARK INTRA:                   0.000
REMARK UNBOUND:                 0.000
REMARK SMILES CC1(C)C(=O)[C@]2(C)CC[C@H]1C2
REMARK SMILES IDX 1 1 2 2 10 3 9 4 8 5 6 6 11 7 4 8 5 9 7 10 3 11
REMARK H PARENT
REMARK Flexibility Score: inf
ROOT
ATOM      1  C   UNL     1     126.262 115.376 119.762  1.00  0.00     0.020 C 
ATOM      2  C   UNL     1     127.163 114.208 120.214  1.00  0.00     0.027 C 
ATOM      3  C   UNL     1     128.638 114.382 119.704  1.00  0.00     0.003 C 
ATOM      4  C   UNL     1     129.572 113.305 120.313  1.00  0.00     0.005 C 
ATOM      5  C   UNL     1     129.081 112.000 119.647  1.00  0.00     0.015 C 
ATOM      6  C   UNL     1     128.001 112.507 118.670  1.00  0.00     0.027 C 
ATOM      7  C   UNL     1     128.561 113.857 118.272  1.00  0.00     0.019 C 
ATOM      8  C   UNL     1     126.816 112.940 119.487  1.00  0.00     0.144 C 
ATOM      9  O   UNL     1     125.767 112.324 119.601  1.00  0.00    -0.298 OA
ATOM     10  C   UNL     1     127.685 111.573 117.500  1.00  0.00     0.020 C 
ATOM     11  C   UNL     1     127.037 114.033 121.744  1.00  0.00     0.020 C 
ENDROOT
TORSDOF 0
ENDMDL
MODEL 9
REMARK VINA RESULT:    -2.400      2.758      3.702
REMARK INTER + INTRA:          -2.400
REMARK INTER:                  -2.400
REMARK INTRA:                   0.000
REMARK UNBOUND:                 0.000
REMARK SMILES CC1(C)C(=O)[C@]2(C)CC[C@H]1C2
REMARK SMILES IDX 1 1 2 2 10 3 9 4 8 5 6 6 11 7 4 8 5 9 7 10 3 11
REMARK H PARENT
REMARK Flexibility Score: inf
ROOT
ATOM      1  C   UNL     1     127.257 125.695 119.874  1.00  0.00     0.020 C 
ATOM      2  C   UNL     1     128.390 126.351 119.057  1.00  0.00     0.027 C 
ATOM      3  C   UNL     1     127.996 127.794 118.576  1.00  0.00     0.003 C 
ATOM      4  C   UNL     1     129.201 128.512 117.917  1.00  0.00     0.005 C 
ATOM      5  C   UNL     1     129.415 127.711 116.613  1.00  0.00     0.015 C 
ATOM      6  C   UNL     1     128.248 126.705 116.641  1.00  0.00     0.027 C 
ATOM      7  C   UNL     1     127.165 127.513 117.325  1.00  0.00     0.019 C 
ATOM      8  C   UNL     1     128.544 125.695 117.715  1.00  0.00     0.144 C 
ATOM      9  O   UNL     1     128.922 124.548 117.529  1.00  0.00    -0.298 OA
ATOM     10  C   UNL     1     127.853 126.121 115.284  1.00  0.00     0.020 C 
ATOM     11  C   UNL     1     129.702 126.290 119.870  1.00  0.00     0.020 C 
ENDROOT
TORSDOF 0
ENDMDL
