MODEL 1
REMARK VINA RESULT:    -4.905      0.000      0.000
REMARK INTER + INTRA:         -17.155
REMARK INTER:                 -12.362
REMARK INTRA:                  -4.793
REMARK UNBOUND:                -4.793
REMARK SMILES CCCCCCCCCCCCCCCCCCCCCCCCCCCC(=O)[O-]
REMARK SMILES IDX 15 1 16 2 17 3 18 4 19 5 20 6 21 7 22 8 23 9 24 10 25 11
REMARK SMILES IDX 26 12 27 13 28 14 29 15 30 16 14 17 13 18 12 19 11 20 10 21
REMARK SMILES IDX 9 22 8 23 7 24 6 25 5 26 4 27 3 28 2 29 1 30
REMARK H PARENT
REMARK Flexibility Score: inf
ROOT
ATOM      1  C   UNL     1      19.918  28.335  30.872  1.00  0.00     0.000 C 
ENDROOT
BRANCH   1   2
ATOM      2  C   UNL     1      20.644  27.167  31.569  1.00  0.00     0.000 C 
BRANCH   2   3
ATOM      3  C   UNL     1      19.874  26.641  32.793  1.00  0.00     0.000 C 
BRANCH   3   4
ATOM      4  C   UNL     1      20.808  26.319  33.980  1.00  0.00     0.000 C 
BRANCH   4   5
ATOM      5  C   UNL     1      20.815  27.395  35.083  1.00  0.00     0.000 C 
BRANCH   5   6
ATOM      6  C   UNL     1      20.210  28.749  34.679  1.00  0.00     0.000 C 
BRANCH   6   7
ATOM      7  C   UNL     1      18.979  29.127  35.520  1.00  0.00     0.000 C 
BRANCH   7   8
ATOM      8  C   UNL     1      17.653  28.847  34.789  1.00  0.00     0.000 C 
BRANCH   8   9
ATOM      9  C   UNL     1      16.659  30.022  34.778  1.00  0.00     0.000 C 
BRANCH   9  10
ATOM     10  C   UNL     1      17.130  31.210  35.633  1.00  0.00     0.000 C 
BRANCH  10  11
ATOM     11  C   UNL     1      16.370  32.491  35.268  1.00  0.00     0.000 C 
BRANCH  11  12
ATOM     12  C   UNL     1      16.229  32.628  33.745  1.00  0.00     0.006 C 
BRANCH  12  13
ATOM     13  C   UNL     1      16.450  34.069  33.267  1.00  0.00     0.053 C 
BRANCH  13  14
ATOM     14  C   UNL     1      15.239  34.924  33.491  1.00  0.00     0.041 C 
ATOM     15  O   UNL     1      14.991  35.383  34.638  1.00  0.00    -0.550 OA
ATOM     16  O   UNL     1      14.367  35.183  32.442  1.00  0.00    -0.550 OA
ENDBRANCH  13  14
ENDBRANCH  12  13
ENDBRANCH  11  12
ENDBRANCH  10  11
ENDBRANCH   9  10
ENDBRANCH   8   9
ENDBRANCH   7   8
ENDBRANCH   6   7
ENDBRANCH   5   6
ENDBRANCH   4   5
ENDBRANCH   3   4
ENDBRANCH   2   3
ENDBRANCH   1   2
BRANCH   1  17
ATOM     17  C   UNL     1      18.415  28.411  31.194  1.00  0.00     0.000 C 
BRANCH  17  18
ATOM     18  C   UNL     1      17.896  29.860  31.229  1.00  0.00     0.000 C 
BRANCH  18  19
ATOM     19  C   UNL     1      18.962  30.856  31.709  1.00  0.00     0.000 C 
BRANCH  19  20
ATOM     20  C   UNL     1      18.898  32.201  30.963  1.00  0.00     0.000 C 
BRANCH  20  21
ATOM     21  C   UNL     1      18.384  32.047  29.522  1.00  0.00     0.000 C 
BRANCH  21  22
ATOM     22  C   UNL     1      19.372  32.605  28.482  1.00  0.00    -0.000 C 
BRANCH  22  23
ATOM     23  C   UNL     1      19.636  31.620  27.332  1.00  0.00    -0.000 C 
BRANCH  23  24
ATOM     24  C   UNL     1      20.195  30.274  27.827  1.00  0.00    -0.000 C 
BRANCH  24  25
ATOM     25  C   UNL     1      19.509  29.069  27.163  1.00  0.00    -0.000 C 
BRANCH  25  26
ATOM     26  C   UNL     1      18.055  28.886  27.631  1.00  0.00    -0.000 C 
BRANCH  26  27
ATOM     27  C   UNL     1      17.471  27.522  27.228  1.00  0.00    -0.000 C 
BRANCH  27  28
ATOM     28  C   UNL     1      18.519  26.401  27.253  1.00  0.00    -0.000 C 
BRANCH  28  29
ATOM     29  C   UNL     1      18.521  25.684  28.609  1.00  0.00    -0.003 C 
ATOM     30  C   UNL     1      19.208  24.325  28.514  1.00  0.00     0.004 C 
ENDBRANCH  28  29
ENDBRANCH  27  28
ENDBRANCH  26  27
ENDBRANCH  25  26
ENDBRANCH  24  25
ENDBRANCH  23  24
ENDBRANCH  22  23
ENDBRANCH  21  22
ENDBRANCH  20  21
ENDBRANCH  19  20
ENDBRANCH  18  19
ENDBRANCH  17  18
ENDBRANCH   1  17
TORSDOF 26
ENDMDL
MODEL 2
REMARK VINA RESULT:    -4.903      4.410      9.331
REMARK INTER + INTRA:         -17.148
REMARK INTER:                 -13.075
REMARK INTRA:                  -4.073
REMARK UNBOUND:                -4.793
REMARK SMILES CCCCCCCCCCCCCCCCCCCCCCCCCCCC(=O)[O-]
REMARK SMILES IDX 15 1 16 2 17 3 18 4 19 5 20 6 21 7 22 8 23 9 24 10 25 11
REMARK SMILES IDX 26 12 27 13 28 14 29 15 30 16 14 17 13 18 12 19 11 20 10 21
REMARK SMILES IDX 9 22 8 23 7 24 6 25 5 26 4 27 3 28 2 29 1 30
REMARK H PARENT
REMARK Flexibility Score: inf
ROOT
ATOM      1  C   UNL     1      17.910  29.322  30.848  1.00  0.00     0.000 C 
ENDROOT
BRANCH   1   2
ATOM      2  C   UNL     1      18.592  30.703  30.824  1.00  0.00     0.000 C 
BRANCH   2   3
ATOM      3  C   UNL     1      18.781  31.242  29.394  1.00  0.00     0.000 C 
BRANCH   3   4
ATOM      4  C   UNL     1      18.324  30.230  28.320  1.00  0.00     0.000 C 
BRANCH   4   5
ATOM      5  C   UNL     1      19.481  29.489  27.625  1.00  0.00     0.000 C 
BRANCH   5   6
ATOM      6  C   UNL     1      19.063  28.285  26.765  1.00  0.00     0.000 C 
BRANCH   6   7
ATOM      7  C   UNL     1      17.740  27.651  27.230  1.00  0.00     0.000 C 
BRANCH   7   8
ATOM      8  C   UNL     1      17.942  26.607  28.343  1.00  0.00     0.000 C 
BRANCH   8   9
ATOM      9  C   UNL     1      18.711  25.344  27.914  1.00  0.00     0.000 C 
BRANCH   9  10
ATOM     10  C   UNL     1      19.955  25.080  28.779  1.00  0.00     0.000 C 
BRANCH  10  11
ATOM     11  C   UNL     1      19.888  23.697  29.437  1.00  0.00     0.000 C 
BRANCH  11  12
ATOM     12  C   UNL     1      18.725  22.874  28.864  1.00  0.00     0.006 C 
BRANCH  12  13
ATOM     13  C   UNL     1      18.977  21.363  28.960  1.00  0.00     0.053 C 
BRANCH  13  14
ATOM     14  C   UNL     1      19.836  20.868  27.837  1.00  0.00     0.041 C 
ATOM     15  O   UNL     1      20.979  20.393  28.073  1.00  0.00    -0.550 OA
ATOM     16  O   UNL     1      19.389  20.964  26.525  1.00  0.00    -0.550 OA
ENDBRANCH  13  14
ENDBRANCH  12  13
ENDBRANCH  11  12
ENDBRANCH  10  11
ENDBRANCH   9  10
ENDBRANCH   8   9
ENDBRANCH   7   8
ENDBRANCH   6   7
ENDBRANCH   5   6
ENDBRANCH   4   5
ENDBRANCH   3   4
ENDBRANCH   2   3
ENDBRANCH   1   2
BRANCH   1  17
ATOM     17  C   UNL     1      18.780  28.210  31.463  1.00  0.00     0.000 C 
BRANCH  17  18
ATOM     18  C   UNL     1      20.254  28.315  31.030  1.00  0.00     0.000 C 
BRANCH  18  19
ATOM     19  C   UNL     1      21.145  27.269  31.715  1.00  0.00     0.000 C 
BRANCH  19  20
ATOM     20  C   UNL     1      20.334  26.201  32.471  1.00  0.00     0.000 C 
BRANCH  20  21
ATOM     21  C   UNL     1      20.699  26.134  33.963  1.00  0.00     0.000 C 
BRANCH  21  22
ATOM     22  C   UNL     1      19.746  26.964  34.841  1.00  0.00    -0.000 C 
BRANCH  22  23
ATOM     23  C   UNL     1      20.268  28.388  35.092  1.00  0.00    -0.000 C 
BRANCH  23  24
ATOM     24  C   UNL     1      19.130  29.399  35.328  1.00  0.00    -0.000 C 
BRANCH  24  25
ATOM     25  C   UNL     1      17.780  28.908  34.781  1.00  0.00    -0.000 C 
BRANCH  25  26
ATOM     26  C   UNL     1      16.809  30.063  34.481  1.00  0.00    -0.000 C 
BRANCH  26  27
ATOM     27  C   UNL     1      16.827  31.148  35.571  1.00  0.00    -0.000 C 
BRANCH  27  28
ATOM     28  C   UNL     1      16.971  32.563  34.992  1.00  0.00    -0.000 C 
BRANCH  28  29
ATOM     29  C   UNL     1      16.114  32.728  33.732  1.00  0.00    -0.003 C 
ATOM     30  C   UNL     1      15.594  34.157  33.601  1.00  0.00     0.004 C 
ENDBRANCH  28  29
ENDBRANCH  27  28
ENDBRANCH  26  27
ENDBRANCH  25  26
ENDBRANCH  24  25
ENDBRANCH  23  24
ENDBRANCH  22  23
ENDBRANCH  21  22
ENDBRANCH  20  21
ENDBRANCH  19  20
ENDBRANCH  18  19
ENDBRANCH  17  18
ENDBRANCH   1  17
TORSDOF 26
ENDMDL
MODEL 3
REMARK VINA RESULT:    -4.878      3.560      8.463
REMARK INTER + INTRA:         -17.085
REMARK INTER:                 -12.626
REMARK INTRA:                  -4.459
REMARK UNBOUND:                -4.793
REMARK SMILES CCCCCCCCCCCCCCCCCCCCCCCCCCCC(=O)[O-]
REMARK SMILES IDX 15 1 16 2 17 3 18 4 19 5 20 6 21 7 22 8 23 9 24 10 25 11
REMARK SMILES IDX 26 12 27 13 28 14 29 15 30 16 14 17 13 18 12 19 11 20 10 21
REMARK SMILES IDX 9 22 8 23 7 24 6 25 5 26 4 27 3 28 2 29 1 30
REMARK H PARENT
REMARK Flexibility Score: inf
ROOT
ATOM      1  C   UNL     1      20.202  27.317  33.084  1.00  0.00     0.000 C 
ENDROOT
BRANCH   1   2
ATOM      2  C   UNL     1      19.016  27.780  32.216  1.00  0.00     0.000 C 
BRANCH   2   3
ATOM      3  C   UNL     1      19.364  29.001  31.346  1.00  0.00     0.000 C 
BRANCH   3   4
ATOM      4  C   UNL     1      18.130  29.571  30.612  1.00  0.00     0.000 C 
BRANCH   4   5
ATOM      5  C   UNL     1      18.360  30.957  29.981  1.00  0.00     0.000 C 
BRANCH   5   6
ATOM      6  C   UNL     1      18.464  30.968  28.447  1.00  0.00     0.000 C 
BRANCH   6   7
ATOM      7  C   UNL     1      19.914  30.856  27.947  1.00  0.00     0.000 C 
BRANCH   7   8
ATOM      8  C   UNL     1      20.290  29.421  27.536  1.00  0.00     0.000 C 
BRANCH   8   9
ATOM      9  C   UNL     1      19.589  28.906  26.265  1.00  0.00     0.000 C 
BRANCH   9  10
ATOM     10  C   UNL     1      18.951  27.520  26.456  1.00  0.00     0.000 C 
BRANCH  10  11
ATOM     11  C   UNL     1      17.700  27.603  27.337  1.00  0.00     0.000 C 
BRANCH  11  12
ATOM     12  C   UNL     1      17.826  26.678  28.556  1.00  0.00     0.006 C 
BRANCH  12  13
ATOM     13  C   UNL     1      19.265  26.189  28.769  1.00  0.00     0.053 C 
BRANCH  13  14
ATOM     14  C   UNL     1      19.353  24.692  28.769  1.00  0.00     0.041 C 
ATOM     15  O   UNL     1      19.939  24.091  29.708  1.00  0.00    -0.550 OA
ATOM     16  O   UNL     1      18.820  23.965  27.712  1.00  0.00    -0.550 OA
ENDBRANCH  13  14
ENDBRANCH  12  13
ENDBRANCH  11  12
ENDBRANCH  10  11
ENDBRANCH   9  10
ENDBRANCH   8   9
ENDBRANCH   7   8
ENDBRANCH   6   7
ENDBRANCH   5   6
ENDBRANCH   4   5
ENDBRANCH   3   4
ENDBRANCH   2   3
ENDBRANCH   1   2
BRANCH   1  17
ATOM     17  C   UNL     1      19.819  27.003  34.542  1.00  0.00     0.000 C 
BRANCH  17  18
ATOM     18  C   UNL     1      21.032  27.053  35.489  1.00  0.00     0.000 C 
BRANCH  18  19
ATOM     19  C   UNL     1      20.860  28.086  36.613  1.00  0.00     0.000 C 
BRANCH  19  20
ATOM     20  C   UNL     1      20.623  29.511  36.080  1.00  0.00     0.000 C 
BRANCH  20  21
ATOM     21  C   UNL     1      19.168  29.971  36.263  1.00  0.00     0.000 C 
BRANCH  21  22
ATOM     22  C   UNL     1      18.542  30.481  34.953  1.00  0.00    -0.000 C 
BRANCH  22  23
ATOM     23  C   UNL     1      17.158  29.868  34.684  1.00  0.00    -0.000 C 
BRANCH  23  24
ATOM     24  C   UNL     1      16.412  30.576  33.538  1.00  0.00    -0.000 C 
BRANCH  24  25
ATOM     25  C   UNL     1      16.944  31.994  33.275  1.00  0.00    -0.000 C 
BRANCH  25  26
ATOM     26  C   UNL     1      16.024  33.085  33.851  1.00  0.00    -0.000 C 
BRANCH  26  27
ATOM     27  C   UNL     1      16.604  33.739  35.116  1.00  0.00    -0.000 C 
BRANCH  27  28
ATOM     28  C   UNL     1      15.658  33.634  36.321  1.00  0.00    -0.000 C 
BRANCH  28  29
ATOM     29  C   UNL     1      15.745  32.246  36.966  1.00  0.00    -0.003 C 
ATOM     30  C   UNL     1      16.529  32.293  38.274  1.00  0.00     0.004 C 
ENDBRANCH  28  29
ENDBRANCH  27  28
ENDBRANCH  26  27
ENDBRANCH  25  26
ENDBRANCH  24  25
ENDBRANCH  23  24
ENDBRANCH  22  23
ENDBRANCH  21  22
ENDBRANCH  20  21
ENDBRANCH  19  20
ENDBRANCH  18  19
ENDBRANCH  17  18
ENDBRANCH   1  17
TORSDOF 26
ENDMDL
MODEL 4
REMARK VINA RESULT:    -4.789      1.909      4.569
REMARK INTER + INTRA:         -16.860
REMARK INTER:                 -12.839
REMARK INTRA:                  -4.021
REMARK UNBOUND:                -4.793
REMARK SMILES CCCCCCCCCCCCCCCCCCCCCCCCCCCC(=O)[O-]
REMARK SMILES IDX 15 1 16 2 17 3 18 4 19 5 20 6 21 7 22 8 23 9 24 10 25 11
REMARK SMILES IDX 26 12 27 13 28 14 29 15 30 16 14 17 13 18 12 19 11 20 10 21
REMARK SMILES IDX 9 22 8 23 7 24 6 25 5 26 4 27 3 28 2 29 1 30
REMARK H PARENT
REMARK Flexibility Score: inf
ROOT
ATOM      1  C   UNL     1      18.569  31.860  29.522  1.00  0.00     0.000 C 
ENDROOT
BRANCH   1   2
ATOM      2  C   UNL     1      19.102  30.822  30.529  1.00  0.00     0.000 C 
BRANCH   2   3
ATOM      3  C   UNL     1      17.990  29.911  31.080  1.00  0.00     0.000 C 
BRANCH   3   4
ATOM      4  C   UNL     1      18.291  28.413  30.852  1.00  0.00     0.000 C 
BRANCH   4   5
ATOM      5  C   UNL     1      19.793  28.070  30.840  1.00  0.00     0.000 C 
BRANCH   5   6
ATOM      6  C   UNL     1      20.206  26.910  31.760  1.00  0.00     0.000 C 
BRANCH   6   7
ATOM      7  C   UNL     1      19.584  27.012  33.164  1.00  0.00     0.000 C 
BRANCH   7   8
ATOM      8  C   UNL     1      20.354  27.975  34.085  1.00  0.00     0.000 C 
BRANCH   8   9
ATOM      9  C   UNL     1      19.469  28.843  34.999  1.00  0.00     0.000 C 
BRANCH   9  10
ATOM     10  C   UNL     1      17.985  28.809  34.599  1.00  0.00     0.000 C 
BRANCH  10  11
ATOM     11  C   UNL     1      17.250  30.059  35.097  1.00  0.00     0.000 C 
BRANCH  11  12
ATOM     12  C   UNL     1      16.304  30.604  34.016  1.00  0.00     0.006 C 
BRANCH  12  13
ATOM     13  C   UNL     1      16.653  32.042  33.608  1.00  0.00     0.053 C 
BRANCH  13  14
ATOM     14  C   UNL     1      16.776  32.946  34.797  1.00  0.00     0.041 C 
ATOM     15  O   UNL     1      15.750  33.278  35.449  1.00  0.00    -0.550 OA
ATOM     16  O   UNL     1      18.017  33.451  35.161  1.00  0.00    -0.550 OA
ENDBRANCH  13  14
ENDBRANCH  12  13
ENDBRANCH  11  12
ENDBRANCH  10  11
ENDBRANCH   9  10
ENDBRANCH   8   9
ENDBRANCH   7   8
ENDBRANCH   6   7
ENDBRANCH   5   6
ENDBRANCH   4   5
ENDBRANCH   3   4
ENDBRANCH   2   3
ENDBRANCH   1   2
BRANCH   1  17
ATOM     17  C   UNL     1      18.669  31.408  28.054  1.00  0.00     0.000 C 
BRANCH  17  18
ATOM     18  C   UNL     1      19.797  30.385  27.833  1.00  0.00     0.000 C 
BRANCH  18  19
ATOM     19  C   UNL     1      19.298  29.091  27.172  1.00  0.00     0.000 C 
BRANCH  19  20
ATOM     20  C   UNL     1      17.790  28.861  27.380  1.00  0.00     0.000 C 
BRANCH  20  21
ATOM     21  C   UNL     1      17.423  27.368  27.407  1.00  0.00     0.000 C 
BRANCH  21  22
ATOM     22  C   UNL     1      18.645  26.456  27.201  1.00  0.00    -0.000 C 
BRANCH  22  23
ATOM     23  C   UNL     1      18.832  25.453  28.350  1.00  0.00    -0.000 C 
BRANCH  23  24
ATOM     24  C   UNL     1      20.296  25.003  28.507  1.00  0.00    -0.000 C 
BRANCH  24  25
ATOM     25  C   UNL     1      20.446  23.473  28.507  1.00  0.00    -0.000 C 
BRANCH  25  26
ATOM     26  C   UNL     1      19.112  22.749  28.257  1.00  0.00    -0.000 C 
BRANCH  26  27
ATOM     27  C   UNL     1      18.673  21.888  29.453  1.00  0.00    -0.000 C 
BRANCH  27  28
ATOM     28  C   UNL     1      18.876  20.387  29.207  1.00  0.00    -0.000 C 
BRANCH  28  29
ATOM     29  C   UNL     1      19.255  20.119  27.745  1.00  0.00    -0.003 C 
ATOM     30  C   UNL     1      19.201  18.628  27.425  1.00  0.00     0.004 C 
ENDBRANCH  28  29
ENDBRANCH  27  28
ENDBRANCH  26  27
ENDBRANCH  25  26
ENDBRANCH  24  25
ENDBRANCH  23  24
ENDBRANCH  22  23
ENDBRANCH  21  22
ENDBRANCH  20  21
ENDBRANCH  19  20
ENDBRANCH  18  19
ENDBRANCH  17  18
ENDBRANCH   1  17
TORSDOF 26
ENDMDL
MODEL 5
REMARK VINA RESULT:    -4.750      3.315      7.886
REMARK INTER + INTRA:         -16.763
REMARK INTER:                 -11.811
REMARK INTRA:                  -4.952
REMARK UNBOUND:                -4.793
REMARK SMILES CCCCCCCCCCCCCCCCCCCCCCCCCCCC(=O)[O-]
REMARK SMILES IDX 15 1 16 2 17 3 18 4 19 5 20 6 21 7 22 8 23 9 24 10 25 11
REMARK SMILES IDX 26 12 27 13 28 14 29 15 30 16 14 17 13 18 12 19 11 20 10 21
REMARK SMILES IDX 9 22 8 23 7 24 6 25 5 26 4 27 3 28 2 29 1 30
REMARK H PARENT
REMARK Flexibility Score: inf
ROOT
ATOM      1  C   UNL     1      18.896  29.334  35.524  1.00  0.00     0.000 C 
ENDROOT
BRANCH   1   2
ATOM      2  C   UNL     1      19.882  28.149  35.490  1.00  0.00     0.000 C 
BRANCH   2   3
ATOM      3  C   UNL     1      19.504  27.099  34.431  1.00  0.00     0.000 C 
BRANCH   3   4
ATOM      4  C   UNL     1      20.322  27.254  33.131  1.00  0.00     0.000 C 
BRANCH   4   5
ATOM      5  C   UNL     1      19.462  27.428  31.865  1.00  0.00     0.000 C 
BRANCH   5   6
ATOM      6  C   UNL     1      18.949  28.855  31.613  1.00  0.00     0.000 C 
BRANCH   6   7
ATOM      7  C   UNL     1      19.949  29.935  32.061  1.00  0.00     0.000 C 
BRANCH   7   8
ATOM      8  C   UNL     1      19.641  31.316  31.454  1.00  0.00     0.000 C 
BRANCH   8   9
ATOM      9  C   UNL     1      18.410  31.358  30.531  1.00  0.00     0.000 C 
BRANCH   9  10
ATOM     10  C   UNL     1      18.604  32.284  29.319  1.00  0.00     0.000 C 
BRANCH  10  11
ATOM     11  C   UNL     1      18.639  31.484  28.012  1.00  0.00     0.000 C 
BRANCH  11  12
ATOM     12  C   UNL     1      18.301  30.007  28.264  1.00  0.00     0.006 C 
BRANCH  12  13
ATOM     13  C   UNL     1      19.384  29.062  27.728  1.00  0.00     0.053 C 
BRANCH  13  14
ATOM     14  C   UNL     1      18.846  28.128  26.687  1.00  0.00     0.041 C 
ATOM     15  O   UNL     1      17.742  27.549  26.864  1.00  0.00    -0.550 OA
ATOM     16  O   UNL     1      19.583  27.870  25.538  1.00  0.00    -0.550 OA
ENDBRANCH  13  14
ENDBRANCH  12  13
ENDBRANCH  11  12
ENDBRANCH  10  11
ENDBRANCH   9  10
ENDBRANCH   8   9
ENDBRANCH   7   8
ENDBRANCH   6   7
ENDBRANCH   5   6
ENDBRANCH   4   5
ENDBRANCH   3   4
ENDBRANCH   2   3
ENDBRANCH   1   2
BRANCH   1  17
ATOM     17  C   UNL     1      17.552  29.043  34.831  1.00  0.00     0.000 C 
BRANCH  17  18
ATOM     18  C   UNL     1      16.583  30.236  34.908  1.00  0.00     0.000 C 
BRANCH  18  19
ATOM     19  C   UNL     1      16.579  31.076  33.622  1.00  0.00     0.000 C 
BRANCH  19  20
ATOM     20  C   UNL     1      16.285  32.564  33.885  1.00  0.00     0.000 C 
BRANCH  20  21
ATOM     21  C   UNL     1      17.347  33.489  33.266  1.00  0.00     0.000 C 
BRANCH  21  22
ATOM     22  C   UNL     1      18.246  34.147  34.327  1.00  0.00    -0.000 C 
BRANCH  22  23
ATOM     23  C   UNL     1      19.512  33.325  34.618  1.00  0.00    -0.000 C 
BRANCH  23  24
ATOM     24  C   UNL     1      19.496  32.695  36.022  1.00  0.00    -0.000 C 
BRANCH  24  25
ATOM     25  C   UNL     1      18.264  33.111  36.842  1.00  0.00    -0.000 C 
BRANCH  25  26
ATOM     26  C   UNL     1      17.887  32.070  37.910  1.00  0.00    -0.000 C 
BRANCH  26  27
ATOM     27  C   UNL     1      16.524  32.358  38.562  1.00  0.00    -0.000 C 
BRANCH  27  28
ATOM     28  C   UNL     1      15.426  32.652  37.529  1.00  0.00    -0.000 C 
BRANCH  28  29
ATOM     29  C   UNL     1      15.023  34.131  37.566  1.00  0.00    -0.003 C 
ATOM     30  C   UNL     1      15.412  34.777  38.892  1.00  0.00     0.004 C 
ENDBRANCH  28  29
ENDBRANCH  27  28
ENDBRANCH  26  27
ENDBRANCH  25  26
ENDBRANCH  24  25
ENDBRANCH  23  24
ENDBRANCH  22  23
ENDBRANCH  21  22
ENDBRANCH  20  21
ENDBRANCH  19  20
ENDBRANCH  18  19
ENDBRANCH  17  18
ENDBRANCH   1  17
TORSDOF 26
ENDMDL
MODEL 6
REMARK VINA RESULT:    -4.723      1.312      2.912
REMARK INTER + INTRA:         -16.695
REMARK INTER:                 -13.028
REMARK INTRA:                  -3.667
REMARK UNBOUND:                -4.793
REMARK SMILES CCCCCCCCCCCCCCCCCCCCCCCCCCCC(=O)[O-]
REMARK SMILES IDX 15 1 16 2 17 3 18 4 19 5 20 6 21 7 22 8 23 9 24 10 25 11
REMARK SMILES IDX 26 12 27 13 28 14 29 15 30 16 14 17 13 18 12 19 11 20 10 21
REMARK SMILES IDX 9 22 8 23 7 24 6 25 5 26 4 27 3 28 2 29 1 30
REMARK H PARENT
REMARK Flexibility Score: inf
ROOT
ATOM      1  C   UNL     1      17.990  29.398  30.469  1.00  0.00     0.000 C 
ENDROOT
BRANCH   1   2
ATOM      2  C   UNL     1      18.399  28.363  31.535  1.00  0.00     0.000 C 
BRANCH   2   3
ATOM      3  C   UNL     1      19.735  27.675  31.206  1.00  0.00     0.000 C 
BRANCH   3   4
ATOM      4  C   UNL     1      20.789  27.874  32.318  1.00  0.00     0.000 C 
BRANCH   4   5
ATOM      5  C   UNL     1      20.786  26.769  33.391  1.00  0.00     0.000 C 
BRANCH   5   6
ATOM      6  C   UNL     1      19.810  26.992  34.558  1.00  0.00     0.000 C 
BRANCH   6   7
ATOM      7  C   UNL     1      20.439  27.785  35.717  1.00  0.00     0.000 C 
BRANCH   7   8
ATOM      8  C   UNL     1      19.688  29.096  36.015  1.00  0.00     0.000 C 
BRANCH   8   9
ATOM      9  C   UNL     1      18.891  29.669  34.829  1.00  0.00     0.000 C 
BRANCH   9  10
ATOM     10  C   UNL     1      17.372  29.500  34.993  1.00  0.00     0.000 C 
BRANCH  10  11
ATOM     11  C   UNL     1      16.606  30.380  33.999  1.00  0.00     0.000 C 
BRANCH  11  12
ATOM     12  C   UNL     1      17.121  31.826  34.039  1.00  0.00     0.006 C 
BRANCH  12  13
ATOM     13  C   UNL     1      16.050  32.812  34.526  1.00  0.00     0.053 C 
BRANCH  13  14
ATOM     14  C   UNL     1      16.043  34.074  33.717  1.00  0.00     0.041 C 
ATOM     15  O   UNL     1      15.279  35.025  34.033  1.00  0.00    -0.550 OA
ATOM     16  O   UNL     1      16.852  34.185  32.594  1.00  0.00    -0.550 OA
ENDBRANCH  13  14
ENDBRANCH  12  13
ENDBRANCH  11  12
ENDBRANCH  10  11
ENDBRANCH   9  10
ENDBRANCH   8   9
ENDBRANCH   7   8
ENDBRANCH   6   7
ENDBRANCH   5   6
ENDBRANCH   4   5
ENDBRANCH   3   4
ENDBRANCH   2   3
ENDBRANCH   1   2
BRANCH   1  17
ATOM     17  C   UNL     1      18.430  30.836  30.799  1.00  0.00     0.000 C 
BRANCH  17  18
ATOM     18  C   UNL     1      18.522  31.722  29.545  1.00  0.00     0.000 C 
BRANCH  18  19
ATOM     19  C   UNL     1      18.778  30.910  28.266  1.00  0.00     0.000 C 
BRANCH  19  20
ATOM     20  C   UNL     1      20.268  30.583  28.059  1.00  0.00     0.000 C 
BRANCH  20  21
ATOM     21  C   UNL     1      20.486  29.164  27.508  1.00  0.00     0.000 C 
BRANCH  21  22
ATOM     22  C   UNL     1      19.597  28.862  26.288  1.00  0.00    -0.000 C 
BRANCH  22  23
ATOM     23  C   UNL     1      18.943  27.473  26.366  1.00  0.00    -0.000 C 
BRANCH  23  24
ATOM     24  C   UNL     1      17.707  27.455  27.283  1.00  0.00    -0.000 C 
BRANCH  24  25
ATOM     25  C   UNL     1      17.785  26.358  28.358  1.00  0.00    -0.000 C 
BRANCH  25  26
ATOM     26  C   UNL     1      19.110  25.578  28.309  1.00  0.00    -0.000 C 
BRANCH  26  27
ATOM     27  C   UNL     1      18.917  24.111  27.890  1.00  0.00    -0.000 C 
BRANCH  27  28
ATOM     28  C   UNL     1      18.793  23.164  29.092  1.00  0.00    -0.000 C 
BRANCH  28  29
ATOM     29  C   UNL     1      18.770  21.700  28.635  1.00  0.00    -0.003 C 
ATOM     30  C   UNL     1      18.790  20.749  29.828  1.00  0.00     0.004 C 
ENDBRANCH  28  29
ENDBRANCH  27  28
ENDBRANCH  26  27
ENDBRANCH  25  26
ENDBRANCH  24  25
ENDBRANCH  23  24
ENDBRANCH  22  23
ENDBRANCH  21  22
ENDBRANCH  20  21
ENDBRANCH  19  20
ENDBRANCH  18  19
ENDBRANCH  17  18
ENDBRANCH   1  17
TORSDOF 26
ENDMDL
MODEL 7
REMARK VINA RESULT:    -4.673      2.131      3.278
REMARK INTER + INTRA:         -16.570
REMARK INTER:                 -12.374
REMARK INTRA:                  -4.196
REMARK UNBOUND:                -4.793
REMARK SMILES CCCCCCCCCCCCCCCCCCCCCCCCCCCC(=O)[O-]
REMARK SMILES IDX 15 1 16 2 17 3 18 4 19 5 20 6 21 7 22 8 23 9 24 10 25 11
REMARK SMILES IDX 26 12 27 13 28 14 29 15 30 16 14 17 13 18 12 19 11 20 10 21
REMARK SMILES IDX 9 22 8 23 7 24 6 25 5 26 4 27 3 28 2 29 1 30
REMARK H PARENT
REMARK Flexibility Score: inf
ROOT
ATOM      1  C   UNL     1      19.847  28.008  31.442  1.00  0.00     0.000 C 
ENDROOT
BRANCH   1   2
ATOM      2  C   UNL     1      20.167  26.838  32.394  1.00  0.00     0.000 C 
BRANCH   2   3
ATOM      3  C   UNL     1      19.786  27.145  33.853  1.00  0.00     0.000 C 
BRANCH   3   4
ATOM      4  C   UNL     1      20.013  28.628  34.220  1.00  0.00     0.000 C 
BRANCH   4   5
ATOM      5  C   UNL     1      18.929  29.220  35.140  1.00  0.00     0.000 C 
BRANCH   5   6
ATOM      6  C   UNL     1      17.481  28.892  34.739  1.00  0.00     0.000 C 
BRANCH   6   7
ATOM      7  C   UNL     1      16.522  30.077  34.945  1.00  0.00     0.000 C 
BRANCH   7   8
ATOM      8  C   UNL     1      16.517  31.050  33.752  1.00  0.00     0.000 C 
BRANCH   8   9
ATOM      9  C   UNL     1      16.710  32.531  34.124  1.00  0.00     0.000 C 
BRANCH   9  10
ATOM     10  C   UNL     1      18.139  32.846  34.597  1.00  0.00     0.000 C 
BRANCH  10  11
ATOM     11  C   UNL     1      18.129  33.546  35.961  1.00  0.00     0.000 C 
BRANCH  11  12
ATOM     12  C   UNL     1      18.183  32.521  37.103  1.00  0.00     0.006 C 
BRANCH  12  13
ATOM     13  C   UNL     1      16.813  32.308  37.760  1.00  0.00     0.053 C 
BRANCH  13  14
ATOM     14  C   UNL     1      16.834  32.646  39.220  1.00  0.00     0.041 C 
ATOM     15  O   UNL     1      16.742  33.846  39.594  1.00  0.00    -0.550 OA
ATOM     16  O   UNL     1      16.992  31.641  40.165  1.00  0.00    -0.550 OA
ENDBRANCH  13  14
ENDBRANCH  12  13
ENDBRANCH  11  12
ENDBRANCH  10  11
ENDBRANCH   9  10
ENDBRANCH   8   9
ENDBRANCH   7   8
ENDBRANCH   6   7
ENDBRANCH   5   6
ENDBRANCH   4   5
ENDBRANCH   3   4
ENDBRANCH   2   3
ENDBRANCH   1   2
BRANCH   1  17
ATOM     17  C   UNL     1      18.373  28.066  31.004  1.00  0.00     0.000 C 
BRANCH  17  18
ATOM     18  C   UNL     1      17.798  29.492  31.074  1.00  0.00     0.000 C 
BRANCH  18  19
ATOM     19  C   UNL     1      18.881  30.572  30.936  1.00  0.00     0.000 C 
BRANCH  19  20
ATOM     20  C   UNL     1      18.557  31.602  29.840  1.00  0.00     0.000 C 
BRANCH  20  21
ATOM     21  C   UNL     1      18.447  30.961  28.446  1.00  0.00     0.000 C 
BRANCH  21  22
ATOM     22  C   UNL     1      19.769  30.321  27.986  1.00  0.00    -0.000 C 
BRANCH  22  23
ATOM     23  C   UNL     1      19.611  28.834  27.630  1.00  0.00    -0.000 C 
BRANCH  23  24
ATOM     24  C   UNL     1      18.179  28.483  27.187  1.00  0.00    -0.000 C 
BRANCH  24  25
ATOM     25  C   UNL     1      17.787  27.041  27.545  1.00  0.00    -0.000 C 
BRANCH  25  26
ATOM     26  C   UNL     1      18.984  26.207  28.033  1.00  0.00    -0.000 C 
BRANCH  26  27
ATOM     27  C   UNL     1      18.743  24.694  27.907  1.00  0.00    -0.000 C 
BRANCH  27  28
ATOM     28  C   UNL     1      19.470  23.887  28.992  1.00  0.00    -0.000 C 
BRANCH  28  29
ATOM     29  C   UNL     1      18.938  22.451  29.054  1.00  0.00    -0.003 C 
ATOM     30  C   UNL     1      19.187  21.712  27.742  1.00  0.00     0.004 C 
ENDBRANCH  28  29
ENDBRANCH  27  28
ENDBRANCH  26  27
ENDBRANCH  25  26
ENDBRANCH  24  25
ENDBRANCH  23  24
ENDBRANCH  22  23
ENDBRANCH  21  22
ENDBRANCH  20  21
ENDBRANCH  19  20
ENDBRANCH  18  19
ENDBRANCH  17  18
ENDBRANCH   1  17
TORSDOF 26
ENDMDL
MODEL 8
REMARK VINA RESULT:    -4.668      1.725      2.659
REMARK INTER + INTRA:         -16.557
REMARK INTER:                 -11.789
REMARK INTRA:                  -4.768
REMARK UNBOUND:                -4.793
REMARK SMILES CCCCCCCCCCCCCCCCCCCCCCCCCCCC(=O)[O-]
REMARK SMILES IDX 15 1 16 2 17 3 18 4 19 5 20 6 21 7 22 8 23 9 24 10 25 11
REMARK SMILES IDX 26 12 27 13 28 14 29 15 30 16 14 17 13 18 12 19 11 20 10 21
REMARK SMILES IDX 9 22 8 23 7 24 6 25 5 26 4 27 3 28 2 29 1 30
REMARK H PARENT
REMARK Flexibility Score: inf
ROOT
ATOM      1  C   UNL     1      19.865  27.565  30.846  1.00  0.00     0.000 C 
ENDROOT
BRANCH   1   2
ATOM      2  C   UNL     1      20.175  26.665  32.058  1.00  0.00     0.000 C 
BRANCH   2   3
ATOM      3  C   UNL     1      20.450  27.474  33.338  1.00  0.00     0.000 C 
BRANCH   3   4
ATOM      4  C   UNL     1      19.273  27.412  34.336  1.00  0.00     0.000 C 
BRANCH   4   5
ATOM      5  C   UNL     1      18.658  28.785  34.668  1.00  0.00     0.000 C 
BRANCH   5   6
ATOM      6  C   UNL     1      19.246  29.483  35.905  1.00  0.00     0.000 C 
BRANCH   6   7
ATOM      7  C   UNL     1      19.923  30.823  35.569  1.00  0.00     0.000 C 
BRANCH   7   8
ATOM      8  C   UNL     1      19.976  31.096  34.055  1.00  0.00     0.000 C 
BRANCH   8   9
ATOM      9  C   UNL     1      19.931  32.585  33.664  1.00  0.00     0.000 C 
BRANCH   9  10
ATOM     10  C   UNL     1      18.524  33.192  33.788  1.00  0.00     0.000 C 
BRANCH  10  11
ATOM     11  C   UNL     1      17.456  32.227  33.258  1.00  0.00     0.000 C 
BRANCH  11  12
ATOM     12  C   UNL     1      16.406  31.926  34.337  1.00  0.00     0.006 C 
BRANCH  12  13
ATOM     13  C   UNL     1      16.025  33.175  35.144  1.00  0.00     0.053 C 
BRANCH  13  14
ATOM     14  C   UNL     1      15.944  32.889  36.613  1.00  0.00     0.041 C 
ATOM     15  O   UNL     1      15.260  31.918  37.033  1.00  0.00    -0.550 OA
ATOM     16  O   UNL     1      16.595  33.716  37.519  1.00  0.00    -0.550 OA
ENDBRANCH  13  14
ENDBRANCH  12  13
ENDBRANCH  11  12
ENDBRANCH  10  11
ENDBRANCH   9  10
ENDBRANCH   8   9
ENDBRANCH   7   8
ENDBRANCH   6   7
ENDBRANCH   5   6
ENDBRANCH   4   5
ENDBRANCH   3   4
ENDBRANCH   2   3
ENDBRANCH   1   2
BRANCH   1  17
ATOM     17  C   UNL     1      18.365  27.852  30.654  1.00  0.00     0.000 C 
BRANCH  17  18
ATOM     18  C   UNL     1      17.988  29.289  31.058  1.00  0.00     0.000 C 
BRANCH  18  19
ATOM     19  C   UNL     1      19.048  30.317  30.636  1.00  0.00     0.000 C 
BRANCH  19  20
ATOM     20  C   UNL     1      18.476  31.424  29.732  1.00  0.00     0.000 C 
BRANCH  20  21
ATOM     21  C   UNL     1      18.362  30.981  28.264  1.00  0.00     0.000 C 
BRANCH  21  22
ATOM     22  C   UNL     1      19.632  30.272  27.761  1.00  0.00    -0.000 C 
BRANCH  22  23
ATOM     23  C   UNL     1      19.332  28.899  27.138  1.00  0.00    -0.000 C 
BRANCH  23  24
ATOM     24  C   UNL     1      17.849  28.506  27.264  1.00  0.00    -0.000 C 
BRANCH  24  25
ATOM     25  C   UNL     1      17.634  26.985  27.208  1.00  0.00    -0.000 C 
BRANCH  25  26
ATOM     26  C   UNL     1      18.950  26.198  27.335  1.00  0.00    -0.000 C 
BRANCH  26  27
ATOM     27  C   UNL     1      18.784  24.893  28.130  1.00  0.00    -0.000 C 
BRANCH  27  28
ATOM     28  C   UNL     1      20.039  24.530  28.937  1.00  0.00    -0.000 C 
BRANCH  28  29
ATOM     29  C   UNL     1      19.964  23.084  29.445  1.00  0.00    -0.003 C 
ATOM     30  C   UNL     1      18.736  22.368  28.890  1.00  0.00     0.004 C 
ENDBRANCH  28  29
ENDBRANCH  27  28
ENDBRANCH  26  27
ENDBRANCH  25  26
ENDBRANCH  24  25
ENDBRANCH  23  24
ENDBRANCH  22  23
ENDBRANCH  21  22
ENDBRANCH  20  21
ENDBRANCH  19  20
ENDBRANCH  18  19
ENDBRANCH  17  18
ENDBRANCH   1  17
TORSDOF 26
ENDMDL
MODEL 9
REMARK VINA RESULT:    -4.611      1.583      2.738
REMARK INTER + INTRA:         -16.413
REMARK INTER:                 -12.344
REMARK INTRA:                  -4.069
REMARK UNBOUND:                -4.793
REMARK SMILES CCCCCCCCCCCCCCCCCCCCCCCCCCCC(=O)[O-]
REMARK SMILES IDX 15 1 16 2 17 3 18 4 19 5 20 6 21 7 22 8 23 9 24 10 25 11
REMARK SMILES IDX 26 12 27 13 28 14 29 15 30 16 14 17 13 18 12 19 11 20 10 21
REMARK SMILES IDX 9 22 8 23 7 24 6 25 5 26 4 27 3 28 2 29 1 30
REMARK H PARENT
REMARK Flexibility Score: inf
ROOT
ATOM      1  C   UNL     1      20.266  26.244  32.497  1.00  0.00     0.000 C 
ENDROOT
BRANCH   1   2
ATOM      2  C   UNL     1      21.057  26.165  33.817  1.00  0.00     0.000 C 
BRANCH   2   3
ATOM      3  C   UNL     1      20.213  26.582  35.035  1.00  0.00     0.000 C 
BRANCH   3   4
ATOM      4  C   UNL     1      19.879  28.089  35.030  1.00  0.00     0.000 C 
BRANCH   4   5
ATOM      5  C   UNL     1      18.394  28.402  34.761  1.00  0.00     0.000 C 
BRANCH   5   6
ATOM      6  C   UNL     1      17.903  29.756  35.299  1.00  0.00     0.000 C 
BRANCH   6   7
ATOM      7  C   UNL     1      16.508  30.136  34.773  1.00  0.00     0.000 C 
BRANCH   7   8
ATOM      8  C   UNL     1      16.565  31.177  33.641  1.00  0.00     0.000 C 
BRANCH   8   9
ATOM      9  C   UNL     1      17.234  32.511  34.020  1.00  0.00     0.000 C 
BRANCH   9  10
ATOM     10  C   UNL     1      16.514  33.731  33.423  1.00  0.00     0.000 C 
BRANCH  10  11
ATOM     11  C   UNL     1      15.397  34.224  34.350  1.00  0.00     0.000 C 
BRANCH  11  12
ATOM     12  C   UNL     1      15.968  35.089  35.483  1.00  0.00     0.006 C 
BRANCH  12  13
ATOM     13  C   UNL     1      15.457  34.653  36.863  1.00  0.00     0.053 C 
BRANCH  13  14
ATOM     14  C   UNL     1      15.977  33.302  37.251  1.00  0.00     0.041 C 
ATOM     15  O   UNL     1      17.197  33.146  37.521  1.00  0.00    -0.550 OA
ATOM     16  O   UNL     1      15.121  32.208  37.277  1.00  0.00    -0.550 OA
ENDBRANCH  13  14
ENDBRANCH  12  13
ENDBRANCH  11  12
ENDBRANCH  10  11
ENDBRANCH   9  10
ENDBRANCH   8   9
ENDBRANCH   7   8
ENDBRANCH   6   7
ENDBRANCH   5   6
ENDBRANCH   4   5
ENDBRANCH   3   4
ENDBRANCH   2   3
ENDBRANCH   1   2
BRANCH   1  17
ATOM     17  C   UNL     1      20.976  27.053  31.396  1.00  0.00     0.000 C 
BRANCH  17  18
ATOM     18  C   UNL     1      20.083  28.166  30.819  1.00  0.00     0.000 C 
BRANCH  18  19
ATOM     19  C   UNL     1      18.637  28.085  31.329  1.00  0.00     0.000 C 
BRANCH  19  20
ATOM     20  C   UNL     1      17.836  29.370  31.051  1.00  0.00     0.000 C 
BRANCH  20  21
ATOM     21  C   UNL     1      18.739  30.549  30.651  1.00  0.00     0.000 C 
BRANCH  21  22
ATOM     22  C   UNL     1      18.429  31.075  29.239  1.00  0.00    -0.000 C 
BRANCH  22  23
ATOM     23  C   UNL     1      19.591  30.850  28.258  1.00  0.00    -0.000 C 
BRANCH  23  24
ATOM     24  C   UNL     1      19.393  29.597  27.387  1.00  0.00    -0.000 C 
BRANCH  24  25
ATOM     25  C   UNL     1      17.994  28.981  27.548  1.00  0.00    -0.000 C 
BRANCH  25  26
ATOM     26  C   UNL     1      17.912  27.548  26.993  1.00  0.00    -0.000 C 
BRANCH  26  27
ATOM     27  C   UNL     1      17.948  26.482  28.101  1.00  0.00    -0.000 C 
BRANCH  27  28
ATOM     28  C   UNL     1      19.295  25.748  28.170  1.00  0.00    -0.000 C 
BRANCH  28  29
ATOM     29  C   UNL     1      19.125  24.349  28.774  1.00  0.00    -0.003 C 
ATOM     30  C   UNL     1      20.398  23.895  29.482  1.00  0.00     0.004 C 
ENDBRANCH  28  29
ENDBRANCH  27  28
ENDBRANCH  26  27
ENDBRANCH  25  26
ENDBRANCH  24  25
ENDBRANCH  23  24
ENDBRANCH  22  23
ENDBRANCH  21  22
ENDBRANCH  20  21
ENDBRANCH  19  20
ENDBRANCH  18  19
ENDBRANCH  17  18
ENDBRANCH   1  17
TORSDOF 26
ENDMDL
