MODEL 1
REMARK VINA RESULT:    -4.740      0.000      0.000
REMARK INTER + INTRA:          -9.362
REMARK INTER:                  -8.066
REMARK INTRA:                  -1.296
REMARK UNBOUND:                -1.296
REMARK SMILES CCCCCCCCCCCCCC(=O)[O-]
REMARK SMILES IDX 8 1 9 2 10 3 11 4 12 5 13 6 14 7 15 8 16 9 7 10 6 11 5 12
REMARK SMILES IDX 4 13 3 14 2 15 1 16
REMARK H PARENT
REMARK Flexibility Score: inf
ROOT
ATOM      1  C   UNL     1     257.097 261.279 248.785  1.00  0.00     0.000 C 
ENDROOT
BRANCH   1   2
ATOM      2  C   UNL     1     256.100 260.226 249.301  1.00  0.00     0.000 C 
BRANCH   2   3
ATOM      3  C   UNL     1     254.987 260.831 250.170  1.00  0.00     0.000 C 
BRANCH   3   4
ATOM      4  C   UNL     1     255.570 261.792 251.216  1.00  0.00     0.000 C 
BRANCH   4   5
ATOM      5  C   UNL     1     254.498 262.371 252.158  1.00  0.00     0.006 C 
BRANCH   5   6
ATOM      6  C   UNL     1     254.709 262.035 253.643  1.00  0.00     0.053 C 
BRANCH   6   7
ATOM      7  C   UNL     1     254.300 260.630 253.967  1.00  0.00     0.041 C 
ATOM      8  O   UNL     1     255.172 259.759 254.223  1.00  0.00    -0.550 OA
ATOM      9  O   UNL     1     252.954 260.292 254.020  1.00  0.00    -0.550 OA
ENDBRANCH   6   7
ENDBRANCH   5   6
ENDBRANCH   4   5
ENDBRANCH   3   4
ENDBRANCH   2   3
ENDBRANCH   1   2
BRANCH   1  10
ATOM     10  C   UNL     1     257.684 260.995 247.388  1.00  0.00     0.000 C 
BRANCH  10  11
ATOM     11  C   UNL     1     256.967 261.702 246.222  1.00  0.00    -0.000 C 
BRANCH  11  12
ATOM     12  C   UNL     1     256.229 260.763 245.249  1.00  0.00    -0.000 C 
BRANCH  12  13
ATOM     13  C   UNL     1     254.697 260.713 245.425  1.00  0.00    -0.000 C 
BRANCH  13  14
ATOM     14  C   UNL     1     254.157 259.414 246.048  1.00  0.00    -0.000 C 
BRANCH  14  15
ATOM     15  C   UNL     1     253.057 259.665 247.089  1.00  0.00    -0.003 C 
ATOM     16  C   UNL     1     252.710 261.149 247.174  1.00  0.00     0.004 C 
ENDBRANCH  14  15
ENDBRANCH  13  14
ENDBRANCH  12  13
ENDBRANCH  11  12
ENDBRANCH  10  11
ENDBRANCH   1  10
TORSDOF 12
ENDMDL
MODEL 2
REMARK VINA RESULT:    -4.631      1.352      2.992
REMARK INTER + INTRA:          -9.176
REMARK INTER:                  -8.632
REMARK INTRA:                  -0.543
REMARK UNBOUND:                -1.296
REMARK SMILES CCCCCCCCCCCCCC(=O)[O-]
REMARK SMILES IDX 8 1 9 2 10 3 11 4 12 5 13 6 14 7 15 8 16 9 7 10 6 11 5 12
REMARK SMILES IDX 4 13 3 14 2 15 1 16
REMARK H PARENT
REMARK Flexibility Score: inf
ROOT
ATOM      1  C   UNL     1     255.270 260.014 248.134  1.00  0.00     0.000 C 
ENDROOT
BRANCH   1   2
ATOM      2  C   UNL     1     255.913 260.802 249.290  1.00  0.00     0.000 C 
BRANCH   2   3
ATOM      3  C   UNL     1     255.029 260.848 250.546  1.00  0.00     0.000 C 
BRANCH   3   4
ATOM      4  C   UNL     1     255.559 261.881 251.551  1.00  0.00     0.000 C 
BRANCH   4   5
ATOM      5  C   UNL     1     254.478 262.362 252.538  1.00  0.00     0.006 C 
BRANCH   5   6
ATOM      6  C   UNL     1     254.819 262.125 254.018  1.00  0.00     0.053 C 
BRANCH   6   7
ATOM      7  C   UNL     1     254.233 260.847 254.534  1.00  0.00     0.041 C 
ATOM      8  O   UNL     1     254.751 260.267 255.524  1.00  0.00    -0.550 OA
ATOM      9  O   UNL     1     253.093 260.316 253.944  1.00  0.00    -0.550 OA
ENDBRANCH   6   7
ENDBRANCH   5   6
ENDBRANCH   4   5
ENDBRANCH   3   4
ENDBRANCH   2   3
ENDBRANCH   1   2
BRANCH   1  10
ATOM     10  C   UNL     1     254.591 260.877 247.053  1.00  0.00     0.000 C 
BRANCH  10  11
ATOM     11  C   UNL     1     254.481 260.218 245.664  1.00  0.00    -0.000 C 
BRANCH  11  12
ATOM     12  C   UNL     1     255.683 260.463 244.732  1.00  0.00    -0.000 C 
BRANCH  12  13
ATOM     13  C   UNL     1     256.715 261.485 245.252  1.00  0.00    -0.000 C 
BRANCH  13  14
ATOM     14  C   UNL     1     258.107 261.391 244.603  1.00  0.00    -0.000 C 
BRANCH  14  15
ATOM     15  C   UNL     1     258.698 262.765 244.259  1.00  0.00    -0.003 C 
ATOM     16  C   UNL     1     257.938 263.882 244.969  1.00  0.00     0.004 C 
ENDBRANCH  14  15
ENDBRANCH  13  14
ENDBRANCH  12  13
ENDBRANCH  11  12
ENDBRANCH  10  11
ENDBRANCH   1  10
TORSDOF 12
ENDMDL
MODEL 3
REMARK VINA RESULT:    -4.609      1.944      3.152
REMARK INTER + INTRA:          -9.138
REMARK INTER:                  -7.681
REMARK INTRA:                  -1.457
REMARK UNBOUND:                -1.296
REMARK SMILES CCCCCCCCCCCCCC(=O)[O-]
REMARK SMILES IDX 8 1 9 2 10 3 11 4 12 5 13 6 14 7 15 8 16 9 7 10 6 11 5 12
REMARK SMILES IDX 4 13 3 14 2 15 1 16
REMARK H PARENT
REMARK Flexibility Score: inf
ROOT
ATOM      1  C   UNL     1     254.967 260.883 247.210  1.00  0.00     0.000 C 
ENDROOT
BRANCH   1   2
ATOM      2  C   UNL     1     254.658 260.721 248.708  1.00  0.00     0.000 C 
BRANCH   2   3
ATOM      3  C   UNL     1     255.917 260.484 249.557  1.00  0.00     0.000 C 
BRANCH   3   4
ATOM      4  C   UNL     1     255.572 260.455 251.053  1.00  0.00     0.000 C 
BRANCH   4   5
ATOM      5  C   UNL     1     255.528 261.861 251.682  1.00  0.00     0.006 C 
BRANCH   5   6
ATOM      6  C   UNL     1     254.241 262.165 252.466  1.00  0.00     0.053 C 
BRANCH   6   7
ATOM      7  C   UNL     1     254.164 261.387 253.745  1.00  0.00     0.041 C 
ATOM      8  O   UNL     1     254.900 261.694 254.719  1.00  0.00    -0.550 OA
ATOM      9  O   UNL     1     253.253 260.346 253.872  1.00  0.00    -0.550 OA
ENDBRANCH   6   7
ENDBRANCH   5   6
ENDBRANCH   4   5
ENDBRANCH   3   4
ENDBRANCH   2   3
ENDBRANCH   1   2
BRANCH   1  10
ATOM     10  C   UNL     1     253.891 260.328 246.255  1.00  0.00     0.000 C 
BRANCH  10  11
ATOM     11  C   UNL     1     254.075 258.852 245.851  1.00  0.00    -0.000 C 
BRANCH  11  12
ATOM     12  C   UNL     1     253.090 257.870 246.514  1.00  0.00    -0.000 C 
BRANCH  12  13
ATOM     13  C   UNL     1     253.730 256.862 247.491  1.00  0.00    -0.000 C 
BRANCH  13  14
ATOM     14  C   UNL     1     253.550 257.197 248.982  1.00  0.00    -0.000 C 
BRANCH  14  15
ATOM     15  C   UNL     1     254.839 257.015 249.794  1.00  0.00    -0.003 C 
ATOM     16  C   UNL     1     256.016 256.666 248.885  1.00  0.00     0.004 C 
ENDBRANCH  14  15
ENDBRANCH  13  14
ENDBRANCH  12  13
ENDBRANCH  11  12
ENDBRANCH  10  11
ENDBRANCH   1  10
TORSDOF 12
ENDMDL
MODEL 4
REMARK VINA RESULT:    -4.576      2.155      4.355
REMARK INTER + INTRA:          -9.082
REMARK INTER:                  -7.767
REMARK INTRA:                  -1.315
REMARK UNBOUND:                -1.296
REMARK SMILES CCCCCCCCCCCCCC(=O)[O-]
REMARK SMILES IDX 8 1 9 2 10 3 11 4 12 5 13 6 14 7 15 8 16 9 7 10 6 11 5 12
REMARK SMILES IDX 4 13 3 14 2 15 1 16
REMARK H PARENT
REMARK Flexibility Score: inf
ROOT
ATOM      1  C   UNL     1     254.022 260.885 246.698  1.00  0.00     0.000 C 
ENDROOT
BRANCH   1   2
ATOM      2  C   UNL     1     253.804 259.860 247.825  1.00  0.00     0.000 C 
BRANCH   2   3
ATOM      3  C   UNL     1     254.800 258.692 247.773  1.00  0.00     0.000 C 
BRANCH   3   4
ATOM      4  C   UNL     1     255.962 258.918 248.752  1.00  0.00     0.000 C 
BRANCH   4   5
ATOM      5  C   UNL     1     255.670 260.032 249.776  1.00  0.00     0.006 C 
BRANCH   5   6
ATOM      6  C   UNL     1     256.631 261.229 249.701  1.00  0.00     0.053 C 
BRANCH   6   7
ATOM      7  C   UNL     1     256.629 262.034 250.965  1.00  0.00     0.041 C 
ATOM      8  O   UNL     1     257.668 262.642 251.331  1.00  0.00    -0.550 OA
ATOM      9  O   UNL     1     255.468 262.139 251.720  1.00  0.00    -0.550 OA
ENDBRANCH   6   7
ENDBRANCH   5   6
ENDBRANCH   4   5
ENDBRANCH   3   4
ENDBRANCH   2   3
ENDBRANCH   1   2
BRANCH   1  10
ATOM     10  C   UNL     1     255.154 260.540 245.710  1.00  0.00     0.000 C 
BRANCH  10  11
ATOM     11  C   UNL     1     256.419 261.412 245.835  1.00  0.00    -0.000 C 
BRANCH  11  12
ATOM     12  C   UNL     1     257.465 261.202 244.723  1.00  0.00    -0.000 C 
BRANCH  12  13
ATOM     13  C   UNL     1     258.923 261.088 245.211  1.00  0.00    -0.000 C 
BRANCH  13  14
ATOM     14  C   UNL     1     259.136 261.408 246.702  1.00  0.00    -0.000 C 
BRANCH  14  15
ATOM     15  C   UNL     1     259.745 260.235 247.482  1.00  0.00    -0.003 C 
ATOM     16  C   UNL     1     260.604 259.359 246.574  1.00  0.00     0.004 C 
ENDBRANCH  14  15
ENDBRANCH  13  14
ENDBRANCH  12  13
ENDBRANCH  11  12
ENDBRANCH  10  11
ENDBRANCH   1  10
TORSDOF 12
ENDMDL
MODEL 5
REMARK VINA RESULT:    -4.575      4.052      5.571
REMARK INTER + INTRA:          -9.081
REMARK INTER:                  -7.734
REMARK INTRA:                  -1.347
REMARK UNBOUND:                -1.296
REMARK SMILES CCCCCCCCCCCCCC(=O)[O-]
REMARK SMILES IDX 8 1 9 2 10 3 11 4 12 5 13 6 14 7 15 8 16 9 7 10 6 11 5 12
REMARK SMILES IDX 4 13 3 14 2 15 1 16
REMARK H PARENT
REMARK Flexibility Score: inf
ROOT
ATOM      1  C   UNL     1     253.773 260.774 247.857  1.00  0.00     0.000 C 
ENDROOT
BRANCH   1   2
ATOM      2  C   UNL     1     254.833 260.889 248.968  1.00  0.00     0.000 C 
BRANCH   2   3
ATOM      3  C   UNL     1     256.172 260.241 248.585  1.00  0.00     0.000 C 
BRANCH   3   4
ATOM      4  C   UNL     1     257.325 261.247 248.717  1.00  0.00     0.000 C 
BRANCH   4   5
ATOM      5  C   UNL     1     257.742 261.857 247.366  1.00  0.00     0.006 C 
BRANCH   5   6
ATOM      6  C   UNL     1     258.621 260.941 246.500  1.00  0.00     0.053 C 
BRANCH   6   7
ATOM      7  C   UNL     1     260.071 261.039 246.867  1.00  0.00     0.041 C 
ATOM      8  O   UNL     1     260.882 260.155 246.487  1.00  0.00    -0.550 OA
ATOM      9  O   UNL     1     260.530 262.127 247.599  1.00  0.00    -0.550 OA
ENDBRANCH   6   7
ENDBRANCH   5   6
ENDBRANCH   4   5
ENDBRANCH   3   4
ENDBRANCH   2   3
ENDBRANCH   1   2
BRANCH   1  10
ATOM     10  C   UNL     1     254.335 260.610 246.431  1.00  0.00     0.000 C 
BRANCH  10  11
ATOM     11  C   UNL     1     254.031 259.256 245.761  1.00  0.00    -0.000 C 
BRANCH  11  12
ATOM     12  C   UNL     1     253.939 258.060 246.728  1.00  0.00    -0.000 C 
BRANCH  12  13
ATOM     13  C   UNL     1     252.603 257.290 246.688  1.00  0.00    -0.000 C 
BRANCH  13  14
ATOM     14  C   UNL     1     251.519 257.821 247.644  1.00  0.00    -0.000 C 
BRANCH  14  15
ATOM     15  C   UNL     1     250.304 258.398 246.905  1.00  0.00    -0.003 C 
ATOM     16  C   UNL     1     250.210 259.910 247.098  1.00  0.00     0.004 C 
ENDBRANCH  14  15
ENDBRANCH  13  14
ENDBRANCH  12  13
ENDBRANCH  11  12
ENDBRANCH  10  11
ENDBRANCH   1  10
TORSDOF 12
ENDMDL
MODEL 6
REMARK VINA RESULT:    -4.567      1.574      2.493
REMARK INTER + INTRA:          -9.066
REMARK INTER:                  -7.884
REMARK INTRA:                  -1.182
REMARK UNBOUND:                -1.296
REMARK SMILES CCCCCCCCCCCCCC(=O)[O-]
REMARK SMILES IDX 8 1 9 2 10 3 11 4 12 5 13 6 14 7 15 8 16 9 7 10 6 11 5 12
REMARK SMILES IDX 4 13 3 14 2 15 1 16
REMARK H PARENT
REMARK Flexibility Score: inf
ROOT
ATOM      1  C   UNL     1     255.506 260.713 249.060  1.00  0.00     0.000 C 
ENDROOT
BRANCH   1   2
ATOM      2  C   UNL     1     255.220 260.555 250.564  1.00  0.00     0.000 C 
BRANCH   2   3
ATOM      3  C   UNL     1     255.624 261.791 251.382  1.00  0.00     0.000 C 
BRANCH   3   4
ATOM      4  C   UNL     1     254.427 262.341 252.170  1.00  0.00     0.000 C 
BRANCH   4   5
ATOM      5  C   UNL     1     254.576 262.154 253.692  1.00  0.00     0.006 C 
BRANCH   5   6
ATOM      6  C   UNL     1     253.979 260.845 254.232  1.00  0.00     0.053 C 
BRANCH   6   7
ATOM      7  C   UNL     1     255.032 259.919 254.760  1.00  0.00     0.041 C 
ATOM      8  O   UNL     1     255.216 259.810 256.001  1.00  0.00    -0.550 OA
ATOM      9  O   UNL     1     255.787 259.152 253.882  1.00  0.00    -0.550 OA
ENDBRANCH   6   7
ENDBRANCH   5   6
ENDBRANCH   4   5
ENDBRANCH   3   4
ENDBRANCH   2   3
ENDBRANCH   1   2
BRANCH   1  10
ATOM     10  C   UNL     1     254.258 260.897 248.173  1.00  0.00     0.000 C 
BRANCH  10  11
ATOM     11  C   UNL     1     254.521 260.839 246.655  1.00  0.00    -0.000 C 
BRANCH  11  12
ATOM     12  C   UNL     1     253.968 259.588 245.948  1.00  0.00    -0.000 C 
BRANCH  12  13
ATOM     13  C   UNL     1     252.779 258.908 246.658  1.00  0.00    -0.000 C 
BRANCH  13  14
ATOM     14  C   UNL     1     252.908 257.383 246.825  1.00  0.00    -0.000 C 
BRANCH  14  15
ATOM     15  C   UNL     1     254.143 256.976 247.640  1.00  0.00    -0.003 C 
ATOM     16  C   UNL     1     253.959 257.309 249.119  1.00  0.00     0.004 C 
ENDBRANCH  14  15
ENDBRANCH  13  14
ENDBRANCH  12  13
ENDBRANCH  11  12
ENDBRANCH  10  11
ENDBRANCH   1  10
TORSDOF 12
ENDMDL
MODEL 7
REMARK VINA RESULT:    -4.553      3.934      5.810
REMARK INTER + INTRA:          -9.043
REMARK INTER:                  -7.245
REMARK INTRA:                  -1.798
REMARK UNBOUND:                -1.296
REMARK SMILES CCCCCCCCCCCCCC(=O)[O-]
REMARK SMILES IDX 8 1 9 2 10 3 11 4 12 5 13 6 14 7 15 8 16 9 7 10 6 11 5 12
REMARK SMILES IDX 4 13 3 14 2 15 1 16
REMARK H PARENT
REMARK Flexibility Score: inf
ROOT
ATOM      1  C   UNL     1     253.175 258.178 246.499  1.00  0.00     0.000 C 
ENDROOT
BRANCH   1   2
ATOM      2  C   UNL     1     253.939 257.154 247.358  1.00  0.00     0.000 C 
BRANCH   2   3
ATOM      3  C   UNL     1     253.821 257.430 248.864  1.00  0.00     0.000 C 
BRANCH   3   4
ATOM      4  C   UNL     1     254.993 256.800 249.631  1.00  0.00     0.000 C 
BRANCH   4   5
ATOM      5  C   UNL     1     256.320 256.866 248.850  1.00  0.00     0.006 C 
BRANCH   5   6
ATOM      6  C   UNL     1     257.086 255.535 248.789  1.00  0.00     0.053 C 
BRANCH   6   7
ATOM      7  C   UNL     1     256.166 254.360 248.656  1.00  0.00     0.041 C 
ATOM      8  O   UNL     1     255.543 254.161 247.580  1.00  0.00    -0.550 OA
ATOM      9  O   UNL     1     256.023 253.466 249.710  1.00  0.00    -0.550 OA
ENDBRANCH   6   7
ENDBRANCH   5   6
ENDBRANCH   4   5
ENDBRANCH   3   4
ENDBRANCH   2   3
ENDBRANCH   1   2
BRANCH   1  10
ATOM     10  C   UNL     1     254.047 259.284 245.871  1.00  0.00     0.000 C 
BRANCH  10  11
ATOM     11  C   UNL     1     253.815 260.699 246.436  1.00  0.00    -0.000 C 
BRANCH  11  12
ATOM     12  C   UNL     1     254.353 260.924 247.863  1.00  0.00    -0.000 C 
BRANCH  12  13
ATOM     13  C   UNL     1     255.844 260.580 248.060  1.00  0.00    -0.000 C 
BRANCH  13  14
ATOM     14  C   UNL     1     256.333 260.626 249.519  1.00  0.00    -0.000 C 
BRANCH  14  15
ATOM     15  C   UNL     1     255.203 260.909 250.518  1.00  0.00    -0.003 C 
ATOM     16  C   UNL     1     255.224 259.905 251.668  1.00  0.00     0.004 C 
ENDBRANCH  14  15
ENDBRANCH  13  14
ENDBRANCH  12  13
ENDBRANCH  11  12
ENDBRANCH  10  11
ENDBRANCH   1  10
TORSDOF 12
ENDMDL
MODEL 8
REMARK VINA RESULT:    -4.516      3.330      5.503
REMARK INTER + INTRA:          -8.981
REMARK INTER:                  -7.479
REMARK INTRA:                  -1.502
REMARK UNBOUND:                -1.296
REMARK SMILES CCCCCCCCCCCCCC(=O)[O-]
REMARK SMILES IDX 8 1 9 2 10 3 11 4 12 5 13 6 14 7 15 8 16 9 7 10 6 11 5 12
REMARK SMILES IDX 4 13 3 14 2 15 1 16
REMARK H PARENT
REMARK Flexibility Score: inf
ROOT
ATOM      1  C   UNL     1     254.208 260.775 248.073  1.00  0.00     0.000 C 
ENDROOT
BRANCH   1   2
ATOM      2  C   UNL     1     254.629 260.873 246.596  1.00  0.00     0.000 C 
BRANCH   2   3
ATOM      3  C   UNL     1     254.183 259.660 245.766  1.00  0.00     0.000 C 
BRANCH   3   4
ATOM      4  C   UNL     1     253.097 258.862 246.502  1.00  0.00     0.000 C 
BRANCH   4   5
ATOM      5  C   UNL     1     253.422 257.359 246.599  1.00  0.00     0.006 C 
BRANCH   5   6
ATOM      6  C   UNL     1     254.426 256.998 247.706  1.00  0.00     0.053 C 
BRANCH   6   7
ATOM      7  C   UNL     1     253.878 255.974 248.652  1.00  0.00     0.041 C 
ATOM      8  O   UNL     1     254.658 255.216 249.287  1.00  0.00    -0.550 OA
ATOM      9  O   UNL     1     252.508 255.880 248.858  1.00  0.00    -0.550 OA
ENDBRANCH   6   7
ENDBRANCH   5   6
ENDBRANCH   4   5
ENDBRANCH   3   4
ENDBRANCH   2   3
ENDBRANCH   1   2
BRANCH   1  10
ATOM     10  C   UNL     1     255.340 260.407 249.053  1.00  0.00     0.000 C 
BRANCH  10  11
ATOM     11  C   UNL     1     256.737 260.269 248.415  1.00  0.00    -0.000 C 
BRANCH  11  12
ATOM     12  C   UNL     1     257.816 261.195 249.010  1.00  0.00    -0.000 C 
BRANCH  12  13
ATOM     13  C   UNL     1     258.323 262.300 248.061  1.00  0.00    -0.000 C 
BRANCH  13  14
ATOM     14  C   UNL     1     258.790 261.806 246.679  1.00  0.00    -0.000 C 
BRANCH  14  15
ATOM     15  C   UNL     1     257.925 262.343 245.531  1.00  0.00    -0.003 C 
ATOM     16  C   UNL     1     257.656 261.257 244.492  1.00  0.00     0.004 C 
ENDBRANCH  14  15
ENDBRANCH  13  14
ENDBRANCH  12  13
ENDBRANCH  11  12
ENDBRANCH  10  11
ENDBRANCH   1  10
TORSDOF 12
ENDMDL
MODEL 9
REMARK VINA RESULT:    -4.472      3.929      5.717
REMARK INTER + INTRA:          -8.905
REMARK INTER:                  -7.836
REMARK INTRA:                  -1.069
REMARK UNBOUND:                -1.296
REMARK SMILES CCCCCCCCCCCCCC(=O)[O-]
REMARK SMILES IDX 8 1 9 2 10 3 11 4 12 5 13 6 14 7 15 8 16 9 7 10 6 11 5 12
REMARK SMILES IDX 4 13 3 14 2 15 1 16
REMARK H PARENT
REMARK Flexibility Score: inf
ROOT
ATOM      1  C   UNL     1     254.526 260.417 246.251  1.00  0.00     0.000 C 
ENDROOT
BRANCH   1   2
ATOM      2  C   UNL     1     253.782 260.830 247.534  1.00  0.00     0.000 C 
BRANCH   2   3
ATOM      3  C   UNL     1     254.673 260.780 248.784  1.00  0.00     0.000 C 
BRANCH   3   4
ATOM      4  C   UNL     1     256.047 260.176 248.455  1.00  0.00     0.000 C 
BRANCH   4   5
ATOM      5  C   UNL     1     257.202 261.175 248.657  1.00  0.00     0.006 C 
BRANCH   5   6
ATOM      6  C   UNL     1     258.009 261.478 247.385  1.00  0.00     0.053 C 
BRANCH   6   7
ATOM      7  C   UNL     1     259.427 261.006 247.491  1.00  0.00     0.041 C 
ATOM      8  O   UNL     1     259.677 259.831 247.866  1.00  0.00    -0.550 OA
ATOM      9  O   UNL     1     260.471 261.854 247.141  1.00  0.00    -0.550 OA
ENDBRANCH   6   7
ENDBRANCH   5   6
ENDBRANCH   4   5
ENDBRANCH   3   4
ENDBRANCH   2   3
ENDBRANCH   1   2
BRANCH   1  10
ATOM     10  C   UNL     1     254.122 259.046 245.673  1.00  0.00     0.000 C 
BRANCH  10  11
ATOM     11  C   UNL     1     253.162 258.223 246.554  1.00  0.00    -0.000 C 
BRANCH  11  12
ATOM     12  C   UNL     1     253.818 257.053 247.312  1.00  0.00    -0.000 C 
BRANCH  12  13
ATOM     13  C   UNL     1     253.357 255.649 246.871  1.00  0.00    -0.000 C 
BRANCH  13  14
ATOM     14  C   UNL     1     252.635 255.600 245.512  1.00  0.00    -0.000 C 
BRANCH  14  15
ATOM     15  C   UNL     1     251.266 254.909 245.590  1.00  0.00    -0.003 C 
ATOM     16  C   UNL     1     250.135 255.934 245.596  1.00  0.00     0.004 C 
ENDBRANCH  14  15
ENDBRANCH  13  14
ENDBRANCH  12  13
ENDBRANCH  11  12
ENDBRANCH  10  11
ENDBRANCH   1  10
TORSDOF 12
ENDMDL
