MODEL 1
REMARK VINA RESULT:    37.175      0.000      0.000
REMARK INTER + INTRA:          44.429
REMARK INTER:                  44.781
REMARK INTRA:                  -0.352
REMARK UNBOUND:                -0.352
REMARK SMILES Oc1cc(O)c2cc(O)c(-c3ccc(O)c(O)c3)[o+]c2c1.[Cl-]
REMARK SMILES IDX 10 1 19 2 20 3 21 4 2 5 3 6 4 7 6 8 7 9 8 10 11 11 12 12
REMARK SMILES IDX 13 13 14 14 18 15 16 16 15 17 17 19 9 21 1 23 5 25
REMARK H PARENT 15 18 17 20 9 22 1 24 5 26
REMARK Flexibility Score: inf
ROOT
ATOM      1  C   UNL     1      16.626  14.414  22.213  1.00  0.00     0.402 A 
ATOM      2  O   UNL     1      17.191  13.638  23.134  1.00  0.00    -0.202 OA
ATOM      3  C   UNL     1      16.562  12.626  23.722  1.00  0.00     0.368 A 
ATOM      4  C   UNL     1      17.239  11.870  24.682  1.00  0.00     0.162 A 
ATOM      5  C   UNL     1      16.600  10.801  25.318  1.00  0.00     0.128 A 
ATOM      6  C   UNL     1      15.279  10.488  24.992  1.00  0.00     0.093 A 
ATOM      7  C   UNL     1      14.578  11.231  24.033  1.00  0.00     0.136 A 
ATOM      8  C   UNL     1      15.223  12.315  23.384  1.00  0.00     0.125 A 
ATOM      9  C   UNL     1      14.603  13.105  22.402  1.00  0.00     0.078 A 
ATOM     10  C   UNL     1      15.305  14.155  21.801  1.00  0.00     0.223 A 
ENDROOT
BRANCH   1  11
ATOM     11  C   UNL     1      17.428  15.519  21.639  1.00  0.00     0.087 A 
ATOM     12  C   UNL     1      17.373  16.818  22.173  1.00  0.00     0.022 A 
ATOM     13  C   UNL     1      18.157  17.839  21.629  1.00  0.00     0.051 A 
ATOM     14  C   UNL     1      19.016  17.577  20.557  1.00  0.00     0.157 A 
ATOM     15  C   UNL     1      18.307  15.254  20.576  1.00  0.00     0.068 A 
ATOM     16  C   UNL     1      19.094  16.277  20.029  1.00  0.00     0.158 A 
BRANCH  14  17
ATOM     17  O   UNL     1      19.784  18.617  20.035  1.00  0.00    -0.504 OA
ATOM     18  H   UNL     1      20.533  19.050  20.563  1.00  0.00     0.293 HD
ENDBRANCH  14  17
BRANCH  16  19
ATOM     19  O   UNL     1      19.954  16.008  18.965  1.00  0.00    -0.504 OA
ATOM     20  H   UNL     1      20.450  16.748  18.483  1.00  0.00     0.293 HD
ENDBRANCH  16  19
ENDBRANCH   1  11
BRANCH  10  21
ATOM     21  O   UNL     1      14.708  14.909  20.791  1.00  0.00    -0.500 OA
ATOM     22  H   UNL     1      14.157  15.734  20.997  1.00  0.00     0.294 HD
ENDBRANCH  10  21
BRANCH   5  23
ATOM     23  O   UNL     1      17.269  10.043  26.277  1.00  0.00    -0.507 OA
ATOM     24  H   UNL     1      18.272   9.903  26.236  1.00  0.00     0.293 HD
ENDBRANCH   5  23
BRANCH   7  25
ATOM     25  O   UNL     1      13.258  10.855  23.768  1.00  0.00    -0.507 OA
ATOM     26  H   UNL     1      12.988   9.973  23.359  1.00  0.00     0.293 HD
ENDBRANCH   7  25
TORSDOF 6
ENDMDL
MODEL 2
REMARK VINA RESULT:    37.660      1.520      6.821
REMARK INTER + INTRA:          45.013
REMARK INTER:                  45.257
REMARK INTRA:                  -0.244
REMARK UNBOUND:                -0.352
REMARK SMILES Oc1cc(O)c2cc(O)c(-c3ccc(O)c(O)c3)[o+]c2c1.[Cl-]
REMARK SMILES IDX 10 1 19 2 20 3 21 4 2 5 3 6 4 7 6 8 7 9 8 10 11 11 12 12
REMARK SMILES IDX 13 13 14 14 18 15 16 16 15 17 17 19 9 21 1 23 5 25
REMARK H PARENT 15 18 17 20 9 22 1 24 5 26
REMARK Flexibility Score: inf
ROOT
ATOM      1  C   UNL     1      16.123  13.222  23.008  1.00  0.00     0.402 A 
ATOM      2  O   UNL     1      17.224  13.656  22.402  1.00  0.00    -0.202 OA
ATOM      3  C   UNL     1      17.333  14.867  21.865  1.00  0.00     0.368 A 
ATOM      4  C   UNL     1      18.530  15.232  21.245  1.00  0.00     0.162 A 
ATOM      5  C   UNL     1      18.671  16.498  20.670  1.00  0.00     0.128 A 
ATOM      6  C   UNL     1      17.609  17.404  20.715  1.00  0.00     0.093 A 
ATOM      7  C   UNL     1      16.398  17.062  21.331  1.00  0.00     0.136 A 
ATOM      8  C   UNL     1      16.251  15.779  21.917  1.00  0.00     0.125 A 
ATOM      9  C   UNL     1      15.079  15.356  22.567  1.00  0.00     0.078 A 
ATOM     10  C   UNL     1      15.011  14.076  23.127  1.00  0.00     0.223 A 
ENDROOT
BRANCH   1  11
ATOM     11  C   UNL     1      16.122  11.846  23.558  1.00  0.00     0.087 A 
ATOM     12  C   UNL     1      15.286  10.847  23.029  1.00  0.00     0.022 A 
ATOM     13  C   UNL     1      15.320   9.551  23.548  1.00  0.00     0.051 A 
ATOM     14  C   UNL     1      16.194   9.228  24.591  1.00  0.00     0.157 A 
ATOM     15  C   UNL     1      17.014  11.514  24.591  1.00  0.00     0.068 A 
ATOM     16  C   UNL     1      17.049  10.214  25.114  1.00  0.00     0.158 A 
BRANCH  14  17
ATOM     17  O   UNL     1      16.203   7.926  25.090  1.00  0.00    -0.504 OA
ATOM     18  H   UNL     1      15.767   7.686  25.973  1.00  0.00     0.293 HD
ENDBRANCH  14  17
BRANCH  16  19
ATOM     19  O   UNL     1      17.928   9.898  26.148  1.00  0.00    -0.504 OA
ATOM     20  H   UNL     1      18.809   9.429  25.971  1.00  0.00     0.293 HD
ENDBRANCH  16  19
ENDBRANCH   1  11
BRANCH  10  21
ATOM     21  O   UNL     1      13.866  13.674  23.815  1.00  0.00    -0.500 OA
ATOM     22  H   UNL     1      13.411  12.790  23.619  1.00  0.00     0.294 HD
ENDBRANCH  10  21
BRANCH   5  23
ATOM     23  O   UNL     1      19.863  16.868  20.049  1.00  0.00    -0.507 OA
ATOM     24  H   UNL     1      19.910  17.036  19.051  1.00  0.00     0.293 HD
ENDBRANCH   5  23
BRANCH   7  25
ATOM     25  O   UNL     1      15.383  18.023  21.330  1.00  0.00    -0.507 OA
ATOM     26  H   UNL     1      14.896  18.339  22.156  1.00  0.00     0.293 HD
ENDBRANCH   7  25
TORSDOF 6
ENDMDL
MODEL 3
REMARK VINA RESULT:    38.389      7.230     12.023
REMARK INTER + INTRA:          45.892
REMARK INTER:                  46.043
REMARK INTRA:                  -0.151
REMARK UNBOUND:                -0.352
REMARK SMILES Oc1cc(O)c2cc(O)c(-c3ccc(O)c(O)c3)[o+]c2c1.[Cl-]
REMARK SMILES IDX 10 1 19 2 20 3 21 4 2 5 3 6 4 7 6 8 7 9 8 10 11 11 12 12
REMARK SMILES IDX 13 13 14 14 18 15 16 16 15 17 17 19 9 21 1 23 5 25
REMARK H PARENT 15 18 17 20 9 22 1 24 5 26
REMARK Flexibility Score: inf
ROOT
ATOM      1  C   UNL     1      23.165  21.163  19.330  1.00  0.00     0.402 A 
ATOM      2  O   UNL     1      23.552  21.900  20.368  1.00  0.00    -0.202 OA
ATOM      3  C   UNL     1      24.785  22.373  20.509  1.00  0.00     0.368 A 
ATOM      4  C   UNL     1      25.098  23.135  21.637  1.00  0.00     0.162 A 
ATOM      5  C   UNL     1      26.388  23.642  21.811  1.00  0.00     0.128 A 
ATOM      6  C   UNL     1      27.372  23.385  20.854  1.00  0.00     0.093 A 
ATOM      7  C   UNL     1      27.084  22.622  19.714  1.00  0.00     0.136 A 
ATOM      8  C   UNL     1      25.776  22.108  19.532  1.00  0.00     0.125 A 
ATOM      9  C   UNL     1      25.394  21.345  18.415  1.00  0.00     0.078 A 
ATOM     10  C   UNL     1      24.082  20.876  18.301  1.00  0.00     0.223 A 
ENDROOT
BRANCH   1  11
ATOM     11  C   UNL     1      21.764  20.686  19.293  1.00  0.00     0.087 A 
ATOM     12  C   UNL     1      20.892  21.055  18.254  1.00  0.00     0.022 A 
ATOM     13  C   UNL     1      19.581  20.574  18.228  1.00  0.00     0.051 A 
ATOM     14  C   UNL     1      19.123  19.709  19.227  1.00  0.00     0.157 A 
ATOM     15  C   UNL     1      21.308  19.800  20.284  1.00  0.00     0.068 A 
ATOM     16  C   UNL     1      19.993  19.316  20.259  1.00  0.00     0.158 A 
BRANCH  14  17
ATOM     17  O   UNL     1      17.809  19.247  19.175  1.00  0.00    -0.504 OA
ATOM     18  H   UNL     1      17.032  19.796  19.524  1.00  0.00     0.293 HD
ENDBRANCH  14  17
BRANCH  16  19
ATOM     19  O   UNL     1      19.547  18.448  21.254  1.00  0.00    -0.504 OA
ATOM     20  H   UNL     1      19.081  17.577  21.029  1.00  0.00     0.293 HD
ENDBRANCH  16  19
ENDBRANCH   1  11
BRANCH  10  21
ATOM     21  O   UNL     1      23.689  20.162  17.169  1.00  0.00    -0.500 OA
ATOM     22  H   UNL     1      24.259  20.139  16.331  1.00  0.00     0.294 HD
ENDBRANCH  10  21
BRANCH   5  23
ATOM     23  O   UNL     1      26.706  24.404  22.934  1.00  0.00    -0.507 OA
ATOM     24  H   UNL     1      27.518  24.195  23.504  1.00  0.00     0.293 HD
ENDBRANCH   5  23
BRANCH   7  25
ATOM     25  O   UNL     1      28.125  22.407  18.806  1.00  0.00    -0.507 OA
ATOM     26  H   UNL     1      28.797  23.109  18.532  1.00  0.00     0.293 HD
ENDBRANCH   7  25
TORSDOF 6
ENDMDL
