MODEL 1
REMARK VINA RESULT:    -3.375      0.000      0.000
REMARK INTER + INTRA:         -13.010
REMARK INTER:                  -8.899
REMARK INTRA:                  -4.111
REMARK UNBOUND:                -4.111
REMARK SMILES CCCCCCCCCCCCCCCCCCCCCCCCCCCCCC(=O)[O-]
REMARK SMILES IDX 16 1 17 2 18 3 19 4 20 5 21 6 22 7 23 8 24 9 25 10 26 11
REMARK SMILES IDX 27 12 28 13 29 14 30 15 31 16 32 17 15 18 14 19 13 20 12 21
REMARK SMILES IDX 11 22 10 23 9 24 8 25 7 26 6 27 5 28 4 29 3 30 2 31 1 32
REMARK H PARENT
REMARK Flexibility Score: inf
ROOT
ATOM      1  C   UNL     1      -6.706   5.128  -4.023  1.00  0.00     0.000 C 
ENDROOT
BRANCH   1   2
ATOM      2  C   UNL     1      -7.959   6.015  -4.049  1.00  0.00     0.000 C 
BRANCH   2   3
ATOM      3  C   UNL     1      -9.045   5.550  -3.058  1.00  0.00     0.000 C 
BRANCH   3   4
ATOM      4  C   UNL     1      -8.530   4.631  -1.929  1.00  0.00     0.000 C 
BRANCH   4   5
ATOM      5  C   UNL     1      -8.980   3.159  -2.034  1.00  0.00     0.000 C 
BRANCH   5   6
ATOM      6  C   UNL     1      -9.710   2.822  -3.354  1.00  0.00     0.000 C 
BRANCH   6   7
ATOM      7  C   UNL     1      -9.070   1.617  -4.066  1.00  0.00     0.000 C 
BRANCH   7   8
ATOM      8  C   UNL     1      -8.421   1.985  -5.411  1.00  0.00     0.000 C 
BRANCH   8   9
ATOM      9  C   UNL     1      -9.084   3.163  -6.151  1.00  0.00     0.000 C 
BRANCH   9  10
ATOM     10  C   UNL     1      -8.596   3.309  -7.603  1.00  0.00     0.000 C 
BRANCH  10  11
ATOM     11  C   UNL     1      -9.215   2.267  -8.553  1.00  0.00     0.000 C 
BRANCH  11  12
ATOM     12  C   UNL     1      -8.209   1.315  -9.238  1.00  0.00     0.000 C 
BRANCH  12  13
ATOM     13  C   UNL     1      -6.735   1.752  -9.160  1.00  0.00     0.006 C 
BRANCH  13  14
ATOM     14  C   UNL     1      -5.763   0.589  -9.412  1.00  0.00     0.053 C 
BRANCH  14  15
ATOM     15  C   UNL     1      -5.575  -0.217  -8.165  1.00  0.00     0.041 C 
ATOM     16  O   UNL     1      -5.344  -1.453  -8.235  1.00  0.00    -0.550 OA
ATOM     17  O   UNL     1      -5.704   0.386  -6.921  1.00  0.00    -0.550 OA
ENDBRANCH  14  15
ENDBRANCH  13  14
ENDBRANCH  12  13
ENDBRANCH  11  12
ENDBRANCH  10  11
ENDBRANCH   9  10
ENDBRANCH   8   9
ENDBRANCH   7   8
ENDBRANCH   6   7
ENDBRANCH   5   6
ENDBRANCH   4   5
ENDBRANCH   3   4
ENDBRANCH   2   3
ENDBRANCH   1   2
BRANCH   1  18
ATOM     18  C   UNL     1      -5.624   5.665  -4.968  1.00  0.00     0.000 C 
BRANCH  18  19
ATOM     19  C   UNL     1      -6.025   5.435  -6.434  1.00  0.00     0.000 C 
BRANCH  19  20
ATOM     20  C   UNL     1      -5.406   6.474  -7.394  1.00  0.00     0.000 C 
BRANCH  20  21
ATOM     21  C   UNL     1      -5.713   7.933  -7.004  1.00  0.00     0.000 C 
BRANCH  21  22
ATOM     22  C   UNL     1      -7.208   8.303  -7.004  1.00  0.00     0.000 C 
BRANCH  22  23
ATOM     23  C   UNL     1      -7.617   9.367  -5.964  1.00  0.00     0.000 C 
BRANCH  23  24
ATOM     24  C   UNL     1      -9.007   9.158  -5.330  1.00  0.00    -0.000 C 
BRANCH  24  25
ATOM     25  C   UNL     1      -9.298  10.042  -4.101  1.00  0.00    -0.000 C 
BRANCH  25  26
ATOM     26  C   UNL     1      -8.139  10.058  -3.091  1.00  0.00    -0.000 C 
BRANCH  26  27
ATOM     27  C   UNL     1      -8.610   9.577  -1.709  1.00  0.00    -0.000 C 
BRANCH  27  28
ATOM     28  C   UNL     1      -7.782   8.394  -1.169  1.00  0.00    -0.000 C 
BRANCH  28  29
ATOM     29  C   UNL     1      -6.959   8.701   0.098  1.00  0.00    -0.000 C 
BRANCH  29  30
ATOM     30  C   UNL     1      -6.199  10.035   0.014  1.00  0.00    -0.000 C 
BRANCH  30  31
ATOM     31  C   UNL     1      -5.120  10.125   1.101  1.00  0.00    -0.003 C 
ATOM     32  C   UNL     1      -3.719  10.074   0.495  1.00  0.00     0.004 C 
ENDBRANCH  30  31
ENDBRANCH  29  30
ENDBRANCH  28  29
ENDBRANCH  27  28
ENDBRANCH  26  27
ENDBRANCH  25  26
ENDBRANCH  24  25
ENDBRANCH  23  24
ENDBRANCH  22  23
ENDBRANCH  21  22
ENDBRANCH  20  21
ENDBRANCH  19  20
ENDBRANCH  18  19
ENDBRANCH   1  18
TORSDOF 28
ENDMDL
MODEL 2
REMARK VINA RESULT:    -3.279      1.920      4.086
REMARK INTER + INTRA:         -12.758
REMARK INTER:                  -8.519
REMARK INTRA:                  -4.239
REMARK UNBOUND:                -4.111
REMARK SMILES CCCCCCCCCCCCCCCCCCCCCCCCCCCCCC(=O)[O-]
REMARK SMILES IDX 16 1 17 2 18 3 19 4 20 5 21 6 22 7 23 8 24 9 25 10 26 11
REMARK SMILES IDX 27 12 28 13 29 14 30 15 31 16 32 17 15 18 14 19 13 20 12 21
REMARK SMILES IDX 11 22 10 23 9 24 8 25 7 26 6 27 5 28 4 29 3 30 2 31 1 32
REMARK H PARENT
REMARK Flexibility Score: inf
ROOT
ATOM      1  C   UNL     1      -7.978   6.028  -7.389  1.00  0.00     0.000 C 
ENDROOT
BRANCH   1   2
ATOM      2  C   UNL     1      -8.551   4.667  -7.811  1.00  0.00     0.000 C 
BRANCH   2   3
ATOM      3  C   UNL     1      -7.671   3.939  -8.846  1.00  0.00     0.000 C 
BRANCH   3   4
ATOM      4  C   UNL     1      -6.874   2.743  -8.281  1.00  0.00     0.000 C 
BRANCH   4   5
ATOM      5  C   UNL     1      -6.409   1.717  -9.334  1.00  0.00     0.000 C 
BRANCH   5   6
ATOM      6  C   UNL     1      -7.198   0.388  -9.303  1.00  0.00     0.000 C 
BRANCH   6   7
ATOM      7  C   UNL     1      -7.595  -0.004  -7.869  1.00  0.00     0.000 C 
BRANCH   7   8
ATOM      8  C   UNL     1      -9.103   0.138  -7.600  1.00  0.00     0.000 C 
BRANCH   8   9
ATOM      9  C   UNL     1      -9.611  -0.597  -6.344  1.00  0.00     0.000 C 
BRANCH   9  10
ATOM     10  C   UNL     1      -9.697   0.319  -5.109  1.00  0.00     0.000 C 
BRANCH  10  11
ATOM     11  C   UNL     1      -9.784   1.812  -5.473  1.00  0.00     0.000 C 
BRANCH  11  12
ATOM     12  C   UNL     1      -9.692   2.790  -4.281  1.00  0.00     0.000 C 
BRANCH  12  13
ATOM     13  C   UNL     1      -8.429   3.670  -4.250  1.00  0.00     0.006 C 
BRANCH  13  14
ATOM     14  C   UNL     1      -7.247   2.978  -3.554  1.00  0.00     0.053 C 
BRANCH  14  15
ATOM     15  C   UNL     1      -6.146   2.709  -4.533  1.00  0.00     0.041 C 
ATOM     16  O   UNL     1      -5.333   3.619  -4.842  1.00  0.00    -0.550 OA
ATOM     17  O   UNL     1      -6.047   1.465  -5.142  1.00  0.00    -0.550 OA
ENDBRANCH  14  15
ENDBRANCH  13  14
ENDBRANCH  12  13
ENDBRANCH  11  12
ENDBRANCH  10  11
ENDBRANCH   9  10
ENDBRANCH   8   9
ENDBRANCH   7   8
ENDBRANCH   6   7
ENDBRANCH   5   6
ENDBRANCH   4   5
ENDBRANCH   3   4
ENDBRANCH   2   3
ENDBRANCH   1   2
BRANCH   1  18
ATOM     18  C   UNL     1      -6.749   5.860  -6.488  1.00  0.00     0.000 C 
BRANCH  18  19
ATOM     19  C   UNL     1      -5.615   6.792  -6.941  1.00  0.00     0.000 C 
BRANCH  19  20
ATOM     20  C   UNL     1      -6.060   7.791  -8.032  1.00  0.00     0.000 C 
BRANCH  20  21
ATOM     21  C   UNL     1      -5.582   9.234  -7.778  1.00  0.00     0.000 C 
BRANCH  21  22
ATOM     22  C   UNL     1      -6.180   9.904  -6.526  1.00  0.00     0.000 C 
BRANCH  22  23
ATOM     23  C   UNL     1      -7.711   9.771  -6.382  1.00  0.00     0.000 C 
BRANCH  23  24
ATOM     24  C   UNL     1      -8.219   9.634  -4.932  1.00  0.00    -0.000 C 
BRANCH  24  25
ATOM     25  C   UNL     1      -7.631   8.443  -4.150  1.00  0.00    -0.000 C 
BRANCH  25  26
ATOM     26  C   UNL     1      -8.696   7.407  -3.753  1.00  0.00    -0.000 C 
BRANCH  26  27
ATOM     27  C   UNL     1      -8.462   6.903  -2.320  1.00  0.00    -0.000 C 
BRANCH  27  28
ATOM     28  C   UNL     1      -7.001   6.485  -2.058  1.00  0.00    -0.000 C 
BRANCH  28  29
ATOM     29  C   UNL     1      -6.309   7.231  -0.901  1.00  0.00    -0.000 C 
BRANCH  29  30
ATOM     30  C   UNL     1      -7.302   7.889   0.071  1.00  0.00    -0.000 C 
BRANCH  30  31
ATOM     31  C   UNL     1      -6.978   7.521   1.525  1.00  0.00    -0.003 C 
ATOM     32  C   UNL     1      -6.684   8.767   2.358  1.00  0.00     0.004 C 
ENDBRANCH  30  31
ENDBRANCH  29  30
ENDBRANCH  28  29
ENDBRANCH  27  28
ENDBRANCH  26  27
ENDBRANCH  25  26
ENDBRANCH  24  25
ENDBRANCH  23  24
ENDBRANCH  22  23
ENDBRANCH  21  22
ENDBRANCH  20  21
ENDBRANCH  19  20
ENDBRANCH  18  19
ENDBRANCH   1  18
TORSDOF 28
ENDMDL
MODEL 3
REMARK VINA RESULT:    -2.972      3.718      9.925
REMARK INTER + INTRA:         -11.949
REMARK INTER:                  -9.232
REMARK INTRA:                  -2.717
REMARK UNBOUND:                -4.111
REMARK SMILES CCCCCCCCCCCCCCCCCCCCCCCCCCCCCC(=O)[O-]
REMARK SMILES IDX 16 1 17 2 18 3 19 4 20 5 21 6 22 7 23 8 24 9 25 10 26 11
REMARK SMILES IDX 27 12 28 13 29 14 30 15 31 16 32 17 15 18 14 19 13 20 12 21
REMARK SMILES IDX 11 22 10 23 9 24 8 25 7 26 6 27 5 28 4 29 3 30 2 31 1 32
REMARK H PARENT
REMARK Flexibility Score: inf
ROOT
ATOM      1  C   UNL     1      -7.601   4.043  -4.359  1.00  0.00     0.000 C 
ENDROOT
BRANCH   1   2
ATOM      2  C   UNL     1      -8.504   3.429  -3.279  1.00  0.00     0.000 C 
BRANCH   2   3
ATOM      3  C   UNL     1      -8.356   4.117  -1.908  1.00  0.00     0.000 C 
BRANCH   3   4
ATOM      4  C   UNL     1      -8.380   5.661  -1.961  1.00  0.00     0.000 C 
BRANCH   4   5
ATOM      5  C   UNL     1      -7.524   6.360  -0.885  1.00  0.00     0.000 C 
BRANCH   5   6
ATOM      6  C   UNL     1      -6.811   7.636  -1.386  1.00  0.00     0.000 C 
BRANCH   6   7
ATOM      7  C   UNL     1      -7.666   8.894  -1.154  1.00  0.00     0.000 C 
BRANCH   7   8
ATOM      8  C   UNL     1      -7.947   9.680  -2.446  1.00  0.00     0.000 C 
BRANCH   8   9
ATOM      9  C   UNL     1      -9.266   9.315  -3.154  1.00  0.00     0.000 C 
BRANCH   9  10
ATOM     10  C   UNL     1      -9.051   8.781  -4.582  1.00  0.00     0.000 C 
BRANCH  10  11
ATOM     11  C   UNL     1      -7.998   9.581  -5.371  1.00  0.00     0.000 C 
BRANCH  11  12
ATOM     12  C   UNL     1      -6.837   8.748  -5.958  1.00  0.00     0.000 C 
BRANCH  12  13
ATOM     13  C   UNL     1      -6.797   7.274  -5.514  1.00  0.00     0.006 C 
BRANCH  13  14
ATOM     14  C   UNL     1      -5.600   6.514  -6.107  1.00  0.00     0.053 C 
BRANCH  14  15
ATOM     15  C   UNL     1      -5.898   6.079  -7.508  1.00  0.00     0.041 C 
ATOM     16  O   UNL     1      -5.332   6.641  -8.483  1.00  0.00    -0.550 OA
ATOM     17  O   UNL     1      -6.839   5.085  -7.743  1.00  0.00    -0.550 OA
ENDBRANCH  14  15
ENDBRANCH  13  14
ENDBRANCH  12  13
ENDBRANCH  11  12
ENDBRANCH  10  11
ENDBRANCH   9  10
ENDBRANCH   8   9
ENDBRANCH   7   8
ENDBRANCH   6   7
ENDBRANCH   5   6
ENDBRANCH   4   5
ENDBRANCH   3   4
ENDBRANCH   2   3
ENDBRANCH   1   2
BRANCH   1  18
ATOM     18  C   UNL     1      -6.250   3.321  -4.432  1.00  0.00     0.000 C 
BRANCH  18  19
ATOM     19  C   UNL     1      -6.438   1.873  -4.912  1.00  0.00     0.000 C 
BRANCH  19  20
ATOM     20  C   UNL     1      -7.188   1.780  -6.258  1.00  0.00     0.000 C 
BRANCH  20  21
ATOM     21  C   UNL     1      -6.700   0.626  -7.157  1.00  0.00     0.000 C 
BRANCH  21  22
ATOM     22  C   UNL     1      -7.809  -0.315  -7.661  1.00  0.00     0.000 C 
BRANCH  22  23
ATOM     23  C   UNL     1      -7.390  -1.267  -8.802  1.00  0.00     0.000 C 
BRANCH  23  24
ATOM     24  C   UNL     1      -8.513  -2.180  -9.334  1.00  0.00    -0.000 C 
BRANCH  24  25
ATOM     25  C   UNL     1      -8.027  -3.477 -10.010  1.00  0.00    -0.000 C 
BRANCH  25  26
ATOM     26  C   UNL     1      -8.972  -4.665  -9.769  1.00  0.00    -0.000 C 
BRANCH  26  27
ATOM     27  C   UNL     1      -9.308  -4.803  -8.275  1.00  0.00    -0.000 C 
BRANCH  27  28
ATOM     28  C   UNL     1      -8.228  -5.569  -7.483  1.00  0.00    -0.000 C 
BRANCH  28  29
ATOM     29  C   UNL     1      -8.639  -5.982  -6.056  1.00  0.00    -0.000 C 
BRANCH  29  30
ATOM     30  C   UNL     1     -10.008  -5.420  -5.638  1.00  0.00    -0.000 C 
BRANCH  30  31
ATOM     31  C   UNL     1      -9.926  -4.729  -4.270  1.00  0.00    -0.003 C 
ATOM     32  C   UNL     1      -9.377  -5.675  -3.204  1.00  0.00     0.004 C 
ENDBRANCH  30  31
ENDBRANCH  29  30
ENDBRANCH  28  29
ENDBRANCH  27  28
ENDBRANCH  26  27
ENDBRANCH  25  26
ENDBRANCH  24  25
ENDBRANCH  23  24
ENDBRANCH  22  23
ENDBRANCH  21  22
ENDBRANCH  20  21
ENDBRANCH  19  20
ENDBRANCH  18  19
ENDBRANCH   1  18
TORSDOF 28
ENDMDL
MODEL 4
REMARK VINA RESULT:    -2.815      1.722      5.773
REMARK INTER + INTRA:         -11.535
REMARK INTER:                  -6.597
REMARK INTRA:                  -4.938
REMARK UNBOUND:                -4.111
REMARK SMILES CCCCCCCCCCCCCCCCCCCCCCCCCCCCCC(=O)[O-]
REMARK SMILES IDX 16 1 17 2 18 3 19 4 20 5 21 6 22 7 23 8 24 9 25 10 26 11
REMARK SMILES IDX 27 12 28 13 29 14 30 15 31 16 32 17 15 18 14 19 13 20 12 21
REMARK SMILES IDX 11 22 10 23 9 24 8 25 7 26 6 27 5 28 4 29 3 30 2 31 1 32
REMARK H PARENT
REMARK Flexibility Score: inf
ROOT
ATOM      1  C   UNL     1      -9.891   9.107  -1.563  1.00  0.00     0.000 C 
ENDROOT
BRANCH   1   2
ATOM      2  C   UNL     1      -8.806   9.801  -2.399  1.00  0.00     0.000 C 
BRANCH   2   3
ATOM      3  C   UNL     1      -8.661   9.202  -3.812  1.00  0.00     0.000 C 
BRANCH   3   4
ATOM      4  C   UNL     1      -9.815   9.552  -4.777  1.00  0.00     0.000 C 
BRANCH   4   5
ATOM      5  C   UNL     1      -9.481   9.389  -6.274  1.00  0.00     0.000 C 
BRANCH   5   6
ATOM      6  C   UNL     1      -8.402   8.320  -6.561  1.00  0.00     0.000 C 
BRANCH   6   7
ATOM      7  C   UNL     1      -7.992   8.311  -8.044  1.00  0.00     0.000 C 
BRANCH   7   8
ATOM      8  C   UNL     1      -8.633   7.163  -8.841  1.00  0.00     0.000 C 
BRANCH   8   9
ATOM      9  C   UNL     1      -8.343   5.751  -8.295  1.00  0.00     0.000 C 
BRANCH   9  10
ATOM     10  C   UNL     1      -6.866   5.344  -8.445  1.00  0.00     0.000 C 
BRANCH  10  11
ATOM     11  C   UNL     1      -6.684   4.003  -9.180  1.00  0.00     0.000 C 
BRANCH  11  12
ATOM     12  C   UNL     1      -7.982   3.208  -9.439  1.00  0.00     0.000 C 
BRANCH  12  13
ATOM     13  C   UNL     1      -8.215   2.009  -8.502  1.00  0.00     0.006 C 
BRANCH  13  14
ATOM     14  C   UNL     1      -7.004   1.722  -7.602  1.00  0.00     0.053 C 
BRANCH  14  15
ATOM     15  C   UNL     1      -6.642   0.270  -7.657  1.00  0.00     0.041 C 
ATOM     16  O   UNL     1      -5.451  -0.096  -7.475  1.00  0.00    -0.550 OA
ATOM     17  O   UNL     1      -7.612  -0.677  -7.956  1.00  0.00    -0.550 OA
ENDBRANCH  14  15
ENDBRANCH  13  14
ENDBRANCH  12  13
ENDBRANCH  11  12
ENDBRANCH  10  11
ENDBRANCH   9  10
ENDBRANCH   8   9
ENDBRANCH   7   8
ENDBRANCH   6   7
ENDBRANCH   5   6
ENDBRANCH   4   5
ENDBRANCH   3   4
ENDBRANCH   2   3
ENDBRANCH   1   2
BRANCH   1  18
ATOM     18  C   UNL     1      -9.663   9.327  -0.063  1.00  0.00     0.000 C 
BRANCH  18  19
ATOM     19  C   UNL     1      -8.171   9.547   0.230  1.00  0.00     0.000 C 
BRANCH  19  20
ATOM     20  C   UNL     1      -7.659   8.692   1.410  1.00  0.00     0.000 C 
BRANCH  20  21
ATOM     21  C   UNL     1      -6.818   7.477   0.972  1.00  0.00     0.000 C 
BRANCH  21  22
ATOM     22  C   UNL     1      -6.102   7.639  -0.382  1.00  0.00     0.000 C 
BRANCH  22  23
ATOM     23  C   UNL     1      -6.804   6.960  -1.577  1.00  0.00     0.000 C 
BRANCH  23  24
ATOM     24  C   UNL     1      -7.609   5.693  -1.226  1.00  0.00    -0.000 C 
BRANCH  24  25
ATOM     25  C   UNL     1      -9.121   5.786  -1.515  1.00  0.00    -0.000 C 
BRANCH  25  26
ATOM     26  C   UNL     1      -9.778   4.408  -1.699  1.00  0.00    -0.000 C 
BRANCH  26  27
ATOM     27  C   UNL     1     -10.057   4.127  -3.184  1.00  0.00    -0.000 C 
BRANCH  27  28
ATOM     28  C   UNL     1      -9.646   5.294  -4.105  1.00  0.00    -0.000 C 
BRANCH  28  29
ATOM     29  C   UNL     1      -8.460   4.995  -5.043  1.00  0.00    -0.000 C 
BRANCH  29  30
ATOM     30  C   UNL     1      -7.624   3.787  -4.590  1.00  0.00    -0.000 C 
BRANCH  30  31
ATOM     31  C   UNL     1      -6.138   4.156  -4.473  1.00  0.00    -0.003 C 
ATOM     32  C   UNL     1      -5.901   5.618  -4.848  1.00  0.00     0.004 C 
ENDBRANCH  30  31
ENDBRANCH  29  30
ENDBRANCH  28  29
ENDBRANCH  27  28
ENDBRANCH  26  27
ENDBRANCH  25  26
ENDBRANCH  24  25
ENDBRANCH  23  24
ENDBRANCH  22  23
ENDBRANCH  21  22
ENDBRANCH  20  21
ENDBRANCH  19  20
ENDBRANCH  18  19
ENDBRANCH   1  18
TORSDOF 28
ENDMDL
MODEL 5
REMARK VINA RESULT:    -2.716      1.515      2.052
REMARK INTER + INTRA:         -11.273
REMARK INTER:                  -8.431
REMARK INTRA:                  -2.842
REMARK UNBOUND:                -4.111
REMARK SMILES CCCCCCCCCCCCCCCCCCCCCCCCCCCCCC(=O)[O-]
REMARK SMILES IDX 16 1 17 2 18 3 19 4 20 5 21 6 22 7 23 8 24 9 25 10 26 11
REMARK SMILES IDX 27 12 28 13 29 14 30 15 31 16 32 17 15 18 14 19 13 20 12 21
REMARK SMILES IDX 11 22 10 23 9 24 8 25 7 26 6 27 5 28 4 29 3 30 2 31 1 32
REMARK H PARENT
REMARK Flexibility Score: inf
ROOT
ATOM      1  C   UNL     1      -6.369   4.943  -5.826  1.00  0.00     0.000 C 
ENDROOT
BRANCH   1   2
ATOM      2  C   UNL     1      -7.794   5.374  -5.449  1.00  0.00     0.000 C 
BRANCH   2   3
ATOM      3  C   UNL     1      -8.131   5.108  -3.970  1.00  0.00     0.000 C 
BRANCH   3   4
ATOM      4  C   UNL     1      -7.391   3.902  -3.351  1.00  0.00     0.000 C 
BRANCH   4   5
ATOM      5  C   UNL     1      -8.247   2.628  -3.191  1.00  0.00     0.000 C 
BRANCH   5   6
ATOM      6  C   UNL     1      -9.384   2.505  -4.230  1.00  0.00     0.000 C 
BRANCH   6   7
ATOM      7  C   UNL     1      -9.596   1.045  -4.671  1.00  0.00     0.000 C 
BRANCH   7   8
ATOM      8  C   UNL     1      -9.075   0.761  -6.090  1.00  0.00     0.000 C 
BRANCH   8   9
ATOM      9  C   UNL     1      -8.486   1.983  -6.822  1.00  0.00     0.000 C 
BRANCH   9  10
ATOM     10  C   UNL     1      -6.999   1.806  -7.181  1.00  0.00     0.000 C 
BRANCH  10  11
ATOM     11  C   UNL     1      -6.697   2.113  -8.658  1.00  0.00     0.000 C 
BRANCH  11  12
ATOM     12  C   UNL     1      -6.353   0.887  -9.532  1.00  0.00     0.000 C 
BRANCH  12  13
ATOM     13  C   UNL     1      -5.176   0.032  -9.029  1.00  0.00     0.006 C 
BRANCH  13  14
ATOM     14  C   UNL     1      -5.642  -1.234  -8.292  1.00  0.00     0.053 C 
BRANCH  14  15
ATOM     15  C   UNL     1      -6.820  -1.842  -8.986  1.00  0.00     0.041 C 
ATOM     16  O   UNL     1      -6.681  -2.397 -10.108  1.00  0.00    -0.550 OA
ATOM     17  O   UNL     1      -8.084  -1.754  -8.418  1.00  0.00    -0.550 OA
ENDBRANCH  14  15
ENDBRANCH  13  14
ENDBRANCH  12  13
ENDBRANCH  11  12
ENDBRANCH  10  11
ENDBRANCH   9  10
ENDBRANCH   8   9
ENDBRANCH   7   8
ENDBRANCH   6   7
ENDBRANCH   5   6
ENDBRANCH   4   5
ENDBRANCH   3   4
ENDBRANCH   2   3
ENDBRANCH   1   2
BRANCH   1  18
ATOM     18  C   UNL     1      -5.611   6.075  -6.529  1.00  0.00     0.000 C 
BRANCH  18  19
ATOM     19  C   UNL     1      -6.498   6.737  -7.595  1.00  0.00     0.000 C 
BRANCH  19  20
ATOM     20  C   UNL     1      -6.214   8.247  -7.757  1.00  0.00     0.000 C 
BRANCH  20  21
ATOM     21  C   UNL     1      -6.242   9.025  -6.427  1.00  0.00     0.000 C 
BRANCH  21  22
ATOM     22  C   UNL     1      -7.384   8.633  -5.471  1.00  0.00     0.000 C 
BRANCH  22  23
ATOM     23  C   UNL     1      -7.938   9.786  -4.608  1.00  0.00     0.000 C 
BRANCH  23  24
ATOM     24  C   UNL     1      -9.243   9.464  -3.850  1.00  0.00    -0.000 C 
BRANCH  24  25
ATOM     25  C   UNL     1      -9.058   9.123  -2.358  1.00  0.00    -0.000 C 
BRANCH  25  26
ATOM     26  C   UNL     1      -7.601   9.268  -1.890  1.00  0.00    -0.000 C 
BRANCH  26  27
ATOM     27  C   UNL     1      -7.136   8.003  -1.150  1.00  0.00    -0.000 C 
BRANCH  27  28
ATOM     28  C   UNL     1      -7.844   7.803   0.205  1.00  0.00    -0.000 C 
BRANCH  28  29
ATOM     29  C   UNL     1      -6.916   7.841   1.435  1.00  0.00    -0.000 C 
BRANCH  29  30
ATOM     30  C   UNL     1      -6.054   9.113   1.500  1.00  0.00    -0.000 C 
BRANCH  30  31
ATOM     31  C   UNL     1      -6.492  10.018   2.660  1.00  0.00    -0.003 C 
ATOM     32  C   UNL     1      -7.378   9.262   3.647  1.00  0.00     0.004 C 
ENDBRANCH  30  31
ENDBRANCH  29  30
ENDBRANCH  28  29
ENDBRANCH  27  28
ENDBRANCH  26  27
ENDBRANCH  25  26
ENDBRANCH  24  25
ENDBRANCH  23  24
ENDBRANCH  22  23
ENDBRANCH  21  22
ENDBRANCH  20  21
ENDBRANCH  19  20
ENDBRANCH  18  19
ENDBRANCH   1  18
TORSDOF 28
ENDMDL
MODEL 6
REMARK VINA RESULT:    -2.539     13.084     17.576
REMARK INTER + INTRA:         -10.806
REMARK INTER:                  -7.528
REMARK INTRA:                  -3.278
REMARK UNBOUND:                -4.111
REMARK SMILES CCCCCCCCCCCCCCCCCCCCCCCCCCCCCC(=O)[O-]
REMARK SMILES IDX 16 1 17 2 18 3 19 4 20 5 21 6 22 7 23 8 24 9 25 10 26 11
REMARK SMILES IDX 27 12 28 13 29 14 30 15 31 16 32 17 15 18 14 19 13 20 12 21
REMARK SMILES IDX 11 22 10 23 9 24 8 25 7 26 6 27 5 28 4 29 3 30 2 31 1 32
REMARK H PARENT
REMARK Flexibility Score: inf
ROOT
ATOM      1  C   UNL     1       4.780   2.656  -5.256  1.00  0.00     0.000 C 
ENDROOT
BRANCH   1   2
ATOM      2  C   UNL     1       4.386   3.789  -6.215  1.00  0.00     0.000 C 
BRANCH   2   3
ATOM      3  C   UNL     1       4.838   5.178  -5.723  1.00  0.00     0.000 C 
BRANCH   3   4
ATOM      4  C   UNL     1       5.516   5.176  -4.335  1.00  0.00     0.000 C 
BRANCH   4   5
ATOM      5  C   UNL     1       6.825   5.987  -4.252  1.00  0.00     0.000 C 
BRANCH   5   6
ATOM      6  C   UNL     1       7.505   6.220  -5.620  1.00  0.00     0.000 C 
BRANCH   6   7
ATOM      7  C   UNL     1       7.366   7.682  -6.082  1.00  0.00     0.000 C 
BRANCH   7   8
ATOM      8  C   UNL     1       7.879   7.913  -7.514  1.00  0.00     0.000 C 
BRANCH   8   9
ATOM      9  C   UNL     1       8.463   6.666  -8.204  1.00  0.00     0.000 C 
BRANCH   9  10
ATOM     10  C   UNL     1       7.629   6.204  -9.413  1.00  0.00     0.000 C 
BRANCH  10  11
ATOM     11  C   UNL     1       6.447   5.299  -9.017  1.00  0.00     0.000 C 
BRANCH  11  12
ATOM     12  C   UNL     1       5.111   5.608  -9.728  1.00  0.00     0.000 C 
BRANCH  12  13
ATOM     13  C   UNL     1       4.675   7.083  -9.694  1.00  0.00     0.006 C 
BRANCH  13  14
ATOM     14  C   UNL     1       4.250   7.539  -8.289  1.00  0.00     0.053 C 
BRANCH  14  15
ATOM     15  C   UNL     1       2.809   7.942  -8.282  1.00  0.00     0.041 C 
ATOM     16  O   UNL     1       2.424   8.940  -8.947  1.00  0.00    -0.550 OA
ATOM     17  O   UNL     1       1.895   7.246  -7.501  1.00  0.00    -0.550 OA
ENDBRANCH  14  15
ENDBRANCH  13  14
ENDBRANCH  12  13
ENDBRANCH  11  12
ENDBRANCH  10  11
ENDBRANCH   9  10
ENDBRANCH   8   9
ENDBRANCH   7   8
ENDBRANCH   6   7
ENDBRANCH   5   6
ENDBRANCH   4   5
ENDBRANCH   3   4
ENDBRANCH   2   3
ENDBRANCH   1   2
BRANCH   1  18
ATOM     18  C   UNL     1       5.566   1.560  -5.984  1.00  0.00     0.000 C 
BRANCH  18  19
ATOM     19  C   UNL     1       6.361   2.153  -7.157  1.00  0.00     0.000 C 
BRANCH  19  20
ATOM     20  C   UNL     1       6.875   1.077  -8.138  1.00  0.00     0.000 C 
BRANCH  20  21
ATOM     21  C   UNL     1       8.412   1.024  -8.245  1.00  0.00     0.000 C 
BRANCH  21  22
ATOM     22  C   UNL     1       9.088  -0.032  -7.352  1.00  0.00     0.000 C 
BRANCH  22  23
ATOM     23  C   UNL     1       9.850  -1.139  -8.110  1.00  0.00     0.000 C 
BRANCH  23  24
ATOM     24  C   UNL     1       9.181  -1.612  -9.417  1.00  0.00    -0.000 C 
BRANCH  24  25
ATOM     25  C   UNL     1       9.651  -2.990  -9.923  1.00  0.00    -0.000 C 
BRANCH  25  26
ATOM     26  C   UNL     1       9.537  -4.088  -8.853  1.00  0.00    -0.000 C 
BRANCH  26  27
ATOM     27  C   UNL     1       8.573  -5.197  -9.306  1.00  0.00    -0.000 C 
BRANCH  27  28
ATOM     28  C   UNL     1       8.196  -6.168  -8.170  1.00  0.00    -0.000 C 
BRANCH  28  29
ATOM     29  C   UNL     1       9.227  -6.266  -7.028  1.00  0.00    -0.000 C 
BRANCH  29  30
ATOM     30  C   UNL     1       8.627  -6.806  -5.720  1.00  0.00    -0.000 C 
BRANCH  30  31
ATOM     31  C   UNL     1       7.616  -7.927  -5.997  1.00  0.00    -0.003 C 
ATOM     32  C   UNL     1       6.432  -7.855  -5.035  1.00  0.00     0.004 C 
ENDBRANCH  30  31
ENDBRANCH  29  30
ENDBRANCH  28  29
ENDBRANCH  27  28
ENDBRANCH  26  27
ENDBRANCH  25  26
ENDBRANCH  24  25
ENDBRANCH  23  24
ENDBRANCH  22  23
ENDBRANCH  21  22
ENDBRANCH  20  21
ENDBRANCH  19  20
ENDBRANCH  18  19
ENDBRANCH   1  18
TORSDOF 28
ENDMDL
MODEL 7
REMARK VINA RESULT:    -2.402      4.210      9.779
REMARK INTER + INTRA:         -10.446
REMARK INTER:                  -7.847
REMARK INTRA:                  -2.599
REMARK UNBOUND:                -4.111
REMARK SMILES CCCCCCCCCCCCCCCCCCCCCCCCCCCCCC(=O)[O-]
REMARK SMILES IDX 16 1 17 2 18 3 19 4 20 5 21 6 22 7 23 8 24 9 25 10 26 11
REMARK SMILES IDX 27 12 28 13 29 14 30 15 31 16 32 17 15 18 14 19 13 20 12 21
REMARK SMILES IDX 11 22 10 23 9 24 8 25 7 26 6 27 5 28 4 29 3 30 2 31 1 32
REMARK H PARENT
REMARK Flexibility Score: inf
ROOT
ATOM      1  C   UNL     1      -7.637   3.438  -4.357  1.00  0.00     0.000 C 
ENDROOT
BRANCH   1   2
ATOM      2  C   UNL     1      -8.614   2.291  -4.061  1.00  0.00     0.000 C 
BRANCH   2   3
ATOM      3  C   UNL     1      -9.785   2.717  -3.154  1.00  0.00     0.000 C 
BRANCH   3   4
ATOM      4  C   UNL     1     -10.012   4.243  -3.077  1.00  0.00     0.000 C 
BRANCH   4   5
ATOM      5  C   UNL     1      -9.777   4.865  -1.685  1.00  0.00     0.000 C 
BRANCH   5   6
ATOM      6  C   UNL     1      -8.617   5.885  -1.644  1.00  0.00     0.000 C 
BRANCH   6   7
ATOM      7  C   UNL     1      -8.653   6.836  -2.854  1.00  0.00     0.000 C 
BRANCH   7   8
ATOM      8  C   UNL     1      -7.319   6.891  -3.617  1.00  0.00     0.000 C 
BRANCH   8   9
ATOM      9  C   UNL     1      -7.281   7.895  -4.786  1.00  0.00     0.000 C 
BRANCH   9  10
ATOM     10  C   UNL     1      -6.909   7.237  -6.128  1.00  0.00     0.000 C 
BRANCH  10  11
ATOM     11  C   UNL     1      -8.034   6.355  -6.698  1.00  0.00     0.000 C 
BRANCH  11  12
ATOM     12  C   UNL     1      -7.566   5.096  -7.460  1.00  0.00     0.000 C 
BRANCH  12  13
ATOM     13  C   UNL     1      -6.591   5.358  -8.622  1.00  0.00     0.006 C 
BRANCH  13  14
ATOM     14  C   UNL     1      -7.118   6.412  -9.607  1.00  0.00     0.053 C 
BRANCH  14  15
ATOM     15  C   UNL     1      -6.179   7.575  -9.683  1.00  0.00     0.041 C 
ATOM     16  O   UNL     1      -6.577   8.686 -10.124  1.00  0.00    -0.550 OA
ATOM     17  O   UNL     1      -4.850   7.421  -9.313  1.00  0.00    -0.550 OA
ENDBRANCH  14  15
ENDBRANCH  13  14
ENDBRANCH  12  13
ENDBRANCH  11  12
ENDBRANCH  10  11
ENDBRANCH   9  10
ENDBRANCH   8   9
ENDBRANCH   7   8
ENDBRANCH   6   7
ENDBRANCH   5   6
ENDBRANCH   4   5
ENDBRANCH   3   4
ENDBRANCH   2   3
ENDBRANCH   1   2
BRANCH   1  18
ATOM     18  C   UNL     1      -6.282   2.906  -4.839  1.00  0.00     0.000 C 
BRANCH  18  19
ATOM     19  C   UNL     1      -6.427   1.478  -5.388  1.00  0.00     0.000 C 
BRANCH  19  20
ATOM     20  C   UNL     1      -6.853   1.446  -6.871  1.00  0.00     0.000 C 
BRANCH  20  21
ATOM     21  C   UNL     1      -6.531   0.114  -7.577  1.00  0.00     0.000 C 
BRANCH  21  22
ATOM     22  C   UNL     1      -7.666  -0.447  -8.452  1.00  0.00     0.000 C 
BRANCH  22  23
ATOM     23  C   UNL     1      -7.429  -1.872  -8.995  1.00  0.00     0.000 C 
BRANCH  23  24
ATOM     24  C   UNL     1      -8.607  -2.470  -9.792  1.00  0.00    -0.000 C 
BRANCH  24  25
ATOM     25  C   UNL     1      -8.655  -4.011  -9.818  1.00  0.00    -0.000 C 
BRANCH  25  26
ATOM     26  C   UNL     1     -10.017  -4.572  -9.379  1.00  0.00    -0.000 C 
BRANCH  26  27
ATOM     27  C   UNL     1     -10.062  -4.772  -7.855  1.00  0.00    -0.000 C 
BRANCH  27  28
ATOM     28  C   UNL     1      -8.661  -4.828  -7.214  1.00  0.00    -0.000 C 
BRANCH  28  29
ATOM     29  C   UNL     1      -8.207  -6.231  -6.765  1.00  0.00    -0.000 C 
BRANCH  29  30
ATOM     30  C   UNL     1      -8.679  -6.590  -5.346  1.00  0.00    -0.000 C 
BRANCH  30  31
ATOM     31  C   UNL     1      -8.913  -5.328  -4.505  1.00  0.00    -0.003 C 
ATOM     32  C   UNL     1      -9.435  -5.680  -3.113  1.00  0.00     0.004 C 
ENDBRANCH  30  31
ENDBRANCH  29  30
ENDBRANCH  28  29
ENDBRANCH  27  28
ENDBRANCH  26  27
ENDBRANCH  25  26
ENDBRANCH  24  25
ENDBRANCH  23  24
ENDBRANCH  22  23
ENDBRANCH  21  22
ENDBRANCH  20  21
ENDBRANCH  19  20
ENDBRANCH  18  19
ENDBRANCH   1  18
TORSDOF 28
ENDMDL
MODEL 8
REMARK VINA RESULT:    -2.273      2.470      4.760
REMARK INTER + INTRA:         -10.105
REMARK INTER:                  -6.921
REMARK INTRA:                  -3.184
REMARK UNBOUND:                -4.111
REMARK SMILES CCCCCCCCCCCCCCCCCCCCCCCCCCCCCC(=O)[O-]
REMARK SMILES IDX 16 1 17 2 18 3 19 4 20 5 21 6 22 7 23 8 24 9 25 10 26 11
REMARK SMILES IDX 27 12 28 13 29 14 30 15 31 16 32 17 15 18 14 19 13 20 12 21
REMARK SMILES IDX 11 22 10 23 9 24 8 25 7 26 6 27 5 28 4 29 3 30 2 31 1 32
REMARK H PARENT
REMARK Flexibility Score: inf
ROOT
ATOM      1  C   UNL     1      -9.110   5.291  -6.237  1.00  0.00     0.000 C 
ENDROOT
BRANCH   1   2
ATOM      2  C   UNL     1      -9.471   4.077  -7.106  1.00  0.00     0.000 C 
BRANCH   2   3
ATOM      3  C   UNL     1      -8.382   3.733  -8.141  1.00  0.00     0.000 C 
BRANCH   3   4
ATOM      4  C   UNL     1      -7.533   2.492  -7.788  1.00  0.00     0.000 C 
BRANCH   4   5
ATOM      5  C   UNL     1      -6.720   1.907  -8.961  1.00  0.00     0.000 C 
BRANCH   5   6
ATOM      6  C   UNL     1      -6.866   0.377  -9.122  1.00  0.00     0.000 C 
BRANCH   6   7
ATOM      7  C   UNL     1      -7.462  -0.273  -7.861  1.00  0.00     0.000 C 
BRANCH   7   8
ATOM      8  C   UNL     1      -8.970  -0.014  -7.703  1.00  0.00     0.000 C 
BRANCH   8   9
ATOM      9  C   UNL     1      -9.710  -1.019  -6.800  1.00  0.00     0.000 C 
BRANCH   9  10
ATOM     10  C   UNL     1      -9.834  -0.537  -5.343  1.00  0.00     0.000 C 
BRANCH  10  11
ATOM     11  C   UNL     1      -9.507   0.957  -5.174  1.00  0.00     0.000 C 
BRANCH  11  12
ATOM     12  C   UNL     1      -9.615   1.500  -3.732  1.00  0.00     0.000 C 
BRANCH  12  13
ATOM     13  C   UNL     1     -10.125   2.948  -3.613  1.00  0.00     0.006 C 
BRANCH  13  14
ATOM     14  C   UNL     1      -9.141   3.857  -2.860  1.00  0.00     0.053 C 
BRANCH  14  15
ATOM     15  C   UNL     1      -9.252   3.641  -1.383  1.00  0.00     0.041 C 
ATOM     16  O   UNL     1     -10.124   4.255  -0.713  1.00  0.00    -0.550 OA
ATOM     17  O   UNL     1      -8.360   2.797  -0.734  1.00  0.00    -0.550 OA
ENDBRANCH  14  15
ENDBRANCH  13  14
ENDBRANCH  12  13
ENDBRANCH  11  12
ENDBRANCH  10  11
ENDBRANCH   9  10
ENDBRANCH   8   9
ENDBRANCH   7   8
ENDBRANCH   6   7
ENDBRANCH   5   6
ENDBRANCH   4   5
ENDBRANCH   3   4
ENDBRANCH   2   3
ENDBRANCH   1   2
BRANCH   1  18
ATOM     18  C   UNL     1      -7.726   5.126  -5.598  1.00  0.00     0.000 C 
BRANCH  18  19
ATOM     19  C   UNL     1      -6.735   6.142  -6.185  1.00  0.00     0.000 C 
BRANCH  19  20
ATOM     20  C   UNL     1      -7.404   7.141  -7.154  1.00  0.00     0.000 C 
BRANCH  20  21
ATOM     21  C   UNL     1      -6.723   8.524  -7.180  1.00  0.00     0.000 C 
BRANCH  21  22
ATOM     22  C   UNL     1      -7.133   9.469  -6.036  1.00  0.00     0.000 C 
BRANCH  22  23
ATOM     23  C   UNL     1      -8.650   9.545  -5.763  1.00  0.00     0.000 C 
BRANCH  23  24
ATOM     24  C   UNL     1      -9.034  10.026  -4.348  1.00  0.00    -0.000 C 
BRANCH  24  25
ATOM     25  C   UNL     1      -8.263   9.343  -3.201  1.00  0.00    -0.000 C 
BRANCH  25  26
ATOM     26  C   UNL     1      -8.616   7.854  -3.051  1.00  0.00    -0.000 C 
BRANCH  26  27
ATOM     27  C   UNL     1      -8.219   7.335  -1.659  1.00  0.00    -0.000 C 
BRANCH  27  28
ATOM     28  C   UNL     1      -6.764   6.827  -1.597  1.00  0.00    -0.000 C 
BRANCH  28  29
ATOM     29  C   UNL     1      -6.037   7.098  -0.266  1.00  0.00    -0.000 C 
BRANCH  29  30
ATOM     30  C   UNL     1      -6.064   8.580   0.144  1.00  0.00    -0.000 C 
BRANCH  30  31
ATOM     31  C   UNL     1      -6.480   8.739   1.613  1.00  0.00    -0.003 C 
ATOM     32  C   UNL     1      -7.621   7.789   1.971  1.00  0.00     0.004 C 
ENDBRANCH  30  31
ENDBRANCH  29  30
ENDBRANCH  28  29
ENDBRANCH  27  28
ENDBRANCH  26  27
ENDBRANCH  25  26
ENDBRANCH  24  25
ENDBRANCH  23  24
ENDBRANCH  22  23
ENDBRANCH  21  22
ENDBRANCH  20  21
ENDBRANCH  19  20
ENDBRANCH  18  19
ENDBRANCH   1  18
TORSDOF 28
ENDMDL
MODEL 9
REMARK VINA RESULT:    -2.013      1.716      6.199
REMARK INTER + INTRA:          -9.419
REMARK INTER:                  -6.460
REMARK INTRA:                  -2.960
REMARK UNBOUND:                -4.111
REMARK SMILES CCCCCCCCCCCCCCCCCCCCCCCCCCCCCC(=O)[O-]
REMARK SMILES IDX 16 1 17 2 18 3 19 4 20 5 21 6 22 7 23 8 24 9 25 10 26 11
REMARK SMILES IDX 27 12 28 13 29 14 30 15 31 16 32 17 15 18 14 19 13 20 12 21
REMARK SMILES IDX 11 22 10 23 9 24 8 25 7 26 6 27 5 28 4 29 3 30 2 31 1 32
REMARK H PARENT
REMARK Flexibility Score: inf
ROOT
ATOM      1  C   UNL     1     -10.024   8.326  -1.299  1.00  0.00     0.000 C 
ENDROOT
BRANCH   1   2
ATOM      2  C   UNL     1      -8.915   9.166  -1.950  1.00  0.00     0.000 C 
BRANCH   2   3
ATOM      3  C   UNL     1      -8.893   9.045  -3.486  1.00  0.00     0.000 C 
BRANCH   3   4
ATOM      4  C   UNL     1     -10.093   9.708  -4.197  1.00  0.00     0.000 C 
BRANCH   4   5
ATOM      5  C   UNL     1     -10.033   9.674  -5.738  1.00  0.00     0.000 C 
BRANCH   5   6
ATOM      6  C   UNL     1      -9.261   8.463  -6.308  1.00  0.00     0.000 C 
BRANCH   6   7
ATOM      7  C   UNL     1      -8.482   8.833  -7.583  1.00  0.00     0.000 C 
BRANCH   7   8
ATOM      8  C   UNL     1      -8.346   7.661  -8.569  1.00  0.00     0.000 C 
BRANCH   8   9
ATOM      9  C   UNL     1      -7.425   6.519  -8.096  1.00  0.00     0.000 C 
BRANCH   9  10
ATOM     10  C   UNL     1      -6.778   5.749  -9.263  1.00  0.00     0.000 C 
BRANCH  10  11
ATOM     11  C   UNL     1      -7.502   4.430  -9.587  1.00  0.00     0.000 C 
BRANCH  11  12
ATOM     12  C   UNL     1      -8.720   4.106  -8.693  1.00  0.00     0.000 C 
BRANCH  12  13
ATOM     13  C   UNL     1      -8.472   3.047  -7.604  1.00  0.00     0.006 C 
BRANCH  13  14
ATOM     14  C   UNL     1      -7.039   2.494  -7.638  1.00  0.00     0.053 C 
BRANCH  14  15
ATOM     15  C   UNL     1      -6.999   1.105  -7.081  1.00  0.00     0.041 C 
ATOM     16  O   UNL     1      -8.055   0.554  -6.669  1.00  0.00    -0.550 OA
ATOM     17  O   UNL     1      -5.789   0.434  -6.970  1.00  0.00    -0.550 OA
ENDBRANCH  14  15
ENDBRANCH  13  14
ENDBRANCH  12  13
ENDBRANCH  11  12
ENDBRANCH  10  11
ENDBRANCH   9  10
ENDBRANCH   8   9
ENDBRANCH   7   8
ENDBRANCH   6   7
ENDBRANCH   5   6
ENDBRANCH   4   5
ENDBRANCH   3   4
ENDBRANCH   2   3
ENDBRANCH   1   2
BRANCH   1  18
ATOM     18  C   UNL     1     -10.124   8.606   0.206  1.00  0.00     0.000 C 
BRANCH  18  19
ATOM     19  C   UNL     1      -8.868   9.338   0.704  1.00  0.00     0.000 C 
BRANCH  19  20
ATOM     20  C   UNL     1      -8.479   8.948   2.146  1.00  0.00     0.000 C 
BRANCH  20  21
ATOM     21  C   UNL     1      -7.066   8.344   2.261  1.00  0.00     0.000 C 
BRANCH  21  22
ATOM     22  C   UNL     1      -5.981   9.076   1.449  1.00  0.00     0.000 C 
BRANCH  22  23
ATOM     23  C   UNL     1      -6.077   8.896  -0.081  1.00  0.00     0.000 C 
BRANCH  23  24
ATOM     24  C   UNL     1      -5.792   7.468  -0.588  1.00  0.00    -0.000 C 
BRANCH  24  25
ATOM     25  C   UNL     1      -6.999   6.511  -0.540  1.00  0.00    -0.000 C 
BRANCH  25  26
ATOM     26  C   UNL     1      -7.277   5.834  -1.892  1.00  0.00    -0.000 C 
BRANCH  26  27
ATOM     27  C   UNL     1      -6.447   6.484  -3.011  1.00  0.00    -0.000 C 
BRANCH  27  28
ATOM     28  C   UNL     1      -6.407   5.639  -4.300  1.00  0.00    -0.000 C 
BRANCH  28  29
ATOM     29  C   UNL     1      -7.630   4.726  -4.518  1.00  0.00    -0.000 C 
BRANCH  29  30
ATOM     30  C   UNL     1      -7.487   3.355  -3.837  1.00  0.00    -0.000 C 
BRANCH  30  31
ATOM     31  C   UNL     1      -8.766   2.980  -3.076  1.00  0.00    -0.003 C 
ATOM     32  C   UNL     1      -9.794   2.338  -4.007  1.00  0.00     0.004 C 
ENDBRANCH  30  31
ENDBRANCH  29  30
ENDBRANCH  28  29
ENDBRANCH  27  28
ENDBRANCH  26  27
ENDBRANCH  25  26
ENDBRANCH  24  25
ENDBRANCH  23  24
ENDBRANCH  22  23
ENDBRANCH  21  22
ENDBRANCH  20  21
ENDBRANCH  19  20
ENDBRANCH  18  19
ENDBRANCH   1  18
TORSDOF 28
ENDMDL
