MODEL 1
REMARK VINA RESULT:    28.469      0.000      0.000
REMARK INTER + INTRA:          34.372
REMARK INTER:                  34.294
REMARK INTRA:                   0.078
REMARK UNBOUND:                 0.078
REMARK SMILES O=c1c(O)c(-c2ccc(O)c(O)c2)oc2cc(O)cc(O)c12
REMARK SMILES IDX 5 1 3 2 2 3 1 4 22 5 20 6 19 7 17 8 16 9 15 10 14 11 6 12
REMARK SMILES IDX 7 13 8 14 9 15 13 16 11 17 10 18 12 20 4 22 21 24 18 26
REMARK H PARENT 10 19 12 21 4 23 21 25 18 27
REMARK Flexibility Score: inf
ROOT
ATOM      1  C   UNL     1     109.964 113.501 107.259  1.00  0.00     0.180 A 
ATOM      2  C   UNL     1     109.867 113.463 105.856  1.00  0.00     0.208 A 
ATOM      3  C   UNL     1     110.814 112.723 105.131  1.00  0.00     0.238 A 
ATOM      4  O   UNL     1     110.731 112.673 103.873  1.00  0.00    -0.285 OA
ATOM      5  C   UNL     1     111.849 112.054 105.815  1.00  0.00     0.111 A 
ATOM      6  C   UNL     1     112.845 111.291 105.159  1.00  0.00     0.134 A 
ATOM      7  C   UNL     1     113.848 110.663 105.912  1.00  0.00     0.093 A 
ATOM      8  C   UNL     1     113.876 110.782 107.303  1.00  0.00     0.123 A 
ATOM      9  C   UNL     1     112.895 111.534 107.957  1.00  0.00     0.094 A 
ATOM     10  C   UNL     1     111.886 112.166 107.225  1.00  0.00     0.146 A 
ATOM     11  O   UNL     1     110.962 112.870 107.871  1.00  0.00    -0.452 OA
ENDROOT
BRANCH   1  12
ATOM     12  C   UNL     1     108.992 114.243 108.095  1.00  0.00     0.025 A 
ATOM     13  C   UNL     1     108.655 115.563 107.754  1.00  0.00     0.016 A 
ATOM     14  C   UNL     1     107.756 116.290 108.539  1.00  0.00     0.051 A 
ATOM     15  C   UNL     1     107.194 115.712 109.684  1.00  0.00     0.157 A 
ATOM     16  C   UNL     1     108.441 113.675 109.258  1.00  0.00     0.062 A 
ATOM     17  C   UNL     1     107.540 114.405 110.047  1.00  0.00     0.158 A 
BRANCH  15  18
ATOM     18  O   UNL     1     106.295 116.433 110.470  1.00  0.00    -0.504 OA
ATOM     19  H   UNL     1     105.332 116.567 110.185  1.00  0.00     0.293 HD
ENDBRANCH  15  18
BRANCH  17  20
ATOM     20  O   UNL     1     106.989 113.838 111.195  1.00  0.00    -0.504 OA
ATOM     21  H   UNL     1     107.331 114.074 112.119  1.00  0.00     0.293 HD
ENDBRANCH  17  20
ENDBRANCH   1  12
BRANCH   2  22
ATOM     22  O   UNL     1     108.861 114.175 105.197  1.00  0.00    -0.502 OA
ATOM     23  H   UNL     1     108.886 115.182 105.096  1.00  0.00     0.293 HD
ENDBRANCH   2  22
BRANCH   6  24
ATOM     24  O   UNL     1     112.846 111.154 103.771  1.00  0.00    -0.507 OA
ATOM     25  H   UNL     1     113.118 111.916 103.159  1.00  0.00     0.293 HD
ENDBRANCH   6  24
BRANCH   8  26
ATOM     26  O   UNL     1     114.883 110.148 108.027  1.00  0.00    -0.508 OA
ATOM     27  H   UNL     1     115.158 110.471 108.947  1.00  0.00     0.293 HD
ENDBRANCH   8  26
TORSDOF 6
ENDMDL
MODEL 2
REMARK VINA RESULT:    28.534      2.386      7.293
REMARK INTER + INTRA:          34.450
REMARK INTER:                  34.366
REMARK INTRA:                   0.084
REMARK UNBOUND:                 0.078
REMARK SMILES O=c1c(O)c(-c2ccc(O)c(O)c2)oc2cc(O)cc(O)c12
REMARK SMILES IDX 5 1 3 2 2 3 1 4 22 5 20 6 19 7 17 8 16 9 15 10 14 11 6 12
REMARK SMILES IDX 7 13 8 14 9 15 13 16 11 17 10 18 12 20 4 22 21 24 18 26
REMARK H PARENT 10 19 12 21 4 23 21 25 18 27
REMARK Flexibility Score: inf
ROOT
ATOM      1  C   UNL     1     114.033 110.500 107.274  1.00  0.00     0.180 A 
ATOM      2  C   UNL     1     114.121 110.536 105.869  1.00  0.00     0.208 A 
ATOM      3  C   UNL     1     113.169 111.275 105.150  1.00  0.00     0.238 A 
ATOM      4  O   UNL     1     113.244 111.323 103.891  1.00  0.00    -0.285 OA
ATOM      5  C   UNL     1     112.139 111.946 105.840  1.00  0.00     0.111 A 
ATOM      6  C   UNL     1     111.139 112.708 105.190  1.00  0.00     0.134 A 
ATOM      7  C   UNL     1     110.142 113.339 105.949  1.00  0.00     0.093 A 
ATOM      8  C   UNL     1     110.124 113.222 107.341  1.00  0.00     0.123 A 
ATOM      9  C   UNL     1     111.109 112.470 107.989  1.00  0.00     0.094 A 
ATOM     10  C   UNL     1     112.113 111.836 107.251  1.00  0.00     0.146 A 
ATOM     11  O   UNL     1     113.040 111.132 107.891  1.00  0.00    -0.452 OA
ENDROOT
BRANCH   1  12
ATOM     12  C   UNL     1     115.011 109.758 108.104  1.00  0.00     0.025 A 
ATOM     13  C   UNL     1     115.351 108.440 107.757  1.00  0.00     0.016 A 
ATOM     14  C   UNL     1     116.255 107.714 108.537  1.00  0.00     0.051 A 
ATOM     15  C   UNL     1     116.819 108.289 109.682  1.00  0.00     0.157 A 
ATOM     16  C   UNL     1     115.563 110.324 109.267  1.00  0.00     0.062 A 
ATOM     17  C   UNL     1     116.470 109.594 110.050  1.00  0.00     0.158 A 
BRANCH  15  18
ATOM     18  O   UNL     1     117.723 107.569 110.462  1.00  0.00    -0.504 OA
ATOM     19  H   UNL     1     118.154 107.975 111.283  1.00  0.00     0.293 HD
ENDBRANCH  15  18
BRANCH  17  20
ATOM     20  O   UNL     1     117.022 110.159 111.198  1.00  0.00    -0.504 OA
ATOM     21  H   UNL     1     116.976 111.156 111.374  1.00  0.00     0.293 HD
ENDBRANCH  17  20
ENDBRANCH   1  12
BRANCH   2  22
ATOM     22  O   UNL     1     115.121 109.822 105.205  1.00  0.00    -0.502 OA
ATOM     23  H   UNL     1     115.226 108.819 105.297  1.00  0.00     0.293 HD
ENDBRANCH   2  22
BRANCH   6  24
ATOM     24  O   UNL     1     111.129 112.843 103.802  1.00  0.00    -0.507 OA
ATOM     25  H   UNL     1     110.936 113.732 103.353  1.00  0.00     0.293 HD
ENDBRANCH   6  24
BRANCH   8  26
ATOM     26  O   UNL     1     109.122 113.857 108.071  1.00  0.00    -0.508 OA
ATOM     27  H   UNL     1     108.440 114.458 107.624  1.00  0.00     0.293 HD
ENDBRANCH   8  26
TORSDOF 6
ENDMDL
MODEL 3
REMARK VINA RESULT:    29.014      2.739      5.030
REMARK INTER + INTRA:          35.028
REMARK INTER:                  34.896
REMARK INTRA:                   0.132
REMARK UNBOUND:                 0.078
REMARK SMILES O=c1c(O)c(-c2ccc(O)c(O)c2)oc2cc(O)cc(O)c12
REMARK SMILES IDX 5 1 3 2 2 3 1 4 22 5 20 6 19 7 17 8 16 9 15 10 14 11 6 12
REMARK SMILES IDX 7 13 8 14 9 15 13 16 11 17 10 18 12 20 4 22 21 24 18 26
REMARK H PARENT 10 19 12 21 4 23 21 25 18 27
REMARK Flexibility Score: inf
ROOT
ATOM      1  C   UNL     1     113.495 111.058 107.305  1.00  0.00     0.180 A 
ATOM      2  C   UNL     1     113.849 110.177 106.266  1.00  0.00     0.208 A 
ATOM      3  C   UNL     1     114.779 109.158 106.529  1.00  0.00     0.238 A 
ATOM      4  O   UNL     1     115.096 108.356 105.608  1.00  0.00    -0.285 OA
ATOM      5  C   UNL     1     115.352 109.051 107.812  1.00  0.00     0.111 A 
ATOM      6  C   UNL     1     116.299 108.058 108.157  1.00  0.00     0.134 A 
ATOM      7  C   UNL     1     116.830 108.024 109.455  1.00  0.00     0.093 A 
ATOM      8  C   UNL     1     116.436 108.962 110.412  1.00  0.00     0.123 A 
ATOM      9  C   UNL     1     115.500 109.946 110.077  1.00  0.00     0.094 A 
ATOM     10  C   UNL     1     114.957 109.996 108.790  1.00  0.00     0.146 A 
ATOM     11  O   UNL     1     114.067 110.937 108.499  1.00  0.00    -0.452 OA
ENDROOT
BRANCH   1  12
ATOM     12  C   UNL     1     112.507 112.145 107.111  1.00  0.00     0.025 A 
ATOM     13  C   UNL     1     112.691 113.371 107.772  1.00  0.00     0.016 A 
ATOM     14  C   UNL     1     111.761 114.403 107.621  1.00  0.00     0.051 A 
ATOM     15  C   UNL     1     110.627 114.218 106.821  1.00  0.00     0.157 A 
ATOM     16  C   UNL     1     111.355 111.957 106.326  1.00  0.00     0.062 A 
ATOM     17  C   UNL     1     110.421 112.992 106.176  1.00  0.00     0.158 A 
BRANCH  15  18
ATOM     18  O   UNL     1     109.697 115.246 106.665  1.00  0.00    -0.504 OA
ATOM     19  H   UNL     1     108.716 115.108 106.873  1.00  0.00     0.293 HD
ENDBRANCH  15  18
BRANCH  17  20
ATOM     20  O   UNL     1     109.284 112.807 105.391  1.00  0.00    -0.504 OA
ATOM     21  H   UNL     1     109.349 112.522 104.421  1.00  0.00     0.293 HD
ENDBRANCH  17  20
ENDBRANCH   1  12
BRANCH   2  22
ATOM     22  O   UNL     1     113.304 110.334 104.989  1.00  0.00    -0.502 OA
ATOM     23  H   UNL     1     112.785 109.597 104.526  1.00  0.00     0.293 HD
ENDBRANCH   2  22
BRANCH   6  24
ATOM     24  O   UNL     1     116.716 107.108 107.224  1.00  0.00    -0.507 OA
ATOM     25  H   UNL     1     116.721 107.303 106.230  1.00  0.00     0.293 HD
ENDBRANCH   6  24
BRANCH   8  26
ATOM     26  O   UNL     1     116.979 108.907 111.693  1.00  0.00    -0.508 OA
ATOM     27  H   UNL     1     117.971 108.766 111.843  1.00  0.00     0.293 HD
ENDBRANCH   8  26
TORSDOF 6
ENDMDL
MODEL 4
REMARK VINA RESULT:    29.044      1.446      6.756
REMARK INTER + INTRA:          35.065
REMARK INTER:                  34.933
REMARK INTRA:                   0.132
REMARK UNBOUND:                 0.078
REMARK SMILES O=c1c(O)c(-c2ccc(O)c(O)c2)oc2cc(O)cc(O)c12
REMARK SMILES IDX 5 1 3 2 2 3 1 4 22 5 20 6 19 7 17 8 16 9 15 10 14 11 6 12
REMARK SMILES IDX 7 13 8 14 9 15 13 16 11 17 10 18 12 20 4 22 21 24 18 26
REMARK H PARENT 10 19 12 21 4 23 21 25 18 27
REMARK Flexibility Score: inf
ROOT
ATOM      1  C   UNL     1     110.493 112.949 107.304  1.00  0.00     0.180 A 
ATOM      2  C   UNL     1     110.137 113.831 106.266  1.00  0.00     0.208 A 
ATOM      3  C   UNL     1     109.208 114.849 106.530  1.00  0.00     0.238 A 
ATOM      4  O   UNL     1     108.888 115.652 105.611  1.00  0.00    -0.285 OA
ATOM      5  C   UNL     1     108.637 114.957 107.815  1.00  0.00     0.111 A 
ATOM      6  C   UNL     1     107.691 115.951 108.162  1.00  0.00     0.134 A 
ATOM      7  C   UNL     1     107.163 115.985 109.462  1.00  0.00     0.093 A 
ATOM      8  C   UNL     1     107.560 115.048 110.418  1.00  0.00     0.123 A 
ATOM      9  C   UNL     1     108.494 114.063 110.081  1.00  0.00     0.094 A 
ATOM     10  C   UNL     1     109.034 114.013 108.792  1.00  0.00     0.146 A 
ATOM     11  O   UNL     1     109.924 113.071 108.499  1.00  0.00    -0.452 OA
ENDROOT
BRANCH   1  12
ATOM     12  C   UNL     1     111.480 111.863 107.108  1.00  0.00     0.025 A 
ATOM     13  C   UNL     1     111.293 110.634 107.764  1.00  0.00     0.016 A 
ATOM     14  C   UNL     1     112.222 109.602 107.611  1.00  0.00     0.051 A 
ATOM     15  C   UNL     1     113.358 109.788 106.814  1.00  0.00     0.157 A 
ATOM     16  C   UNL     1     112.634 112.052 106.327  1.00  0.00     0.062 A 
ATOM     17  C   UNL     1     113.567 111.017 106.175  1.00  0.00     0.158 A 
BRANCH  15  18
ATOM     18  O   UNL     1     114.287 108.760 106.657  1.00  0.00    -0.504 OA
ATOM     19  H   UNL     1     114.867 108.692 105.829  1.00  0.00     0.293 HD
ENDBRANCH  15  18
BRANCH  17  20
ATOM     20  O   UNL     1     114.707 111.203 105.394  1.00  0.00    -0.504 OA
ATOM     21  H   UNL     1     114.837 110.710 104.519  1.00  0.00     0.293 HD
ENDBRANCH  17  20
ENDBRANCH   1  12
BRANCH   2  22
ATOM     22  O   UNL     1     110.678 113.673 104.988  1.00  0.00    -0.502 OA
ATOM     23  H   UNL     1     111.512 114.163 104.687  1.00  0.00     0.293 HD
ENDBRANCH   2  22
BRANCH   6  24
ATOM     24  O   UNL     1     107.273 116.901 107.230  1.00  0.00    -0.507 OA
ATOM     25  H   UNL     1     107.023 117.844 107.504  1.00  0.00     0.293 HD
ENDBRANCH   6  24
BRANCH   8  26
ATOM     26  O   UNL     1     107.020 115.103 111.700  1.00  0.00    -0.508 OA
ATOM     27  H   UNL     1     106.100 115.491 111.872  1.00  0.00     0.293 HD
ENDBRANCH   8  26
TORSDOF 6
ENDMDL
