MODEL 1
REMARK VINA RESULT:    -2.138      0.000      0.000
REMARK INTER + INTRA:          -2.597
REMARK INTER:                  -2.450
REMARK INTRA:                  -0.146
REMARK UNBOUND:                -0.146
REMARK SMILES O=C([O-])C=Cc1ccc(O)cc1
REMARK SMILES IDX 6 1 7 2 12 3 8 4 11 5 9 6 5 7 4 8 2 9 1 10 3 11 10 12
REMARK H PARENT 10 13
REMARK Flexibility Score: inf
ROOT
ATOM      1  C   UNL     1      -8.760  21.961   9.264  1.00  0.00    -0.025 A 
ATOM      2  C   UNL     1      -8.064  20.749   9.414  1.00  0.00     0.012 A 
ATOM      3  C   UNL     1      -8.824  22.848  10.360  1.00  0.00     0.012 A 
ATOM      4  C   UNL     1      -7.426  20.438  10.619  1.00  0.00     0.047 A 
ATOM      5  C   UNL     1      -8.185  22.533  11.563  1.00  0.00     0.047 A 
ATOM      6  C   UNL     1      -7.484  21.332  11.696  1.00  0.00     0.115 A 
ENDROOT
BRANCH   1   7
ATOM      7  C   UNL     1      -9.429  22.239   7.970  1.00  0.00     0.010 C 
ATOM      8  C   UNL     1      -8.940  21.858   6.781  1.00  0.00     0.025 C 
BRANCH   8   9
ATOM      9  C   UNL     1      -9.638  22.142   5.516  1.00  0.00     0.064 C 
ATOM     10  O   UNL     1     -10.787  21.679   5.287  1.00  0.00    -0.545 OA
ATOM     11  O   UNL     1      -9.020  22.936   4.558  1.00  0.00    -0.545 OA
ENDBRANCH   8   9
ENDBRANCH   1   7
BRANCH   6  12
ATOM     12  O   UNL     1      -6.851  21.034  12.901  1.00  0.00    -0.508 OA
ATOM     13  H   UNL     1      -7.275  21.262  13.792  1.00  0.00     0.293 HD
ENDBRANCH   6  12
TORSDOF 3
ENDMDL
MODEL 2
REMARK VINA RESULT:    -1.992      0.112      1.402
REMARK INTER + INTRA:          -2.430
REMARK INTER:                  -2.290
REMARK INTRA:                  -0.140
REMARK UNBOUND:                -0.146
REMARK SMILES O=C([O-])C=Cc1ccc(O)cc1
REMARK SMILES IDX 6 1 7 2 12 3 8 4 11 5 9 6 5 7 4 8 2 9 1 10 3 11 10 12
REMARK H PARENT 10 13
REMARK Flexibility Score: inf
ROOT
ATOM      1  C   UNL     1      -8.729  21.885   9.338  1.00  0.00    -0.025 A 
ATOM      2  C   UNL     1      -8.748  22.830  10.378  1.00  0.00     0.012 A 
ATOM      3  C   UNL     1      -8.039  20.670   9.536  1.00  0.00     0.012 A 
ATOM      4  C   UNL     1      -8.116  22.562  11.596  1.00  0.00     0.047 A 
ATOM      5  C   UNL     1      -7.408  20.406  10.755  1.00  0.00     0.047 A 
ATOM      6  C   UNL     1      -7.446  21.347  11.788  1.00  0.00     0.115 A 
ENDROOT
BRANCH   1   7
ATOM      7  C   UNL     1      -9.405  22.222   8.061  1.00  0.00     0.010 C 
ATOM      8  C   UNL     1      -8.957  21.835   6.857  1.00  0.00     0.025 C 
BRANCH   8   9
ATOM      9  C   UNL     1      -9.661  22.179   5.610  1.00  0.00     0.064 C 
ATOM     10  O   UNL     1     -10.807  21.720   5.359  1.00  0.00    -0.545 OA
ATOM     11  O   UNL     1      -9.051  23.027   4.693  1.00  0.00    -0.545 OA
ENDBRANCH   8   9
ENDBRANCH   1   7
BRANCH   6  12
ATOM     12  O   UNL     1      -6.814  21.067  12.998  1.00  0.00    -0.508 OA
ATOM     13  H   UNL     1      -5.990  20.479  13.041  1.00  0.00     0.293 HD
ENDBRANCH   6  12
TORSDOF 3
ENDMDL
MODEL 3
REMARK VINA RESULT:    -1.199      1.028      5.663
REMARK INTER + INTRA:          -1.520
REMARK INTER:                  -1.369
REMARK INTRA:                  -0.151
REMARK UNBOUND:                -0.146
REMARK SMILES O=C([O-])C=Cc1ccc(O)cc1
REMARK SMILES IDX 6 1 7 2 12 3 8 4 11 5 9 6 5 7 4 8 2 9 1 10 3 11 10 12
REMARK H PARENT 10 13
REMARK Flexibility Score: inf
ROOT
ATOM      1  C   UNL     1      -9.039  22.101   8.312  1.00  0.00    -0.025 A 
ATOM      2  C   UNL     1      -8.331  21.363   7.348  1.00  0.00     0.012 A 
ATOM      3  C   UNL     1     -10.000  23.039   7.879  1.00  0.00     0.012 A 
ATOM      4  C   UNL     1      -8.591  21.537   5.986  1.00  0.00     0.047 A 
ATOM      5  C   UNL     1     -10.256  23.211   6.516  1.00  0.00     0.047 A 
ATOM      6  C   UNL     1      -9.557  22.461   5.567  1.00  0.00     0.115 A 
ENDROOT
BRANCH   1   7
ATOM      7  C   UNL     1      -8.718  21.888   9.746  1.00  0.00     0.010 C 
ATOM      8  C   UNL     1      -7.763  21.053  10.179  1.00  0.00     0.025 C 
BRANCH   8   9
ATOM      9  C   UNL     1      -7.464  20.876  11.610  1.00  0.00     0.064 C 
ATOM     10  O   UNL     1      -7.819  19.836  12.227  1.00  0.00    -0.545 OA
ATOM     11  O   UNL     1      -6.777  21.872  12.292  1.00  0.00    -0.545 OA
ENDBRANCH   8   9
ENDBRANCH   1   7
BRANCH   6  12
ATOM     12  O   UNL     1      -9.826  22.641   4.212  1.00  0.00    -0.508 OA
ATOM     13  H   UNL     1      -9.577  23.499   3.732  1.00  0.00     0.293 HD
ENDBRANCH   6  12
TORSDOF 3
ENDMDL
MODEL 4
REMARK VINA RESULT:    -1.017      1.034      5.827
REMARK INTER + INTRA:          -1.312
REMARK INTER:                  -1.173
REMARK INTRA:                  -0.138
REMARK UNBOUND:                -0.146
REMARK SMILES O=C([O-])C=Cc1ccc(O)cc1
REMARK SMILES IDX 6 1 7 2 12 3 8 4 11 5 9 6 5 7 4 8 2 9 1 10 3 11 10 12
REMARK H PARENT 10 13
REMARK Flexibility Score: inf
ROOT
ATOM      1  C   UNL     1      -8.969  22.029   8.319  1.00  0.00    -0.025 A 
ATOM      2  C   UNL     1      -9.954  22.962   7.950  1.00  0.00     0.012 A 
ATOM      3  C   UNL     1      -8.308  21.303   7.306  1.00  0.00     0.012 A 
ATOM      4  C   UNL     1     -10.255  23.184   6.603  1.00  0.00     0.047 A 
ATOM      5  C   UNL     1      -8.613  21.527   5.961  1.00  0.00     0.047 A 
ATOM      6  C   UNL     1      -9.583  22.468   5.605  1.00  0.00     0.115 A 
ENDROOT
BRANCH   1   7
ATOM      7  C   UNL     1      -8.693  21.821   9.762  1.00  0.00     0.010 C 
ATOM      8  C   UNL     1      -7.697  21.053  10.227  1.00  0.00     0.025 C 
BRANCH   8   9
ATOM      9  C   UNL     1      -7.446  20.879  11.668  1.00  0.00     0.064 C 
ATOM     10  O   UNL     1      -7.862  19.862  12.285  1.00  0.00    -0.545 OA
ATOM     11  O   UNL     1      -6.737  21.853  12.360  1.00  0.00    -0.545 OA
ENDBRANCH   8   9
ENDBRANCH   1   7
BRANCH   6  12
ATOM     12  O   UNL     1      -9.874  22.682   4.259  1.00  0.00    -0.508 OA
ATOM     13  H   UNL     1      -9.661  21.985   3.555  1.00  0.00     0.293 HD
ENDBRANCH   6  12
TORSDOF 3
ENDMDL
MODEL 5
REMARK VINA RESULT:     0.018      1.195      1.969
REMARK INTER + INTRA:          -0.126
REMARK INTER:                   0.026
REMARK INTRA:                  -0.152
REMARK UNBOUND:                -0.146
REMARK SMILES O=C([O-])C=Cc1ccc(O)cc1
REMARK SMILES IDX 6 1 7 2 12 3 8 4 11 5 9 6 5 7 4 8 2 9 1 10 3 11 10 12
REMARK H PARENT 10 13
REMARK Flexibility Score: inf
ROOT
ATOM      1  C   UNL     1      -8.536  21.627   9.843  1.00  0.00    -0.025 A 
ATOM      2  C   UNL     1      -8.250  22.700  10.705  1.00  0.00     0.012 A 
ATOM      3  C   UNL     1      -8.092  20.336  10.196  1.00  0.00     0.012 A 
ATOM      4  C   UNL     1      -7.560  22.488  11.902  1.00  0.00     0.047 A 
ATOM      5  C   UNL     1      -7.403  20.127  11.394  1.00  0.00     0.047 A 
ATOM      6  C   UNL     1      -7.137  21.199  12.251  1.00  0.00     0.115 A 
ENDROOT
BRANCH   1   7
ATOM      7  C   UNL     1      -9.261  21.906   8.579  1.00  0.00     0.010 C 
ATOM      8  C   UNL     1      -9.345  23.124   8.021  1.00  0.00     0.025 C 
BRANCH   8   9
ATOM      9  C   UNL     1     -10.064  23.361   6.759  1.00  0.00     0.064 C 
ATOM     10  O   UNL     1     -10.443  24.517   6.431  1.00  0.00    -0.545 OA
ATOM     11  O   UNL     1     -10.328  22.292   5.912  1.00  0.00    -0.545 OA
ENDBRANCH   8   9
ENDBRANCH   1   7
BRANCH   6  12
ATOM     12  O   UNL     1      -6.450  20.974  13.442  1.00  0.00    -0.508 OA
ATOM     13  H   UNL     1      -5.438  21.002  13.483  1.00  0.00     0.293 HD
ENDBRANCH   6  12
TORSDOF 3
ENDMDL
