MODEL 1
REMARK VINA RESULT:    -4.793      0.000      0.000
REMARK INTER + INTRA:         -11.421
REMARK INTER:                  -8.715
REMARK INTRA:                  -2.706
REMARK UNBOUND:                -2.706
REMARK SMILES CCCCCCCCCCCCCCCC(=O)[O-]
REMARK SMILES IDX 9 1 10 2 11 3 12 4 13 5 14 6 15 7 16 8 17 9 18 10 8 11 7 12
REMARK SMILES IDX 6 13 5 14 4 15 3 16 2 17 1 18
REMARK H PARENT
REMARK Flexibility Score: inf
ROOT
ATOM      1  C   UNL     1       1.226  54.885  20.774  1.00  0.00     0.000 C 
ENDROOT
BRANCH   1   2
ATOM      2  C   UNL     1      -0.059  54.056  20.628  1.00  0.00     0.000 C 
BRANCH   2   3
ATOM      3  C   UNL     1      -1.242  54.879  20.087  1.00  0.00     0.000 C 
BRANCH   3   4
ATOM      4  C   UNL     1      -2.321  54.065  19.344  1.00  0.00     0.000 C 
BRANCH   4   5
ATOM      5  C   UNL     1      -2.192  54.055  17.811  1.00  0.00     0.000 C 
BRANCH   5   6
ATOM      6  C   UNL     1      -2.210  52.638  17.219  1.00  0.00     0.006 C 
BRANCH   6   7
ATOM      7  C   UNL     1      -1.366  51.681  18.066  1.00  0.00     0.053 C 
BRANCH   7   8
ATOM      8  C   UNL     1      -1.976  50.316  18.080  1.00  0.00     0.041 C 
ATOM      9  O   UNL     1      -3.219  50.176  17.936  1.00  0.00    -0.550 OA
ATOM     10  O   UNL     1      -1.167  49.193  18.204  1.00  0.00    -0.550 OA
ENDBRANCH   7   8
ENDBRANCH   6   7
ENDBRANCH   5   6
ENDBRANCH   4   5
ENDBRANCH   3   4
ENDBRANCH   2   3
ENDBRANCH   1   2
BRANCH   1  11
ATOM     11  C   UNL     1       2.443  54.105  20.260  1.00  0.00     0.000 C 
BRANCH  11  12
ATOM     12  C   UNL     1       2.010  52.967  19.323  1.00  0.00    -0.000 C 
BRANCH  12  13
ATOM     13  C   UNL     1       2.570  53.129  17.900  1.00  0.00    -0.000 C 
BRANCH  13  14
ATOM     14  C   UNL     1       1.532  53.703  16.919  1.00  0.00    -0.000 C 
BRANCH  14  15
ATOM     15  C   UNL     1       1.798  55.177  16.572  1.00  0.00    -0.000 C 
BRANCH  15  16
ATOM     16  C   UNL     1       0.736  56.122  17.163  1.00  0.00    -0.000 C 
BRANCH  16  17
ATOM     17  C   UNL     1       1.357  57.305  17.919  1.00  0.00    -0.003 C 
ATOM     18  C   UNL     1       2.848  57.113  18.202  1.00  0.00     0.004 C 
ENDBRANCH  16  17
ENDBRANCH  15  16
ENDBRANCH  14  15
ENDBRANCH  13  14
ENDBRANCH  12  13
ENDBRANCH  11  12
ENDBRANCH   1  11
TORSDOF 14
ENDMDL
MODEL 2
REMARK VINA RESULT:    -4.631      2.727      3.448
REMARK INTER + INTRA:         -11.127
REMARK INTER:                  -8.608
REMARK INTRA:                  -2.519
REMARK UNBOUND:                -2.706
REMARK SMILES CCCCCCCCCCCCCCCC(=O)[O-]
REMARK SMILES IDX 9 1 10 2 11 3 12 4 13 5 14 6 15 7 16 8 17 9 18 10 8 11 7 12
REMARK SMILES IDX 6 13 5 14 4 15 3 16 2 17 1 18
REMARK H PARENT
REMARK Flexibility Score: inf
ROOT
ATOM      1  C   UNL     1       1.938  54.873  20.844  1.00  0.00     0.000 C 
ENDROOT
BRANCH   1   2
ATOM      2  C   UNL     1       0.448  54.813  20.479  1.00  0.00     0.000 C 
BRANCH   2   3
ATOM      3  C   UNL     1       0.000  55.992  19.599  1.00  0.00     0.000 C 
BRANCH   3   4
ATOM      4  C   UNL     1      -0.439  55.614  18.170  1.00  0.00     0.000 C 
BRANCH   4   5
ATOM      5  C   UNL     1      -1.298  54.341  18.066  1.00  0.00     0.000 C 
BRANCH   5   6
ATOM      6  C   UNL     1      -2.758  54.635  17.690  1.00  0.00     0.006 C 
BRANCH   6   7
ATOM      7  C   UNL     1      -3.076  56.124  17.857  1.00  0.00     0.053 C 
BRANCH   7   8
ATOM      8  C   UNL     1      -4.178  56.316  18.849  1.00  0.00     0.041 C 
ATOM      9  O   UNL     1      -4.270  55.557  19.850  1.00  0.00    -0.550 OA
ATOM     10  O   UNL     1      -5.077  57.365  18.696  1.00  0.00    -0.550 OA
ENDBRANCH   7   8
ENDBRANCH   6   7
ENDBRANCH   5   6
ENDBRANCH   4   5
ENDBRANCH   3   4
ENDBRANCH   2   3
ENDBRANCH   1   2
BRANCH   1  11
ATOM     11  C   UNL     1       2.700  53.687  20.240  1.00  0.00     0.000 C 
BRANCH  11  12
ATOM     12  C   UNL     1       1.735  52.708  19.551  1.00  0.00    -0.000 C 
BRANCH  12  13
ATOM     13  C   UNL     1       1.997  52.586  18.041  1.00  0.00    -0.000 C 
BRANCH  13  14
ATOM     14  C   UNL     1       3.055  53.586  17.542  1.00  0.00    -0.000 C 
BRANCH  14  15
ATOM     15  C   UNL     1       2.550  54.445  16.371  1.00  0.00    -0.000 C 
BRANCH  15  16
ATOM     16  C   UNL     1       2.807  55.947  16.587  1.00  0.00    -0.000 C 
BRANCH  16  17
ATOM     17  C   UNL     1       3.691  56.222  17.813  1.00  0.00    -0.003 C 
ATOM     18  C   UNL     1       3.274  57.481  18.574  1.00  0.00     0.004 C 
ENDBRANCH  16  17
ENDBRANCH  15  16
ENDBRANCH  14  15
ENDBRANCH  13  14
ENDBRANCH  12  13
ENDBRANCH  11  12
ENDBRANCH   1  11
TORSDOF 14
ENDMDL
MODEL 3
REMARK VINA RESULT:    -4.613      3.415      5.731
REMARK INTER + INTRA:         -11.095
REMARK INTER:                  -8.207
REMARK INTRA:                  -2.888
REMARK UNBOUND:                -2.706
REMARK SMILES CCCCCCCCCCCCCCCC(=O)[O-]
REMARK SMILES IDX 9 1 10 2 11 3 12 4 13 5 14 6 15 7 16 8 17 9 18 10 8 11 7 12
REMARK SMILES IDX 6 13 5 14 4 15 3 16 2 17 1 18
REMARK H PARENT
REMARK Flexibility Score: inf
ROOT
ATOM      1  C   UNL     1       2.830  53.745  20.159  1.00  0.00     0.000 C 
ENDROOT
BRANCH   1   2
ATOM      2  C   UNL     1       1.860  52.672  19.642  1.00  0.00     0.000 C 
BRANCH   2   3
ATOM      3  C   UNL     1       1.940  52.479  18.118  1.00  0.00     0.000 C 
BRANCH   3   4
ATOM      4  C   UNL     1       2.756  53.549  17.364  1.00  0.00     0.000 C 
BRANCH   4   5
ATOM      5  C   UNL     1       1.957  54.389  16.353  1.00  0.00     0.000 C 
BRANCH   5   6
ATOM      6  C   UNL     1       1.941  55.885  16.701  1.00  0.00     0.006 C 
BRANCH   6   7
ATOM      7  C   UNL     1       3.185  56.273  17.505  1.00  0.00     0.053 C 
BRANCH   7   8
ATOM      8  C   UNL     1       2.920  57.496  18.323  1.00  0.00     0.041 C 
ATOM      9  O   UNL     1       3.705  57.819  19.253  1.00  0.00    -0.550 OA
ATOM     10  O   UNL     1       1.832  58.308  18.028  1.00  0.00    -0.550 OA
ENDBRANCH   7   8
ENDBRANCH   6   7
ENDBRANCH   5   6
ENDBRANCH   4   5
ENDBRANCH   3   4
ENDBRANCH   2   3
ENDBRANCH   1   2
BRANCH   1  11
ATOM     11  C   UNL     1       2.065  54.938  20.747  1.00  0.00     0.000 C 
BRANCH  11  12
ATOM     12  C   UNL     1       0.548  54.726  20.638  1.00  0.00    -0.000 C 
BRANCH  12  13
ATOM     13  C   UNL     1      -0.141  55.809  19.793  1.00  0.00    -0.000 C 
BRANCH  13  14
ATOM     14  C   UNL     1      -1.509  55.356  19.252  1.00  0.00    -0.000 C 
BRANCH  14  15
ATOM     15  C   UNL     1      -1.389  54.500  17.981  1.00  0.00    -0.000 C 
BRANCH  15  16
ATOM     16  C   UNL     1      -1.712  53.017  18.236  1.00  0.00    -0.000 C 
BRANCH  16  17
ATOM     17  C   UNL     1      -2.482  52.800  19.547  1.00  0.00    -0.003 C 
ATOM     18  C   UNL     1      -1.774  51.834  20.499  1.00  0.00     0.004 C 
ENDBRANCH  16  17
ENDBRANCH  15  16
ENDBRANCH  14  15
ENDBRANCH  13  14
ENDBRANCH  12  13
ENDBRANCH  11  12
ENDBRANCH   1  11
TORSDOF 14
ENDMDL
MODEL 4
REMARK VINA RESULT:    -4.607      2.965      5.225
REMARK INTER + INTRA:         -11.083
REMARK INTER:                  -8.598
REMARK INTRA:                  -2.485
REMARK UNBOUND:                -2.706
REMARK SMILES CCCCCCCCCCCCCCCC(=O)[O-]
REMARK SMILES IDX 9 1 10 2 11 3 12 4 13 5 14 6 15 7 16 8 17 9 18 10 8 11 7 12
REMARK SMILES IDX 6 13 5 14 4 15 3 16 2 17 1 18
REMARK H PARENT
REMARK Flexibility Score: inf
ROOT
ATOM      1  C   UNL     1       1.905  54.754  20.587  1.00  0.00     0.000 C 
ENDROOT
BRANCH   1   2
ATOM      2  C   UNL     1       0.375  54.873  20.655  1.00  0.00     0.000 C 
BRANCH   2   3
ATOM      3  C   UNL     1      -0.178  55.987  19.750  1.00  0.00     0.000 C 
BRANCH   3   4
ATOM      4  C   UNL     1       0.824  56.558  18.727  1.00  0.00     0.000 C 
BRANCH   4   5
ATOM      5  C   UNL     1       0.523  56.218  17.256  1.00  0.00     0.000 C 
BRANCH   5   6
ATOM      6  C   UNL     1       1.794  55.997  16.423  1.00  0.00     0.006 C 
BRANCH   6   7
ATOM      7  C   UNL     1       3.034  55.939  17.319  1.00  0.00     0.053 C 
BRANCH   7   8
ATOM      8  C   UNL     1       4.036  54.976  16.767  1.00  0.00     0.041 C 
ATOM      9  O   UNL     1       4.605  54.148  17.527  1.00  0.00    -0.550 OA
ATOM     10  O   UNL     1       4.306  54.959  15.404  1.00  0.00    -0.550 OA
ENDBRANCH   7   8
ENDBRANCH   6   7
ENDBRANCH   5   6
ENDBRANCH   4   5
ENDBRANCH   3   4
ENDBRANCH   2   3
ENDBRANCH   1   2
BRANCH   1  11
ATOM     11  C   UNL     1       2.326  53.373  20.070  1.00  0.00     0.000 C 
BRANCH  11  12
ATOM     12  C   UNL     1       1.162  52.679  19.347  1.00  0.00    -0.000 C 
BRANCH  12  13
ATOM     13  C   UNL     1       1.393  52.562  17.831  1.00  0.00    -0.000 C 
BRANCH  13  14
ATOM     14  C   UNL     1       0.099  52.750  17.019  1.00  0.00    -0.000 C 
BRANCH  14  15
ATOM     15  C   UNL     1      -1.125  53.014  17.911  1.00  0.00    -0.000 C 
BRANCH  15  16
ATOM     16  C   UNL     1      -2.319  52.109  17.557  1.00  0.00    -0.000 C 
BRANCH  16  17
ATOM     17  C   UNL     1      -2.547  51.001  18.596  1.00  0.00    -0.003 C 
ATOM     18  C   UNL     1      -2.286  49.602  18.037  1.00  0.00     0.004 C 
ENDBRANCH  16  17
ENDBRANCH  15  16
ENDBRANCH  14  15
ENDBRANCH  13  14
ENDBRANCH  12  13
ENDBRANCH  11  12
ENDBRANCH   1  11
TORSDOF 14
ENDMDL
MODEL 5
REMARK VINA RESULT:    -4.588      3.343      5.704
REMARK INTER + INTRA:         -11.050
REMARK INTER:                  -8.602
REMARK INTRA:                  -2.448
REMARK UNBOUND:                -2.706
REMARK SMILES CCCCCCCCCCCCCCCC(=O)[O-]
REMARK SMILES IDX 9 1 10 2 11 3 12 4 13 5 14 6 15 7 16 8 17 9 18 10 8 11 7 12
REMARK SMILES IDX 6 13 5 14 4 15 3 16 2 17 1 18
REMARK H PARENT
REMARK Flexibility Score: inf
ROOT
ATOM      1  C   UNL     1       1.871  55.201  20.536  1.00  0.00     0.000 C 
ENDROOT
BRANCH   1   2
ATOM      2  C   UNL     1       2.744  53.956  20.321  1.00  0.00     0.000 C 
BRANCH   2   3
ATOM      3  C   UNL     1       2.126  52.957  19.328  1.00  0.00     0.000 C 
BRANCH   3   4
ATOM      4  C   UNL     1       2.690  53.024  17.895  1.00  0.00     0.000 C 
BRANCH   4   5
ATOM      5  C   UNL     1       1.726  53.592  16.839  1.00  0.00     0.000 C 
BRANCH   5   6
ATOM      6  C   UNL     1       2.322  54.775  16.062  1.00  0.00     0.006 C 
BRANCH   6   7
ATOM      7  C   UNL     1       3.003  55.765  17.010  1.00  0.00     0.053 C 
BRANCH   7   8
ATOM      8  C   UNL     1       4.453  55.903  16.671  1.00  0.00     0.041 C 
ATOM      9  O   UNL     1       4.944  55.255  15.709  1.00  0.00    -0.550 OA
ATOM     10  O   UNL     1       5.254  56.786  17.387  1.00  0.00    -0.550 OA
ENDBRANCH   7   8
ENDBRANCH   6   7
ENDBRANCH   5   6
ENDBRANCH   4   5
ENDBRANCH   3   4
ENDBRANCH   2   3
ENDBRANCH   1   2
BRANCH   1  11
ATOM     11  C   UNL     1       0.386  54.868  20.354  1.00  0.00     0.000 C 
BRANCH  11  12
ATOM     12  C   UNL     1      -0.358  56.026  19.671  1.00  0.00    -0.000 C 
BRANCH  12  13
ATOM     13  C   UNL     1      -0.679  55.733  18.196  1.00  0.00    -0.000 C 
BRANCH  13  14
ATOM     14  C   UNL     1      -2.176  55.465  17.959  1.00  0.00    -0.000 C 
BRANCH  14  15
ATOM     15  C   UNL     1      -2.593  54.042  18.365  1.00  0.00    -0.000 C 
BRANCH  15  16
ATOM     16  C   UNL     1      -2.078  52.974  17.384  1.00  0.00    -0.000 C 
BRANCH  16  17
ATOM     17  C   UNL     1      -1.249  51.885  18.082  1.00  0.00    -0.003 C 
ATOM     18  C   UNL     1      -1.500  51.823  19.589  1.00  0.00     0.004 C 
ENDBRANCH  16  17
ENDBRANCH  15  16
ENDBRANCH  14  15
ENDBRANCH  13  14
ENDBRANCH  12  13
ENDBRANCH  11  12
ENDBRANCH   1  11
TORSDOF 14
ENDMDL
MODEL 6
REMARK VINA RESULT:    -4.580      2.854      4.137
REMARK INTER + INTRA:         -11.035
REMARK INTER:                  -8.863
REMARK INTRA:                  -2.172
REMARK UNBOUND:                -2.706
REMARK SMILES CCCCCCCCCCCCCCCC(=O)[O-]
REMARK SMILES IDX 9 1 10 2 11 3 12 4 13 5 14 6 15 7 16 8 17 9 18 10 8 11 7 12
REMARK SMILES IDX 6 13 5 14 4 15 3 16 2 17 1 18
REMARK H PARENT
REMARK Flexibility Score: inf
ROOT
ATOM      1  C   UNL     1       0.848  52.500  18.926  1.00  0.00     0.000 C 
ENDROOT
BRANCH   1   2
ATOM      2  C   UNL     1       0.136  52.818  17.603  1.00  0.00     0.000 C 
BRANCH   2   3
ATOM      3  C   UNL     1      -1.332  52.359  17.589  1.00  0.00     0.000 C 
BRANCH   3   4
ATOM      4  C   UNL     1      -2.373  53.491  17.707  1.00  0.00     0.000 C 
BRANCH   4   5
ATOM      5  C   UNL     1      -2.592  54.032  19.131  1.00  0.00     0.000 C 
BRANCH   5   6
ATOM      6  C   UNL     1      -2.242  55.521  19.263  1.00  0.00     0.006 C 
BRANCH   6   7
ATOM      7  C   UNL     1      -2.302  56.221  17.902  1.00  0.00     0.053 C 
BRANCH   7   8
ATOM      8  C   UNL     1      -3.492  57.123  17.828  1.00  0.00     0.041 C 
ATOM      9  O   UNL     1      -4.467  56.951  18.606  1.00  0.00    -0.550 OA
ATOM     10  O   UNL     1      -3.504  58.187  16.933  1.00  0.00    -0.550 OA
ENDBRANCH   7   8
ENDBRANCH   6   7
ENDBRANCH   5   6
ENDBRANCH   4   5
ENDBRANCH   3   4
ENDBRANCH   2   3
ENDBRANCH   1   2
BRANCH   1  11
ATOM     11  C   UNL     1       2.369  52.457  18.735  1.00  0.00     0.000 C 
BRANCH  11  12
ATOM     12  C   UNL     1       3.073  53.406  19.716  1.00  0.00    -0.000 C 
BRANCH  12  13
ATOM     13  C   UNL     1       2.092  54.343  20.439  1.00  0.00    -0.000 C 
BRANCH  13  14
ATOM     14  C   UNL     1       2.246  55.811  20.003  1.00  0.00    -0.000 C 
BRANCH  14  15
ATOM     15  C   UNL     1       1.208  56.227  18.948  1.00  0.00    -0.000 C 
BRANCH  15  16
ATOM     16  C   UNL     1       1.858  56.698  17.635  1.00  0.00    -0.000 C 
BRANCH  16  17
ATOM     17  C   UNL     1       1.536  55.771  16.453  1.00  0.00    -0.003 C 
ATOM     18  C   UNL     1       2.782  55.112  15.859  1.00  0.00     0.004 C 
ENDBRANCH  16  17
ENDBRANCH  15  16
ENDBRANCH  14  15
ENDBRANCH  13  14
ENDBRANCH  12  13
ENDBRANCH  11  12
ENDBRANCH   1  11
TORSDOF 14
ENDMDL
MODEL 7
REMARK VINA RESULT:    -4.576      2.106      3.167
REMARK INTER + INTRA:         -11.027
REMARK INTER:                  -8.179
REMARK INTRA:                  -2.848
REMARK UNBOUND:                -2.706
REMARK SMILES CCCCCCCCCCCCCCCC(=O)[O-]
REMARK SMILES IDX 9 1 10 2 11 3 12 4 13 5 14 6 15 7 16 8 17 9 18 10 8 11 7 12
REMARK SMILES IDX 6 13 5 14 4 15 3 16 2 17 1 18
REMARK H PARENT
REMARK Flexibility Score: inf
ROOT
ATOM      1  C   UNL     1       1.746  52.877  19.718  1.00  0.00     0.000 C 
ENDROOT
BRANCH   1   2
ATOM      2  C   UNL     1       2.041  52.476  18.265  1.00  0.00     0.000 C 
BRANCH   2   3
ATOM      3  C   UNL     1       0.814  52.613  17.347  1.00  0.00     0.000 C 
BRANCH   3   4
ATOM      4  C   UNL     1      -0.546  52.361  18.028  1.00  0.00     0.000 C 
BRANCH   4   5
ATOM      5  C   UNL     1      -1.663  53.347  17.642  1.00  0.00     0.000 C 
BRANCH   5   6
ATOM      6  C   UNL     1      -2.617  53.653  18.806  1.00  0.00     0.006 C 
BRANCH   6   7
ATOM      7  C   UNL     1      -2.500  52.592  19.904  1.00  0.00     0.053 C 
BRANCH   7   8
ATOM      8  C   UNL     1      -2.762  53.195  21.247  1.00  0.00     0.041 C 
ATOM      9  O   UNL     1      -3.859  53.768  21.480  1.00  0.00    -0.550 OA
ATOM     10  O   UNL     1      -1.815  53.081  22.257  1.00  0.00    -0.550 OA
ENDBRANCH   7   8
ENDBRANCH   6   7
ENDBRANCH   5   6
ENDBRANCH   4   5
ENDBRANCH   3   4
ENDBRANCH   2   3
ENDBRANCH   1   2
BRANCH   1  11
ATOM     11  C   UNL     1       2.705  53.977  20.189  1.00  0.00     0.000 C 
BRANCH  11  12
ATOM     12  C   UNL     1       1.933  55.241  20.600  1.00  0.00    -0.000 C 
BRANCH  12  13
ATOM     13  C   UNL     1       0.432  55.147  20.277  1.00  0.00    -0.000 C 
BRANCH  13  14
ATOM     14  C   UNL     1      -0.039  56.266  19.331  1.00  0.00    -0.000 C 
BRANCH  14  15
ATOM     15  C   UNL     1       1.051  56.698  18.337  1.00  0.00    -0.000 C 
BRANCH  15  16
ATOM     16  C   UNL     1       0.791  56.176  16.913  1.00  0.00    -0.000 C 
BRANCH  16  17
ATOM     17  C   UNL     1       2.069  55.664  16.232  1.00  0.00    -0.003 C 
ATOM     18  C   UNL     1       3.321  55.874  17.084  1.00  0.00     0.004 C 
ENDBRANCH  16  17
ENDBRANCH  15  16
ENDBRANCH  14  15
ENDBRANCH  13  14
ENDBRANCH  12  13
ENDBRANCH  11  12
ENDBRANCH   1  11
TORSDOF 14
ENDMDL
MODEL 8
REMARK VINA RESULT:    -4.554      5.122      7.826
REMARK INTER + INTRA:         -10.987
REMARK INTER:                  -9.315
REMARK INTRA:                  -1.672
REMARK UNBOUND:                -2.706
REMARK SMILES CCCCCCCCCCCCCCCC(=O)[O-]
REMARK SMILES IDX 9 1 10 2 11 3 12 4 13 5 14 6 15 7 16 8 17 9 18 10 8 11 7 12
REMARK SMILES IDX 6 13 5 14 4 15 3 16 2 17 1 18
REMARK H PARENT
REMARK Flexibility Score: inf
ROOT
ATOM      1  C   UNL     1       1.071  56.280  17.285  1.00  0.00     0.000 C 
ENDROOT
BRANCH   1   2
ATOM      2  C   UNL     1       1.942  55.612  16.210  1.00  0.00     0.000 C 
BRANCH   2   3
ATOM      3  C   UNL     1       3.193  54.933  16.792  1.00  0.00     0.000 C 
BRANCH   3   4
ATOM      4  C   UNL     1       4.536  55.563  16.371  1.00  0.00     0.000 C 
BRANCH   4   5
ATOM      5  C   UNL     1       5.295  56.296  17.491  1.00  0.00     0.000 C 
BRANCH   5   6
ATOM      6  C   UNL     1       6.554  57.017  16.987  1.00  0.00     0.006 C 
BRANCH   6   7
ATOM      7  C   UNL     1       7.674  56.957  18.030  1.00  0.00     0.053 C 
BRANCH   7   8
ATOM      8  C   UNL     1       8.177  58.331  18.338  1.00  0.00     0.041 C 
ATOM      9  O   UNL     1       9.195  58.780  17.749  1.00  0.00    -0.550 OA
ATOM     10  O   UNL     1       7.492  59.136  19.242  1.00  0.00    -0.550 OA
ENDBRANCH   7   8
ENDBRANCH   6   7
ENDBRANCH   5   6
ENDBRANCH   4   5
ENDBRANCH   3   4
ENDBRANCH   2   3
ENDBRANCH   1   2
BRANCH   1  11
ATOM     11  C   UNL     1       1.831  56.397  18.612  1.00  0.00     0.000 C 
BRANCH  11  12
ATOM     12  C   UNL     1       1.080  55.675  19.741  1.00  0.00    -0.000 C 
BRANCH  12  13
ATOM     13  C   UNL     1       1.960  54.649  20.474  1.00  0.00    -0.000 C 
BRANCH  13  14
ATOM     14  C   UNL     1       1.955  53.270  19.789  1.00  0.00    -0.000 C 
BRANCH  14  15
ATOM     15  C   UNL     1       0.534  52.768  19.483  1.00  0.00    -0.000 C 
BRANCH  15  16
ATOM     16  C   UNL     1       0.295  52.556  17.978  1.00  0.00    -0.000 C 
BRANCH  16  17
ATOM     17  C   UNL     1      -1.011  53.202  17.493  1.00  0.00    -0.003 C 
ATOM     18  C   UNL     1      -2.190  52.229  17.492  1.00  0.00     0.004 C 
ENDBRANCH  16  17
ENDBRANCH  15  16
ENDBRANCH  14  15
ENDBRANCH  13  14
ENDBRANCH  12  13
ENDBRANCH  11  12
ENDBRANCH   1  11
TORSDOF 14
ENDMDL
MODEL 9
REMARK VINA RESULT:    -4.521      1.538      2.807
REMARK INTER + INTRA:         -10.928
REMARK INTER:                  -8.769
REMARK INTRA:                  -2.159
REMARK UNBOUND:                -2.706
REMARK SMILES CCCCCCCCCCCCCCCC(=O)[O-]
REMARK SMILES IDX 9 1 10 2 11 3 12 4 13 5 14 6 15 7 16 8 17 9 18 10 8 11 7 12
REMARK SMILES IDX 6 13 5 14 4 15 3 16 2 17 1 18
REMARK H PARENT
REMARK Flexibility Score: inf
ROOT
ATOM      1  C   UNL     1       2.294  55.692  19.773  1.00  0.00     0.000 C 
ENDROOT
BRANCH   1   2
ATOM      2  C   UNL     1       1.733  54.522  20.595  1.00  0.00     0.000 C 
BRANCH   2   3
ATOM      3  C   UNL     1       0.195  54.505  20.637  1.00  0.00     0.000 C 
BRANCH   3   4
ATOM      4  C   UNL     1      -0.466  53.294  19.949  1.00  0.00     0.000 C 
BRANCH   4   5
ATOM      5  C   UNL     1       0.005  53.022  18.510  1.00  0.00     0.000 C 
BRANCH   5   6
ATOM      6  C   UNL     1      -1.145  52.629  17.570  1.00  0.00     0.006 C 
BRANCH   6   7
ATOM      7  C   UNL     1      -2.312  52.025  18.356  1.00  0.00     0.053 C 
BRANCH   7   8
ATOM      8  C   UNL     1      -2.421  50.558  18.088  1.00  0.00     0.041 C 
ATOM      9  O   UNL     1      -3.540  50.041  17.834  1.00  0.00    -0.550 OA
ATOM     10  O   UNL     1      -1.278  49.767  18.071  1.00  0.00    -0.550 OA
ENDBRANCH   7   8
ENDBRANCH   6   7
ENDBRANCH   5   6
ENDBRANCH   4   5
ENDBRANCH   3   4
ENDBRANCH   2   3
ENDBRANCH   1   2
BRANCH   1  11
ATOM     11  C   UNL     1       3.077  55.183  18.557  1.00  0.00     0.000 C 
BRANCH  11  12
ATOM     12  C   UNL     1       2.751  56.015  17.306  1.00  0.00    -0.000 C 
BRANCH  12  13
ATOM     13  C   UNL     1       1.351  55.716  16.746  1.00  0.00    -0.000 C 
BRANCH  13  14
ATOM     14  C   UNL     1       0.394  56.915  16.879  1.00  0.00    -0.000 C 
BRANCH  14  15
ATOM     15  C   UNL     1      -0.828  56.602  17.757  1.00  0.00    -0.000 C 
BRANCH  15  16
ATOM     16  C   UNL     1      -2.145  57.094  17.132  1.00  0.00    -0.000 C 
BRANCH  16  17
ATOM     17  C   UNL     1      -3.379  56.641  17.927  1.00  0.00    -0.003 C 
ATOM     18  C   UNL     1      -3.025  55.731  19.104  1.00  0.00     0.004 C 
ENDBRANCH  16  17
ENDBRANCH  15  16
ENDBRANCH  14  15
ENDBRANCH  13  14
ENDBRANCH  12  13
ENDBRANCH  11  12
ENDBRANCH   1  11
TORSDOF 14
ENDMDL
