MODEL 1
REMARK VINA RESULT:    -6.510      0.000      0.000
REMARK INTER + INTRA:         -10.960
REMARK INTER:                  -9.365
REMARK INTRA:                  -1.595
REMARK UNBOUND:                -1.595
REMARK SMILES O=c1c(O[C@@H]2O[C@@H](CO)[C@@H](O)[C@H](O)[C@@H]2O)c(-c2ccc(O)cc2)oc2cc(O)cc(O)c12
REMARK SMILES IDX 4 1 3 2 16 3 24 4 2 5 25 6 1 7 32 8 26 9 30 10 27 11 29 12
REMARK SMILES IDX 17 13 18 14 19 15 20 16 23 17 22 18 21 19 31 21 28 23 5 25
REMARK SMILES IDX 14 26 6 27 12 28 7 29 10 30 15 31 13 33 8 35 9 36 11 38
REMARK H PARENT 21 20 31 22 28 24 15 32 13 34 9 37 11 39
REMARK Flexibility Score: inf
ROOT
ATOM      1  O   UNL     1     -14.152  38.419  -3.159  1.00  0.00    -0.454 OA
ENDROOT
BRANCH   1   2
ATOM      2  C   UNL     1     -14.984  38.033  -2.087  1.00  0.00     0.214 A 
ATOM      3  C   UNL     1     -14.720  36.809  -1.449  1.00  0.00     0.180 A 
ATOM      4  O   UNL     1     -15.420  36.445  -0.383  1.00  0.00    -0.452 OA
ATOM      5  C   UNL     1     -16.050  38.821  -1.602  1.00  0.00     0.239 A 
ATOM      6  C   UNL     1     -16.391  37.178   0.138  1.00  0.00     0.146 A 
ATOM      7  O   UNL     1     -16.395  39.845  -2.237  1.00  0.00    -0.285 OA
ATOM      8  C   UNL     1     -16.749  38.425  -0.434  1.00  0.00     0.111 A 
ATOM      9  C   UNL     1     -17.065  36.688   1.258  1.00  0.00     0.094 A 
ATOM     10  C   UNL     1     -17.794  39.178   0.185  1.00  0.00     0.134 A 
ATOM     11  C   UNL     1     -18.108  37.411   1.830  1.00  0.00     0.123 A 
ATOM     12  C   UNL     1     -18.471  38.644   1.289  1.00  0.00     0.093 A 
BRANCH   3  13
ATOM     13  C   UNL     1     -13.645  35.909  -1.914  1.00  0.00     0.021 A 
ATOM     14  C   UNL     1     -12.389  35.949  -1.292  1.00  0.00     0.016 A 
ATOM     15  C   UNL     1     -11.360  35.107  -1.724  1.00  0.00     0.047 A 
ATOM     16  C   UNL     1     -11.583  34.205  -2.775  1.00  0.00     0.115 A 
ATOM     17  C   UNL     1     -13.873  34.985  -2.948  1.00  0.00     0.016 A 
ATOM     18  C   UNL     1     -12.843  34.143  -3.379  1.00  0.00     0.047 A 
BRANCH  16  19
ATOM     19  O   UNL     1     -10.562  33.372  -3.223  1.00  0.00    -0.508 OA
ATOM     20  H   UNL     1      -9.776  33.734  -3.753  1.00  0.00     0.293 HD
ENDBRANCH  16  19
ENDBRANCH   3  13
BRANCH  10  21
ATOM     21  O   UNL     1     -18.195  40.454  -0.224  1.00  0.00    -0.507 OA
ATOM     22  H   UNL     1     -17.886  40.925  -1.061  1.00  0.00     0.293 HD
ENDBRANCH  10  21
BRANCH  11  23
ATOM     23  O   UNL     1     -18.773  36.897   2.940  1.00  0.00    -0.508 OA
ATOM     24  H   UNL     1     -18.317  36.265   3.586  1.00  0.00     0.293 HD
ENDBRANCH  11  23
ENDBRANCH   1   2
BRANCH   1  25
ATOM     25  C   UNL     1     -12.926  39.153  -3.057  1.00  0.00     0.339 C 
ATOM     26  C   UNL     1     -11.973  38.826  -4.234  1.00  0.00     0.214 C 
ATOM     27  O   UNL     1     -13.162  40.549  -2.942  1.00  0.00    -0.332 OA
ATOM     28  C   UNL     1     -12.388  39.520  -5.552  1.00  0.00     0.180 C 
ATOM     29  C   UNL     1     -13.786  41.062  -4.105  1.00  0.00     0.179 C 
ATOM     30  C   UNL     1     -12.822  40.983  -5.309  1.00  0.00     0.177 C 
BRANCH  26  31
ATOM     31  O   UNL     1     -11.889  37.438  -4.435  1.00  0.00    -0.384 OA
ATOM     32  H   UNL     1     -12.380  37.008  -3.686  1.00  0.00     0.211 HD
ENDBRANCH  26  31
BRANCH  28  33
ATOM     33  O   UNL     1     -13.378  38.797  -6.243  1.00  0.00    -0.387 OA
ATOM     34  H   UNL     1     -14.062  38.513  -5.591  1.00  0.00     0.211 HD
ENDBRANCH  28  33
BRANCH  29  35
ATOM     35  C   UNL     1     -14.216  42.512  -3.842  1.00  0.00     0.191 C 
BRANCH  35  36
ATOM     36  O   UNL     1     -14.245  43.235  -5.042  1.00  0.00    -0.394 OA
ATOM     37  H   UNL     1     -14.381  42.573  -5.768  1.00  0.00     0.210 HD
ENDBRANCH  35  36
ENDBRANCH  29  35
BRANCH  30  38
ATOM     38  O   UNL     1     -11.692  41.779  -5.057  1.00  0.00    -0.387 OA
ATOM     39  H   UNL     1     -11.420  41.604  -4.119  1.00  0.00     0.211 HD
ENDBRANCH  30  38
ENDBRANCH   1  25
TORSDOF 11
ENDMDL
MODEL 2
REMARK VINA RESULT:    -6.241      1.395      2.554
REMARK INTER + INTRA:         -10.572
REMARK INTER:                  -8.683
REMARK INTRA:                  -1.889
REMARK UNBOUND:                -1.595
REMARK SMILES O=c1c(O[C@@H]2O[C@@H](CO)[C@@H](O)[C@H](O)[C@@H]2O)c(-c2ccc(O)cc2)oc2cc(O)cc(O)c12
REMARK SMILES IDX 4 1 3 2 16 3 24 4 2 5 25 6 1 7 32 8 26 9 30 10 27 11 29 12
REMARK SMILES IDX 17 13 18 14 19 15 20 16 23 17 22 18 21 19 31 21 28 23 5 25
REMARK SMILES IDX 14 26 6 27 12 28 7 29 10 30 15 31 13 33 8 35 9 36 11 38
REMARK H PARENT 21 20 31 22 28 24 15 32 13 34 9 37 11 39
REMARK Flexibility Score: inf
ROOT
ATOM      1  O   UNL     1     -14.291  38.195  -1.890  1.00  0.00    -0.454 OA
ENDROOT
BRANCH   1   2
ATOM      2  C   UNL     1     -15.219  37.552  -1.044  1.00  0.00     0.214 A 
ATOM      3  C   UNL     1     -15.027  36.189  -0.761  1.00  0.00     0.180 A 
ATOM      4  O   UNL     1     -15.822  35.564   0.096  1.00  0.00    -0.452 OA
ATOM      5  C   UNL     1     -16.315  38.209  -0.443  1.00  0.00     0.239 A 
ATOM      6  C   UNL     1     -16.828  36.155   0.723  1.00  0.00     0.146 A 
ATOM      7  O   UNL     1     -16.591  39.382  -0.787  1.00  0.00    -0.285 OA
ATOM      8  C   UNL     1     -17.119  37.524   0.503  1.00  0.00     0.111 A 
ATOM      9  C   UNL     1     -17.603  35.393   1.599  1.00  0.00     0.094 A 
ATOM     10  C   UNL     1     -18.206  38.109   1.223  1.00  0.00     0.134 A 
ATOM     11  C   UNL     1     -18.685  35.962   2.265  1.00  0.00     0.123 A 
ATOM     12  C   UNL     1     -18.984  37.310   2.070  1.00  0.00     0.093 A 
BRANCH   3  13
ATOM     13  C   UNL     1     -13.925  35.419  -1.374  1.00  0.00     0.021 A 
ATOM     14  C   UNL     1     -12.640  35.484  -0.816  1.00  0.00     0.016 A 
ATOM     15  C   UNL     1     -11.586  34.765  -1.387  1.00  0.00     0.047 A 
ATOM     16  C   UNL     1     -11.810  33.961  -2.514  1.00  0.00     0.115 A 
ATOM     17  C   UNL     1     -14.152  34.592  -2.486  1.00  0.00     0.016 A 
ATOM     18  C   UNL     1     -13.097  33.873  -3.057  1.00  0.00     0.047 A 
BRANCH  16  19
ATOM     19  O   UNL     1     -10.766  33.252  -3.100  1.00  0.00    -0.508 OA
ATOM     20  H   UNL     1     -10.876  32.283  -3.383  1.00  0.00     0.293 HD
ENDBRANCH  16  19
ENDBRANCH   3  13
BRANCH  10  21
ATOM     21  O   UNL     1     -18.555  39.462   1.162  1.00  0.00    -0.507 OA
ATOM     22  H   UNL     1     -18.081  40.211   1.644  1.00  0.00     0.293 HD
ENDBRANCH  10  21
BRANCH  11  23
ATOM     23  O   UNL     1     -19.452  35.180   3.125  1.00  0.00    -0.508 OA
ATOM     24  H   UNL     1     -19.039  34.698   3.914  1.00  0.00     0.293 HD
ENDBRANCH  11  23
ENDBRANCH   1   2
BRANCH   1  25
ATOM     25  C   UNL     1     -14.428  38.392  -3.302  1.00  0.00     0.339 C 
ATOM     26  C   UNL     1     -14.380  39.897  -3.669  1.00  0.00     0.214 C 
ATOM     27  O   UNL     1     -13.467  37.641  -4.029  1.00  0.00    -0.332 OA
ATOM     28  C   UNL     1     -12.948  40.477  -3.632  1.00  0.00     0.180 C 
ATOM     29  C   UNL     1     -12.149  38.074  -3.738  1.00  0.00     0.179 C 
ATOM     30  C   UNL     1     -11.927  39.507  -4.268  1.00  0.00     0.177 C 
BRANCH  26  31
ATOM     31  O   UNL     1     -15.216  40.642  -2.821  1.00  0.00    -0.384 OA
ATOM     32  H   UNL     1     -15.939  40.032  -2.519  1.00  0.00     0.211 HD
ENDBRANCH  26  31
BRANCH  28  33
ATOM     33  O   UNL     1     -12.561  40.853  -2.332  1.00  0.00    -0.387 OA
ATOM     34  H   UNL     1     -13.312  40.661  -1.721  1.00  0.00     0.211 HD
ENDBRANCH  28  33
BRANCH  29  35
ATOM     35  C   UNL     1     -11.151  37.095  -4.371  1.00  0.00     0.191 C 
BRANCH  35  36
ATOM     36  O   UNL     1      -9.992  37.773  -4.770  1.00  0.00    -0.394 OA
ATOM     37  H   UNL     1      -9.235  37.339  -4.298  1.00  0.00     0.210 HD
ENDBRANCH  35  36
ENDBRANCH  29  35
BRANCH  30  38
ATOM     38  O   UNL     1     -12.069  39.516  -5.666  1.00  0.00    -0.387 OA
ATOM     39  H   UNL     1     -12.099  40.467  -5.946  1.00  0.00     0.211 HD
ENDBRANCH  30  38
ENDBRANCH   1  25
TORSDOF 11
ENDMDL
MODEL 3
REMARK VINA RESULT:    -5.902      1.989      5.159
REMARK INTER + INTRA:         -10.084
REMARK INTER:                  -8.212
REMARK INTRA:                  -1.872
REMARK UNBOUND:                -1.595
REMARK SMILES O=c1c(O[C@@H]2O[C@@H](CO)[C@@H](O)[C@H](O)[C@@H]2O)c(-c2ccc(O)cc2)oc2cc(O)cc(O)c12
REMARK SMILES IDX 4 1 3 2 16 3 24 4 2 5 25 6 1 7 32 8 26 9 30 10 27 11 29 12
REMARK SMILES IDX 17 13 18 14 19 15 20 16 23 17 22 18 21 19 31 21 28 23 5 25
REMARK SMILES IDX 14 26 6 27 12 28 7 29 10 30 15 31 13 33 8 35 9 36 11 38
REMARK H PARENT 21 20 31 22 28 24 15 32 13 34 9 37 11 39
REMARK Flexibility Score: inf
ROOT
ATOM      1  O   UNL     1     -13.613  35.547  -1.248  1.00  0.00    -0.454 OA
ENDROOT
BRANCH   1   2
ATOM      2  C   UNL     1     -14.584  36.359  -0.625  1.00  0.00     0.214 A 
ATOM      3  C   UNL     1     -14.889  37.599  -1.213  1.00  0.00     0.180 A 
ATOM      4  O   UNL     1     -15.855  38.357  -0.713  1.00  0.00    -0.452 OA
ATOM      5  C   UNL     1     -15.285  35.984   0.541  1.00  0.00     0.239 A 
ATOM      6  C   UNL     1     -16.574  38.019   0.346  1.00  0.00     0.146 A 
ATOM      7  O   UNL     1     -14.935  34.954   1.163  1.00  0.00    -0.285 OA
ATOM      8  C   UNL     1     -16.342  36.797   1.024  1.00  0.00     0.111 A 
ATOM      9  C   UNL     1     -17.560  38.903   0.788  1.00  0.00     0.094 A 
ATOM     10  C   UNL     1     -17.163  36.481   2.150  1.00  0.00     0.134 A 
ATOM     11  C   UNL     1     -18.328  38.605   1.910  1.00  0.00     0.123 A 
ATOM     12  C   UNL     1     -18.122  37.403   2.587  1.00  0.00     0.093 A 
BRANCH   3  13
ATOM     13  C   UNL     1     -14.179  38.081  -2.415  1.00  0.00     0.021 A 
ATOM     14  C   UNL     1     -14.647  37.723  -3.687  1.00  0.00     0.016 A 
ATOM     15  C   UNL     1     -13.983  38.168  -4.835  1.00  0.00     0.047 A 
ATOM     16  C   UNL     1     -12.852  38.989  -4.720  1.00  0.00     0.115 A 
ATOM     17  C   UNL     1     -13.062  38.926  -2.304  1.00  0.00     0.016 A 
ATOM     18  C   UNL     1     -12.399  39.371  -3.452  1.00  0.00     0.047 A 
BRANCH  16  19
ATOM     19  O   UNL     1     -12.175  39.427  -5.854  1.00  0.00    -0.508 OA
ATOM     20  H   UNL     1     -11.806  38.772  -6.537  1.00  0.00     0.293 HD
ENDBRANCH  16  19
ENDBRANCH   3  13
BRANCH  10  21
ATOM     21  O   UNL     1     -17.097  35.279   2.863  1.00  0.00    -0.507 OA
ATOM     22  H   UNL     1     -16.842  34.383   2.476  1.00  0.00     0.293 HD
ENDBRANCH  10  21
BRANCH  11  23
ATOM     23  O   UNL     1     -19.298  39.507   2.339  1.00  0.00    -0.508 OA
ATOM     24  H   UNL     1     -19.430  40.401   1.883  1.00  0.00     0.293 HD
ENDBRANCH  11  23
ENDBRANCH   1   2
BRANCH   1  25
ATOM     25  C   UNL     1     -12.242  35.414  -0.856  1.00  0.00     0.339 C 
ATOM     26  C   UNL     1     -11.884  33.939  -0.545  1.00  0.00     0.214 C 
ATOM     27  O   UNL     1     -11.367  35.977  -1.822  1.00  0.00    -0.332 OA
ATOM     28  C   UNL     1     -11.699  33.086  -1.821  1.00  0.00     0.180 C 
ATOM     29  C   UNL     1     -11.449  35.285  -3.056  1.00  0.00     0.179 C 
ATOM     30  C   UNL     1     -10.903  33.849  -2.903  1.00  0.00     0.177 C 
BRANCH  26  31
ATOM     31  O   UNL     1     -12.859  33.354   0.279  1.00  0.00    -0.384 OA
ATOM     32  H   UNL     1     -13.669  33.222  -0.280  1.00  0.00     0.211 HD
ENDBRANCH  26  31
BRANCH  28  33
ATOM     33  O   UNL     1     -12.925  32.611  -2.324  1.00  0.00    -0.387 OA
ATOM     34  H   UNL     1     -12.940  32.770  -3.297  1.00  0.00     0.211 HD
ENDBRANCH  28  33
BRANCH  29  35
ATOM     35  C   UNL     1     -10.659  36.063  -4.117  1.00  0.00     0.191 C 
BRANCH  35  36
ATOM     36  O   UNL     1      -9.917  35.180  -4.913  1.00  0.00    -0.394 OA
ATOM     37  H   UNL     1     -10.529  34.856  -5.623  1.00  0.00     0.210 HD
ENDBRANCH  35  36
ENDBRANCH  29  35
BRANCH  30  38
ATOM     38  O   UNL     1      -9.545  33.902  -2.545  1.00  0.00    -0.387 OA
ATOM     39  H   UNL     1      -9.248  34.839  -2.679  1.00  0.00     0.211 HD
ENDBRANCH  30  38
ENDBRANCH   1  25
TORSDOF 11
ENDMDL
MODEL 4
REMARK VINA RESULT:    -5.812      1.726      6.853
REMARK INTER + INTRA:          -9.955
REMARK INTER:                  -8.225
REMARK INTRA:                  -1.730
REMARK UNBOUND:                -1.595
REMARK SMILES O=c1c(O[C@@H]2O[C@@H](CO)[C@@H](O)[C@H](O)[C@@H]2O)c(-c2ccc(O)cc2)oc2cc(O)cc(O)c12
REMARK SMILES IDX 4 1 3 2 16 3 24 4 2 5 25 6 1 7 32 8 26 9 30 10 27 11 29 12
REMARK SMILES IDX 17 13 18 14 19 15 20 16 23 17 22 18 21 19 31 21 28 23 5 25
REMARK SMILES IDX 14 26 6 27 12 28 7 29 10 30 15 31 13 33 8 35 9 36 11 38
REMARK H PARENT 21 20 31 22 28 24 15 32 13 34 9 37 11 39
REMARK Flexibility Score: inf
ROOT
ATOM      1  O   UNL     1     -14.072  38.484  -3.033  1.00  0.00    -0.454 OA
ENDROOT
BRANCH   1   2
ATOM      2  C   UNL     1     -13.052  38.939  -3.894  1.00  0.00     0.214 A 
ATOM      3  C   UNL     1     -12.042  38.034  -4.264  1.00  0.00     0.180 A 
ATOM      4  O   UNL     1     -11.112  38.390  -5.139  1.00  0.00    -0.452 OA
ATOM      5  C   UNL     1     -13.005  40.245  -4.428  1.00  0.00     0.239 A 
ATOM      6  C   UNL     1     -11.061  39.586  -5.706  1.00  0.00     0.146 A 
ATOM      7  O   UNL     1     -13.808  41.110  -4.007  1.00  0.00    -0.285 OA
ATOM      8  C   UNL     1     -12.023  40.579  -5.395  1.00  0.00     0.111 A 
ATOM      9  C   UNL     1     -10.029  39.849  -6.608  1.00  0.00     0.094 A 
ATOM     10  C   UNL     1     -11.925  41.845  -6.053  1.00  0.00     0.134 A 
ATOM     11  C   UNL     1      -9.920  41.098  -7.213  1.00  0.00     0.123 A 
ATOM     12  C   UNL     1     -10.860  42.088  -6.929  1.00  0.00     0.093 A 
BRANCH   3  13
ATOM     13  C   UNL     1     -11.999  36.660  -3.725  1.00  0.00     0.021 A 
ATOM     14  C   UNL     1     -10.978  36.295  -2.836  1.00  0.00     0.016 A 
ATOM     15  C   UNL     1     -10.921  34.996  -2.321  1.00  0.00     0.047 A 
ATOM     16  C   UNL     1     -11.895  34.053  -2.680  1.00  0.00     0.115 A 
ATOM     17  C   UNL     1     -12.989  35.720  -4.061  1.00  0.00     0.016 A 
ATOM     18  C   UNL     1     -12.931  34.421  -3.545  1.00  0.00     0.047 A 
BRANCH  16  19
ATOM     19  O   UNL     1     -11.841  32.754  -2.185  1.00  0.00    -0.508 OA
ATOM     20  H   UNL     1     -12.506  32.045  -2.480  1.00  0.00     0.293 HD
ENDBRANCH  16  19
ENDBRANCH   3  13
BRANCH  10  21
ATOM     21  O   UNL     1     -12.848  42.885  -5.902  1.00  0.00    -0.507 OA
ATOM     22  H   UNL     1     -13.169  43.494  -6.640  1.00  0.00     0.293 HD
ENDBRANCH  10  21
BRANCH  11  23
ATOM     23  O   UNL     1      -8.875  41.343  -8.101  1.00  0.00    -0.508 OA
ATOM     24  H   UNL     1      -8.938  42.064  -8.808  1.00  0.00     0.293 HD
ENDBRANCH  11  23
ENDBRANCH   1   2
BRANCH   1  25
ATOM     25  C   UNL     1     -14.247  38.853  -1.659  1.00  0.00     0.339 C 
ATOM     26  C   UNL     1     -15.693  39.338  -1.385  1.00  0.00     0.214 C 
ATOM     27  O   UNL     1     -13.869  37.800  -0.785  1.00  0.00    -0.332 OA
ATOM     28  C   UNL     1     -16.709  38.175  -1.300  1.00  0.00     0.180 C 
ATOM     29  C   UNL     1     -14.702  36.666  -0.955  1.00  0.00     0.179 C 
ATOM     30  C   UNL     1     -16.141  36.985  -0.495  1.00  0.00     0.177 C 
BRANCH  26  31
ATOM     31  O   UNL     1     -16.104  40.256  -2.366  1.00  0.00    -0.384 OA
ATOM     32  H   UNL     1     -16.718  39.770  -2.976  1.00  0.00     0.211 HD
ENDBRANCH  26  31
BRANCH  28  33
ATOM     33  O   UNL     1     -17.159  37.770  -2.570  1.00  0.00    -0.387 OA
ATOM     34  H   UNL     1     -18.145  37.750  -2.554  1.00  0.00     0.211 HD
ENDBRANCH  28  33
BRANCH  29  35
ATOM     35  C   UNL     1     -14.118  35.494  -0.154  1.00  0.00     0.191 C 
BRANCH  35  36
ATOM     36  O   UNL     1     -15.146  34.667   0.315  1.00  0.00    -0.394 OA
ATOM     37  H   UNL     1     -14.947  34.481   1.269  1.00  0.00     0.210 HD
ENDBRANCH  35  36
ENDBRANCH  29  35
BRANCH  30  38
ATOM     38  O   UNL     1     -16.136  37.296   0.875  1.00  0.00    -0.387 OA
ATOM     39  H   UNL     1     -16.223  38.282   0.947  1.00  0.00     0.211 HD
ENDBRANCH  30  38
ENDBRANCH   1  25
TORSDOF 11
ENDMDL
MODEL 5
REMARK VINA RESULT:    -5.798      2.163      7.406
REMARK INTER + INTRA:          -9.935
REMARK INTER:                  -8.032
REMARK INTRA:                  -1.903
REMARK UNBOUND:                -1.595
REMARK SMILES O=c1c(O[C@@H]2O[C@@H](CO)[C@@H](O)[C@H](O)[C@@H]2O)c(-c2ccc(O)cc2)oc2cc(O)cc(O)c12
REMARK SMILES IDX 4 1 3 2 16 3 24 4 2 5 25 6 1 7 32 8 26 9 30 10 27 11 29 12
REMARK SMILES IDX 17 13 18 14 19 15 20 16 23 17 22 18 21 19 31 21 28 23 5 25
REMARK SMILES IDX 14 26 6 27 12 28 7 29 10 30 15 31 13 33 8 35 9 36 11 38
REMARK H PARENT 21 20 31 22 28 24 15 32 13 34 9 37 11 39
REMARK Flexibility Score: inf
ROOT
ATOM      1  O   UNL     1     -11.737  36.790  -3.432  1.00  0.00    -0.454 OA
ENDROOT
BRANCH   1   2
ATOM      2  C   UNL     1     -11.951  38.054  -4.021  1.00  0.00     0.214 A 
ATOM      3  C   UNL     1     -13.104  38.770  -3.658  1.00  0.00     0.180 A 
ATOM      4  O   UNL     1     -13.303  39.997  -4.118  1.00  0.00    -0.452 OA
ATOM      5  C   UNL     1     -11.055  38.653  -4.934  1.00  0.00     0.239 A 
ATOM      6  C   UNL     1     -12.463  40.617  -4.933  1.00  0.00     0.146 A 
ATOM      7  O   UNL     1     -10.096  37.982  -5.381  1.00  0.00    -0.285 OA
ATOM      8  C   UNL     1     -11.275  39.983  -5.372  1.00  0.00     0.111 A 
ATOM      9  C   UNL     1     -12.783  41.908  -5.359  1.00  0.00     0.094 A 
ATOM     10  C   UNL     1     -10.399  40.711  -6.237  1.00  0.00     0.134 A 
ATOM     11  C   UNL     1     -11.943  42.593  -6.232  1.00  0.00     0.123 A 
ATOM     12  C   UNL     1     -10.764  41.992  -6.671  1.00  0.00     0.093 A 
BRANCH   3  13
ATOM     13  C   UNL     1     -14.108  38.203  -2.735  1.00  0.00     0.021 A 
ATOM     14  C   UNL     1     -13.900  38.282  -1.350  1.00  0.00     0.016 A 
ATOM     15  C   UNL     1     -14.839  37.746  -0.464  1.00  0.00     0.047 A 
ATOM     16  C   UNL     1     -16.004  37.138  -0.955  1.00  0.00     0.115 A 
ATOM     17  C   UNL     1     -15.290  37.619  -3.222  1.00  0.00     0.016 A 
ATOM     18  C   UNL     1     -16.228  37.083  -2.334  1.00  0.00     0.047 A 
BRANCH  16  19
ATOM     19  O   UNL     1     -16.939  36.589  -0.082  1.00  0.00    -0.508 OA
ATOM     20  H   UNL     1     -17.241  37.083   0.752  1.00  0.00     0.293 HD
ENDBRANCH  16  19
ENDBRANCH   3  13
BRANCH  10  21
ATOM     21  O   UNL     1      -9.160  40.240  -6.683  1.00  0.00    -0.507 OA
ATOM     22  H   UNL     1      -8.655  39.459  -6.291  1.00  0.00     0.293 HD
ENDBRANCH  10  21
BRANCH  11  23
ATOM     23  O   UNL     1     -12.288  43.875  -6.654  1.00  0.00    -0.508 OA
ATOM     24  H   UNL     1     -13.254  44.154  -6.767  1.00  0.00     0.293 HD
ENDBRANCH  11  23
ENDBRANCH   1   2
BRANCH   1  25
ATOM     25  C   UNL     1     -12.066  35.521  -4.011  1.00  0.00     0.339 C 
ATOM     26  C   UNL     1     -10.826  34.593  -4.075  1.00  0.00     0.214 C 
ATOM     27  O   UNL     1     -13.151  34.905  -3.333  1.00  0.00    -0.332 OA
ATOM     28  C   UNL     1     -10.465  33.980  -2.702  1.00  0.00     0.180 C 
ATOM     29  C   UNL     1     -12.816  34.605  -1.990  1.00  0.00     0.179 C 
ATOM     30  C   UNL     1     -11.725  33.513  -1.941  1.00  0.00     0.177 C 
BRANCH  26  31
ATOM     31  O   UNL     1      -9.717  35.281  -4.594  1.00  0.00    -0.384 OA
ATOM     32  H   UNL     1      -8.939  34.667  -4.528  1.00  0.00     0.211 HD
ENDBRANCH  26  31
BRANCH  28  33
ATOM     33  O   UNL     1      -9.685  34.853  -1.920  1.00  0.00    -0.387 OA
ATOM     34  H   UNL     1      -8.748  34.781  -2.222  1.00  0.00     0.211 HD
ENDBRANCH  28  33
BRANCH  29  35
ATOM     35  C   UNL     1     -14.081  34.150  -1.250  1.00  0.00     0.191 C 
BRANCH  35  36
ATOM     36  O   UNL     1     -13.758  33.192  -0.280  1.00  0.00    -0.394 OA
ATOM     37  H   UNL     1     -12.874  32.820  -0.534  1.00  0.00     0.210 HD
ENDBRANCH  35  36
ENDBRANCH  29  35
BRANCH  30  38
ATOM     38  O   UNL     1     -12.220  32.332  -2.520  1.00  0.00    -0.387 OA
ATOM     39  H   UNL     1     -12.857  32.605  -3.230  1.00  0.00     0.211 HD
ENDBRANCH  30  38
ENDBRANCH   1  25
TORSDOF 11
ENDMDL
MODEL 6
REMARK VINA RESULT:    -5.777      2.358      4.320
REMARK INTER + INTRA:          -9.904
REMARK INTER:                  -8.053
REMARK INTRA:                  -1.851
REMARK UNBOUND:                -1.595
REMARK SMILES O=c1c(O[C@@H]2O[C@@H](CO)[C@@H](O)[C@H](O)[C@@H]2O)c(-c2ccc(O)cc2)oc2cc(O)cc(O)c12
REMARK SMILES IDX 4 1 3 2 16 3 24 4 2 5 25 6 1 7 32 8 26 9 30 10 27 11 29 12
REMARK SMILES IDX 17 13 18 14 19 15 20 16 23 17 22 18 21 19 31 21 28 23 5 25
REMARK SMILES IDX 14 26 6 27 12 28 7 29 10 30 15 31 13 33 8 35 9 36 11 38
REMARK H PARENT 21 20 31 22 28 24 15 32 13 34 9 37 11 39
REMARK Flexibility Score: inf
ROOT
ATOM      1  O   UNL     1     -13.024  36.961  -1.983  1.00  0.00    -0.454 OA
ENDROOT
BRANCH   1   2
ATOM      2  C   UNL     1     -14.143  37.280  -1.185  1.00  0.00     0.214 A 
ATOM      3  C   UNL     1     -14.196  36.764   0.121  1.00  0.00     0.180 A 
ATOM      4  O   UNL     1     -15.183  37.106   0.937  1.00  0.00    -0.452 OA
ATOM      5  C   UNL     1     -15.200  38.110  -1.617  1.00  0.00     0.239 A 
ATOM      6  C   UNL     1     -16.166  37.925   0.592  1.00  0.00     0.146 A 
ATOM      7  O   UNL     1     -15.250  38.466  -2.817  1.00  0.00    -0.285 OA
ATOM      8  C   UNL     1     -16.217  38.492  -0.706  1.00  0.00     0.111 A 
ATOM      9  C   UNL     1     -17.157  38.206   1.533  1.00  0.00     0.094 A 
ATOM     10  C   UNL     1     -17.293  39.382  -1.012  1.00  0.00     0.134 A 
ATOM     11  C   UNL     1     -18.222  39.043   1.212  1.00  0.00     0.123 A 
ATOM     12  C   UNL     1     -18.289  39.619  -0.056  1.00  0.00     0.093 A 
BRANCH   3  13
ATOM     13  C   UNL     1     -13.148  35.862   0.640  1.00  0.00     0.021 A 
ATOM     14  C   UNL     1     -13.341  34.473   0.588  1.00  0.00     0.016 A 
ATOM     15  C   UNL     1     -12.360  33.606   1.079  1.00  0.00     0.047 A 
ATOM     16  C   UNL     1     -11.170  34.120   1.615  1.00  0.00     0.115 A 
ATOM     17  C   UNL     1     -11.943  36.371   1.152  1.00  0.00     0.016 A 
ATOM     18  C   UNL     1     -10.963  35.503   1.643  1.00  0.00     0.047 A 
BRANCH  16  19
ATOM     19  O   UNL     1     -10.193  33.267   2.120  1.00  0.00    -0.508 OA
ATOM     20  H   UNL     1      -9.227  33.327   1.813  1.00  0.00     0.293 HD
ENDBRANCH  16  19
ENDBRANCH   3  13
BRANCH  10  21
ATOM     21  O   UNL     1     -17.426  40.072  -2.222  1.00  0.00    -0.507 OA
ATOM     22  H   UNL     1     -16.841  40.836  -2.528  1.00  0.00     0.293 HD
ENDBRANCH  10  21
BRANCH  11  23
ATOM     23  O   UNL     1     -19.205  39.301   2.163  1.00  0.00    -0.508 OA
ATOM     24  H   UNL     1     -19.932  38.627   2.371  1.00  0.00     0.293 HD
ENDBRANCH  11  23
ENDBRANCH   1   2
BRANCH   1  25
ATOM     25  C   UNL     1     -13.012  36.074  -3.108  1.00  0.00     0.339 C 
ATOM     26  C   UNL     1     -12.455  36.775  -4.373  1.00  0.00     0.214 C 
ATOM     27  O   UNL     1     -12.310  34.874  -2.818  1.00  0.00    -0.332 OA
ATOM     28  C   UNL     1     -10.916  36.919  -4.350  1.00  0.00     0.180 C 
ATOM     29  C   UNL     1     -10.942  35.130  -2.554  1.00  0.00     0.179 C 
ATOM     30  C   UNL     1     -10.235  35.632  -3.832  1.00  0.00     0.177 C 
BRANCH  26  31
ATOM     31  O   UNL     1     -13.047  38.038  -4.542  1.00  0.00    -0.384 OA
ATOM     32  H   UNL     1     -12.321  38.666  -4.794  1.00  0.00     0.211 HD
ENDBRANCH  26  31
BRANCH  28  33
ATOM     33  O   UNL     1     -10.500  38.050  -3.624  1.00  0.00    -0.387 OA
ATOM     34  H   UNL     1     -10.854  37.973  -2.706  1.00  0.00     0.211 HD
ENDBRANCH  28  33
BRANCH  29  35
ATOM     35  C   UNL     1     -10.285  33.843  -2.035  1.00  0.00     0.191 C 
BRANCH  35  36
ATOM     36  O   UNL     1     -10.627  32.759  -2.853  1.00  0.00    -0.394 OA
ATOM     37  H   UNL     1     -11.608  32.641  -2.771  1.00  0.00     0.210 HD
ENDBRANCH  35  36
ENDBRANCH  29  35
BRANCH  30  38
ATOM     38  O   UNL     1     -10.289  34.634  -4.820  1.00  0.00    -0.387 OA
ATOM     39  H   UNL     1     -11.248  34.492  -5.032  1.00  0.00     0.211 HD
ENDBRANCH  30  38
ENDBRANCH   1  25
TORSDOF 11
ENDMDL
MODEL 7
REMARK VINA RESULT:    -5.775      1.971      7.186
REMARK INTER + INTRA:          -9.901
REMARK INTER:                  -8.022
REMARK INTRA:                  -1.880
REMARK UNBOUND:                -1.595
REMARK SMILES O=c1c(O[C@@H]2O[C@@H](CO)[C@@H](O)[C@H](O)[C@@H]2O)c(-c2ccc(O)cc2)oc2cc(O)cc(O)c12
REMARK SMILES IDX 4 1 3 2 16 3 24 4 2 5 25 6 1 7 32 8 26 9 30 10 27 11 29 12
REMARK SMILES IDX 17 13 18 14 19 15 20 16 23 17 22 18 21 19 31 21 28 23 5 25
REMARK SMILES IDX 14 26 6 27 12 28 7 29 10 30 15 31 13 33 8 35 9 36 11 38
REMARK H PARENT 21 20 31 22 28 24 15 32 13 34 9 37 11 39
REMARK Flexibility Score: inf
ROOT
ATOM      1  O   UNL     1     -13.415  36.456  -1.597  1.00  0.00    -0.454 OA
ENDROOT
BRANCH   1   2
ATOM      2  C   UNL     1     -13.639  37.702  -2.219  1.00  0.00     0.214 A 
ATOM      3  C   UNL     1     -14.529  38.601  -1.607  1.00  0.00     0.180 A 
ATOM      4  O   UNL     1     -14.704  39.815  -2.108  1.00  0.00    -0.452 OA
ATOM      5  C   UNL     1     -12.997  38.107  -3.410  1.00  0.00     0.239 A 
ATOM      6  C   UNL     1     -14.082  40.256  -3.191  1.00  0.00     0.146 A 
ATOM      7  O   UNL     1     -12.311  37.277  -4.050  1.00  0.00    -0.285 OA
ATOM      8  C   UNL     1     -13.173  39.428  -3.894  1.00  0.00     0.111 A 
ATOM      9  C   UNL     1     -14.353  41.552  -3.631  1.00  0.00     0.094 A 
ATOM     10  C   UNL     1     -12.519  39.967  -5.046  1.00  0.00     0.134 A 
ATOM     11  C   UNL     1     -13.742  42.054  -4.776  1.00  0.00     0.123 A 
ATOM     12  C   UNL     1     -12.837  41.260  -5.479  1.00  0.00     0.093 A 
BRANCH   3  13
ATOM     13  C   UNL     1     -15.266  38.243  -0.378  1.00  0.00     0.021 A 
ATOM     14  C   UNL     1     -16.574  37.747  -0.473  1.00  0.00     0.016 A 
ATOM     15  C   UNL     1     -17.287  37.409   0.681  1.00  0.00     0.047 A 
ATOM     16  C   UNL     1     -16.691  37.550   1.943  1.00  0.00     0.115 A 
ATOM     17  C   UNL     1     -14.663  38.357   0.886  1.00  0.00     0.016 A 
ATOM     18  C   UNL     1     -15.377  38.018   2.040  1.00  0.00     0.047 A 
BRANCH  16  19
ATOM     19  O   UNL     1     -17.395  37.230   3.100  1.00  0.00    -0.508 OA
ATOM     20  H   UNL     1     -17.989  36.408   3.149  1.00  0.00     0.293 HD
ENDBRANCH  16  19
ENDBRANCH   3  13
BRANCH  10  21
ATOM     21  O   UNL     1     -11.543  39.292  -5.787  1.00  0.00    -0.507 OA
ATOM     22  H   UNL     1     -10.623  39.645  -6.002  1.00  0.00     0.293 HD
ENDBRANCH  10  21
BRANCH  11  23
ATOM     23  O   UNL     1     -14.036  43.347  -5.203  1.00  0.00    -0.508 OA
ATOM     24  H   UNL     1     -14.663  43.519  -5.979  1.00  0.00     0.293 HD
ENDBRANCH  11  23
ENDBRANCH   1   2
BRANCH   1  25
ATOM     25  C   UNL     1     -14.039  35.213  -1.942  1.00  0.00     0.339 C 
ATOM     26  C   UNL     1     -12.985  34.135  -2.303  1.00  0.00     0.214 C 
ATOM     27  O   UNL     1     -14.917  34.769  -0.919  1.00  0.00    -0.332 OA
ATOM     28  C   UNL     1     -12.281  33.545  -1.060  1.00  0.00     0.180 C 
ATOM     29  C   UNL     1     -14.214  34.491   0.279  1.00  0.00     0.179 C 
ATOM     30  C   UNL     1     -13.283  33.274   0.083  1.00  0.00     0.177 C 
BRANCH  26  31
ATOM     31  O   UNL     1     -12.027  34.655  -3.190  1.00  0.00    -0.384 OA
ATOM     32  H   UNL     1     -11.156  34.244  -2.947  1.00  0.00     0.211 HD
ENDBRANCH  26  31
BRANCH  28  33
ATOM     33  O   UNL     1     -11.209  34.348  -0.627  1.00  0.00    -0.387 OA
ATOM     34  H   UNL     1     -10.449  33.756  -0.414  1.00  0.00     0.211 HD
ENDBRANCH  28  33
BRANCH  29  35
ATOM     35  C   UNL     1     -15.226  34.232   1.403  1.00  0.00     0.191 C 
BRANCH  35  36
ATOM     36  O   UNL     1     -14.811  33.150   2.190  1.00  0.00    -0.394 OA
ATOM     37  H   UNL     1     -13.918  33.389   2.552  1.00  0.00     0.210 HD
ENDBRANCH  35  36
ENDBRANCH  29  35
BRANCH  30  38
ATOM     38  O   UNL     1     -14.055  32.139  -0.219  1.00  0.00    -0.387 OA
ATOM     39  H   UNL     1     -13.438  31.363  -0.220  1.00  0.00     0.211 HD
ENDBRANCH  30  38
ENDBRANCH   1  25
TORSDOF 11
ENDMDL
MODEL 8
REMARK VINA RESULT:    -5.705      2.719      7.964
REMARK INTER + INTRA:          -9.801
REMARK INTER:                  -8.332
REMARK INTRA:                  -1.469
REMARK UNBOUND:                -1.595
REMARK SMILES O=c1c(O[C@@H]2O[C@@H](CO)[C@@H](O)[C@H](O)[C@@H]2O)c(-c2ccc(O)cc2)oc2cc(O)cc(O)c12
REMARK SMILES IDX 4 1 3 2 16 3 24 4 2 5 25 6 1 7 32 8 26 9 30 10 27 11 29 12
REMARK SMILES IDX 17 13 18 14 19 15 20 16 23 17 22 18 21 19 31 21 28 23 5 25
REMARK SMILES IDX 14 26 6 27 12 28 7 29 10 30 15 31 13 33 8 35 9 36 11 38
REMARK H PARENT 21 20 31 22 28 24 15 32 13 34 9 37 11 39
REMARK Flexibility Score: inf
ROOT
ATOM      1  O   UNL     1     -14.351  35.933   0.166  1.00  0.00    -0.454 OA
ENDROOT
BRANCH   1   2
ATOM      2  C   UNL     1     -13.461  35.907  -0.929  1.00  0.00     0.214 A 
ATOM      3  C   UNL     1     -13.720  36.759  -2.016  1.00  0.00     0.180 A 
ATOM      4  O   UNL     1     -12.867  36.832  -3.028  1.00  0.00    -0.452 OA
ATOM      5  C   UNL     1     -12.310  35.091  -0.981  1.00  0.00     0.239 A 
ATOM      6  C   UNL     1     -11.748  36.126  -3.092  1.00  0.00     0.146 A 
ATOM      7  O   UNL     1     -12.132  34.224  -0.094  1.00  0.00    -0.285 OA
ATOM      8  C   UNL     1     -11.395  35.226  -2.056  1.00  0.00     0.111 A 
ATOM      9  C   UNL     1     -10.930  36.280  -4.212  1.00  0.00     0.094 A 
ATOM     10  C   UNL     1     -10.166  34.506  -2.175  1.00  0.00     0.134 A 
ATOM     11  C   UNL     1      -9.755  35.544  -4.338  1.00  0.00     0.123 A 
ATOM     12  C   UNL     1      -9.384  34.659  -3.326  1.00  0.00     0.093 A 
BRANCH   3  13
ATOM     13  C   UNL     1     -14.920  37.620  -2.056  1.00  0.00     0.021 A 
ATOM     14  C   UNL     1     -14.997  38.741  -1.217  1.00  0.00     0.016 A 
ATOM     15  C   UNL     1     -16.128  39.563  -1.240  1.00  0.00     0.047 A 
ATOM     16  C   UNL     1     -17.187  39.279  -2.114  1.00  0.00     0.115 A 
ATOM     17  C   UNL     1     -15.971  37.354  -2.950  1.00  0.00     0.016 A 
ATOM     18  C   UNL     1     -17.102  38.177  -2.972  1.00  0.00     0.047 A 
BRANCH  16  19
ATOM     19  O   UNL     1     -18.324  40.082  -2.136  1.00  0.00    -0.508 OA
ATOM     20  H   UNL     1     -18.419  40.884  -1.519  1.00  0.00     0.293 HD
ENDBRANCH  16  19
ENDBRANCH   3  13
BRANCH  10  21
ATOM     21  O   UNL     1      -9.657  33.647  -1.195  1.00  0.00    -0.507 OA
ATOM     22  H   UNL     1      -9.921  32.682  -1.069  1.00  0.00     0.293 HD
ENDBRANCH  10  21
BRANCH  11  23
ATOM     23  O   UNL     1      -8.960  35.706  -5.470  1.00  0.00    -0.508 OA
ATOM     24  H   UNL     1      -8.179  35.091  -5.661  1.00  0.00     0.293 HD
ENDBRANCH  11  23
ENDBRANCH   1   2
BRANCH   1  25
ATOM     25  C   UNL     1     -15.638  35.307   0.226  1.00  0.00     0.339 C 
ATOM     26  C   UNL     1     -15.615  34.058   1.143  1.00  0.00     0.214 C 
ATOM     27  O   UNL     1     -16.647  36.228   0.614  1.00  0.00    -0.332 OA
ATOM     28  C   UNL     1     -15.616  34.418   2.647  1.00  0.00     0.180 C 
ATOM     29  C   UNL     1     -16.427  36.709   1.928  1.00  0.00     0.179 C 
ATOM     30  C   UNL     1     -16.601  35.568   2.953  1.00  0.00     0.177 C 
BRANCH  26  31
ATOM     31  O   UNL     1     -14.506  33.247   0.850  1.00  0.00    -0.384 OA
ATOM     32  H   UNL     1     -13.987  33.153   1.690  1.00  0.00     0.211 HD
ENDBRANCH  26  31
BRANCH  28  33
ATOM     33  O   UNL     1     -14.323  34.706   3.123  1.00  0.00    -0.387 OA
ATOM     34  H   UNL     1     -14.076  35.610   2.814  1.00  0.00     0.211 HD
ENDBRANCH  28  33
BRANCH  29  35
ATOM     35  C   UNL     1     -17.409  37.854   2.210  1.00  0.00     0.191 C 
BRANCH  35  36
ATOM     36  O   UNL     1     -18.655  37.579   1.632  1.00  0.00    -0.394 OA
ATOM     37  H   UNL     1     -18.492  36.920   0.908  1.00  0.00     0.210 HD
ENDBRANCH  35  36
ENDBRANCH  29  35
BRANCH  30  38
ATOM     38  O   UNL     1     -17.921  35.090   2.901  1.00  0.00    -0.387 OA
ATOM     39  H   UNL     1     -18.467  35.687   3.475  1.00  0.00     0.211 HD
ENDBRANCH  30  38
ENDBRANCH   1  25
TORSDOF 11
ENDMDL
MODEL 9
REMARK VINA RESULT:    -5.664      1.494      6.152
REMARK INTER + INTRA:          -9.742
REMARK INTER:                  -8.102
REMARK INTRA:                  -1.640
REMARK UNBOUND:                -1.595
REMARK SMILES O=c1c(O[C@@H]2O[C@@H](CO)[C@@H](O)[C@H](O)[C@@H]2O)c(-c2ccc(O)cc2)oc2cc(O)cc(O)c12
REMARK SMILES IDX 4 1 3 2 16 3 24 4 2 5 25 6 1 7 32 8 26 9 30 10 27 11 29 12
REMARK SMILES IDX 17 13 18 14 19 15 20 16 23 17 22 18 21 19 31 21 28 23 5 25
REMARK SMILES IDX 14 26 6 27 12 28 7 29 10 30 15 31 13 33 8 35 9 36 11 38
REMARK H PARENT 21 20 31 22 28 24 15 32 13 34 9 37 11 39
REMARK Flexibility Score: inf
ROOT
ATOM      1  O   UNL     1     -13.807  37.689  -1.389  1.00  0.00    -0.454 OA
ENDROOT
BRANCH   1   2
ATOM      2  C   UNL     1     -13.321  38.553  -2.392  1.00  0.00     0.214 A 
ATOM      3  C   UNL     1     -12.373  38.051  -3.299  1.00  0.00     0.180 A 
ATOM      4  O   UNL     1     -11.952  38.798  -4.310  1.00  0.00    -0.452 OA
ATOM      5  C   UNL     1     -13.754  39.887  -2.551  1.00  0.00     0.239 A 
ATOM      6  C   UNL     1     -12.373  40.034  -4.529  1.00  0.00     0.146 A 
ATOM      7  O   UNL     1     -14.489  40.403  -1.676  1.00  0.00    -0.285 OA
ATOM      8  C   UNL     1     -13.319  40.644  -3.668  1.00  0.00     0.111 A 
ATOM      9  C   UNL     1     -11.852  40.729  -5.623  1.00  0.00     0.094 A 
ATOM     10  C   UNL     1     -13.747  41.975  -3.968  1.00  0.00     0.134 A 
ATOM     11  C   UNL     1     -12.245  42.038  -5.883  1.00  0.00     0.123 A 
ATOM     12  C   UNL     1     -13.181  42.655  -5.054  1.00  0.00     0.093 A 
BRANCH   3  13
ATOM     13  C   UNL     1     -11.842  36.677  -3.184  1.00  0.00     0.021 A 
ATOM     14  C   UNL     1     -12.421  35.644  -3.935  1.00  0.00     0.016 A 
ATOM     15  C   UNL     1     -11.933  34.338  -3.833  1.00  0.00     0.047 A 
ATOM     16  C   UNL     1     -10.851  34.055  -2.987  1.00  0.00     0.115 A 
ATOM     17  C   UNL     1     -10.741  36.395  -2.359  1.00  0.00     0.016 A 
ATOM     18  C   UNL     1     -10.253  35.088  -2.257  1.00  0.00     0.047 A 
BRANCH  16  19
ATOM     19  O   UNL     1     -10.366  32.756  -2.867  1.00  0.00    -0.508 OA
ATOM     20  H   UNL     1      -9.388  32.572  -2.664  1.00  0.00     0.293 HD
ENDBRANCH  16  19
ENDBRANCH   3  13
BRANCH  10  21
ATOM     21  O   UNL     1     -14.729  42.667  -3.252  1.00  0.00    -0.507 OA
ATOM     22  H   UNL     1     -14.809  43.671  -3.189  1.00  0.00     0.293 HD
ENDBRANCH  10  21
BRANCH  11  23
ATOM     23  O   UNL     1     -11.704  42.716  -6.972  1.00  0.00    -0.508 OA
ATOM     24  H   UNL     1     -11.089  43.511  -6.850  1.00  0.00     0.293 HD
ENDBRANCH  11  23
ENDBRANCH   1   2
BRANCH   1  25
ATOM     25  C   UNL     1     -14.935  36.812  -1.501  1.00  0.00     0.339 C 
ATOM     26  C   UNL     1     -14.798  35.593  -0.553  1.00  0.00     0.214 C 
ATOM     27  O   UNL     1     -16.157  37.505  -1.295  1.00  0.00    -0.332 OA
ATOM     28  C   UNL     1     -15.098  35.944   0.922  1.00  0.00     0.180 C 
ATOM     29  C   UNL     1     -16.240  38.021   0.022  1.00  0.00     0.179 C 
ATOM     30  C   UNL     1     -16.331  36.867   1.044  1.00  0.00     0.177 C 
BRANCH  26  31
ATOM     31  O   UNL     1     -13.516  35.027  -0.654  1.00  0.00    -0.384 OA
ATOM     32  H   UNL     1     -12.874  35.702  -0.310  1.00  0.00     0.211 HD
ENDBRANCH  26  31
BRANCH  28  33
ATOM     33  O   UNL     1     -13.979  36.491   1.576  1.00  0.00    -0.387 OA
ATOM     34  H   UNL     1     -14.265  36.804   2.466  1.00  0.00     0.211 HD
ENDBRANCH  28  33
BRANCH  29  35
ATOM     35  C   UNL     1     -17.466  38.939   0.121  1.00  0.00     0.191 C 
BRANCH  35  36
ATOM     36  O   UNL     1     -17.424  39.914  -0.885  1.00  0.00    -0.394 OA
ATOM     37  H   UNL     1     -16.957  40.699  -0.499  1.00  0.00     0.210 HD
ENDBRANCH  35  36
ENDBRANCH  29  35
BRANCH  30  38
ATOM     38  O   UNL     1     -17.504  36.128   0.812  1.00  0.00    -0.387 OA
ATOM     39  H   UNL     1     -17.875  35.890   1.700  1.00  0.00     0.211 HD
ENDBRANCH  30  38
ENDBRANCH   1  25
TORSDOF 11
ENDMDL
