MODEL 1
REMARK VINA RESULT:    36.703      0.000      0.000
REMARK INTER + INTRA:          43.888
REMARK INTER:                  44.213
REMARK INTRA:                  -0.325
REMARK UNBOUND:                -0.325
REMARK SMILES O=c1c(O)c(-c2ccc(O)c(O)c2)oc2cc(O)cc(O)c12
REMARK SMILES IDX 5 1 3 2 2 3 1 4 22 5 20 6 19 7 17 8 16 9 15 10 14 11 6 12
REMARK SMILES IDX 7 13 8 14 9 15 13 16 11 17 10 18 12 20 4 22 21 24 18 26
REMARK H PARENT 10 19 12 21 4 23 21 25 18 27
REMARK Flexibility Score: inf
ROOT
ATOM      1  C   UNL     1      10.875   1.769  18.763  1.00  0.00     0.180 A 
ATOM      2  C   UNL     1       9.927   0.740  18.892  1.00  0.00     0.208 A 
ATOM      3  C   UNL     1       9.582  -0.016  17.760  1.00  0.00     0.238 A 
ATOM      4  O   UNL     1       8.692  -0.899  17.871  1.00  0.00    -0.285 OA
ATOM      5  C   UNL     1      10.202   0.256  16.517  1.00  0.00     0.111 A 
ATOM      6  C   UNL     1       9.958  -0.473  15.314  1.00  0.00     0.134 A 
ATOM      7  C   UNL     1      10.530  -0.033  14.113  1.00  0.00     0.093 A 
ATOM      8  C   UNL     1      11.388   1.070  14.084  1.00  0.00     0.123 A 
ATOM      9  C   UNL     1      11.678   1.750  15.263  1.00  0.00     0.094 A 
ATOM     10  C   UNL     1      11.094   1.358  16.470  1.00  0.00     0.146 A 
ATOM     11  O   UNL     1      11.390   2.043  17.570  1.00  0.00    -0.452 OA
ENDROOT
BRANCH   1  12
ATOM     12  C   UNL     1      11.308   2.591  19.915  1.00  0.00     0.025 A 
ATOM     13  C   UNL     1      12.312   2.148  20.794  1.00  0.00     0.016 A 
ATOM     14  C   UNL     1      12.721   2.952  21.862  1.00  0.00     0.051 A 
ATOM     15  C   UNL     1      12.145   4.214  22.058  1.00  0.00     0.157 A 
ATOM     16  C   UNL     1      10.749   3.866  20.105  1.00  0.00     0.062 A 
ATOM     17  C   UNL     1      11.156   4.674  21.173  1.00  0.00     0.158 A 
BRANCH  15  18
ATOM     18  O   UNL     1      12.555   5.012  23.125  1.00  0.00    -0.504 OA
ATOM     19  H   UNL     1      12.551   4.668  24.078  1.00  0.00     0.293 HD
ENDBRANCH  15  18
BRANCH  17  20
ATOM     20  O   UNL     1      10.568   5.927  21.336  1.00  0.00    -0.504 OA
ATOM     21  H   UNL     1       9.738   6.062  21.901  1.00  0.00     0.293 HD
ENDBRANCH  17  20
ENDBRANCH   1  12
BRANCH   2  22
ATOM     22  O   UNL     1       9.310   0.503  20.124  1.00  0.00    -0.502 OA
ATOM     23  H   UNL     1       8.679  -0.274  20.276  1.00  0.00     0.293 HD
ENDBRANCH   2  22
BRANCH   6  24
ATOM     24  O   UNL     1       9.193  -1.640  15.250  1.00  0.00    -0.507 OA
ATOM     25  H   UNL     1       9.539  -2.538  14.945  1.00  0.00     0.293 HD
ENDBRANCH   6  24
BRANCH   8  26
ATOM     26  O   UNL     1      11.965   1.490  12.887  1.00  0.00    -0.508 OA
ATOM     27  H   UNL     1      12.440   2.382  12.813  1.00  0.00     0.293 HD
ENDBRANCH   8  26
TORSDOF 6
ENDMDL
