MODEL 1
REMARK VINA RESULT:    -6.380      0.000      0.000
REMARK INTER + INTRA:          -7.560
REMARK INTER:                  -7.686
REMARK INTRA:                   0.126
REMARK UNBOUND:                 0.126
REMARK SMILES O=c1c(O)c(-c2ccc(O)c(O)c2)oc2cc(O)cc(O)c12
REMARK SMILES IDX 5 1 3 2 2 3 1 4 22 5 20 6 19 7 17 8 16 9 15 10 14 11 6 12
REMARK SMILES IDX 7 13 8 14 9 15 13 16 11 17 10 18 12 20 4 22 21 24 18 26
REMARK H PARENT 10 19 12 21 4 23 21 25 18 27
REMARK Flexibility Score: inf
ROOT
ATOM      1  C   UNL     1     307.775 225.887 204.707  1.00  0.00     0.180 A 
ATOM      2  C   UNL     1     307.141 226.235 205.912  1.00  0.00     0.208 A 
ATOM      3  C   UNL     1     306.646 227.539 206.069  1.00  0.00     0.238 A 
ATOM      4  O   UNL     1     306.014 227.822 207.119  1.00  0.00    -0.285 OA
ATOM      5  C   UNL     1     306.841 228.495 205.042  1.00  0.00     0.111 A 
ATOM      6  C   UNL     1     306.421 229.858 205.112  1.00  0.00     0.134 A 
ATOM      7  C   UNL     1     306.573 230.685 203.991  1.00  0.00     0.093 A 
ATOM      8  C   UNL     1     307.187 230.218 202.828  1.00  0.00     0.123 A 
ATOM      9  C   UNL     1     307.649 228.905 202.770  1.00  0.00     0.094 A 
ATOM     10  C   UNL     1     307.478 228.044 203.857  1.00  0.00     0.146 A 
ATOM     11  O   UNL     1     307.914 226.796 203.750  1.00  0.00    -0.452 OA
ENDROOT
BRANCH   1  12
ATOM     12  C   UNL     1     308.309 224.527 204.462  1.00  0.00     0.025 A 
ATOM     13  C   UNL     1     309.503 224.375 203.740  1.00  0.00     0.016 A 
ATOM     14  C   UNL     1     310.016 223.102 203.478  1.00  0.00     0.051 A 
ATOM     15  C   UNL     1     309.333 221.962 203.921  1.00  0.00     0.157 A 
ATOM     16  C   UNL     1     307.617 223.379 204.888  1.00  0.00     0.062 A 
ATOM     17  C   UNL     1     308.129 222.101 204.624  1.00  0.00     0.158 A 
BRANCH  15  18
ATOM     18  O   UNL     1     309.841 220.690 203.663  1.00  0.00    -0.504 OA
ATOM     19  H   UNL     1     309.905 219.988 204.391  1.00  0.00     0.293 HD
ENDBRANCH  15  18
BRANCH  17  20
ATOM     20  O   UNL     1     307.445 220.964 205.050  1.00  0.00    -0.504 OA
ATOM     21  H   UNL     1     307.876 220.286 205.669  1.00  0.00     0.293 HD
ENDBRANCH  17  20
ENDBRANCH   1  12
BRANCH   2  22
ATOM     22  O   UNL     1     307.027 225.298 206.943  1.00  0.00    -0.502 OA
ATOM     23  H   UNL     1     306.288 225.339 207.636  1.00  0.00     0.293 HD
ENDBRANCH   2  22
BRANCH   6  24
ATOM     24  O   UNL     1     305.877 230.453 206.254  1.00  0.00    -0.507 OA
ATOM     25  H   UNL     1     305.360 231.319 206.265  1.00  0.00     0.293 HD
ENDBRANCH   6  24
BRANCH   8  26
ATOM     26  O   UNL     1     307.349 231.053 201.725  1.00  0.00    -0.508 OA
ATOM     27  H   UNL     1     306.556 231.482 201.264  1.00  0.00     0.293 HD
ENDBRANCH   8  26
TORSDOF 6
ENDMDL
MODEL 2
REMARK VINA RESULT:    -6.370      1.997      2.753
REMARK INTER + INTRA:          -7.548
REMARK INTER:                  -7.376
REMARK INTRA:                  -0.172
REMARK UNBOUND:                 0.126
REMARK SMILES O=c1c(O)c(-c2ccc(O)c(O)c2)oc2cc(O)cc(O)c12
REMARK SMILES IDX 5 1 3 2 2 3 1 4 22 5 20 6 19 7 17 8 16 9 15 10 14 11 6 12
REMARK SMILES IDX 7 13 8 14 9 15 13 16 11 17 10 18 12 20 4 22 21 24 18 26
REMARK H PARENT 10 19 12 21 4 23 21 25 18 27
REMARK Flexibility Score: inf
ROOT
ATOM      1  C   UNL     1     308.185 226.693 203.606  1.00  0.00     0.180 A 
ATOM      2  C   UNL     1     306.994 227.216 203.074  1.00  0.00     0.208 A 
ATOM      3  C   UNL     1     306.916 228.592 202.803  1.00  0.00     0.238 A 
ATOM      4  O   UNL     1     305.875 229.041 202.257  1.00  0.00    -0.285 OA
ATOM      5  C   UNL     1     308.009 229.435 203.121  1.00  0.00     0.111 A 
ATOM      6  C   UNL     1     308.023 230.851 202.930  1.00  0.00     0.134 A 
ATOM      7  C   UNL     1     309.199 231.569 203.182  1.00  0.00     0.093 A 
ATOM      8  C   UNL     1     310.340 230.933 203.676  1.00  0.00     0.123 A 
ATOM      9  C   UNL     1     310.318 229.562 203.916  1.00  0.00     0.094 A 
ATOM     10  C   UNL     1     309.173 228.811 203.639  1.00  0.00     0.146 A 
ATOM     11  O   UNL     1     309.204 227.504 203.863  1.00  0.00    -0.452 OA
ENDROOT
BRANCH   1  12
ATOM     12  C   UNL     1     308.348 225.251 203.904  1.00  0.00     0.025 A 
ATOM     13  C   UNL     1     309.244 224.486 203.140  1.00  0.00     0.016 A 
ATOM     14  C   UNL     1     309.400 223.120 203.388  1.00  0.00     0.051 A 
ATOM     15  C   UNL     1     308.649 222.496 204.393  1.00  0.00     0.157 A 
ATOM     16  C   UNL     1     307.582 224.616 204.897  1.00  0.00     0.062 A 
ATOM     17  C   UNL     1     307.736 223.244 205.146  1.00  0.00     0.158 A 
BRANCH  15  18
ATOM     18  O   UNL     1     308.802 221.133 204.645  1.00  0.00    -0.504 OA
ATOM     19  H   UNL     1     309.537 220.786 205.249  1.00  0.00     0.293 HD
ENDBRANCH  15  18
BRANCH  17  20
ATOM     20  O   UNL     1     306.980 222.617 206.135  1.00  0.00    -0.504 OA
ATOM     21  H   UNL     1     307.351 222.459 207.065  1.00  0.00     0.293 HD
ENDBRANCH  17  20
ENDBRANCH   1  12
BRANCH   2  22
ATOM     22  O   UNL     1     305.900 226.378 202.839  1.00  0.00    -0.502 OA
ATOM     23  H   UNL     1     305.047 226.432 203.383  1.00  0.00     0.293 HD
ENDBRANCH   2  22
BRANCH   6  24
ATOM     24  O   UNL     1     306.913 231.598 202.526  1.00  0.00    -0.507 OA
ATOM     25  H   UNL     1     306.855 232.132 201.672  1.00  0.00     0.293 HD
ENDBRANCH   6  24
BRANCH   8  26
ATOM     26  O   UNL     1     311.500 231.659 203.939  1.00  0.00    -0.508 OA
ATOM     27  H   UNL     1     311.463 232.606 204.296  1.00  0.00     0.293 HD
ENDBRANCH   8  26
TORSDOF 6
ENDMDL
MODEL 3
REMARK VINA RESULT:    -6.321     12.331     14.549
REMARK INTER + INTRA:          -7.489
REMARK INTER:                  -7.158
REMARK INTRA:                  -0.331
REMARK UNBOUND:                 0.126
REMARK SMILES O=c1c(O)c(-c2ccc(O)c(O)c2)oc2cc(O)cc(O)c12
REMARK SMILES IDX 5 1 3 2 2 3 1 4 22 5 20 6 19 7 17 8 16 9 15 10 14 11 6 12
REMARK SMILES IDX 7 13 8 14 9 15 13 16 11 17 10 18 12 20 4 22 21 24 18 26
REMARK H PARENT 10 19 12 21 4 23 21 25 18 27
REMARK Flexibility Score: inf
ROOT
ATOM      1  C   UNL     1     318.478 234.308 201.153  1.00  0.00     0.180 A 
ATOM      2  C   UNL     1     317.251 234.512 200.499  1.00  0.00     0.208 A 
ATOM      3  C   UNL     1     316.099 234.744 201.268  1.00  0.00     0.238 A 
ATOM      4  O   UNL     1     315.020 235.000 200.675  1.00  0.00    -0.285 OA
ATOM      5  C   UNL     1     316.178 234.713 202.682  1.00  0.00     0.111 A 
ATOM      6  C   UNL     1     315.067 234.890 203.561  1.00  0.00     0.134 A 
ATOM      7  C   UNL     1     315.283 234.946 204.944  1.00  0.00     0.093 A 
ATOM      8  C   UNL     1     316.558 234.766 205.482  1.00  0.00     0.123 A 
ATOM      9  C   UNL     1     317.640 234.538 204.635  1.00  0.00     0.094 A 
ATOM     10  C   UNL     1     317.464 234.516 203.250  1.00  0.00     0.146 A 
ATOM     11  O   UNL     1     318.526 234.317 202.480  1.00  0.00    -0.452 OA
ENDROOT
BRANCH   1  12
ATOM     12  C   UNL     1     319.737 234.072 200.410  1.00  0.00     0.025 A 
ATOM     13  C   UNL     1     320.132 232.756 200.123  1.00  0.00     0.016 A 
ATOM     14  C   UNL     1     321.327 232.507 199.442  1.00  0.00     0.051 A 
ATOM     15  C   UNL     1     322.151 233.571 199.053  1.00  0.00     0.157 A 
ATOM     16  C   UNL     1     320.578 235.135 200.036  1.00  0.00     0.062 A 
ATOM     17  C   UNL     1     321.778 234.887 199.354  1.00  0.00     0.158 A 
BRANCH  15  18
ATOM     18  O   UNL     1     323.343 233.329 198.372  1.00  0.00    -0.504 OA
ATOM     19  H   UNL     1     323.810 234.058 197.845  1.00  0.00     0.293 HD
ENDBRANCH  15  18
BRANCH  17  20
ATOM     20  O   UNL     1     322.608 235.942 198.979  1.00  0.00    -0.504 OA
ATOM     21  H   UNL     1     322.723 236.206 198.007  1.00  0.00     0.293 HD
ENDBRANCH  17  20
ENDBRANCH   1  12
BRANCH   2  22
ATOM     22  O   UNL     1     317.181 234.462 199.104  1.00  0.00    -0.502 OA
ATOM     23  H   UNL     1     316.314 234.596 198.598  1.00  0.00     0.293 HD
ENDBRANCH   2  22
BRANCH   6  24
ATOM     24  O   UNL     1     313.739 234.991 203.134  1.00  0.00    -0.507 OA
ATOM     25  H   UNL     1     313.397 235.657 202.459  1.00  0.00     0.293 HD
ENDBRANCH   6  24
BRANCH   8  26
ATOM     26  O   UNL     1     316.760 234.806 206.860  1.00  0.00    -0.508 OA
ATOM     27  H   UNL     1     317.137 234.011 207.364  1.00  0.00     0.293 HD
ENDBRANCH   8  26
TORSDOF 6
ENDMDL
MODEL 4
REMARK VINA RESULT:    -6.284      1.684      6.719
REMARK INTER + INTRA:          -7.444
REMARK INTER:                  -7.186
REMARK INTRA:                  -0.259
REMARK UNBOUND:                 0.126
REMARK SMILES O=c1c(O)c(-c2ccc(O)c(O)c2)oc2cc(O)cc(O)c12
REMARK SMILES IDX 5 1 3 2 2 3 1 4 22 5 20 6 19 7 17 8 16 9 15 10 14 11 6 12
REMARK SMILES IDX 7 13 8 14 9 15 13 16 11 17 10 18 12 20 4 22 21 24 18 26
REMARK H PARENT 10 19 12 21 4 23 21 25 18 27
REMARK Flexibility Score: inf
ROOT
ATOM      1  C   UNL     1     308.321 227.199 203.969  1.00  0.00     0.180 A 
ATOM      2  C   UNL     1     307.408 226.995 205.017  1.00  0.00     0.208 A 
ATOM      3  C   UNL     1     307.209 225.693 205.503  1.00  0.00     0.238 A 
ATOM      4  O   UNL     1     306.447 225.529 206.491  1.00  0.00    -0.285 OA
ATOM      5  C   UNL     1     307.883 224.605 204.898  1.00  0.00     0.111 A 
ATOM      6  C   UNL     1     307.723 223.238 205.280  1.00  0.00     0.134 A 
ATOM      7  C   UNL     1     308.523 222.256 204.681  1.00  0.00     0.093 A 
ATOM      8  C   UNL     1     309.429 222.582 203.670  1.00  0.00     0.123 A 
ATOM      9  C   UNL     1     309.553 223.905 203.253  1.00  0.00     0.094 A 
ATOM     10  C   UNL     1     308.798 224.913 203.858  1.00  0.00     0.146 A 
ATOM     11  O   UNL     1     308.963 226.163 203.443  1.00  0.00    -0.452 OA
ENDROOT
BRANCH   1  12
ATOM     12  C   UNL     1     308.596 228.545 203.413  1.00  0.00     0.025 A 
ATOM     13  C   UNL     1     307.659 229.140 202.553  1.00  0.00     0.016 A 
ATOM     14  C   UNL     1     307.905 230.399 202.000  1.00  0.00     0.051 A 
ATOM     15  C   UNL     1     309.099 231.074 202.286  1.00  0.00     0.157 A 
ATOM     16  C   UNL     1     309.802 229.217 203.681  1.00  0.00     0.062 A 
ATOM     17  C   UNL     1     310.051 230.480 203.125  1.00  0.00     0.158 A 
BRANCH  15  18
ATOM     18  O   UNL     1     309.348 232.331 201.738  1.00  0.00    -0.504 OA
ATOM     19  H   UNL     1     308.757 233.127 201.946  1.00  0.00     0.293 HD
ENDBRANCH  15  18
BRANCH  17  20
ATOM     20  O   UNL     1     311.243 231.147 203.395  1.00  0.00    -0.504 OA
ATOM     21  H   UNL     1     311.897 230.804 204.090  1.00  0.00     0.293 HD
ENDBRANCH  17  20
ENDBRANCH   1  12
BRANCH   2  22
ATOM     22  O   UNL     1     306.695 228.074 205.549  1.00  0.00    -0.502 OA
ATOM     23  H   UNL     1     307.026 228.604 206.346  1.00  0.00     0.293 HD
ENDBRANCH   2  22
BRANCH   6  24
ATOM     24  O   UNL     1     306.785 222.790 206.215  1.00  0.00    -0.507 OA
ATOM     25  H   UNL     1     306.286 223.381 206.862  1.00  0.00     0.293 HD
ENDBRANCH   6  24
BRANCH   8  26
ATOM     26  O   UNL     1     310.208 221.596 203.068  1.00  0.00    -0.508 OA
ATOM     27  H   UNL     1     311.104 221.812 202.647  1.00  0.00     0.293 HD
ENDBRANCH   8  26
TORSDOF 6
ENDMDL
MODEL 5
REMARK VINA RESULT:    -6.115      2.400      4.250
REMARK INTER + INTRA:          -7.240
REMARK INTER:                  -6.917
REMARK INTRA:                  -0.323
REMARK UNBOUND:                 0.126
REMARK SMILES O=c1c(O)c(-c2ccc(O)c(O)c2)oc2cc(O)cc(O)c12
REMARK SMILES IDX 5 1 3 2 2 3 1 4 22 5 20 6 19 7 17 8 16 9 15 10 14 11 6 12
REMARK SMILES IDX 7 13 8 14 9 15 13 16 11 17 10 18 12 20 4 22 21 24 18 26
REMARK H PARENT 10 19 12 21 4 23 21 25 18 27
REMARK Flexibility Score: inf
ROOT
ATOM      1  C   UNL     1     307.970 228.183 203.306  1.00  0.00     0.180 A 
ATOM      2  C   UNL     1     307.078 228.682 202.341  1.00  0.00     0.208 A 
ATOM      3  C   UNL     1     307.371 229.900 201.708  1.00  0.00     0.238 A 
ATOM      4  O   UNL     1     306.607 230.303 200.793  1.00  0.00    -0.285 OA
ATOM      5  C   UNL     1     308.523 230.632 202.087  1.00  0.00     0.111 A 
ATOM      6  C   UNL     1     308.894 231.900 201.544  1.00  0.00     0.134 A 
ATOM      7  C   UNL     1     310.112 232.481 201.918  1.00  0.00     0.093 A 
ATOM      8  C   UNL     1     310.941 231.873 202.863  1.00  0.00     0.123 A 
ATOM      9  C   UNL     1     310.561 230.663 203.439  1.00  0.00     0.094 A 
ATOM     10  C   UNL     1     309.371 230.039 203.058  1.00  0.00     0.146 A 
ATOM     11  O   UNL     1     309.059 228.876 203.616  1.00  0.00    -0.452 OA
ENDROOT
BRANCH   1  12
ATOM     12  C   UNL     1     307.737 226.899 204.005  1.00  0.00     0.025 A 
ATOM     13  C   UNL     1     307.184 226.906 205.295  1.00  0.00     0.016 A 
ATOM     14  C   UNL     1     306.974 225.708 205.983  1.00  0.00     0.051 A 
ATOM     15  C   UNL     1     307.330 224.487 205.398  1.00  0.00     0.157 A 
ATOM     16  C   UNL     1     308.112 225.671 203.429  1.00  0.00     0.062 A 
ATOM     17  C   UNL     1     307.904 224.468 204.120  1.00  0.00     0.158 A 
BRANCH  15  18
ATOM     18  O   UNL     1     307.122 223.289 206.080  1.00  0.00    -0.504 OA
ATOM     19  H   UNL     1     307.315 223.203 207.071  1.00  0.00     0.293 HD
ENDBRANCH  15  18
BRANCH  17  20
ATOM     20  O   UNL     1     308.270 223.253 203.546  1.00  0.00    -0.504 OA
ATOM     21  H   UNL     1     308.647 222.495 204.104  1.00  0.00     0.293 HD
ENDBRANCH  17  20
ENDBRANCH   1  12
BRANCH   2  22
ATOM     22  O   UNL     1     305.907 227.981 202.037  1.00  0.00    -0.502 OA
ATOM     23  H   UNL     1     305.519 227.277 202.653  1.00  0.00     0.293 HD
ENDBRANCH   2  22
BRANCH   6  24
ATOM     24  O   UNL     1     308.099 232.637 200.661  1.00  0.00    -0.507 OA
ATOM     25  H   UNL     1     308.281 233.586 200.373  1.00  0.00     0.293 HD
ENDBRANCH   6  24
BRANCH   8  26
ATOM     26  O   UNL     1     312.143 232.467 203.242  1.00  0.00    -0.508 OA
ATOM     27  H   UNL     1     312.971 232.403 202.663  1.00  0.00     0.293 HD
ENDBRANCH   8  26
TORSDOF 6
ENDMDL
MODEL 6
REMARK VINA RESULT:    -6.064      9.546     12.179
REMARK INTER + INTRA:          -7.179
REMARK INTER:                  -6.951
REMARK INTRA:                  -0.228
REMARK UNBOUND:                 0.126
REMARK SMILES O=c1c(O)c(-c2ccc(O)c(O)c2)oc2cc(O)cc(O)c12
REMARK SMILES IDX 5 1 3 2 2 3 1 4 22 5 20 6 19 7 17 8 16 9 15 10 14 11 6 12
REMARK SMILES IDX 7 13 8 14 9 15 13 16 11 17 10 18 12 20 4 22 21 24 18 26
REMARK H PARENT 10 19 12 21 4 23 21 25 18 27
REMARK Flexibility Score: inf
ROOT
ATOM      1  C   UNL     1     314.846 233.973 201.968  1.00  0.00     0.180 A 
ATOM      2  C   UNL     1     313.657 233.232 202.073  1.00  0.00     0.208 A 
ATOM      3  C   UNL     1     313.050 232.748 200.902  1.00  0.00     0.238 A 
ATOM      4  O   UNL     1     312.028 232.022 201.009  1.00  0.00    -0.285 OA
ATOM      5  C   UNL     1     313.609 233.060 199.639  1.00  0.00     0.111 A 
ATOM      6  C   UNL     1     313.054 232.660 198.385  1.00  0.00     0.134 A 
ATOM      7  C   UNL     1     313.752 232.936 197.202  1.00  0.00     0.093 A 
ATOM      8  C   UNL     1     314.951 233.651 197.222  1.00  0.00     0.123 A 
ATOM      9  C   UNL     1     315.472 234.092 198.436  1.00  0.00     0.094 A 
ATOM     10  C   UNL     1     314.820 233.800 199.636  1.00  0.00     0.146 A 
ATOM     11  O   UNL     1     315.364 234.221 200.771  1.00  0.00    -0.452 OA
ENDROOT
BRANCH   1  12
ATOM     12  C   UNL     1     315.552 234.502 203.157  1.00  0.00     0.025 A 
ATOM     13  C   UNL     1     315.008 235.594 203.853  1.00  0.00     0.016 A 
ATOM     14  C   UNL     1     315.666 236.124 204.966  1.00  0.00     0.051 A 
ATOM     15  C   UNL     1     316.886 235.581 205.388  1.00  0.00     0.157 A 
ATOM     16  C   UNL     1     316.787 233.974 203.573  1.00  0.00     0.062 A 
ATOM     17  C   UNL     1     317.450 234.507 204.689  1.00  0.00     0.158 A 
BRANCH  15  18
ATOM     18  O   UNL     1     317.546 236.106 206.498  1.00  0.00    -0.504 OA
ATOM     19  H   UNL     1     317.522 237.097 206.709  1.00  0.00     0.293 HD
ENDBRANCH  15  18
BRANCH  17  20
ATOM     20  O   UNL     1     318.670 233.978 205.103  1.00  0.00    -0.504 OA
ATOM     21  H   UNL     1     318.723 233.109 205.623  1.00  0.00     0.293 HD
ENDBRANCH  17  20
ENDBRANCH   1  12
BRANCH   2  22
ATOM     22  O   UNL     1     313.080 233.001 203.325  1.00  0.00    -0.502 OA
ATOM     23  H   UNL     1     312.437 233.654 203.756  1.00  0.00     0.293 HD
ENDBRANCH   2  22
BRANCH   6  24
ATOM     24  O   UNL     1     311.819 232.020 198.243  1.00  0.00    -0.507 OA
ATOM     25  H   UNL     1     311.509 231.234 198.794  1.00  0.00     0.293 HD
ENDBRANCH   6  24
BRANCH   8  26
ATOM     26  O   UNL     1     315.629 233.935 196.039  1.00  0.00    -0.508 OA
ATOM     27  H   UNL     1     315.133 234.150 195.182  1.00  0.00     0.293 HD
ENDBRANCH   8  26
TORSDOF 6
ENDMDL
MODEL 7
REMARK VINA RESULT:    -6.062      1.695      6.803
REMARK INTER + INTRA:          -7.176
REMARK INTER:                  -6.853
REMARK INTRA:                  -0.323
REMARK UNBOUND:                 0.126
REMARK SMILES O=c1c(O)c(-c2ccc(O)c(O)c2)oc2cc(O)cc(O)c12
REMARK SMILES IDX 5 1 3 2 2 3 1 4 22 5 20 6 19 7 17 8 16 9 15 10 14 11 6 12
REMARK SMILES IDX 7 13 8 14 9 15 13 16 11 17 10 18 12 20 4 22 21 24 18 26
REMARK H PARENT 10 19 12 21 4 23 21 25 18 27
REMARK Flexibility Score: inf
ROOT
ATOM      1  C   UNL     1     308.400 227.830 203.983  1.00  0.00     0.180 A 
ATOM      2  C   UNL     1     307.338 227.562 204.863  1.00  0.00     0.208 A 
ATOM      3  C   UNL     1     307.110 226.238 205.272  1.00  0.00     0.238 A 
ATOM      4  O   UNL     1     306.206 226.016 206.119  1.00  0.00    -0.285 OA
ATOM      5  C   UNL     1     307.911 225.192 204.751  1.00  0.00     0.111 A 
ATOM      6  C   UNL     1     307.741 223.809 205.062  1.00  0.00     0.134 A 
ATOM      7  C   UNL     1     308.661 222.873 204.570  1.00  0.00     0.093 A 
ATOM      8  C   UNL     1     309.705 223.262 203.729  1.00  0.00     0.123 A 
ATOM      9  C   UNL     1     309.846 224.602 203.377  1.00  0.00     0.094 A 
ATOM     10  C   UNL     1     308.969 225.564 203.882  1.00  0.00     0.146 A 
ATOM     11  O   UNL     1     309.154 226.832 203.537  1.00  0.00    -0.452 OA
ENDROOT
BRANCH   1  12
ATOM     12  C   UNL     1     308.712 229.202 203.519  1.00  0.00     0.025 A 
ATOM     13  C   UNL     1     309.569 230.010 204.282  1.00  0.00     0.016 A 
ATOM     14  C   UNL     1     309.862 231.314 203.876  1.00  0.00     0.051 A 
ATOM     15  C   UNL     1     309.288 231.835 202.709  1.00  0.00     0.157 A 
ATOM     16  C   UNL     1     308.122 229.736 202.359  1.00  0.00     0.062 A 
ATOM     17  C   UNL     1     308.413 231.046 201.951  1.00  0.00     0.158 A 
BRANCH  15  18
ATOM     18  O   UNL     1     309.577 233.135 202.299  1.00  0.00    -0.504 OA
ATOM     19  H   UNL     1     308.883 233.713 201.839  1.00  0.00     0.293 HD
ENDBRANCH  15  18
BRANCH  17  20
ATOM     20  O   UNL     1     307.833 231.571 200.799  1.00  0.00    -0.504 OA
ATOM     21  H   UNL     1     308.384 232.065 200.105  1.00  0.00     0.293 HD
ENDBRANCH  17  20
ENDBRANCH   1  12
BRANCH   2  22
ATOM     22  O   UNL     1     306.512 228.599 205.305  1.00  0.00    -0.502 OA
ATOM     23  H   UNL     1     305.504 228.507 205.359  1.00  0.00     0.293 HD
ENDBRANCH   2  22
BRANCH   6  24
ATOM     24  O   UNL     1     306.682 223.300 205.820  1.00  0.00    -0.507 OA
ATOM     25  H   UNL     1     306.776 222.639 206.575  1.00  0.00     0.293 HD
ENDBRANCH   6  24
BRANCH   8  26
ATOM     26  O   UNL     1     310.604 222.322 203.231  1.00  0.00    -0.508 OA
ATOM     27  H   UNL     1     311.465 222.601 202.776  1.00  0.00     0.293 HD
ENDBRANCH   8  26
TORSDOF 6
ENDMDL
MODEL 8
REMARK VINA RESULT:    -6.058     12.494     14.483
REMARK INTER + INTRA:          -7.172
REMARK INTER:                  -7.022
REMARK INTRA:                  -0.149
REMARK UNBOUND:                 0.126
REMARK SMILES O=c1c(O)c(-c2ccc(O)c(O)c2)oc2cc(O)cc(O)c12
REMARK SMILES IDX 5 1 3 2 2 3 1 4 22 5 20 6 19 7 17 8 16 9 15 10 14 11 6 12
REMARK SMILES IDX 7 13 8 14 9 15 13 16 11 17 10 18 12 20 4 22 21 24 18 26
REMARK H PARENT 10 19 12 21 4 23 21 25 18 27
REMARK Flexibility Score: inf
ROOT
ATOM      1  C   UNL     1     318.754 234.185 200.709  1.00  0.00     0.180 A 
ATOM      2  C   UNL     1     318.189 234.206 201.995  1.00  0.00     0.208 A 
ATOM      3  C   UNL     1     316.830 234.532 202.137  1.00  0.00     0.238 A 
ATOM      4  O   UNL     1     316.313 234.475 203.282  1.00  0.00    -0.285 OA
ATOM      5  C   UNL     1     316.068 234.888 200.997  1.00  0.00     0.111 A 
ATOM      6  C   UNL     1     314.695 235.278 201.028  1.00  0.00     0.134 A 
ATOM      7  C   UNL     1     314.015 235.506 199.825  1.00  0.00     0.093 A 
ATOM      8  C   UNL     1     314.673 235.419 198.597  1.00  0.00     0.123 A 
ATOM      9  C   UNL     1     316.026 235.091 198.560  1.00  0.00     0.094 A 
ATOM     10  C   UNL     1     316.723 234.821 199.739  1.00  0.00     0.146 A 
ATOM     11  O   UNL     1     318.006 234.492 199.655  1.00  0.00    -0.452 OA
ENDROOT
BRANCH   1  12
ATOM     12  C   UNL     1     320.175 233.837 200.478  1.00  0.00     0.025 A 
ATOM     13  C   UNL     1     320.492 232.662 199.777  1.00  0.00     0.016 A 
ATOM     14  C   UNL     1     321.825 232.302 199.565  1.00  0.00     0.051 A 
ATOM     15  C   UNL     1     322.860 233.102 200.065  1.00  0.00     0.157 A 
ATOM     16  C   UNL     1     321.217 234.626 200.996  1.00  0.00     0.062 A 
ATOM     17  C   UNL     1     322.556 234.264 200.785  1.00  0.00     0.158 A 
BRANCH  15  18
ATOM     18  O   UNL     1     324.192 232.747 199.855  1.00  0.00    -0.504 OA
ATOM     19  H   UNL     1     324.625 232.832 198.943  1.00  0.00     0.293 HD
ENDBRANCH  15  18
BRANCH  17  20
ATOM     20  O   UNL     1     323.587 235.050 201.294  1.00  0.00    -0.504 OA
ATOM     21  H   UNL     1     323.703 236.018 201.017  1.00  0.00     0.293 HD
ENDBRANCH  17  20
ENDBRANCH   1  12
BRANCH   2  22
ATOM     22  O   UNL     1     318.977 233.926 203.115  1.00  0.00    -0.502 OA
ATOM     23  H   UNL     1     319.208 234.629 203.807  1.00  0.00     0.293 HD
ENDBRANCH   2  22
BRANCH   6  24
ATOM     24  O   UNL     1     313.965 235.482 202.203  1.00  0.00    -0.507 OA
ATOM     25  H   UNL     1     313.817 234.788 202.920  1.00  0.00     0.293 HD
ENDBRANCH   6  24
BRANCH   8  26
ATOM     26  O   UNL     1     313.992 235.663 197.406  1.00  0.00    -0.508 OA
ATOM     27  H   UNL     1     314.459 236.065 196.602  1.00  0.00     0.293 HD
ENDBRANCH   8  26
TORSDOF 6
ENDMDL
MODEL 9
REMARK VINA RESULT:    -5.857      9.884     12.260
REMARK INTER + INTRA:          -6.930
REMARK INTER:                  -6.660
REMARK INTRA:                  -0.270
REMARK UNBOUND:                 0.126
REMARK SMILES O=c1c(O)c(-c2ccc(O)c(O)c2)oc2cc(O)cc(O)c12
REMARK SMILES IDX 5 1 3 2 2 3 1 4 22 5 20 6 19 7 17 8 16 9 15 10 14 11 6 12
REMARK SMILES IDX 7 13 8 14 9 15 13 16 11 17 10 18 12 20 4 22 21 24 18 26
REMARK H PARENT 10 19 12 21 4 23 21 25 18 27
REMARK Flexibility Score: inf
ROOT
ATOM      1  C   UNL     1     312.664 232.953 197.172  1.00  0.00     0.180 A 
ATOM      2  C   UNL     1     311.958 232.556 198.320  1.00  0.00     0.208 A 
ATOM      3  C   UNL     1     312.527 232.783 199.583  1.00  0.00     0.238 A 
ATOM      4  O   UNL     1     311.857 232.494 200.608  1.00  0.00    -0.285 OA
ATOM      5  C   UNL     1     313.820 233.354 199.680  1.00  0.00     0.111 A 
ATOM      6  C   UNL     1     314.513 233.589 200.907  1.00  0.00     0.134 A 
ATOM      7  C   UNL     1     315.744 234.257 200.887  1.00  0.00     0.093 A 
ATOM      8  C   UNL     1     316.336 234.641 199.682  1.00  0.00     0.123 A 
ATOM      9  C   UNL     1     315.693 234.368 198.478  1.00  0.00     0.094 A 
ATOM     10  C   UNL     1     314.446 233.737 198.466  1.00  0.00     0.146 A 
ATOM     11  O   UNL     1     313.860 233.516 197.297  1.00  0.00    -0.452 OA
ENDROOT
BRANCH   1  12
ATOM     12  C   UNL     1     312.122 232.761 195.807  1.00  0.00     0.025 A 
ATOM     13  C   UNL     1     312.693 231.789 194.970  1.00  0.00     0.016 A 
ATOM     14  C   UNL     1     312.212 231.603 193.671  1.00  0.00     0.051 A 
ATOM     15  C   UNL     1     311.165 232.397 193.185  1.00  0.00     0.157 A 
ATOM     16  C   UNL     1     311.084 233.569 195.309  1.00  0.00     0.062 A 
ATOM     17  C   UNL     1     310.603 233.385 194.005  1.00  0.00     0.158 A 
BRANCH  15  18
ATOM     18  O   UNL     1     310.682 232.215 191.891  1.00  0.00    -0.504 OA
ATOM     19  H   UNL     1     309.691 232.261 191.684  1.00  0.00     0.293 HD
ENDBRANCH  15  18
BRANCH  17  20
ATOM     20  O   UNL     1     309.571 234.182 193.514  1.00  0.00    -0.504 OA
ATOM     21  H   UNL     1     308.676 234.241 193.986  1.00  0.00     0.293 HD
ENDBRANCH  17  20
ENDBRANCH   1  12
BRANCH   2  22
ATOM     22  O   UNL     1     310.716 231.924 198.199  1.00  0.00    -0.502 OA
ATOM     23  H   UNL     1     310.411 231.486 197.338  1.00  0.00     0.293 HD
ENDBRANCH   2  22
BRANCH   6  24
ATOM     24  O   UNL     1     314.054 233.168 202.159  1.00  0.00    -0.507 OA
ATOM     25  H   UNL     1     313.484 232.352 202.322  1.00  0.00     0.293 HD
ENDBRANCH   6  24
BRANCH   8  26
ATOM     26  O   UNL     1     317.569 235.290 199.671  1.00  0.00    -0.508 OA
ATOM     27  H   UNL     1     318.435 234.781 199.542  1.00  0.00     0.293 HD
ENDBRANCH   8  26
TORSDOF 6
ENDMDL
