MODEL 1
REMARK VINA RESULT:    -4.873      0.000      0.000
REMARK INTER + INTRA:          -5.953
REMARK INTER:                  -5.727
REMARK INTRA:                  -0.226
REMARK UNBOUND:                -0.226
REMARK SMILES O=C([O-])C=Cc1ccc(O)c(O)c1
REMARK SMILES IDX 6 1 13 2 7 3 11 4 8 5 9 6 5 7 4 8 2 9 1 10 3 11 12 12 10 14
REMARK H PARENT 12 13 10 15
REMARK Flexibility Score: inf
ROOT
ATOM      1  C   UNL     1     -14.197 -21.509  14.753  1.00  0.00    -0.022 A 
ATOM      2  C   UNL     1     -14.702 -20.320  15.297  1.00  0.00     0.058 A 
ATOM      3  C   UNL     1     -13.926 -22.594  15.603  1.00  0.00     0.012 A 
ATOM      4  C   UNL     1     -14.886 -20.190  16.679  1.00  0.00     0.157 A 
ATOM      5  C   UNL     1     -14.109 -22.470  16.983  1.00  0.00     0.051 A 
ATOM      6  C   UNL     1     -14.584 -21.269  17.528  1.00  0.00     0.157 A 
ENDROOT
BRANCH   1   7
ATOM      7  C   UNL     1     -14.063 -21.634  13.287  1.00  0.00     0.010 C 
ATOM      8  C   UNL     1     -15.081 -21.769  12.423  1.00  0.00     0.025 C 
BRANCH   8   9
ATOM      9  C   UNL     1     -16.490 -22.008  12.792  1.00  0.00     0.064 C 
ATOM     10  O   UNL     1     -16.882 -23.187  12.995  1.00  0.00    -0.545 OA
ATOM     11  O   UNL     1     -17.377 -20.957  12.990  1.00  0.00    -0.545 OA
ENDBRANCH   8   9
ENDBRANCH   1   7
BRANCH   4  12
ATOM     12  O   UNL     1     -15.371 -18.987  17.189  1.00  0.00    -0.504 OA
ATOM     13  H   UNL     1     -16.073 -18.441  16.704  1.00  0.00     0.293 HD
ENDBRANCH   4  12
BRANCH   6  14
ATOM     14  O   UNL     1     -14.763 -21.147  18.905  1.00  0.00    -0.504 OA
ATOM     15  H   UNL     1     -15.688 -21.098  19.318  1.00  0.00     0.293 HD
ENDBRANCH   6  14
TORSDOF 4
ENDMDL
MODEL 2
REMARK VINA RESULT:    -4.581      1.863      2.536
REMARK INTER + INTRA:          -5.610
REMARK INTER:                  -5.352
REMARK INTRA:                  -0.258
REMARK UNBOUND:                -0.226
REMARK SMILES O=C([O-])C=Cc1ccc(O)c(O)c1
REMARK SMILES IDX 6 1 13 2 7 3 11 4 8 5 9 6 5 7 4 8 2 9 1 10 3 11 12 12 10 14
REMARK H PARENT 12 13 10 15
REMARK Flexibility Score: inf
ROOT
ATOM      1  C   UNL     1     -14.645 -19.571  14.746  1.00  0.00    -0.022 A 
ATOM      2  C   UNL     1     -14.950 -19.556  16.114  1.00  0.00     0.058 A 
ATOM      3  C   UNL     1     -14.187 -20.761  14.156  1.00  0.00     0.012 A 
ATOM      4  C   UNL     1     -14.752 -20.696  16.901  1.00  0.00     0.157 A 
ATOM      5  C   UNL     1     -13.988 -21.902  14.937  1.00  0.00     0.051 A 
ATOM      6  C   UNL     1     -14.264 -21.876  16.311  1.00  0.00     0.157 A 
ENDROOT
BRANCH   1   7
ATOM      7  C   UNL     1     -14.914 -18.368  13.931  1.00  0.00     0.010 C 
ATOM      8  C   UNL     1     -16.068 -18.099  13.301  1.00  0.00     0.025 C 
BRANCH   8   9
ATOM      9  C   UNL     1     -17.199 -19.035  13.150  1.00  0.00     0.064 C 
ATOM     10  O   UNL     1     -17.347 -19.650  12.062  1.00  0.00    -0.545 OA
ATOM     11  O   UNL     1     -18.062 -19.307  14.204  1.00  0.00    -0.545 OA
ENDBRANCH   8   9
ENDBRANCH   1   7
BRANCH   4  12
ATOM     12  O   UNL     1     -15.047 -20.641  18.262  1.00  0.00    -0.504 OA
ATOM     13  H   UNL     1     -14.373 -20.904  18.971  1.00  0.00     0.293 HD
ENDBRANCH   4  12
BRANCH   6  14
ATOM     14  O   UNL     1     -14.063 -23.015  17.089  1.00  0.00    -0.504 OA
ATOM     15  H   UNL     1     -13.163 -23.481  17.126  1.00  0.00     0.293 HD
ENDBRANCH   6  14
TORSDOF 4
ENDMDL
MODEL 3
REMARK VINA RESULT:    -4.556     17.434     18.552
REMARK INTER + INTRA:          -5.581
REMARK INTER:                  -5.372
REMARK INTRA:                  -0.209
REMARK UNBOUND:                -0.226
REMARK SMILES O=C([O-])C=Cc1ccc(O)c(O)c1
REMARK SMILES IDX 6 1 13 2 7 3 11 4 8 5 9 6 5 7 4 8 2 9 1 10 3 11 12 12 10 14
REMARK H PARENT 12 13 10 15
REMARK Flexibility Score: inf
ROOT
ATOM      1  C   UNL     1     -24.457 -13.556   0.686  1.00  0.00    -0.022 A 
ATOM      2  C   UNL     1     -24.685 -14.789   0.058  1.00  0.00     0.058 A 
ATOM      3  C   UNL     1     -24.929 -13.351   1.992  1.00  0.00     0.012 A 
ATOM      4  C   UNL     1     -25.422 -15.790   0.702  1.00  0.00     0.157 A 
ATOM      5  C   UNL     1     -25.665 -14.347   2.639  1.00  0.00     0.051 A 
ATOM      6  C   UNL     1     -25.919 -15.567   1.998  1.00  0.00     0.157 A 
ENDROOT
BRANCH   1   7
ATOM      7  C   UNL     1     -23.631 -12.538   0.002  1.00  0.00     0.010 C 
ATOM      8  C   UNL     1     -22.334 -12.296   0.250  1.00  0.00     0.025 C 
BRANCH   8   9
ATOM      9  C   UNL     1     -21.557 -12.862   1.370  1.00  0.00     0.064 C 
ATOM     10  O   UNL     1     -21.459 -12.210   2.442  1.00  0.00    -0.545 OA
ATOM     11  O   UNL     1     -20.992 -14.129   1.295  1.00  0.00    -0.545 OA
ENDBRANCH   8   9
ENDBRANCH   1   7
BRANCH   4  12
ATOM     12  O   UNL     1     -25.647 -16.997   0.042  1.00  0.00    -0.504 OA
ATOM     13  H   UNL     1     -24.919 -17.691  -0.075  1.00  0.00     0.293 HD
ENDBRANCH   4  12
BRANCH   6  14
ATOM     14  O   UNL     1     -26.655 -16.559   2.645  1.00  0.00    -0.504 OA
ATOM     15  H   UNL     1     -26.401 -17.538   2.578  1.00  0.00     0.293 HD
ENDBRANCH   6  14
TORSDOF 4
ENDMDL
MODEL 4
REMARK VINA RESULT:    -4.548     16.171     18.656
REMARK INTER + INTRA:          -5.571
REMARK INTER:                  -5.282
REMARK INTRA:                  -0.290
REMARK UNBOUND:                -0.226
REMARK SMILES O=C([O-])C=Cc1ccc(O)c(O)c1
REMARK SMILES IDX 6 1 13 2 7 3 11 4 8 5 9 6 5 7 4 8 2 9 1 10 3 11 12 12 10 14
REMARK H PARENT 12 13 10 15
REMARK Flexibility Score: inf
ROOT
ATOM      1  C   UNL     1     -24.605 -13.554   1.878  1.00  0.00    -0.022 A 
ATOM      2  C   UNL     1     -25.605 -14.273   2.548  1.00  0.00     0.058 A 
ATOM      3  C   UNL     1     -24.816 -13.163   0.545  1.00  0.00     0.012 A 
ATOM      4  C   UNL     1     -26.780 -14.646   1.886  1.00  0.00     0.157 A 
ATOM      5  C   UNL     1     -25.987 -13.532  -0.121  1.00  0.00     0.051 A 
ATOM      6  C   UNL     1     -26.972 -14.278   0.542  1.00  0.00     0.157 A 
ENDROOT
BRANCH   1   7
ATOM      7  C   UNL     1     -23.399 -13.130   2.619  1.00  0.00     0.010 C 
ATOM      8  C   UNL     1     -22.199 -13.727   2.556  1.00  0.00     0.025 C 
BRANCH   8   9
ATOM      9  C   UNL     1     -21.918 -15.016   1.893  1.00  0.00     0.064 C 
ATOM     10  O   UNL     1     -22.001 -16.080   2.559  1.00  0.00    -0.545 OA
ATOM     11  O   UNL     1     -21.635 -15.087   0.535  1.00  0.00    -0.545 OA
ENDBRANCH   8   9
ENDBRANCH   1   7
BRANCH   4  12
ATOM     12  O   UNL     1     -27.746 -15.377   2.576  1.00  0.00    -0.504 OA
ATOM     13  H   UNL     1     -28.736 -15.186   2.482  1.00  0.00     0.293 HD
ENDBRANCH   4  12
BRANCH   6  14
ATOM     14  O   UNL     1     -28.139 -14.647  -0.125  1.00  0.00    -0.504 OA
ATOM     15  H   UNL     1     -28.817 -15.271   0.298  1.00  0.00     0.293 HD
ENDBRANCH   6  14
TORSDOF 4
ENDMDL
MODEL 5
REMARK VINA RESULT:    -4.468      2.055      2.559
REMARK INTER + INTRA:          -5.478
REMARK INTER:                  -5.203
REMARK INTRA:                  -0.275
REMARK UNBOUND:                -0.226
REMARK SMILES O=C([O-])C=Cc1ccc(O)c(O)c1
REMARK SMILES IDX 6 1 13 2 7 3 11 4 8 5 9 6 5 7 4 8 2 9 1 10 3 11 12 12 10 14
REMARK H PARENT 12 13 10 15
REMARK Flexibility Score: inf
ROOT
ATOM      1  C   UNL     1     -16.049 -20.459  14.105  1.00  0.00    -0.022 A 
ATOM      2  C   UNL     1     -15.984 -19.357  14.970  1.00  0.00     0.058 A 
ATOM      3  C   UNL     1     -15.419 -21.659  14.471  1.00  0.00     0.012 A 
ATOM      4  C   UNL     1     -15.257 -19.430  16.163  1.00  0.00     0.157 A 
ATOM      5  C   UNL     1     -14.692 -21.738  15.662  1.00  0.00     0.051 A 
ATOM      6  C   UNL     1     -14.603 -20.626  16.511  1.00  0.00     0.157 A 
ENDROOT
BRANCH   1   7
ATOM      7  C   UNL     1     -16.867 -20.368  12.878  1.00  0.00     0.010 C 
ATOM      8  C   UNL     1     -16.387 -20.249  11.630  1.00  0.00     0.025 C 
BRANCH   8   9
ATOM      9  C   UNL     1     -14.976 -19.997  11.277  1.00  0.00     0.064 C 
ATOM     10  O   UNL     1     -14.545 -18.814  11.275  1.00  0.00    -0.545 OA
ATOM     11  O   UNL     1     -14.094 -21.039  11.018  1.00  0.00    -0.545 OA
ENDBRANCH   8   9
ENDBRANCH   1   7
BRANCH   4  12
ATOM     12  O   UNL     1     -15.197 -18.311  16.991  1.00  0.00    -0.504 OA
ATOM     13  H   UNL     1     -16.030 -17.813  17.286  1.00  0.00     0.293 HD
ENDBRANCH   4  12
BRANCH   6  14
ATOM     14  O   UNL     1     -13.875 -20.705  17.697  1.00  0.00    -0.504 OA
ATOM     15  H   UNL     1     -14.302 -21.016  18.562  1.00  0.00     0.293 HD
ENDBRANCH   6  14
TORSDOF 4
ENDMDL
MODEL 6
REMARK VINA RESULT:    -4.413      3.155      4.002
REMARK INTER + INTRA:          -5.413
REMARK INTER:                  -5.218
REMARK INTRA:                  -0.195
REMARK UNBOUND:                -0.226
REMARK SMILES O=C([O-])C=Cc1ccc(O)c(O)c1
REMARK SMILES IDX 6 1 13 2 7 3 11 4 8 5 9 6 5 7 4 8 2 9 1 10 3 11 12 12 10 14
REMARK H PARENT 12 13 10 15
REMARK Flexibility Score: inf
ROOT
ATOM      1  C   UNL     1     -17.262 -19.490  14.111  1.00  0.00    -0.022 A 
ATOM      2  C   UNL     1     -16.891 -18.761  15.250  1.00  0.00     0.058 A 
ATOM      3  C   UNL     1     -16.518 -20.625  13.749  1.00  0.00     0.012 A 
ATOM      4  C   UNL     1     -15.761 -19.125  15.992  1.00  0.00     0.157 A 
ATOM      5  C   UNL     1     -15.389 -20.993  14.487  1.00  0.00     0.051 A 
ATOM      6  C   UNL     1     -15.003 -20.244  15.607  1.00  0.00     0.157 A 
ENDROOT
BRANCH   1   7
ATOM      7  C   UNL     1     -18.489 -19.114  13.379  1.00  0.00     0.010 C 
ATOM      8  C   UNL     1     -18.598 -18.086  12.523  1.00  0.00     0.025 C 
BRANCH   8   9
ATOM      9  C   UNL     1     -17.578 -17.042  12.306  1.00  0.00     0.064 C 
ATOM     10  O   UNL     1     -17.680 -15.947  12.918  1.00  0.00    -0.545 OA
ATOM     11  O   UNL     1     -16.471 -17.264  11.496  1.00  0.00    -0.545 OA
ENDBRANCH   8   9
ENDBRANCH   1   7
BRANCH   4  12
ATOM     12  O   UNL     1     -15.410 -18.366  17.108  1.00  0.00    -0.504 OA
ATOM     13  H   UNL     1     -14.717 -17.628  17.061  1.00  0.00     0.293 HD
ENDBRANCH   4  12
BRANCH   6  14
ATOM     14  O   UNL     1     -13.875 -20.611  16.340  1.00  0.00    -0.504 OA
ATOM     15  H   UNL     1     -13.400 -19.953  16.948  1.00  0.00     0.293 HD
ENDBRANCH   6  14
TORSDOF 4
ENDMDL
MODEL 7
REMARK VINA RESULT:    -4.310      1.153      2.196
REMARK INTER + INTRA:          -5.292
REMARK INTER:                  -5.014
REMARK INTRA:                  -0.278
REMARK UNBOUND:                -0.226
REMARK SMILES O=C([O-])C=Cc1ccc(O)c(O)c1
REMARK SMILES IDX 6 1 13 2 7 3 11 4 8 5 9 6 5 7 4 8 2 9 1 10 3 11 12 12 10 14
REMARK H PARENT 12 13 10 15
REMARK Flexibility Score: inf
ROOT
ATOM      1  C   UNL     1     -14.749 -20.647  14.374  1.00  0.00    -0.022 A 
ATOM      2  C   UNL     1     -14.352 -21.824  15.024  1.00  0.00     0.058 A 
ATOM      3  C   UNL     1     -15.118 -19.529  15.139  1.00  0.00     0.012 A 
ATOM      4  C   UNL     1     -14.373 -21.908  16.421  1.00  0.00     0.157 A 
ATOM      5  C   UNL     1     -15.141 -19.607  16.534  1.00  0.00     0.051 A 
ATOM      6  C   UNL     1     -14.773 -20.795  17.182  1.00  0.00     0.157 A 
ENDROOT
BRANCH   1   7
ATOM      7  C   UNL     1     -14.666 -20.571  12.900  1.00  0.00     0.010 C 
ATOM      8  C   UNL     1     -15.690 -20.766  12.054  1.00  0.00     0.025 C 
BRANCH   8   9
ATOM      9  C   UNL     1     -17.024 -21.274  12.427  1.00  0.00     0.064 C 
ATOM     10  O   UNL     1     -17.905 -20.463  12.812  1.00  0.00    -0.545 OA
ATOM     11  O   UNL     1     -17.352 -22.618  12.296  1.00  0.00    -0.545 OA
ENDBRANCH   8   9
ENDBRANCH   1   7
BRANCH   4  12
ATOM     12  O   UNL     1     -13.990 -23.099  17.034  1.00  0.00    -0.504 OA
ATOM     13  H   UNL     1     -14.580 -23.923  17.027  1.00  0.00     0.293 HD
ENDBRANCH   4  12
BRANCH   6  14
ATOM     14  O   UNL     1     -14.798 -20.872  18.573  1.00  0.00    -0.504 OA
ATOM     15  H   UNL     1     -15.568 -20.492  19.112  1.00  0.00     0.293 HD
ENDBRANCH   6  14
TORSDOF 4
ENDMDL
MODEL 8
REMARK VINA RESULT:    -4.182     16.863     18.507
REMARK INTER + INTRA:          -5.141
REMARK INTER:                  -4.944
REMARK INTRA:                  -0.197
REMARK UNBOUND:                -0.226
REMARK SMILES O=C([O-])C=Cc1ccc(O)c(O)c1
REMARK SMILES IDX 6 1 13 2 7 3 11 4 8 5 9 6 5 7 4 8 2 9 1 10 3 11 12 12 10 14
REMARK H PARENT 12 13 10 15
REMARK Flexibility Score: inf
ROOT
ATOM      1  C   UNL     1     -24.505 -14.241   0.695  1.00  0.00    -0.022 A 
ATOM      2  C   UNL     1     -25.680 -13.492   0.847  1.00  0.00     0.058 A 
ATOM      3  C   UNL     1     -24.438 -15.534   1.238  1.00  0.00     0.012 A 
ATOM      4  C   UNL     1     -26.760 -14.002   1.577  1.00  0.00     0.157 A 
ATOM      5  C   UNL     1     -25.513 -16.048   1.968  1.00  0.00     0.051 A 
ATOM      6  C   UNL     1     -26.676 -15.285   2.145  1.00  0.00     0.157 A 
ENDROOT
BRANCH   1   7
ATOM      7  C   UNL     1     -23.402 -13.697  -0.125  1.00  0.00     0.010 C 
ATOM      8  C   UNL     1     -22.176 -13.390   0.327  1.00  0.00     0.025 C 
BRANCH   8   9
ATOM      9  C   UNL     1     -21.771 -13.359   1.746  1.00  0.00     0.064 C 
ATOM     10  O   UNL     1     -22.122 -12.387   2.464  1.00  0.00    -0.545 OA
ATOM     11  O   UNL     1     -21.071 -14.410   2.325  1.00  0.00    -0.545 OA
ENDBRANCH   8   9
ENDBRANCH   1   7
BRANCH   4  12
ATOM     12  O   UNL     1     -27.907 -13.223   1.725  1.00  0.00    -0.504 OA
ATOM     13  H   UNL     1     -28.573 -13.097   0.973  1.00  0.00     0.293 HD
ENDBRANCH   4  12
BRANCH   6  14
ATOM     14  O   UNL     1     -27.747 -15.799   2.875  1.00  0.00    -0.504 OA
ATOM     15  H   UNL     1     -28.332 -15.203   3.449  1.00  0.00     0.293 HD
ENDBRANCH   6  14
TORSDOF 4
ENDMDL
