MODEL 1
REMARK VINA RESULT:    -5.471      0.000      0.000
REMARK INTER + INTRA:         -16.382
REMARK INTER:                 -12.508
REMARK INTRA:                  -3.874
REMARK UNBOUND:                -3.874
REMARK SMILES CCCCCCCCCCCCCCCCCCCCCCCC(=O)[O-]
REMARK SMILES IDX 13 1 14 2 15 3 16 4 17 5 18 6 19 7 20 8 21 9 22 10 23 11
REMARK SMILES IDX 24 12 25 13 26 14 12 15 11 16 10 17 9 18 8 19 7 20 6 21 5 22
REMARK SMILES IDX 4 23 3 24 2 25 1 26
REMARK H PARENT
REMARK Flexibility Score: inf
ROOT
ATOM      1  C   UNL     1     123.236 179.289 126.600  1.00  0.00     0.000 C 
ENDROOT
BRANCH   1   2
ATOM      2  C   UNL     1     121.708 179.416 126.777  1.00  0.00     0.000 C 
BRANCH   2   3
ATOM      3  C   UNL     1     120.952 179.955 125.549  1.00  0.00     0.000 C 
BRANCH   3   4
ATOM      4  C   UNL     1     120.501 178.883 124.537  1.00  0.00     0.000 C 
BRANCH   4   5
ATOM      5  C   UNL     1     120.586 179.337 123.064  1.00  0.00     0.000 C 
BRANCH   5   6
ATOM      6  C   UNL     1     121.709 178.624 122.291  1.00  0.00     0.000 C 
BRANCH   6   7
ATOM      7  C   UNL     1     122.420 177.553 123.136  1.00  0.00     0.000 C 
BRANCH   7   8
ATOM      8  C   UNL     1     123.720 177.057 122.482  1.00  0.00     0.000 C 
BRANCH   8   9
ATOM      9  C   UNL     1     124.984 177.669 123.113  1.00  0.00     0.000 C 
BRANCH   9  10
ATOM     10  C   UNL     1     125.339 177.137 124.514  1.00  0.00     0.006 C 
BRANCH  10  11
ATOM     11  C   UNL     1     126.730 176.492 124.577  1.00  0.00     0.053 C 
BRANCH  11  12
ATOM     12  C   UNL     1     126.722 175.150 123.914  1.00  0.00     0.041 C 
ATOM     13  O   UNL     1     127.406 174.956 122.872  1.00  0.00    -0.550 OA
ATOM     14  O   UNL     1     125.982 174.105 124.458  1.00  0.00    -0.550 OA
ENDBRANCH  11  12
ENDBRANCH  10  11
ENDBRANCH   9  10
ENDBRANCH   8   9
ENDBRANCH   7   8
ENDBRANCH   6   7
ENDBRANCH   5   6
ENDBRANCH   4   5
ENDBRANCH   3   4
ENDBRANCH   2   3
ENDBRANCH   1   2
BRANCH   1  15
ATOM     15  C   UNL     1     124.003 178.802 127.845  1.00  0.00     0.000 C 
BRANCH  15  16
ATOM     16  C   UNL     1     123.159 178.701 129.127  1.00  0.00     0.000 C 
BRANCH  16  17
ATOM     17  C   UNL     1     123.671 177.619 130.093  1.00  0.00     0.000 C 
BRANCH  17  18
ATOM     18  C   UNL     1     122.643 176.500 130.325  1.00  0.00    -0.000 C 
BRANCH  18  19
ATOM     19  C   UNL     1     121.279 177.036 130.785  1.00  0.00    -0.000 C 
BRANCH  19  20
ATOM     20  C   UNL     1     120.227 175.919 130.790  1.00  0.00    -0.000 C 
BRANCH  20  21
ATOM     21  C   UNL     1     119.106 176.211 129.782  1.00  0.00    -0.000 C 
BRANCH  21  22
ATOM     22  C   UNL     1     119.588 177.053 128.590  1.00  0.00    -0.000 C 
BRANCH  22  23
ATOM     23  C   UNL     1     119.024 176.560 127.249  1.00  0.00    -0.000 C 
BRANCH  23  24
ATOM     24  C   UNL     1     120.009 175.611 126.556  1.00  0.00    -0.000 C 
BRANCH  24  25
ATOM     25  C   UNL     1     121.451 175.909 126.979  1.00  0.00    -0.003 C 
ATOM     26  C   UNL     1     122.451 175.295 126.002  1.00  0.00     0.004 C 
ENDBRANCH  24  25
ENDBRANCH  23  24
ENDBRANCH  22  23
ENDBRANCH  21  22
ENDBRANCH  20  21
ENDBRANCH  19  20
ENDBRANCH  18  19
ENDBRANCH  17  18
ENDBRANCH  16  17
ENDBRANCH  15  16
ENDBRANCH   1  15
TORSDOF 22
ENDMDL
MODEL 2
REMARK VINA RESULT:    -5.431      3.196      6.364
REMARK INTER + INTRA:         -16.291
REMARK INTER:                 -12.184
REMARK INTRA:                  -4.107
REMARK UNBOUND:                -3.874
REMARK SMILES CCCCCCCCCCCCCCCCCCCCCCCC(=O)[O-]
REMARK SMILES IDX 13 1 14 2 15 3 16 4 17 5 18 6 19 7 20 8 21 9 22 10 23 11
REMARK SMILES IDX 24 12 25 13 26 14 12 15 11 16 10 17 9 18 8 19 7 20 6 21 5 22
REMARK SMILES IDX 4 23 3 24 2 25 1 26
REMARK H PARENT
REMARK Flexibility Score: inf
ROOT
ATOM      1  C   UNL     1     122.243 176.426 130.324  1.00  0.00     0.000 C 
ENDROOT
BRANCH   1   2
ATOM      2  C   UNL     1     120.878 176.685 130.996  1.00  0.00     0.000 C 
BRANCH   2   3
ATOM      3  C   UNL     1     119.897 175.498 130.956  1.00  0.00     0.000 C 
BRANCH   3   4
ATOM      4  C   UNL     1     118.703 175.669 129.997  1.00  0.00     0.000 C 
BRANCH   4   5
ATOM      5  C   UNL     1     118.877 176.818 128.980  1.00  0.00     0.000 C 
BRANCH   5   6
ATOM      6  C   UNL     1     118.961 176.313 127.529  1.00  0.00     0.000 C 
BRANCH   6   7
ATOM      7  C   UNL     1     120.409 176.227 127.017  1.00  0.00     0.000 C 
BRANCH   7   8
ATOM      8  C   UNL     1     121.021 174.832 127.221  1.00  0.00     0.000 C 
BRANCH   8   9
ATOM      9  C   UNL     1     120.264 173.725 126.465  1.00  0.00     0.000 C 
BRANCH   9  10
ATOM     10  C   UNL     1     120.355 172.322 127.094  1.00  0.00     0.006 C 
BRANCH  10  11
ATOM     11  C   UNL     1     120.787 172.350 128.565  1.00  0.00     0.053 C 
BRANCH  11  12
ATOM     12  C   UNL     1     119.630 172.043 129.464  1.00  0.00     0.041 C 
ATOM     13  O   UNL     1     119.777 172.075 130.716  1.00  0.00    -0.550 OA
ATOM     14  O   UNL     1     118.384 171.745 128.923  1.00  0.00    -0.550 OA
ENDBRANCH  11  12
ENDBRANCH  10  11
ENDBRANCH   9  10
ENDBRANCH   8   9
ENDBRANCH   7   8
ENDBRANCH   6   7
ENDBRANCH   5   6
ENDBRANCH   4   5
ENDBRANCH   3   4
ENDBRANCH   2   3
ENDBRANCH   1   2
BRANCH   1  15
ATOM     15  C   UNL     1     123.074 177.688 130.019  1.00  0.00     0.000 C 
BRANCH  15  16
ATOM     16  C   UNL     1     122.478 178.609 128.940  1.00  0.00     0.000 C 
BRANCH  16  17
ATOM     17  C   UNL     1     123.555 179.377 128.153  1.00  0.00     0.000 C 
BRANCH  17  18
ATOM     18  C   UNL     1     123.398 179.219 126.632  1.00  0.00    -0.000 C 
BRANCH  18  19
ATOM     19  C   UNL     1     123.294 177.750 126.197  1.00  0.00    -0.000 C 
BRANCH  19  20
ATOM     20  C   UNL     1     123.575 177.603 124.697  1.00  0.00    -0.000 C 
BRANCH  20  21
ATOM     21  C   UNL     1     122.286 177.299 123.919  1.00  0.00    -0.000 C 
BRANCH  21  22
ATOM     22  C   UNL     1     121.983 178.355 122.845  1.00  0.00    -0.000 C 
BRANCH  22  23
ATOM     23  C   UNL     1     120.625 179.042 123.055  1.00  0.00    -0.000 C 
BRANCH  23  24
ATOM     24  C   UNL     1     120.603 179.821 124.376  1.00  0.00    -0.000 C 
BRANCH  24  25
ATOM     25  C   UNL     1     119.450 179.354 125.271  1.00  0.00    -0.003 C 
ATOM     26  C   UNL     1     119.616 179.868 126.699  1.00  0.00     0.004 C 
ENDBRANCH  24  25
ENDBRANCH  23  24
ENDBRANCH  22  23
ENDBRANCH  21  22
ENDBRANCH  20  21
ENDBRANCH  19  20
ENDBRANCH  18  19
ENDBRANCH  17  18
ENDBRANCH  16  17
ENDBRANCH  15  16
ENDBRANCH   1  15
TORSDOF 22
ENDMDL
MODEL 3
REMARK VINA RESULT:    -5.428      2.649      5.586
REMARK INTER + INTRA:         -16.284
REMARK INTER:                 -11.842
REMARK INTRA:                  -4.442
REMARK UNBOUND:                -3.874
REMARK SMILES CCCCCCCCCCCCCCCCCCCCCCCC(=O)[O-]
REMARK SMILES IDX 13 1 14 2 15 3 16 4 17 5 18 6 19 7 20 8 21 9 22 10 23 11
REMARK SMILES IDX 24 12 25 13 26 14 12 15 11 16 10 17 9 18 8 19 7 20 6 21 5 22
REMARK SMILES IDX 4 23 3 24 2 25 1 26
REMARK H PARENT
REMARK Flexibility Score: inf
ROOT
ATOM      1  C   UNL     1     123.185 179.406 126.287  1.00  0.00     0.000 C 
ENDROOT
BRANCH   1   2
ATOM      2  C   UNL     1     121.769 178.996 125.832  1.00  0.00     0.000 C 
BRANCH   2   3
ATOM      3  C   UNL     1     120.624 179.833 126.432  1.00  0.00     0.000 C 
BRANCH   3   4
ATOM      4  C   UNL     1     119.450 179.016 127.007  1.00  0.00     0.000 C 
BRANCH   4   5
ATOM      5  C   UNL     1     119.187 177.689 126.264  1.00  0.00     0.000 C 
BRANCH   5   6
ATOM      6  C   UNL     1     118.601 176.604 127.185  1.00  0.00     0.000 C 
BRANCH   6   7
ATOM      7  C   UNL     1     118.754 176.950 128.676  1.00  0.00     0.000 C 
BRANCH   7   8
ATOM      8  C   UNL     1     118.195 175.848 129.593  1.00  0.00     0.000 C 
BRANCH   8   9
ATOM      9  C   UNL     1     119.166 175.452 130.720  1.00  0.00     0.000 C 
BRANCH   9  10
ATOM     10  C   UNL     1     119.676 174.000 130.664  1.00  0.00     0.006 C 
BRANCH  10  11
ATOM     11  C   UNL     1     119.376 173.308 129.328  1.00  0.00     0.053 C 
BRANCH  11  12
ATOM     12  C   UNL     1     120.266 172.120 129.135  1.00  0.00     0.041 C 
ATOM     13  O   UNL     1     120.749 171.524 130.135  1.00  0.00    -0.550 OA
ATOM     14  O   UNL     1     120.541 171.654 127.854  1.00  0.00    -0.550 OA
ENDBRANCH  11  12
ENDBRANCH  10  11
ENDBRANCH   9  10
ENDBRANCH   8   9
ENDBRANCH   7   8
ENDBRANCH   6   7
ENDBRANCH   5   6
ENDBRANCH   4   5
ENDBRANCH   3   4
ENDBRANCH   2   3
ENDBRANCH   1   2
BRANCH   1  15
ATOM     15  C   UNL     1     123.760 178.586 127.460  1.00  0.00     0.000 C 
BRANCH  15  16
ATOM     16  C   UNL     1     123.727 179.297 128.823  1.00  0.00     0.000 C 
BRANCH  16  17
ATOM     17  C   UNL     1     122.739 178.649 129.808  1.00  0.00     0.000 C 
BRANCH  17  18
ATOM     18  C   UNL     1     121.987 177.459 129.193  1.00  0.00    -0.000 C 
BRANCH  18  19
ATOM     19  C   UNL     1     122.420 176.111 129.790  1.00  0.00    -0.000 C 
BRANCH  19  20
ATOM     20  C   UNL     1     122.617 175.063 128.688  1.00  0.00    -0.000 C 
BRANCH  20  21
ATOM     21  C   UNL     1     121.782 175.404 127.444  1.00  0.00    -0.000 C 
BRANCH  21  22
ATOM     22  C   UNL     1     122.376 174.815 126.156  1.00  0.00    -0.000 C 
BRANCH  22  23
ATOM     23  C   UNL     1     122.577 175.871 125.058  1.00  0.00    -0.000 C 
BRANCH  23  24
ATOM     24  C   UNL     1     124.050 175.958 124.643  1.00  0.00    -0.000 C 
BRANCH  24  25
ATOM     25  C   UNL     1     124.262 177.054 123.593  1.00  0.00    -0.003 C 
ATOM     26  C   UNL     1     123.019 177.233 122.724  1.00  0.00     0.004 C 
ENDBRANCH  24  25
ENDBRANCH  23  24
ENDBRANCH  22  23
ENDBRANCH  21  22
ENDBRANCH  20  21
ENDBRANCH  19  20
ENDBRANCH  18  19
ENDBRANCH  17  18
ENDBRANCH  16  17
ENDBRANCH  15  16
ENDBRANCH   1  15
TORSDOF 22
ENDMDL
MODEL 4
REMARK VINA RESULT:    -5.329      2.023      6.099
REMARK INTER + INTRA:         -16.057
REMARK INTER:                 -12.338
REMARK INTRA:                  -3.719
REMARK UNBOUND:                -3.874
REMARK SMILES CCCCCCCCCCCCCCCCCCCCCCCC(=O)[O-]
REMARK SMILES IDX 13 1 14 2 15 3 16 4 17 5 18 6 19 7 20 8 21 9 22 10 23 11
REMARK SMILES IDX 24 12 25 13 26 14 12 15 11 16 10 17 9 18 8 19 7 20 6 21 5 22
REMARK SMILES IDX 4 23 3 24 2 25 1 26
REMARK H PARENT
REMARK Flexibility Score: inf
ROOT
ATOM      1  C   UNL     1     122.903 179.074 127.285  1.00  0.00     0.000 C 
ENDROOT
BRANCH   1   2
ATOM      2  C   UNL     1     122.781 178.935 128.817  1.00  0.00     0.000 C 
BRANCH   2   3
ATOM      3  C   UNL     1     123.785 177.963 129.465  1.00  0.00     0.000 C 
BRANCH   3   4
ATOM      4  C   UNL     1     123.221 177.118 130.624  1.00  0.00     0.000 C 
BRANCH   4   5
ATOM      5  C   UNL     1     121.679 177.095 130.689  1.00  0.00     0.000 C 
BRANCH   5   6
ATOM      6  C   UNL     1     121.079 175.854 130.007  1.00  0.00     0.000 C 
BRANCH   6   7
ATOM      7  C   UNL     1     119.848 176.188 129.148  1.00  0.00     0.000 C 
BRANCH   7   8
ATOM      8  C   UNL     1     120.045 175.815 127.669  1.00  0.00     0.000 C 
BRANCH   8   9
ATOM      9  C   UNL     1     121.525 175.621 127.289  1.00  0.00     0.000 C 
BRANCH   9  10
ATOM     10  C   UNL     1     121.769 174.827 125.993  1.00  0.00     0.006 C 
BRANCH  10  11
ATOM     11  C   UNL     1     120.807 173.645 125.822  1.00  0.00     0.053 C 
BRANCH  11  12
ATOM     12  C   UNL     1     121.372 172.406 126.444  1.00  0.00     0.041 C 
ATOM     13  O   UNL     1     122.618 172.290 126.600  1.00  0.00    -0.550 OA
ATOM     14  O   UNL     1     120.525 171.390 126.873  1.00  0.00    -0.550 OA
ENDBRANCH  11  12
ENDBRANCH  10  11
ENDBRANCH   9  10
ENDBRANCH   8   9
ENDBRANCH   7   8
ENDBRANCH   6   7
ENDBRANCH   5   6
ENDBRANCH   4   5
ENDBRANCH   3   4
ENDBRANCH   2   3
ENDBRANCH   1   2
BRANCH   1  15
ATOM     15  C   UNL     1     121.595 179.433 126.552  1.00  0.00     0.000 C 
BRANCH  15  16
ATOM     16  C   UNL     1     120.334 179.410 127.432  1.00  0.00     0.000 C 
BRANCH  16  17
ATOM     17  C   UNL     1     119.034 179.481 126.611  1.00  0.00     0.000 C 
BRANCH  17  18
ATOM     18  C   UNL     1     119.067 178.569 125.374  1.00  0.00    -0.000 C 
BRANCH  18  19
ATOM     19  C   UNL     1     118.422 179.219 124.141  1.00  0.00    -0.000 C 
BRANCH  19  20
ATOM     20  C   UNL     1     119.219 178.892 122.872  1.00  0.00    -0.000 C 
BRANCH  20  21
ATOM     21  C   UNL     1     120.633 179.488 122.938  1.00  0.00    -0.000 C 
BRANCH  21  22
ATOM     22  C   UNL     1     121.723 178.460 122.598  1.00  0.00    -0.000 C 
BRANCH  22  23
ATOM     23  C   UNL     1     122.264 177.737 123.841  1.00  0.00    -0.000 C 
BRANCH  23  24
ATOM     24  C   UNL     1     123.547 176.965 123.513  1.00  0.00    -0.000 C 
BRANCH  24  25
ATOM     25  C   UNL     1     123.975 177.202 122.060  1.00  0.00    -0.003 C 
ATOM     26  C   UNL     1     125.463 177.532 121.970  1.00  0.00     0.004 C 
ENDBRANCH  24  25
ENDBRANCH  23  24
ENDBRANCH  22  23
ENDBRANCH  21  22
ENDBRANCH  20  21
ENDBRANCH  19  20
ENDBRANCH  18  19
ENDBRANCH  17  18
ENDBRANCH  16  17
ENDBRANCH  15  16
ENDBRANCH   1  15
TORSDOF 22
ENDMDL
MODEL 5
REMARK VINA RESULT:    -5.325      1.464      2.786
REMARK INTER + INTRA:         -16.048
REMARK INTER:                 -11.924
REMARK INTRA:                  -4.124
REMARK UNBOUND:                -3.874
REMARK SMILES CCCCCCCCCCCCCCCCCCCCCCCC(=O)[O-]
REMARK SMILES IDX 13 1 14 2 15 3 16 4 17 5 18 6 19 7 20 8 21 9 22 10 23 11
REMARK SMILES IDX 24 12 25 13 26 14 12 15 11 16 10 17 9 18 8 19 7 20 6 21 5 22
REMARK SMILES IDX 4 23 3 24 2 25 1 26
REMARK H PARENT
REMARK Flexibility Score: inf
ROOT
ATOM      1  C   UNL     1     123.585 178.922 128.973  1.00  0.00     0.000 C 
ENDROOT
BRANCH   1   2
ATOM      2  C   UNL     1     123.734 178.617 127.468  1.00  0.00     0.000 C 
BRANCH   2   3
ATOM      3  C   UNL     1     122.701 179.307 126.557  1.00  0.00     0.000 C 
BRANCH   3   4
ATOM      4  C   UNL     1     121.252 179.289 127.082  1.00  0.00     0.000 C 
BRANCH   4   5
ATOM      5  C   UNL     1     120.207 179.767 126.051  1.00  0.00     0.000 C 
BRANCH   5   6
ATOM      6  C   UNL     1     120.117 178.837 124.828  1.00  0.00     0.000 C 
BRANCH   6   7
ATOM      7  C   UNL     1     120.486 179.550 123.516  1.00  0.00     0.000 C 
BRANCH   7   8
ATOM      8  C   UNL     1     121.443 178.717 122.646  1.00  0.00     0.000 C 
BRANCH   8   9
ATOM      9  C   UNL     1     122.129 177.579 123.425  1.00  0.00     0.000 C 
BRANCH   9  10
ATOM     10  C   UNL     1     123.589 177.298 123.023  1.00  0.00     0.006 C 
BRANCH  10  11
ATOM     11  C   UNL     1     124.476 176.912 124.213  1.00  0.00     0.053 C 
BRANCH  11  12
ATOM     12  C   UNL     1     125.923 177.100 123.878  1.00  0.00     0.041 C 
ATOM     13  O   UNL     1     126.388 178.261 123.716  1.00  0.00    -0.550 OA
ATOM     14  O   UNL     1     126.764 175.998 123.770  1.00  0.00    -0.550 OA
ENDBRANCH  11  12
ENDBRANCH  10  11
ENDBRANCH   9  10
ENDBRANCH   8   9
ENDBRANCH   7   8
ENDBRANCH   6   7
ENDBRANCH   5   6
ENDBRANCH   4   5
ENDBRANCH   3   4
ENDBRANCH   2   3
ENDBRANCH   1   2
BRANCH   1  15
ATOM     15  C   UNL     1     124.125 177.832 129.920  1.00  0.00     0.000 C 
BRANCH  15  16
ATOM     16  C   UNL     1     123.148 176.678 130.204  1.00  0.00     0.000 C 
BRANCH  16  17
ATOM     17  C   UNL     1     121.874 177.142 130.931  1.00  0.00     0.000 C 
BRANCH  17  18
ATOM     18  C   UNL     1     120.608 176.956 130.081  1.00  0.00    -0.000 C 
BRANCH  18  19
ATOM     19  C   UNL     1     120.542 175.575 129.412  1.00  0.00    -0.000 C 
BRANCH  19  20
ATOM     20  C   UNL     1     119.515 175.568 128.273  1.00  0.00    -0.000 C 
BRANCH  20  21
ATOM     21  C   UNL     1     120.194 175.802 126.915  1.00  0.00    -0.000 C 
BRANCH  21  22
ATOM     22  C   UNL     1     121.699 175.496 126.947  1.00  0.00    -0.000 C 
BRANCH  22  23
ATOM     23  C   UNL     1     122.134 174.539 125.827  1.00  0.00    -0.000 C 
BRANCH  23  24
ATOM     24  C   UNL     1     122.715 173.244 126.405  1.00  0.00    -0.000 C 
BRANCH  24  25
ATOM     25  C   UNL     1     122.712 173.276 127.938  1.00  0.00    -0.003 C 
ATOM     26  C   UNL     1     121.780 172.211 128.510  1.00  0.00     0.004 C 
ENDBRANCH  24  25
ENDBRANCH  23  24
ENDBRANCH  22  23
ENDBRANCH  21  22
ENDBRANCH  20  21
ENDBRANCH  19  20
ENDBRANCH  18  19
ENDBRANCH  17  18
ENDBRANCH  16  17
ENDBRANCH  15  16
ENDBRANCH   1  15
TORSDOF 22
ENDMDL
MODEL 6
REMARK VINA RESULT:    -5.295      3.201      6.199
REMARK INTER + INTRA:         -15.978
REMARK INTER:                 -12.367
REMARK INTRA:                  -3.612
REMARK UNBOUND:                -3.874
REMARK SMILES CCCCCCCCCCCCCCCCCCCCCCCC(=O)[O-]
REMARK SMILES IDX 13 1 14 2 15 3 16 4 17 5 18 6 19 7 20 8 21 9 22 10 23 11
REMARK SMILES IDX 24 12 25 13 26 14 12 15 11 16 10 17 9 18 8 19 7 20 6 21 5 22
REMARK SMILES IDX 4 23 3 24 2 25 1 26
REMARK H PARENT
REMARK Flexibility Score: inf
ROOT
ATOM      1  C   UNL     1     120.163 176.539 129.649  1.00  0.00     0.000 C 
ENDROOT
BRANCH   1   2
ATOM      2  C   UNL     1     121.342 176.638 130.640  1.00  0.00     0.000 C 
BRANCH   2   3
ATOM      3  C   UNL     1     122.741 176.561 129.998  1.00  0.00     0.000 C 
BRANCH   3   4
ATOM      4  C   UNL     1     123.688 177.722 130.356  1.00  0.00     0.000 C 
BRANCH   4   5
ATOM      5  C   UNL     1     123.757 178.828 129.281  1.00  0.00     0.000 C 
BRANCH   5   6
ATOM      6  C   UNL     1     123.459 178.297 127.868  1.00  0.00     0.000 C 
BRANCH   6   7
ATOM      7  C   UNL     1     123.247 179.425 126.845  1.00  0.00     0.000 C 
BRANCH   7   8
ATOM      8  C   UNL     1     121.825 179.427 126.261  1.00  0.00     0.000 C 
BRANCH   8   9
ATOM      9  C   UNL     1     120.736 179.196 127.325  1.00  0.00     0.000 C 
BRANCH   9  10
ATOM     10  C   UNL     1     119.289 179.387 126.834  1.00  0.00     0.006 C 
BRANCH  10  11
ATOM     11  C   UNL     1     119.206 180.028 125.443  1.00  0.00     0.053 C 
BRANCH  11  12
ATOM     12  C   UNL     1     118.195 179.323 124.594  1.00  0.00     0.041 C 
ATOM     13  O   UNL     1     117.032 179.116 125.037  1.00  0.00    -0.550 OA
ATOM     14  O   UNL     1     118.524 178.917 123.305  1.00  0.00    -0.550 OA
ENDBRANCH  11  12
ENDBRANCH  10  11
ENDBRANCH   9  10
ENDBRANCH   8   9
ENDBRANCH   7   8
ENDBRANCH   6   7
ENDBRANCH   5   6
ENDBRANCH   4   5
ENDBRANCH   3   4
ENDBRANCH   2   3
ENDBRANCH   1   2
BRANCH   1  15
ATOM     15  C   UNL     1     119.594 175.121 129.447  1.00  0.00     0.000 C 
BRANCH  15  16
ATOM     16  C   UNL     1     119.671 174.210 130.683  1.00  0.00     0.000 C 
BRANCH  16  17
ATOM     17  C   UNL     1     120.001 172.750 130.328  1.00  0.00     0.000 C 
BRANCH  17  18
ATOM     18  C   UNL     1     120.276 172.555 128.829  1.00  0.00    -0.000 C 
BRANCH  18  19
ATOM     19  C   UNL     1     121.733 172.164 128.540  1.00  0.00    -0.000 C 
BRANCH  19  20
ATOM     20  C   UNL     1     122.524 173.364 128.003  1.00  0.00    -0.000 C 
BRANCH  20  21
ATOM     21  C   UNL     1     121.888 173.916 126.719  1.00  0.00    -0.000 C 
BRANCH  21  22
ATOM     22  C   UNL     1     122.158 175.416 126.524  1.00  0.00    -0.000 C 
BRANCH  22  23
ATOM     23  C   UNL     1     122.433 175.783 125.058  1.00  0.00    -0.000 C 
BRANCH  23  24
ATOM     24  C   UNL     1     123.866 176.298 124.880  1.00  0.00    -0.000 C 
BRANCH  24  25
ATOM     25  C   UNL     1     123.968 177.232 123.669  1.00  0.00    -0.003 C 
ATOM     26  C   UNL     1     125.294 177.041 122.935  1.00  0.00     0.004 C 
ENDBRANCH  24  25
ENDBRANCH  23  24
ENDBRANCH  22  23
ENDBRANCH  21  22
ENDBRANCH  20  21
ENDBRANCH  19  20
ENDBRANCH  18  19
ENDBRANCH  17  18
ENDBRANCH  16  17
ENDBRANCH  15  16
ENDBRANCH   1  15
TORSDOF 22
ENDMDL
MODEL 7
REMARK VINA RESULT:    -5.250      3.136      6.440
REMARK INTER + INTRA:         -15.875
REMARK INTER:                 -11.718
REMARK INTRA:                  -4.157
REMARK UNBOUND:                -3.874
REMARK SMILES CCCCCCCCCCCCCCCCCCCCCCCC(=O)[O-]
REMARK SMILES IDX 13 1 14 2 15 3 16 4 17 5 18 6 19 7 20 8 21 9 22 10 23 11
REMARK SMILES IDX 24 12 25 13 26 14 12 15 11 16 10 17 9 18 8 19 7 20 6 21 5 22
REMARK SMILES IDX 4 23 3 24 2 25 1 26
REMARK H PARENT
REMARK Flexibility Score: inf
ROOT
ATOM      1  C   UNL     1     119.182 174.293 129.766  1.00  0.00     0.000 C 
ENDROOT
BRANCH   1   2
ATOM      2  C   UNL     1     119.218 172.766 129.542  1.00  0.00     0.000 C 
BRANCH   2   3
ATOM      3  C   UNL     1     120.609 172.120 129.685  1.00  0.00     0.000 C 
BRANCH   3   4
ATOM      4  C   UNL     1     121.129 171.403 128.424  1.00  0.00     0.000 C 
BRANCH   4   5
ATOM      5  C   UNL     1     120.948 172.215 127.123  1.00  0.00     0.000 C 
BRANCH   5   6
ATOM      6  C   UNL     1     122.194 173.044 126.767  1.00  0.00     0.000 C 
BRANCH   6   7
ATOM      7  C   UNL     1     121.964 174.556 126.929  1.00  0.00     0.000 C 
BRANCH   7   8
ATOM      8  C   UNL     1     120.512 174.964 126.629  1.00  0.00     0.000 C 
BRANCH   8   9
ATOM      9  C   UNL     1     120.343 176.479 126.417  1.00  0.00     0.000 C 
BRANCH   9  10
ATOM     10  C   UNL     1     119.336 177.164 127.359  1.00  0.00     0.006 C 
BRANCH  10  11
ATOM     11  C   UNL     1     119.086 178.635 127.005  1.00  0.00     0.053 C 
BRANCH  11  12
ATOM     12  C   UNL     1     118.729 178.780 125.558  1.00  0.00     0.041 C 
ATOM     13  O   UNL     1     117.691 178.225 125.105  1.00  0.00    -0.550 OA
ATOM     14  O   UNL     1     119.526 179.546 124.714  1.00  0.00    -0.550 OA
ENDBRANCH  11  12
ENDBRANCH  10  11
ENDBRANCH   9  10
ENDBRANCH   8   9
ENDBRANCH   7   8
ENDBRANCH   6   7
ENDBRANCH   5   6
ENDBRANCH   4   5
ENDBRANCH   3   4
ENDBRANCH   2   3
ENDBRANCH   1   2
BRANCH   1  15
ATOM     15  C   UNL     1     120.003 174.800 130.968  1.00  0.00     0.000 C 
BRANCH  15  16
ATOM     16  C   UNL     1     120.497 176.251 130.847  1.00  0.00     0.000 C 
BRANCH  16  17
ATOM     17  C   UNL     1     121.770 176.379 129.993  1.00  0.00     0.000 C 
BRANCH  17  18
ATOM     18  C   UNL     1     122.522 177.695 130.246  1.00  0.00    -0.000 C 
BRANCH  18  19
ATOM     19  C   UNL     1     122.214 178.765 129.189  1.00  0.00    -0.000 C 
BRANCH  19  20
ATOM     20  C   UNL     1     123.324 178.825 128.132  1.00  0.00    -0.000 C 
BRANCH  20  21
ATOM     21  C   UNL     1     122.833 179.518 126.853  1.00  0.00    -0.000 C 
BRANCH  21  22
ATOM     22  C   UNL     1     122.842 178.582 125.634  1.00  0.00    -0.000 C 
BRANCH  22  23
ATOM     23  C   UNL     1     123.915 177.487 125.735  1.00  0.00    -0.000 C 
BRANCH  23  24
ATOM     24  C   UNL     1     124.071 176.746 124.402  1.00  0.00    -0.000 C 
BRANCH  24  25
ATOM     25  C   UNL     1     122.865 176.996 123.489  1.00  0.00    -0.003 C 
ATOM     26  C   UNL     1     123.309 177.397 122.085  1.00  0.00     0.004 C 
ENDBRANCH  24  25
ENDBRANCH  23  24
ENDBRANCH  22  23
ENDBRANCH  21  22
ENDBRANCH  20  21
ENDBRANCH  19  20
ENDBRANCH  18  19
ENDBRANCH  17  18
ENDBRANCH  16  17
ENDBRANCH  15  16
ENDBRANCH   1  15
TORSDOF 22
ENDMDL
MODEL 8
REMARK VINA RESULT:    -5.249      2.034      5.596
REMARK INTER + INTRA:         -15.874
REMARK INTER:                 -11.616
REMARK INTRA:                  -4.258
REMARK UNBOUND:                -3.874
REMARK SMILES CCCCCCCCCCCCCCCCCCCCCCCC(=O)[O-]
REMARK SMILES IDX 13 1 14 2 15 3 16 4 17 5 18 6 19 7 20 8 21 9 22 10 23 11
REMARK SMILES IDX 24 12 25 13 26 14 12 15 11 16 10 17 9 18 8 19 7 20 6 21 5 22
REMARK SMILES IDX 4 23 3 24 2 25 1 26
REMARK H PARENT
REMARK Flexibility Score: inf
ROOT
ATOM      1  C   UNL     1     119.352 173.257 130.020  1.00  0.00     0.000 C 
ENDROOT
BRANCH   1   2
ATOM      2  C   UNL     1     118.912 174.719 129.793  1.00  0.00     0.000 C 
BRANCH   2   3
ATOM      3  C   UNL     1     119.453 175.730 130.821  1.00  0.00     0.000 C 
BRANCH   3   4
ATOM      4  C   UNL     1     120.979 175.940 130.791  1.00  0.00     0.000 C 
BRANCH   4   5
ATOM      5  C   UNL     1     121.406 177.421 130.712  1.00  0.00     0.000 C 
BRANCH   5   6
ATOM      6  C   UNL     1     122.768 177.606 130.021  1.00  0.00     0.000 C 
BRANCH   6   7
ATOM      7  C   UNL     1     123.129 179.087 129.814  1.00  0.00     0.000 C 
BRANCH   7   8
ATOM      8  C   UNL     1     123.754 179.350 128.433  1.00  0.00     0.000 C 
BRANCH   8   9
ATOM      9  C   UNL     1     123.624 178.152 127.475  1.00  0.00     0.000 C 
BRANCH   9  10
ATOM     10  C   UNL     1     123.867 178.473 125.989  1.00  0.00     0.006 C 
BRANCH  10  11
ATOM     11  C   UNL     1     123.792 177.235 125.086  1.00  0.00     0.053 C 
BRANCH  11  12
ATOM     12  C   UNL     1     124.724 177.369 123.923  1.00  0.00     0.041 C 
ATOM     13  O   UNL     1     124.278 177.306 122.745  1.00  0.00    -0.550 OA
ATOM     14  O   UNL     1     126.081 177.589 124.135  1.00  0.00    -0.550 OA
ENDBRANCH  11  12
ENDBRANCH  10  11
ENDBRANCH   9  10
ENDBRANCH   8   9
ENDBRANCH   7   8
ENDBRANCH   6   7
ENDBRANCH   5   6
ENDBRANCH   4   5
ENDBRANCH   3   4
ENDBRANCH   2   3
ENDBRANCH   1   2
BRANCH   1  15
ATOM     15  C   UNL     1     118.960 172.272 128.901  1.00  0.00     0.000 C 
BRANCH  15  16
ATOM     16  C   UNL     1     120.117 171.843 127.982  1.00  0.00     0.000 C 
BRANCH  16  17
ATOM     17  C   UNL     1     119.854 172.168 126.502  1.00  0.00     0.000 C 
BRANCH  17  18
ATOM     18  C   UNL     1     120.677 173.367 126.006  1.00  0.00    -0.000 C 
BRANCH  18  19
ATOM     19  C   UNL     1     121.658 173.891 127.065  1.00  0.00    -0.000 C 
BRANCH  19  20
ATOM     20  C   UNL     1     121.441 175.387 127.320  1.00  0.00    -0.000 C 
BRANCH  20  21
ATOM     21  C   UNL     1     120.491 175.994 126.277  1.00  0.00    -0.000 C 
BRANCH  21  22
ATOM     22  C   UNL     1     119.371 176.831 126.914  1.00  0.00    -0.000 C 
BRANCH  22  23
ATOM     23  C   UNL     1     119.895 178.108 127.588  1.00  0.00    -0.000 C 
BRANCH  23  24
ATOM     24  C   UNL     1     119.474 179.355 126.802  1.00  0.00    -0.000 C 
BRANCH  24  25
ATOM     25  C   UNL     1     120.624 179.869 125.928  1.00  0.00    -0.003 C 
ATOM     26  C   UNL     1     120.425 179.475 124.467  1.00  0.00     0.004 C 
ENDBRANCH  24  25
ENDBRANCH  23  24
ENDBRANCH  22  23
ENDBRANCH  21  22
ENDBRANCH  20  21
ENDBRANCH  19  20
ENDBRANCH  18  19
ENDBRANCH  17  18
ENDBRANCH  16  17
ENDBRANCH  15  16
ENDBRANCH   1  15
TORSDOF 22
ENDMDL
MODEL 9
REMARK VINA RESULT:    -5.244      1.515      3.207
REMARK INTER + INTRA:         -15.862
REMARK INTER:                 -12.685
REMARK INTRA:                  -3.177
REMARK UNBOUND:                -3.874
REMARK SMILES CCCCCCCCCCCCCCCCCCCCCCCC(=O)[O-]
REMARK SMILES IDX 13 1 14 2 15 3 16 4 17 5 18 6 19 7 20 8 21 9 22 10 23 11
REMARK SMILES IDX 24 12 25 13 26 14 12 15 11 16 10 17 9 18 8 19 7 20 6 21 5 22
REMARK SMILES IDX 4 23 3 24 2 25 1 26
REMARK H PARENT
REMARK Flexibility Score: inf
ROOT
ATOM      1  C   UNL     1     123.816 179.174 128.500  1.00  0.00     0.000 C 
ENDROOT
BRANCH   1   2
ATOM      2  C   UNL     1     123.379 179.318 127.027  1.00  0.00     0.000 C 
BRANCH   2   3
ATOM      3  C   UNL     1     123.169 177.989 126.276  1.00  0.00     0.000 C 
BRANCH   3   4
ATOM      4  C   UNL     1     124.163 177.724 125.128  1.00  0.00     0.000 C 
BRANCH   4   5
ATOM      5  C   UNL     1     123.639 176.736 124.063  1.00  0.00     0.000 C 
BRANCH   5   6
ATOM      6  C   UNL     1     124.029 177.150 122.634  1.00  0.00     0.000 C 
BRANCH   6   7
ATOM      7  C   UNL     1     125.509 177.551 122.518  1.00  0.00     0.000 C 
BRANCH   7   8
ATOM      8  C   UNL     1     126.295 176.626 121.573  1.00  0.00     0.000 C 
BRANCH   8   9
ATOM      9  C   UNL     1     126.492 175.210 122.142  1.00  0.00     0.000 C 
BRANCH   9  10
ATOM     10  C   UNL     1     126.949 175.153 123.612  1.00  0.00     0.006 C 
BRANCH  10  11
ATOM     11  C   UNL     1     126.467 173.893 124.343  1.00  0.00     0.053 C 
BRANCH  11  12
ATOM     12  C   UNL     1     127.158 172.675 123.814  1.00  0.00     0.041 C 
ATOM     13  O   UNL     1     128.397 172.523 123.996  1.00  0.00    -0.550 OA
ATOM     14  O   UNL     1     126.434 171.696 123.143  1.00  0.00    -0.550 OA
ENDBRANCH  11  12
ENDBRANCH  10  11
ENDBRANCH   9  10
ENDBRANCH   8   9
ENDBRANCH   7   8
ENDBRANCH   6   7
ENDBRANCH   5   6
ENDBRANCH   4   5
ENDBRANCH   3   4
ENDBRANCH   2   3
ENDBRANCH   1   2
BRANCH   1  15
ATOM     15  C   UNL     1     122.736 178.625 129.454  1.00  0.00     0.000 C 
BRANCH  15  16
ATOM     16  C   UNL     1     122.960 177.177 129.920  1.00  0.00     0.000 C 
BRANCH  16  17
ATOM     17  C   UNL     1     121.647 176.388 130.067  1.00  0.00     0.000 C 
BRANCH  17  18
ATOM     18  C   UNL     1     121.046 175.985 128.712  1.00  0.00    -0.000 C 
BRANCH  18  19
ATOM     19  C   UNL     1     119.510 175.950 128.732  1.00  0.00    -0.000 C 
BRANCH  19  20
ATOM     20  C   UNL     1     118.927 177.268 128.209  1.00  0.00    -0.000 C 
BRANCH  20  21
ATOM     21  C   UNL     1     119.856 177.910 127.168  1.00  0.00    -0.000 C 
BRANCH  21  22
ATOM     22  C   UNL     1     119.617 179.420 127.015  1.00  0.00    -0.000 C 
BRANCH  22  23
ATOM     23  C   UNL     1     119.223 179.817 125.585  1.00  0.00    -0.000 C 
BRANCH  23  24
ATOM     24  C   UNL     1     120.464 180.111 124.735  1.00  0.00    -0.000 C 
BRANCH  24  25
ATOM     25  C   UNL     1     120.704 179.000 123.707  1.00  0.00    -0.003 C 
ATOM     26  C   UNL     1     120.763 179.562 122.289  1.00  0.00     0.004 C 
ENDBRANCH  24  25
ENDBRANCH  23  24
ENDBRANCH  22  23
ENDBRANCH  21  22
ENDBRANCH  20  21
ENDBRANCH  19  20
ENDBRANCH  18  19
ENDBRANCH  17  18
ENDBRANCH  16  17
ENDBRANCH  15  16
ENDBRANCH   1  15
TORSDOF 22
ENDMDL
