MODEL 1
REMARK VINA RESULT:    -6.633      0.000      0.000
REMARK INTER + INTRA:          -8.322
REMARK INTER:                  -7.990
REMARK INTRA:                  -0.332
REMARK UNBOUND:                -0.332
REMARK SMILES O=c1c(O)c(-c2ccc(O)c(O)c2)oc2cc(O)cc(O)c12
REMARK SMILES IDX 5 1 3 2 2 3 1 4 22 5 20 6 19 7 17 8 16 9 15 10 14 11 6 12
REMARK SMILES IDX 7 13 8 14 9 15 13 16 11 17 10 18 12 20 4 22 21 24 18 26
REMARK H PARENT 10 19 12 21 4 23 21 25 18 27
REMARK Flexibility Score: inf
ROOT
ATOM      1  C   UNL     1      10.084  12.527 -16.926  1.00  0.00     0.180 A 
ATOM      2  C   UNL     1      10.818  13.628 -16.440  1.00  0.00     0.208 A 
ATOM      3  C   UNL     1      10.860  14.805 -17.203  1.00  0.00     0.238 A 
ATOM      4  O   UNL     1      11.522  15.793 -16.783  1.00  0.00    -0.285 OA
ATOM      5  C   UNL     1      10.155  14.871 -18.423  1.00  0.00     0.111 A 
ATOM      6  C   UNL     1      10.144  16.021 -19.249  1.00  0.00     0.134 A 
ATOM      7  C   UNL     1       9.410  16.010 -20.444  1.00  0.00     0.093 A 
ATOM      8  C   UNL     1       8.691  14.877 -20.830  1.00  0.00     0.123 A 
ATOM      9  C   UNL     1       8.699  13.738 -20.018  1.00  0.00     0.094 A 
ATOM     10  C   UNL     1       9.425  13.728 -18.823  1.00  0.00     0.146 A 
ATOM     11  O   UNL     1       9.421  12.631 -18.073  1.00  0.00    -0.452 OA
ENDROOT
BRANCH   1  12
ATOM     12  C   UNL     1      10.008  11.245 -16.189  1.00  0.00     0.025 A 
ATOM     13  C   UNL     1      10.939  10.216 -16.411  1.00  0.00     0.016 A 
ATOM     14  C   UNL     1      10.832   9.006 -15.722  1.00  0.00     0.051 A 
ATOM     15  C   UNL     1       9.787   8.802 -14.812  1.00  0.00     0.157 A 
ATOM     16  C   UNL     1       8.950  11.027 -15.291  1.00  0.00     0.062 A 
ATOM     17  C   UNL     1       8.842   9.814 -14.598  1.00  0.00     0.158 A 
BRANCH  15  18
ATOM     18  O   UNL     1       9.678   7.596 -14.120  1.00  0.00    -0.504 OA
ATOM     19  H   UNL     1       9.242   6.782 -14.539  1.00  0.00     0.293 HD
ENDBRANCH  15  18
BRANCH  17  20
ATOM     20  O   UNL     1       7.799   9.605 -13.697  1.00  0.00    -0.504 OA
ATOM     21  H   UNL     1       6.975   9.076 -13.955  1.00  0.00     0.293 HD
ENDBRANCH  17  20
ENDBRANCH   1  12
BRANCH   2  22
ATOM     22  O   UNL     1      11.466  13.553 -15.204  1.00  0.00    -0.502 OA
ATOM     23  H   UNL     1      11.693  14.377 -14.661  1.00  0.00     0.293 HD
ENDBRANCH   2  22
BRANCH   6  24
ATOM     24  O   UNL     1      10.851  17.169 -18.891  1.00  0.00    -0.507 OA
ATOM     25  H   UNL     1      11.257  17.280 -17.969  1.00  0.00     0.293 HD
ENDBRANCH   6  24
BRANCH   8  26
ATOM     26  O   UNL     1       7.970  14.894 -22.021  1.00  0.00    -0.508 OA
ATOM     27  H   UNL     1       7.162  14.298 -22.160  1.00  0.00     0.293 HD
ENDBRANCH   8  26
TORSDOF 6
ENDMDL
MODEL 2
REMARK VINA RESULT:    -6.241      0.607      1.411
REMARK INTER + INTRA:          -7.850
REMARK INTER:                  -7.590
REMARK INTRA:                  -0.260
REMARK UNBOUND:                -0.332
REMARK SMILES O=c1c(O)c(-c2ccc(O)c(O)c2)oc2cc(O)cc(O)c12
REMARK SMILES IDX 5 1 3 2 2 3 1 4 22 5 20 6 19 7 17 8 16 9 15 10 14 11 6 12
REMARK SMILES IDX 7 13 8 14 9 15 13 16 11 17 10 18 12 20 4 22 21 24 18 26
REMARK H PARENT 10 19 12 21 4 23 21 25 18 27
REMARK Flexibility Score: inf
ROOT
ATOM      1  C   UNL     1       9.785  12.611 -16.980  1.00  0.00     0.180 A 
ATOM      2  C   UNL     1      10.580  13.665 -16.486  1.00  0.00     0.208 A 
ATOM      3  C   UNL     1      10.736  14.820 -17.268  1.00  0.00     0.238 A 
ATOM      4  O   UNL     1      11.455  15.765 -16.841  1.00  0.00    -0.285 OA
ATOM      5  C   UNL     1      10.084  14.913 -18.515  1.00  0.00     0.111 A 
ATOM      6  C   UNL     1      10.187  16.043 -19.361  1.00  0.00     0.134 A 
ATOM      7  C   UNL     1       9.499  16.062 -20.583  1.00  0.00     0.093 A 
ATOM      8  C   UNL     1       8.712  14.977 -20.975  1.00  0.00     0.123 A 
ATOM      9  C   UNL     1       8.607  13.857 -20.143  1.00  0.00     0.094 A 
ATOM     10  C   UNL     1       9.285  13.818 -18.922  1.00  0.00     0.146 A 
ATOM     11  O   UNL     1       9.173  12.740 -18.154  1.00  0.00    -0.452 OA
ENDROOT
BRANCH   1  12
ATOM     12  C   UNL     1       9.586  11.354 -16.224  1.00  0.00     0.025 A 
ATOM     13  C   UNL     1       8.391  11.098 -15.530  1.00  0.00     0.016 A 
ATOM     14  C   UNL     1       8.236   9.916 -14.802  1.00  0.00     0.051 A 
ATOM     15  C   UNL     1       9.276   8.979 -14.747  1.00  0.00     0.157 A 
ATOM     16  C   UNL     1      10.634  10.421 -16.148  1.00  0.00     0.062 A 
ATOM     17  C   UNL     1      10.478   9.233 -15.420  1.00  0.00     0.158 A 
BRANCH  15  18
ATOM     18  O   UNL     1       9.124   7.797 -14.024  1.00  0.00    -0.504 OA
ATOM     19  H   UNL     1       9.657   6.965 -14.251  1.00  0.00     0.293 HD
ENDBRANCH  15  18
BRANCH  17  20
ATOM     20  O   UNL     1      11.514   8.303 -15.357  1.00  0.00    -0.504 OA
ATOM     21  H   UNL     1      12.484   8.584 -15.430  1.00  0.00     0.293 HD
ENDBRANCH  17  20
ENDBRANCH   1  12
BRANCH   2  22
ATOM     22  O   UNL     1      11.175  13.568 -15.226  1.00  0.00    -0.502 OA
ATOM     23  H   UNL     1      11.905  14.201 -14.922  1.00  0.00     0.293 HD
ENDBRANCH   2  22
BRANCH   6  24
ATOM     24  O   UNL     1      10.965  17.143 -18.997  1.00  0.00    -0.507 OA
ATOM     25  H   UNL     1      11.255  17.297 -18.038  1.00  0.00     0.293 HD
ENDBRANCH   6  24
BRANCH   8  26
ATOM     26  O   UNL     1       8.039  15.022 -22.193  1.00  0.00    -0.508 OA
ATOM     27  H   UNL     1       7.031  14.920 -22.245  1.00  0.00     0.293 HD
ENDBRANCH   8  26
TORSDOF 6
ENDMDL
MODEL 3
REMARK VINA RESULT:    -6.161      1.967      2.965
REMARK INTER + INTRA:          -7.754
REMARK INTER:                  -7.767
REMARK INTRA:                   0.013
REMARK UNBOUND:                -0.332
REMARK SMILES O=c1c(O)c(-c2ccc(O)c(O)c2)oc2cc(O)cc(O)c12
REMARK SMILES IDX 5 1 3 2 2 3 1 4 22 5 20 6 19 7 17 8 16 9 15 10 14 11 6 12
REMARK SMILES IDX 7 13 8 14 9 15 13 16 11 17 10 18 12 20 4 22 21 24 18 26
REMARK H PARENT 10 19 12 21 4 23 21 25 18 27
REMARK Flexibility Score: inf
ROOT
ATOM      1  C   UNL     1       8.667  11.437 -15.010  1.00  0.00     0.180 A 
ATOM      2  C   UNL     1       9.162  12.640 -14.467  1.00  0.00     0.208 A 
ATOM      3  C   UNL     1       9.606  13.645 -15.340  1.00  0.00     0.238 A 
ATOM      4  O   UNL     1      10.062  14.722 -14.866  1.00  0.00    -0.285 OA
ATOM      5  C   UNL     1       9.531  13.442 -16.734  1.00  0.00     0.111 A 
ATOM      6  C   UNL     1       9.955  14.405 -17.680  1.00  0.00     0.134 A 
ATOM      7  C   UNL     1       9.839  14.131 -19.051  1.00  0.00     0.093 A 
ATOM      8  C   UNL     1       9.310  12.916 -19.493  1.00  0.00     0.123 A 
ATOM      9  C   UNL     1       8.890  11.960 -18.562  1.00  0.00     0.094 A 
ATOM     10  C   UNL     1       8.999  12.214 -17.192  1.00  0.00     0.146 A 
ATOM     11  O   UNL     1       8.598  11.287 -16.329  1.00  0.00    -0.452 OA
ENDROOT
BRANCH   1  12
ATOM     12  C   UNL     1       8.197  10.323 -14.155  1.00  0.00     0.025 A 
ATOM     13  C   UNL     1       7.286  10.538 -13.107  1.00  0.00     0.016 A 
ATOM     14  C   UNL     1       6.875   9.477 -12.298  1.00  0.00     0.051 A 
ATOM     15  C   UNL     1       7.379   8.188 -12.515  1.00  0.00     0.157 A 
ATOM     16  C   UNL     1       8.716   9.033 -14.354  1.00  0.00     0.062 A 
ATOM     17  C   UNL     1       8.304   7.966 -13.544  1.00  0.00     0.158 A 
BRANCH  15  18
ATOM     18  O   UNL     1       6.971   7.125 -11.711  1.00  0.00    -0.504 OA
ATOM     19  H   UNL     1       7.461   6.237 -11.716  1.00  0.00     0.293 HD
ENDBRANCH  15  18
BRANCH  17  20
ATOM     20  O   UNL     1       8.810   6.684 -13.753  1.00  0.00    -0.504 OA
ATOM     21  H   UNL     1       8.806   5.987 -13.019  1.00  0.00     0.293 HD
ENDBRANCH  17  20
ENDBRANCH   1  12
BRANCH   2  22
ATOM     22  O   UNL     1       9.179  12.835 -13.084  1.00  0.00    -0.502 OA
ATOM     23  H   UNL     1       8.793  13.664 -12.649  1.00  0.00     0.293 HD
ENDBRANCH   2  22
BRANCH   6  24
ATOM     24  O   UNL     1      10.487  15.628 -17.271  1.00  0.00    -0.507 OA
ATOM     25  H   UNL     1      11.328  16.011 -17.688  1.00  0.00     0.293 HD
ENDBRANCH   6  24
BRANCH   8  26
ATOM     26  O   UNL     1       9.205  12.670 -20.860  1.00  0.00    -0.508 OA
ATOM     27  H   UNL     1      10.024  12.641 -21.457  1.00  0.00     0.293 HD
ENDBRANCH   8  26
TORSDOF 6
ENDMDL
MODEL 4
REMARK VINA RESULT:    -6.112      1.223      2.980
REMARK INTER + INTRA:          -7.695
REMARK INTER:                  -7.382
REMARK INTRA:                  -0.312
REMARK UNBOUND:                -0.332
REMARK SMILES O=c1c(O)c(-c2ccc(O)c(O)c2)oc2cc(O)cc(O)c12
REMARK SMILES IDX 5 1 3 2 2 3 1 4 22 5 20 6 19 7 17 8 16 9 15 10 14 11 6 12
REMARK SMILES IDX 7 13 8 14 9 15 13 16 11 17 10 18 12 20 4 22 21 24 18 26
REMARK H PARENT 10 19 12 21 4 23 21 25 18 27
REMARK Flexibility Score: inf
ROOT
ATOM      1  C   UNL     1       9.134  11.733 -17.651  1.00  0.00     0.180 A 
ATOM      2  C   UNL     1       8.299  11.478 -18.757  1.00  0.00     0.208 A 
ATOM      3  C   UNL     1       8.091  12.498 -19.698  1.00  0.00     0.238 A 
ATOM      4  O   UNL     1       7.336  12.285 -20.686  1.00  0.00    -0.285 OA
ATOM      5  C   UNL     1       8.732  13.743 -19.532  1.00  0.00     0.111 A 
ATOM      6  C   UNL     1       8.578  14.820 -20.437  1.00  0.00     0.134 A 
ATOM      7  C   UNL     1       9.259  16.025 -20.206  1.00  0.00     0.093 A 
ATOM      8  C   UNL     1      10.088  16.173 -19.092  1.00  0.00     0.123 A 
ATOM      9  C   UNL     1      10.244  15.111 -18.194  1.00  0.00     0.094 A 
ATOM     10  C   UNL     1       9.573  13.904 -18.405  1.00  0.00     0.146 A 
ATOM     11  O   UNL     1       9.734  12.913 -17.535  1.00  0.00    -0.452 OA
ENDROOT
BRANCH   1  12
ATOM     12  C   UNL     1       9.388  10.715 -16.606  1.00  0.00     0.025 A 
ATOM     13  C   UNL     1      10.515   9.876 -16.659  1.00  0.00     0.016 A 
ATOM     14  C   UNL     1      10.721   8.907 -15.675  1.00  0.00     0.051 A 
ATOM     15  C   UNL     1       9.799   8.752 -14.632  1.00  0.00     0.157 A 
ATOM     16  C   UNL     1       8.456  10.541 -15.570  1.00  0.00     0.062 A 
ATOM     17  C   UNL     1       8.662   9.569 -14.581  1.00  0.00     0.158 A 
BRANCH  15  18
ATOM     18  O   UNL     1      10.002   7.786 -13.648  1.00  0.00    -0.504 OA
ATOM     19  H   UNL     1      10.637   7.944 -12.873  1.00  0.00     0.293 HD
ENDBRANCH  15  18
BRANCH  17  20
ATOM     20  O   UNL     1       7.742   9.407 -13.547  1.00  0.00    -0.504 OA
ATOM     21  H   UNL     1       7.526   8.494 -13.168  1.00  0.00     0.293 HD
ENDBRANCH  17  20
ENDBRANCH   1  12
BRANCH   2  22
ATOM     22  O   UNL     1       7.714  10.220 -18.924  1.00  0.00    -0.502 OA
ATOM     23  H   UNL     1       7.403   9.659 -18.141  1.00  0.00     0.293 HD
ENDBRANCH   2  22
BRANCH   6  24
ATOM     24  O   UNL     1       7.758  14.704 -21.559  1.00  0.00    -0.507 OA
ATOM     25  H   UNL     1       8.094  14.921 -22.491  1.00  0.00     0.293 HD
ENDBRANCH   6  24
BRANCH   8  26
ATOM     26  O   UNL     1      10.753  17.380 -18.887  1.00  0.00    -0.508 OA
ATOM     27  H   UNL     1      10.467  18.024 -18.158  1.00  0.00     0.293 HD
ENDBRANCH   8  26
TORSDOF 6
ENDMDL
MODEL 5
REMARK VINA RESULT:    -6.054      2.106      2.713
REMARK INTER + INTRA:          -7.624
REMARK INTER:                  -7.657
REMARK INTRA:                   0.032
REMARK UNBOUND:                -0.332
REMARK SMILES O=c1c(O)c(-c2ccc(O)c(O)c2)oc2cc(O)cc(O)c12
REMARK SMILES IDX 5 1 3 2 2 3 1 4 22 5 20 6 19 7 17 8 16 9 15 10 14 11 6 12
REMARK SMILES IDX 7 13 8 14 9 15 13 16 11 17 10 18 12 20 4 22 21 24 18 26
REMARK H PARENT 10 19 12 21 4 23 21 25 18 27
REMARK Flexibility Score: inf
ROOT
ATOM      1  C   UNL     1       9.646  13.878 -18.372  1.00  0.00     0.180 A 
ATOM      2  C   UNL     1       9.266  14.991 -17.595  1.00  0.00     0.208 A 
ATOM      3  C   UNL     1       8.867  16.168 -18.247  1.00  0.00     0.238 A 
ATOM      4  O   UNL     1       8.535  17.174 -17.562  1.00  0.00    -0.285 OA
ATOM      5  C   UNL     1       8.834  16.209 -19.656  1.00  0.00     0.111 A 
ATOM      6  C   UNL     1       8.441  17.355 -20.388  1.00  0.00     0.134 A 
ATOM      7  C   UNL     1       8.426  17.312 -21.791  1.00  0.00     0.093 A 
ATOM      8  C   UNL     1       8.796  16.152 -22.473  1.00  0.00     0.123 A 
ATOM      9  C   UNL     1       9.187  15.016 -21.754  1.00  0.00     0.094 A 
ATOM     10  C   UNL     1       9.209  15.039 -20.357  1.00  0.00     0.146 A 
ATOM     11  O   UNL     1       9.589  13.949 -19.698  1.00  0.00    -0.452 OA
ENDROOT
BRANCH   1  12
ATOM     12  C   UNL     1      10.097  12.608 -17.759  1.00  0.00     0.025 A 
ATOM     13  C   UNL     1      11.026  12.593 -16.705  1.00  0.00     0.016 A 
ATOM     14  C   UNL     1      11.456  11.381 -16.159  1.00  0.00     0.051 A 
ATOM     15  C   UNL     1      10.973  10.168 -16.667  1.00  0.00     0.157 A 
ATOM     16  C   UNL     1       9.632  11.388 -18.278  1.00  0.00     0.062 A 
ATOM     17  C   UNL     1      10.061  10.171 -17.730  1.00  0.00     0.158 A 
BRANCH  15  18
ATOM     18  O   UNL     1      11.397   8.956 -16.123  1.00  0.00    -0.504 OA
ATOM     19  H   UNL     1      11.717   8.194 -16.711  1.00  0.00     0.293 HD
ENDBRANCH  15  18
BRANCH  17  20
ATOM     20  O   UNL     1       9.588   8.963 -18.238  1.00  0.00    -0.504 OA
ATOM     21  H   UNL     1       9.867   8.075 -17.839  1.00  0.00     0.293 HD
ENDBRANCH  17  20
ENDBRANCH   1  12
BRANCH   2  22
ATOM     22  O   UNL     1       9.260  14.908 -16.200  1.00  0.00    -0.502 OA
ATOM     23  H   UNL     1       8.788  15.591 -15.619  1.00  0.00     0.293 HD
ENDBRANCH   2  22
BRANCH   6  24
ATOM     24  O   UNL     1       8.065  18.529 -19.736  1.00  0.00    -0.507 OA
ATOM     25  H   UNL     1       8.748  19.216 -19.437  1.00  0.00     0.293 HD
ENDBRANCH   6  24
BRANCH   8  26
ATOM     26  O   UNL     1       8.772  16.137 -23.865  1.00  0.00    -0.508 OA
ATOM     27  H   UNL     1       8.909  15.279 -24.388  1.00  0.00     0.293 HD
ENDBRANCH   8  26
TORSDOF 6
ENDMDL
MODEL 6
REMARK VINA RESULT:    -6.045      2.453      3.266
REMARK INTER + INTRA:          -7.614
REMARK INTER:                  -7.614
REMARK INTRA:                  -0.000
REMARK UNBOUND:                -0.332
REMARK SMILES O=c1c(O)c(-c2ccc(O)c(O)c2)oc2cc(O)cc(O)c12
REMARK SMILES IDX 5 1 3 2 2 3 1 4 22 5 20 6 19 7 17 8 16 9 15 10 14 11 6 12
REMARK SMILES IDX 7 13 8 14 9 15 13 16 11 17 10 18 12 20 4 22 21 24 18 26
REMARK H PARENT 10 19 12 21 4 23 21 25 18 27
REMARK Flexibility Score: inf
ROOT
ATOM      1  C   UNL     1       8.464  13.121 -17.461  1.00  0.00     0.180 A 
ATOM      2  C   UNL     1       8.894  12.485 -18.643  1.00  0.00     0.208 A 
ATOM      3  C   UNL     1       9.054  13.253 -19.807  1.00  0.00     0.238 A 
ATOM      4  O   UNL     1       9.427  12.693 -20.874  1.00  0.00    -0.285 OA
ATOM      5  C   UNL     1       8.805  14.641 -19.767  1.00  0.00     0.111 A 
ATOM      6  C   UNL     1       8.947  15.486 -20.893  1.00  0.00     0.134 A 
ATOM      7  C   UNL     1       8.688  16.859 -20.769  1.00  0.00     0.093 A 
ATOM      8  C   UNL     1       8.291  17.402 -19.545  1.00  0.00     0.123 A 
ATOM      9  C   UNL     1       8.149  16.572 -18.428  1.00  0.00     0.094 A 
ATOM     10  C   UNL     1       8.400  15.201 -18.532  1.00  0.00     0.146 A 
ATOM     11  O   UNL     1       8.252  14.433 -17.458  1.00  0.00    -0.452 OA
ENDROOT
BRANCH   1  12
ATOM     12  C   UNL     1       8.253  12.376 -16.199  1.00  0.00     0.025 A 
ATOM     13  C   UNL     1       7.509  11.184 -16.168  1.00  0.00     0.016 A 
ATOM     14  C   UNL     1       7.302  10.511 -14.962  1.00  0.00     0.051 A 
ATOM     15  C   UNL     1       7.824  11.026 -13.768  1.00  0.00     0.157 A 
ATOM     16  C   UNL     1       8.757  12.898 -14.996  1.00  0.00     0.062 A 
ATOM     17  C   UNL     1       8.551  12.224 -13.785  1.00  0.00     0.158 A 
BRANCH  15  18
ATOM     18  O   UNL     1       7.622  10.357 -12.562  1.00  0.00    -0.504 OA
ATOM     19  H   UNL     1       8.301  10.402 -11.810  1.00  0.00     0.293 HD
ENDBRANCH  15  18
BRANCH  17  20
ATOM     20  O   UNL     1       9.063  12.738 -12.595  1.00  0.00    -0.504 OA
ATOM     21  H   UNL     1       9.008  13.725 -12.377  1.00  0.00     0.293 HD
ENDBRANCH  17  20
ENDBRANCH   1  12
BRANCH   2  22
ATOM     22  O   UNL     1       9.182  11.118 -18.644  1.00  0.00    -0.502 OA
ATOM     23  H   UNL     1       8.456  10.411 -18.657  1.00  0.00     0.293 HD
ENDBRANCH   2  22
BRANCH   6  24
ATOM     24  O   UNL     1       9.342  14.974 -22.129  1.00  0.00    -0.507 OA
ATOM     25  H   UNL     1       8.728  14.993 -22.935  1.00  0.00     0.293 HD
ENDBRANCH   6  24
BRANCH   8  26
ATOM     26  O   UNL     1       8.041  18.769 -19.450  1.00  0.00    -0.508 OA
ATOM     27  H   UNL     1       8.273  19.404 -20.205  1.00  0.00     0.293 HD
ENDBRANCH   8  26
TORSDOF 6
ENDMDL
MODEL 7
REMARK VINA RESULT:    -6.022      1.726      7.115
REMARK INTER + INTRA:          -7.586
REMARK INTER:                  -7.496
REMARK INTRA:                  -0.090
REMARK UNBOUND:                -0.332
REMARK SMILES O=c1c(O)c(-c2ccc(O)c(O)c2)oc2cc(O)cc(O)c12
REMARK SMILES IDX 5 1 3 2 2 3 1 4 22 5 20 6 19 7 17 8 16 9 15 10 14 11 6 12
REMARK SMILES IDX 7 13 8 14 9 15 13 16 11 17 10 18 12 20 4 22 21 24 18 26
REMARK H PARENT 10 19 12 21 4 23 21 25 18 27
REMARK Flexibility Score: inf
ROOT
ATOM      1  C   UNL     1       9.198  12.732 -18.277  1.00  0.00     0.180 A 
ATOM      2  C   UNL     1       9.783  11.491 -18.597  1.00  0.00     0.208 A 
ATOM      3  C   UNL     1       9.827  10.489 -17.615  1.00  0.00     0.238 A 
ATOM      4  O   UNL     1      10.359   9.377 -17.886  1.00  0.00    -0.285 OA
ATOM      5  C   UNL     1       9.271  10.734 -16.343  1.00  0.00     0.111 A 
ATOM      6  C   UNL     1       9.272   9.777 -15.300  1.00  0.00     0.134 A 
ATOM      7  C   UNL     1       8.689  10.095 -14.064  1.00  0.00     0.093 A 
ATOM      8  C   UNL     1       8.108  11.347 -13.851  1.00  0.00     0.123 A 
ATOM      9  C   UNL     1       8.105  12.297 -14.878  1.00  0.00     0.094 A 
ATOM     10  C   UNL     1       8.681  12.000 -16.116  1.00  0.00     0.146 A 
ATOM     11  O   UNL     1       8.670  12.922 -17.072  1.00  0.00    -0.452 OA
ENDROOT
BRANCH   1  12
ATOM     12  C   UNL     1       9.130  13.844 -19.252  1.00  0.00     0.025 A 
ATOM     13  C   UNL     1       8.491  13.691 -20.495  1.00  0.00     0.016 A 
ATOM     14  C   UNL     1       8.460  14.746 -21.409  1.00  0.00     0.051 A 
ATOM     15  C   UNL     1       9.079  15.965 -21.101  1.00  0.00     0.157 A 
ATOM     16  C   UNL     1       9.766  15.061 -18.958  1.00  0.00     0.062 A 
ATOM     17  C   UNL     1       9.735  16.122 -19.874  1.00  0.00     0.158 A 
BRANCH  15  18
ATOM     18  O   UNL     1       9.049  17.021 -22.010  1.00  0.00    -0.504 OA
ATOM     19  H   UNL     1       8.381  17.047 -22.772  1.00  0.00     0.293 HD
ENDBRANCH  15  18
BRANCH  17  20
ATOM     20  O   UNL     1      10.357  17.333 -19.573  1.00  0.00    -0.504 OA
ATOM     21  H   UNL     1      11.355  17.458 -19.684  1.00  0.00     0.293 HD
ENDBRANCH  17  20
ENDBRANCH   1  12
BRANCH   2  22
ATOM     22  O   UNL     1      10.283  11.256 -19.881  1.00  0.00    -0.502 OA
ATOM     23  H   UNL     1       9.701  10.912 -20.635  1.00  0.00     0.293 HD
ENDBRANCH   2  22
BRANCH   6  24
ATOM     24  O   UNL     1       9.843   8.517 -15.482  1.00  0.00    -0.507 OA
ATOM     25  H   UNL     1      10.333   8.272 -16.335  1.00  0.00     0.293 HD
ENDBRANCH   6  24
BRANCH   8  26
ATOM     26  O   UNL     1       7.536  11.636 -12.614  1.00  0.00    -0.508 OA
ATOM     27  H   UNL     1       8.047  12.143 -11.900  1.00  0.00     0.293 HD
ENDBRANCH   8  26
TORSDOF 6
ENDMDL
MODEL 8
REMARK VINA RESULT:    -6.014      1.855      3.221
REMARK INTER + INTRA:          -7.577
REMARK INTER:                  -7.254
REMARK INTRA:                  -0.322
REMARK UNBOUND:                -0.332
REMARK SMILES O=c1c(O)c(-c2ccc(O)c(O)c2)oc2cc(O)cc(O)c12
REMARK SMILES IDX 5 1 3 2 2 3 1 4 22 5 20 6 19 7 17 8 16 9 15 10 14 11 6 12
REMARK SMILES IDX 7 13 8 14 9 15 13 16 11 17 10 18 12 20 4 22 21 24 18 26
REMARK H PARENT 10 19 12 21 4 23 21 25 18 27
REMARK Flexibility Score: inf
ROOT
ATOM      1  C   UNL     1       9.276  13.281 -18.364  1.00  0.00     0.180 A 
ATOM      2  C   UNL     1       9.282  13.208 -19.771  1.00  0.00     0.208 A 
ATOM      3  C   UNL     1       9.027  14.373 -20.511  1.00  0.00     0.238 A 
ATOM      4  O   UNL     1       9.019  14.318 -21.771  1.00  0.00    -0.285 OA
ATOM      5  C   UNL     1       8.791  15.590 -19.838  1.00  0.00     0.111 A 
ATOM      6  C   UNL     1       8.529  16.808 -20.509  1.00  0.00     0.134 A 
ATOM      7  C   UNL     1       8.314  17.979 -19.767  1.00  0.00     0.093 A 
ATOM      8  C   UNL     1       8.353  17.955 -18.371  1.00  0.00     0.123 A 
ATOM      9  C   UNL     1       8.611  16.754 -17.702  1.00  0.00     0.094 A 
ATOM     10  C   UNL     1       8.827  15.576 -18.423  1.00  0.00     0.146 A 
ATOM     11  O   UNL     1       9.064  14.448 -17.764  1.00  0.00    -0.452 OA
ENDROOT
BRANCH   1  12
ATOM     12  C   UNL     1       9.518  12.093 -17.513  1.00  0.00     0.025 A 
ATOM     13  C   UNL     1      10.809  11.760 -17.070  1.00  0.00     0.016 A 
ATOM     14  C   UNL     1      11.018  10.621 -16.289  1.00  0.00     0.051 A 
ATOM     15  C   UNL     1       9.941   9.791 -15.952  1.00  0.00     0.157 A 
ATOM     16  C   UNL     1       8.445  11.245 -17.190  1.00  0.00     0.062 A 
ATOM     17  C   UNL     1       8.653  10.102 -16.405  1.00  0.00     0.158 A 
BRANCH  15  18
ATOM     18  O   UNL     1      10.144   8.654 -15.171  1.00  0.00    -0.504 OA
ATOM     19  H   UNL     1      11.070   8.269 -15.025  1.00  0.00     0.293 HD
ENDBRANCH  15  18
BRANCH  17  20
ATOM     20  O   UNL     1       7.584   9.270 -16.074  1.00  0.00    -0.504 OA
ATOM     21  H   UNL     1       6.804   9.133 -16.705  1.00  0.00     0.293 HD
ENDBRANCH  17  20
ENDBRANCH   1  12
BRANCH   2  22
ATOM     22  O   UNL     1       9.568  12.001 -20.414  1.00  0.00    -0.502 OA
ATOM     23  H   UNL     1      10.453  11.829 -20.876  1.00  0.00     0.293 HD
ENDBRANCH   2  22
BRANCH   6  24
ATOM     24  O   UNL     1       8.484  16.864 -21.902  1.00  0.00    -0.507 OA
ATOM     25  H   UNL     1       8.664  17.725 -22.408  1.00  0.00     0.293 HD
ENDBRANCH   6  24
BRANCH   8  26
ATOM     26  O   UNL     1       8.136  19.132 -17.659  1.00  0.00    -0.508 OA
ATOM     27  H   UNL     1       7.906  19.118 -16.671  1.00  0.00     0.293 HD
ENDBRANCH   8  26
TORSDOF 6
ENDMDL
MODEL 9
REMARK VINA RESULT:    -5.970      2.999      7.399
REMARK INTER + INTRA:          -7.524
REMARK INTER:                  -7.596
REMARK INTRA:                   0.073
REMARK UNBOUND:                -0.332
REMARK SMILES O=c1c(O)c(-c2ccc(O)c(O)c2)oc2cc(O)cc(O)c12
REMARK SMILES IDX 5 1 3 2 2 3 1 4 22 5 20 6 19 7 17 8 16 9 15 10 14 11 6 12
REMARK SMILES IDX 7 13 8 14 9 15 13 16 11 17 10 18 12 20 4 22 21 24 18 26
REMARK H PARENT 10 19 12 21 4 23 21 25 18 27
REMARK Flexibility Score: inf
ROOT
ATOM      1  C   UNL     1       8.715  16.114 -18.423  1.00  0.00     0.180 A 
ATOM      2  C   UNL     1       8.697  15.822 -19.802  1.00  0.00     0.208 A 
ATOM      3  C   UNL     1       9.023  14.523 -20.224  1.00  0.00     0.238 A 
ATOM      4  O   UNL     1       9.022  14.253 -21.456  1.00  0.00    -0.285 OA
ATOM      5  C   UNL     1       9.338  13.537 -19.267  1.00  0.00     0.111 A 
ATOM      6  C   UNL     1       9.673  12.205 -19.609  1.00  0.00     0.134 A 
ATOM      7  C   UNL     1       9.966  11.279 -18.596  1.00  0.00     0.093 A 
ATOM      8  C   UNL     1       9.931  11.658 -17.253  1.00  0.00     0.123 A 
ATOM      9  C   UNL     1       9.601  12.973 -16.909  1.00  0.00     0.094 A 
ATOM     10  C   UNL     1       9.307  13.911 -17.903  1.00  0.00     0.146 A 
ATOM     11  O   UNL     1       9.003  15.154 -17.549  1.00  0.00    -0.452 OA
ENDROOT
BRANCH   1  12
ATOM     12  C   UNL     1       8.402  17.463 -17.901  1.00  0.00     0.025 A 
ATOM     13  C   UNL     1       7.488  17.648 -16.849  1.00  0.00     0.016 A 
ATOM     14  C   UNL     1       7.190  18.932 -16.389  1.00  0.00     0.051 A 
ATOM     15  C   UNL     1       7.789  20.051 -16.981  1.00  0.00     0.157 A 
ATOM     16  C   UNL     1       8.984  18.590 -18.505  1.00  0.00     0.062 A 
ATOM     17  C   UNL     1       8.687  19.880 -18.043  1.00  0.00     0.158 A 
BRANCH  15  18
ATOM     18  O   UNL     1       7.496  21.335 -16.524  1.00  0.00    -0.504 OA
ATOM     19  H   UNL     1       6.970  21.487 -15.671  1.00  0.00     0.293 HD
ENDBRANCH  15  18
BRANCH  17  20
ATOM     20  O   UNL     1       9.276  20.995 -18.636  1.00  0.00    -0.504 OA
ATOM     21  H   UNL     1       9.166  21.191 -19.623  1.00  0.00     0.293 HD
ENDBRANCH  17  20
ENDBRANCH   1  12
BRANCH   2  22
ATOM     22  O   UNL     1       8.333  16.804 -20.727  1.00  0.00    -0.502 OA
ATOM     23  H   UNL     1       9.018  17.364 -21.220  1.00  0.00     0.293 HD
ENDBRANCH   2  22
BRANCH   6  24
ATOM     24  O   UNL     1       9.716  11.795 -20.942  1.00  0.00    -0.507 OA
ATOM     25  H   UNL     1      10.427  11.158 -21.282  1.00  0.00     0.293 HD
ENDBRANCH   6  24
BRANCH   8  26
ATOM     26  O   UNL     1      10.225  10.719 -16.267  1.00  0.00    -0.508 OA
ATOM     27  H   UNL     1      10.026   9.733 -16.399  1.00  0.00     0.293 HD
ENDBRANCH   8  26
TORSDOF 6
ENDMDL
