MODEL 1
REMARK VINA RESULT:    -7.579      0.000      0.000
REMARK INTER + INTRA:          -9.702
REMARK INTER:                  -9.352
REMARK INTRA:                  -0.350
REMARK UNBOUND:                -0.350
REMARK SMILES Oc1cc(O)c2cc(O)c(-c3cc(O)c(O)c(O)c3)[o+]c2c1
REMARK SMILES IDX 10 1 20 2 21 3 22 4 2 5 3 6 4 7 6 8 7 9 8 10 11 11 12 12
REMARK SMILES IDX 13 13 19 14 15 15 17 16 14 17 16 19 18 21 9 23 1 25 5 27
REMARK H PARENT 14 18 16 20 18 22 9 24 1 26 5 28
REMARK Flexibility Score: inf
ROOT
ATOM      1  C   UNL     1      37.683 -11.987   8.639  1.00  0.00     0.402 A 
ATOM      2  O   UNL     1      37.809 -11.634   7.362  1.00  0.00    -0.202 OA
ATOM      3  C   UNL     1      36.868 -11.852   6.449  1.00  0.00     0.368 A 
ATOM      4  C   UNL     1      37.092 -11.441   5.132  1.00  0.00     0.162 A 
ATOM      5  C   UNL     1      36.122 -11.654   4.152  1.00  0.00     0.128 A 
ATOM      6  C   UNL     1      34.917 -12.282   4.490  1.00  0.00     0.093 A 
ATOM      7  C   UNL     1      34.669 -12.703   5.802  1.00  0.00     0.136 A 
ATOM      8  C   UNL     1      35.655 -12.490   6.801  1.00  0.00     0.125 A 
ATOM      9  C   UNL     1      35.498 -12.890   8.138  1.00  0.00     0.078 A 
ATOM     10  C   UNL     1      36.517 -12.650   9.066  1.00  0.00     0.223 A 
ENDROOT
BRANCH   1  11
ATOM     11  C   UNL     1      38.798 -11.680   9.564  1.00  0.00     0.091 A 
ATOM     12  C   UNL     1      39.978 -12.437   9.497  1.00  0.00     0.068 A 
ATOM     13  C   UNL     1      41.055 -12.154  10.347  1.00  0.00     0.162 A 
ATOM     14  C   UNL     1      38.722 -10.610  10.472  1.00  0.00     0.068 A 
ATOM     15  C   UNL     1      40.966 -11.099  11.264  1.00  0.00     0.200 A 
ATOM     16  C   UNL     1      39.797 -10.321  11.324  1.00  0.00     0.162 A 
BRANCH  13  17
ATOM     17  O   UNL     1      42.220 -12.918  10.286  1.00  0.00    -0.504 OA
ATOM     18  H   UNL     1      42.227 -13.896  10.550  1.00  0.00     0.293 HD
ENDBRANCH  13  17
BRANCH  15  19
ATOM     19  O   UNL     1      42.048 -10.834  12.105  1.00  0.00    -0.502 OA
ATOM     20  H   UNL     1      42.935 -11.315  12.009  1.00  0.00     0.293 HD
ENDBRANCH  15  19
BRANCH  16  21
ATOM     21  O   UNL     1      39.711  -9.261  12.225  1.00  0.00    -0.504 OA
ATOM     22  H   UNL     1      40.157  -9.299  13.133  1.00  0.00     0.293 HD
ENDBRANCH  16  21
ENDBRANCH   1  11
BRANCH  10  23
ATOM     23  O   UNL     1      36.384 -13.091  10.381  1.00  0.00    -0.500 OA
ATOM     24  H   UNL     1      36.913 -12.674  11.139  1.00  0.00     0.294 HD
ENDBRANCH  10  23
BRANCH   5  25
ATOM     25  O   UNL     1      36.363 -11.238   2.845  1.00  0.00    -0.507 OA
ATOM     26  H   UNL     1      37.184 -11.542   2.334  1.00  0.00     0.293 HD
ENDBRANCH   5  25
BRANCH   7  27
ATOM     27  O   UNL     1      33.441 -13.318   6.059  1.00  0.00    -0.507 OA
ATOM     28  H   UNL     1      33.316 -14.106   6.679  1.00  0.00     0.293 HD
ENDBRANCH   7  27
TORSDOF 7
ENDMDL
MODEL 2
REMARK VINA RESULT:    -7.553      0.095      1.790
REMARK INTER + INTRA:          -9.670
REMARK INTER:                  -9.327
REMARK INTRA:                  -0.342
REMARK UNBOUND:                -0.350
REMARK SMILES Oc1cc(O)c2cc(O)c(-c3cc(O)c(O)c(O)c3)[o+]c2c1
REMARK SMILES IDX 10 1 20 2 21 3 22 4 2 5 3 6 4 7 6 8 7 9 8 10 11 11 12 12
REMARK SMILES IDX 13 13 19 14 15 15 17 16 14 17 16 19 18 21 9 23 1 25 5 27
REMARK H PARENT 14 18 16 20 18 22 9 24 1 26 5 28
REMARK Flexibility Score: inf
ROOT
ATOM      1  C   UNL     1      37.657 -11.984   8.599  1.00  0.00     0.402 A 
ATOM      2  O   UNL     1      37.757 -11.619   7.324  1.00  0.00    -0.202 OA
ATOM      3  C   UNL     1      36.796 -11.823   6.430  1.00  0.00     0.368 A 
ATOM      4  C   UNL     1      36.992 -11.400   5.113  1.00  0.00     0.162 A 
ATOM      5  C   UNL     1      36.000 -11.599   4.152  1.00  0.00     0.128 A 
ATOM      6  C   UNL     1      34.801 -12.225   4.509  1.00  0.00     0.093 A 
ATOM      7  C   UNL     1      34.580 -12.659   5.822  1.00  0.00     0.136 A 
ATOM      8  C   UNL     1      35.588 -12.460   6.801  1.00  0.00     0.125 A 
ATOM      9  C   UNL     1      35.459 -12.874   8.137  1.00  0.00     0.078 A 
ATOM     10  C   UNL     1      36.499 -12.647   9.045  1.00  0.00     0.223 A 
ENDROOT
BRANCH   1  11
ATOM     11  C   UNL     1      38.794 -11.691   9.503  1.00  0.00     0.091 A 
ATOM     12  C   UNL     1      38.699 -10.620  10.405  1.00  0.00     0.068 A 
ATOM     13  C   UNL     1      39.751 -10.335  11.285  1.00  0.00     0.162 A 
ATOM     14  C   UNL     1      39.945 -12.498   9.517  1.00  0.00     0.068 A 
ATOM     15  C   UNL     1      40.905 -11.129  11.280  1.00  0.00     0.200 A 
ATOM     16  C   UNL     1      41.000 -12.218  10.397  1.00  0.00     0.162 A 
BRANCH  13  17
ATOM     17  O   UNL     1      39.658  -9.260  12.169  1.00  0.00    -0.504 OA
ATOM     18  H   UNL     1      40.481  -8.766  12.492  1.00  0.00     0.293 HD
ENDBRANCH  13  17
BRANCH  15  19
ATOM     19  O   UNL     1      41.943 -10.828  12.161  1.00  0.00    -0.502 OA
ATOM     20  H   UNL     1      42.794 -11.377  12.200  1.00  0.00     0.293 HD
ENDBRANCH  15  19
BRANCH  16  21
ATOM     21  O   UNL     1      42.140 -13.021  10.399  1.00  0.00    -0.504 OA
ATOM     22  H   UNL     1      42.175 -13.890  10.917  1.00  0.00     0.293 HD
ENDBRANCH  16  21
ENDBRANCH   1  11
BRANCH  10  23
ATOM     23  O   UNL     1      36.392 -13.101  10.358  1.00  0.00    -0.500 OA
ATOM     24  H   UNL     1      35.628 -13.698  10.656  1.00  0.00     0.294 HD
ENDBRANCH  10  23
BRANCH   5  25
ATOM     25  O   UNL     1      36.215 -11.170   2.844  1.00  0.00    -0.507 OA
ATOM     26  H   UNL     1      36.371 -11.828   2.089  1.00  0.00     0.293 HD
ENDBRANCH   5  25
BRANCH   7  27
ATOM     27  O   UNL     1      33.355 -13.272   6.100  1.00  0.00    -0.507 OA
ATOM     28  H   UNL     1      32.707 -12.957   6.807  1.00  0.00     0.293 HD
ENDBRANCH   7  27
TORSDOF 7
ENDMDL
MODEL 3
REMARK VINA RESULT:    -7.108      0.976      2.532
REMARK INTER + INTRA:          -9.120
REMARK INTER:                  -8.740
REMARK INTRA:                  -0.380
REMARK UNBOUND:                -0.350
REMARK SMILES Oc1cc(O)c2cc(O)c(-c3cc(O)c(O)c(O)c3)[o+]c2c1
REMARK SMILES IDX 10 1 20 2 21 3 22 4 2 5 3 6 4 7 6 8 7 9 8 10 11 11 12 12
REMARK SMILES IDX 13 13 19 14 15 15 17 16 14 17 16 19 18 21 9 23 1 25 5 27
REMARK H PARENT 14 18 16 20 18 22 9 24 1 26 5 28
REMARK Flexibility Score: inf
ROOT
ATOM      1  C   UNL     1      38.232 -11.552   7.993  1.00  0.00     0.402 A 
ATOM      2  O   UNL     1      37.137 -12.297   8.114  1.00  0.00    -0.202 OA
ATOM      3  C   UNL     1      36.255 -12.461   7.134  1.00  0.00     0.368 A 
ATOM      4  C   UNL     1      35.135 -13.267   7.355  1.00  0.00     0.162 A 
ATOM      5  C   UNL     1      34.193 -13.460   6.345  1.00  0.00     0.128 A 
ATOM      6  C   UNL     1      34.370 -12.843   5.101  1.00  0.00     0.093 A 
ATOM      7  C   UNL     1      35.483 -12.030   4.854  1.00  0.00     0.136 A 
ATOM      8  C   UNL     1      36.442 -11.830   5.881  1.00  0.00     0.125 A 
ATOM      9  C   UNL     1      37.581 -11.022   5.727  1.00  0.00     0.078 A 
ATOM     10  C   UNL     1      38.480 -10.869   6.788  1.00  0.00     0.223 A 
ENDROOT
BRANCH   1  11
ATOM     11  C   UNL     1      39.146 -11.455   9.155  1.00  0.00     0.091 A 
ATOM     12  C   UNL     1      40.214 -12.359   9.269  1.00  0.00     0.068 A 
ATOM     13  C   UNL     1      41.105 -12.276  10.347  1.00  0.00     0.162 A 
ATOM     14  C   UNL     1      39.001 -10.443  10.119  1.00  0.00     0.068 A 
ATOM     15  C   UNL     1      40.943 -11.278  11.316  1.00  0.00     0.200 A 
ATOM     16  C   UNL     1      39.890 -10.355  11.198  1.00  0.00     0.162 A 
BRANCH  13  17
ATOM     17  O   UNL     1      42.157 -13.185  10.462  1.00  0.00    -0.504 OA
ATOM     18  H   UNL     1      42.674 -13.290  11.327  1.00  0.00     0.293 HD
ENDBRANCH  13  17
BRANCH  15  19
ATOM     19  O   UNL     1      41.838 -11.213  12.384  1.00  0.00    -0.502 OA
ATOM     20  H   UNL     1      42.736 -11.681  12.363  1.00  0.00     0.293 HD
ENDBRANCH  15  19
BRANCH  16  21
ATOM     21  O   UNL     1      39.734  -9.350  12.153  1.00  0.00    -0.504 OA
ATOM     22  H   UNL     1      40.097  -8.416  12.004  1.00  0.00     0.293 HD
ENDBRANCH  16  21
ENDBRANCH   1  11
BRANCH  10  23
ATOM     23  O   UNL     1      39.584 -10.028   6.653  1.00  0.00    -0.500 OA
ATOM     24  H   UNL     1      40.042  -9.890   5.759  1.00  0.00     0.294 HD
ENDBRANCH  10  23
BRANCH   5  25
ATOM     25  O   UNL     1      33.083 -14.267   6.585  1.00  0.00    -0.507 OA
ATOM     26  H   UNL     1      33.091 -14.980   7.306  1.00  0.00     0.293 HD
ENDBRANCH   5  25
BRANCH   7  27
ATOM     27  O   UNL     1      35.590 -11.453   3.586  1.00  0.00    -0.507 OA
ATOM     28  H   UNL     1      36.053 -10.576   3.395  1.00  0.00     0.293 HD
ENDBRANCH   7  27
TORSDOF 7
ENDMDL
MODEL 4
REMARK VINA RESULT:    -7.096      6.067     11.392
REMARK INTER + INTRA:          -9.105
REMARK INTER:                  -8.804
REMARK INTRA:                  -0.301
REMARK UNBOUND:                -0.350
REMARK SMILES Oc1cc(O)c2cc(O)c(-c3cc(O)c(O)c(O)c3)[o+]c2c1
REMARK SMILES IDX 10 1 20 2 21 3 22 4 2 5 3 6 4 7 6 8 7 9 8 10 11 11 12 12
REMARK SMILES IDX 13 13 19 14 15 15 17 16 14 17 16 19 18 21 9 23 1 25 5 27
REMARK H PARENT 14 18 16 20 18 22 9 24 1 26 5 28
REMARK Flexibility Score: inf
ROOT
ATOM      1  C   UNL     1      31.465 -14.240   2.203  1.00  0.00     0.402 A 
ATOM      2  O   UNL     1      32.502 -13.465   1.898  1.00  0.00    -0.202 OA
ATOM      3  C   UNL     1      33.636 -13.458   2.590  1.00  0.00     0.368 A 
ATOM      4  C   UNL     1      34.672 -12.611   2.189  1.00  0.00     0.162 A 
ATOM      5  C   UNL     1      35.875 -12.584   2.895  1.00  0.00     0.128 A 
ATOM      6  C   UNL     1      36.046 -13.411   4.012  1.00  0.00     0.093 A 
ATOM      7  C   UNL     1      35.023 -14.268   4.434  1.00  0.00     0.136 A 
ATOM      8  C   UNL     1      33.797 -14.296   3.719  1.00  0.00     0.125 A 
ATOM      9  C   UNL     1      32.713 -15.114   4.078  1.00  0.00     0.078 A 
ATOM     10  C   UNL     1      31.534 -15.084   3.327  1.00  0.00     0.223 A 
ENDROOT
BRANCH   1  11
ATOM     11  C   UNL     1      30.258 -14.165   1.347  1.00  0.00     0.091 A 
ATOM     12  C   UNL     1      29.502 -12.982   1.322  1.00  0.00     0.068 A 
ATOM     13  C   UNL     1      28.369 -12.879   0.505  1.00  0.00     0.162 A 
ATOM     14  C   UNL     1      29.883 -15.233   0.515  1.00  0.00     0.068 A 
ATOM     15  C   UNL     1      27.988 -13.955  -0.306  1.00  0.00     0.200 A 
ATOM     16  C   UNL     1      28.751 -15.135  -0.305  1.00  0.00     0.162 A 
BRANCH  13  17
ATOM     17  O   UNL     1      27.613 -11.707   0.495  1.00  0.00    -0.504 OA
ATOM     18  H   UNL     1      27.968 -10.843   0.890  1.00  0.00     0.293 HD
ENDBRANCH  13  17
BRANCH  15  19
ATOM     19  O   UNL     1      26.855 -13.834  -1.110  1.00  0.00    -0.502 OA
ATOM     20  H   UNL     1      26.721 -14.397  -1.942  1.00  0.00     0.293 HD
ENDBRANCH  15  19
BRANCH  16  21
ATOM     21  O   UNL     1      28.384 -16.203  -1.124  1.00  0.00    -0.504 OA
ATOM     22  H   UNL     1      28.641 -17.156  -0.898  1.00  0.00     0.293 HD
ENDBRANCH  16  21
ENDBRANCH   1  11
BRANCH  10  23
ATOM     23  O   UNL     1      30.439 -15.858   3.710  1.00  0.00    -0.500 OA
ATOM     24  H   UNL     1      30.263 -16.086   4.683  1.00  0.00     0.294 HD
ENDBRANCH  10  23
BRANCH   5  25
ATOM     25  O   UNL     1      36.897 -11.732   2.480  1.00  0.00    -0.507 OA
ATOM     26  H   UNL     1      37.334 -11.832   1.571  1.00  0.00     0.293 HD
ENDBRANCH   5  25
BRANCH   7  27
ATOM     27  O   UNL     1      35.272 -15.065   5.555  1.00  0.00    -0.507 OA
ATOM     28  H   UNL     1      36.192 -15.349   5.859  1.00  0.00     0.293 HD
ENDBRANCH   7  27
TORSDOF 7
ENDMDL
MODEL 5
REMARK VINA RESULT:    -7.066      1.465      7.197
REMARK INTER + INTRA:          -9.068
REMARK INTER:                  -8.784
REMARK INTRA:                  -0.284
REMARK UNBOUND:                -0.350
REMARK SMILES Oc1cc(O)c2cc(O)c(-c3cc(O)c(O)c(O)c3)[o+]c2c1
REMARK SMILES IDX 10 1 20 2 21 3 22 4 2 5 3 6 4 7 6 8 7 9 8 10 11 11 12 12
REMARK SMILES IDX 13 13 19 14 15 15 17 16 14 17 16 19 18 21 9 23 1 25 5 27
REMARK H PARENT 14 18 16 20 18 22 9 24 1 26 5 28
REMARK Flexibility Score: inf
ROOT
ATOM      1  C   UNL     1      38.293 -11.827   8.690  1.00  0.00     0.402 A 
ATOM      2  O   UNL     1      39.025 -12.900   8.980  1.00  0.00    -0.202 OA
ATOM      3  C   UNL     1      39.992 -12.898   9.891  1.00  0.00     0.368 A 
ATOM      4  C   UNL     1      40.704 -14.077  10.129  1.00  0.00     0.162 A 
ATOM      5  C   UNL     1      41.723 -14.106  11.080  1.00  0.00     0.128 A 
ATOM      6  C   UNL     1      42.035 -12.949  11.803  1.00  0.00     0.093 A 
ATOM      7  C   UNL     1      41.336 -11.755  11.583  1.00  0.00     0.136 A 
ATOM      8  C   UNL     1      40.301 -11.721  10.614  1.00  0.00     0.125 A 
ATOM      9  C   UNL     1      39.557 -10.567  10.318  1.00  0.00     0.078 A 
ATOM     10  C   UNL     1      38.553 -10.610   9.345  1.00  0.00     0.223 A 
ENDROOT
BRANCH   1  11
ATOM     11  C   UNL     1      37.235 -11.958   7.661  1.00  0.00     0.091 A 
ATOM     12  C   UNL     1      37.428 -11.381   6.396  1.00  0.00     0.068 A 
ATOM     13  C   UNL     1      36.452 -11.508   5.400  1.00  0.00     0.162 A 
ATOM     14  C   UNL     1      36.064 -12.695   7.905  1.00  0.00     0.068 A 
ATOM     15  C   UNL     1      35.277 -12.226   5.655  1.00  0.00     0.200 A 
ATOM     16  C   UNL     1      35.085 -12.826   6.911  1.00  0.00     0.162 A 
BRANCH  13  17
ATOM     17  O   UNL     1      36.642 -10.921   4.149  1.00  0.00    -0.504 OA
ATOM     18  H   UNL     1      37.569 -10.700   3.803  1.00  0.00     0.293 HD
ENDBRANCH  13  17
BRANCH  15  19
ATOM     19  O   UNL     1      34.315 -12.339   4.652  1.00  0.00    -0.502 OA
ATOM     20  H   UNL     1      33.328 -12.201   4.833  1.00  0.00     0.293 HD
ENDBRANCH  15  19
BRANCH  16  21
ATOM     21  O   UNL     1      33.923 -13.555   7.165  1.00  0.00    -0.504 OA
ATOM     22  H   UNL     1      33.188 -13.639   6.473  1.00  0.00     0.293 HD
ENDBRANCH  16  21
ENDBRANCH   1  11
BRANCH  10  23
ATOM     23  O   UNL     1      37.849  -9.453   9.015  1.00  0.00    -0.500 OA
ATOM     24  H   UNL     1      38.026  -8.948   8.154  1.00  0.00     0.294 HD
ENDBRANCH  10  23
BRANCH   5  25
ATOM     25  O   UNL     1      42.422 -15.291  11.303  1.00  0.00    -0.507 OA
ATOM     26  H   UNL     1      43.038 -15.684  10.600  1.00  0.00     0.293 HD
ENDBRANCH   5  25
BRANCH   7  27
ATOM     27  O   UNL     1      41.704 -10.644  12.347  1.00  0.00    -0.507 OA
ATOM     28  H   UNL     1      41.260  -9.739  12.290  1.00  0.00     0.293 HD
ENDBRANCH   7  27
TORSDOF 7
ENDMDL
MODEL 6
REMARK VINA RESULT:    -6.995      6.102      9.725
REMARK INTER + INTRA:          -8.981
REMARK INTER:                  -8.806
REMARK INTRA:                  -0.174
REMARK UNBOUND:                -0.350
REMARK SMILES Oc1cc(O)c2cc(O)c(-c3cc(O)c(O)c(O)c3)[o+]c2c1
REMARK SMILES IDX 10 1 20 2 21 3 22 4 2 5 3 6 4 7 6 8 7 9 8 10 11 11 12 12
REMARK SMILES IDX 13 13 19 14 15 15 17 16 14 17 16 19 18 21 9 23 1 25 5 27
REMARK H PARENT 14 18 16 20 18 22 9 24 1 26 5 28
REMARK Flexibility Score: inf
ROOT
ATOM      1  C   UNL     1      31.891 -14.573   1.837  1.00  0.00     0.402 A 
ATOM      2  O   UNL     1      30.771 -14.607   2.553  1.00  0.00    -0.202 OA
ATOM      3  C   UNL     1      29.598 -14.980   2.054  1.00  0.00     0.368 A 
ATOM      4  C   UNL     1      28.476 -14.986   2.887  1.00  0.00     0.162 A 
ATOM      5  C   UNL     1      27.231 -15.376   2.393  1.00  0.00     0.128 A 
ATOM      6  C   UNL     1      27.105 -15.765   1.054  1.00  0.00     0.093 A 
ATOM      7  C   UNL     1      28.213 -15.768   0.199  1.00  0.00     0.136 A 
ATOM      8  C   UNL     1      29.480 -15.369   0.698  1.00  0.00     0.125 A 
ATOM      9  C   UNL     1      30.643 -15.329  -0.089  1.00  0.00     0.078 A 
ATOM     10  C   UNL     1      31.856 -14.920   0.473  1.00  0.00     0.223 A 
ENDROOT
BRANCH   1  11
ATOM     11  C   UNL     1      33.141 -14.148   2.509  1.00  0.00     0.091 A 
ATOM     12  C   UNL     1      33.793 -12.982   2.079  1.00  0.00     0.068 A 
ATOM     13  C   UNL     1      34.965 -12.547   2.712  1.00  0.00     0.162 A 
ATOM     14  C   UNL     1      33.660 -14.857   3.606  1.00  0.00     0.068 A 
ATOM     15  C   UNL     1      35.489 -13.269   3.792  1.00  0.00     0.200 A 
ATOM     16  C   UNL     1      34.831 -14.426   4.244  1.00  0.00     0.162 A 
BRANCH  13  17
ATOM     17  O   UNL     1      35.616 -11.395   2.272  1.00  0.00    -0.504 OA
ATOM     18  H   UNL     1      35.129 -10.679   1.746  1.00  0.00     0.293 HD
ENDBRANCH  13  17
BRANCH  15  19
ATOM     19  O   UNL     1      36.658 -12.822   4.407  1.00  0.00    -0.502 OA
ATOM     20  H   UNL     1      36.703 -12.624   5.399  1.00  0.00     0.293 HD
ENDBRANCH  15  19
BRANCH  16  21
ATOM     21  O   UNL     1      35.341 -15.139   5.328  1.00  0.00    -0.504 OA
ATOM     22  H   UNL     1      34.740 -15.474   6.072  1.00  0.00     0.293 HD
ENDBRANCH  16  21
ENDBRANCH   1  11
BRANCH  10  23
ATOM     23  O   UNL     1      33.000 -14.832  -0.319  1.00  0.00    -0.500 OA
ATOM     24  H   UNL     1      33.763 -15.494  -0.229  1.00  0.00     0.294 HD
ENDBRANCH  10  23
BRANCH   5  25
ATOM     25  O   UNL     1      26.124 -15.375   3.239  1.00  0.00    -0.507 OA
ATOM     26  H   UNL     1      25.996 -16.090   3.945  1.00  0.00     0.293 HD
ENDBRANCH   5  25
BRANCH   7  27
ATOM     27  O   UNL     1      28.006 -16.174  -1.122  1.00  0.00    -0.507 OA
ATOM     28  H   UNL     1      28.338 -15.671  -1.933  1.00  0.00     0.293 HD
ENDBRANCH   7  27
TORSDOF 7
ENDMDL
MODEL 7
REMARK VINA RESULT:    -6.977      1.543      7.296
REMARK INTER + INTRA:          -8.958
REMARK INTER:                  -8.789
REMARK INTRA:                  -0.169
REMARK UNBOUND:                -0.350
REMARK SMILES Oc1cc(O)c2cc(O)c(-c3cc(O)c(O)c(O)c3)[o+]c2c1
REMARK SMILES IDX 10 1 20 2 21 3 22 4 2 5 3 6 4 7 6 8 7 9 8 10 11 11 12 12
REMARK SMILES IDX 13 13 19 14 15 15 17 16 14 17 16 19 18 21 9 23 1 25 5 27
REMARK H PARENT 14 18 16 20 18 22 9 24 1 26 5 28
REMARK Flexibility Score: inf
ROOT
ATOM      1  C   UNL     1      38.561 -11.687   8.625  1.00  0.00     0.402 A 
ATOM      2  O   UNL     1      39.131 -12.790   9.103  1.00  0.00    -0.202 OA
ATOM      3  C   UNL     1      40.085 -12.776  10.027  1.00  0.00     0.368 A 
ATOM      4  C   UNL     1      40.620 -13.988  10.470  1.00  0.00     0.162 A 
ATOM      5  C   UNL     1      41.623 -14.006  11.440  1.00  0.00     0.128 A 
ATOM      6  C   UNL     1      42.095 -12.801  11.975  1.00  0.00     0.093 A 
ATOM      7  C   UNL     1      41.576 -11.573  11.547  1.00  0.00     0.136 A 
ATOM      8  C   UNL     1      40.558 -11.552  10.558  1.00  0.00     0.125 A 
ATOM      9  C   UNL     1      39.988 -10.368  10.061  1.00  0.00     0.078 A 
ATOM     10  C   UNL     1      38.991 -10.427   9.082  1.00  0.00     0.223 A 
ENDROOT
BRANCH   1  11
ATOM     11  C   UNL     1      37.498 -11.833   7.604  1.00  0.00     0.091 A 
ATOM     12  C   UNL     1      36.309 -12.501   7.937  1.00  0.00     0.068 A 
ATOM     13  C   UNL     1      35.280 -12.635   6.996  1.00  0.00     0.162 A 
ATOM     14  C   UNL     1      37.630 -11.268   6.324  1.00  0.00     0.068 A 
ATOM     15  C   UNL     1      35.426 -12.088   5.715  1.00  0.00     0.200 A 
ATOM     16  C   UNL     1      36.603 -11.398   5.379  1.00  0.00     0.162 A 
BRANCH  13  17
ATOM     17  O   UNL     1      34.107 -13.312   7.327  1.00  0.00    -0.504 OA
ATOM     18  H   UNL     1      33.395 -12.886   7.910  1.00  0.00     0.293 HD
ENDBRANCH  13  17
BRANCH  15  19
ATOM     19  O   UNL     1      34.391 -12.234   4.790  1.00  0.00    -0.502 OA
ATOM     20  H   UNL     1      33.807 -13.061   4.761  1.00  0.00     0.293 HD
ENDBRANCH  15  19
BRANCH  16  21
ATOM     21  O   UNL     1      36.745 -10.838   4.110  1.00  0.00    -0.504 OA
ATOM     22  H   UNL     1      36.845  -9.839   3.979  1.00  0.00     0.293 HD
ENDBRANCH  16  21
ENDBRANCH   1  11
BRANCH  10  23
ATOM     23  O   UNL     1      38.461  -9.252   8.552  1.00  0.00    -0.500 OA
ATOM     24  H   UNL     1      39.014  -8.633   7.970  1.00  0.00     0.294 HD
ENDBRANCH  10  23
BRANCH   5  25
ATOM     25  O   UNL     1      42.143 -15.225  11.869  1.00  0.00    -0.507 OA
ATOM     26  H   UNL     1      41.547 -16.028  12.031  1.00  0.00     0.293 HD
ENDBRANCH   5  25
BRANCH   7  27
ATOM     27  O   UNL     1      42.097 -10.415  12.132  1.00  0.00    -0.507 OA
ATOM     28  H   UNL     1      41.869  -9.476  11.840  1.00  0.00     0.293 HD
ENDBRANCH   7  27
TORSDOF 7
ENDMDL
MODEL 8
REMARK VINA RESULT:    -6.965      5.961      9.541
REMARK INTER + INTRA:          -8.944
REMARK INTER:                  -8.661
REMARK INTRA:                  -0.283
REMARK UNBOUND:                -0.350
REMARK SMILES Oc1cc(O)c2cc(O)c(-c3cc(O)c(O)c(O)c3)[o+]c2c1
REMARK SMILES IDX 10 1 20 2 21 3 22 4 2 5 3 6 4 7 6 8 7 9 8 10 11 11 12 12
REMARK SMILES IDX 13 13 19 14 15 15 17 16 14 17 16 19 18 21 9 23 1 25 5 27
REMARK H PARENT 14 18 16 20 18 22 9 24 1 26 5 28
REMARK Flexibility Score: inf
ROOT
ATOM      1  C   UNL     1      31.828 -14.261   1.696  1.00  0.00     0.402 A 
ATOM      2  O   UNL     1      31.108 -13.224   1.276  1.00  0.00    -0.202 OA
ATOM      3  C   UNL     1      30.019 -13.348   0.526  1.00  0.00     0.368 A 
ATOM      4  C   UNL     1      29.327 -12.198   0.137  1.00  0.00     0.162 A 
ATOM      5  C   UNL     1      28.179 -12.297  -0.650  1.00  0.00     0.128 A 
ATOM      6  C   UNL     1      27.716 -13.556  -1.050  1.00  0.00     0.093 A 
ATOM      7  C   UNL     1      28.391 -14.724  -0.674  1.00  0.00     0.136 A 
ATOM      8  C   UNL     1      29.561 -14.626   0.124  1.00  0.00     0.125 A 
ATOM      9  C   UNL     1      30.309 -15.740   0.537  1.00  0.00     0.078 A 
ATOM     10  C   UNL     1      31.455 -15.564   1.319  1.00  0.00     0.223 A 
ENDROOT
BRANCH   1  11
ATOM     11  C   UNL     1      33.017 -13.994   2.538  1.00  0.00     0.091 A 
ATOM     12  C   UNL     1      33.006 -14.376   3.888  1.00  0.00     0.068 A 
ATOM     13  C   UNL     1      34.125 -14.154   4.701  1.00  0.00     0.162 A 
ATOM     14  C   UNL     1      34.179 -13.416   2.000  1.00  0.00     0.068 A 
ATOM     15  C   UNL     1      35.274 -13.558   4.164  1.00  0.00     0.200 A 
ATOM     16  C   UNL     1      35.303 -13.192   2.808  1.00  0.00     0.162 A 
BRANCH  13  17
ATOM     17  O   UNL     1      34.104 -14.523   6.045  1.00  0.00    -0.504 OA
ATOM     18  H   UNL     1      34.227 -15.487   6.333  1.00  0.00     0.293 HD
ENDBRANCH  13  17
BRANCH  15  19
ATOM     19  O   UNL     1      36.378 -13.342   4.990  1.00  0.00    -0.502 OA
ATOM     20  H   UNL     1      36.476 -12.502   5.549  1.00  0.00     0.293 HD
ENDBRANCH  15  19
BRANCH  16  21
ATOM     21  O   UNL     1      36.450 -12.613   2.267  1.00  0.00    -0.504 OA
ATOM     22  H   UNL     1      36.398 -11.938   1.513  1.00  0.00     0.293 HD
ENDBRANCH  16  21
ENDBRANCH   1  11
BRANCH  10  23
ATOM     23  O   UNL     1      32.226 -16.666   1.688  1.00  0.00    -0.500 OA
ATOM     24  H   UNL     1      31.995 -17.605   1.382  1.00  0.00     0.294 HD
ENDBRANCH  10  23
BRANCH   5  25
ATOM     25  O   UNL     1      27.502 -11.139  -1.028  1.00  0.00    -0.507 OA
ATOM     26  H   UNL     1      27.968 -10.240  -1.059  1.00  0.00     0.293 HD
ENDBRANCH   5  25
BRANCH   7  27
ATOM     27  O   UNL     1      27.864 -15.942  -1.111  1.00  0.00    -0.507 OA
ATOM     28  H   UNL     1      28.003 -16.825  -0.642  1.00  0.00     0.293 HD
ENDBRANCH   7  27
TORSDOF 7
ENDMDL
MODEL 9
REMARK VINA RESULT:    -6.885      2.544      8.007
REMARK INTER + INTRA:          -8.845
REMARK INTER:                  -8.477
REMARK INTRA:                  -0.368
REMARK UNBOUND:                -0.350
REMARK SMILES Oc1cc(O)c2cc(O)c(-c3cc(O)c(O)c(O)c3)[o+]c2c1
REMARK SMILES IDX 10 1 20 2 21 3 22 4 2 5 3 6 4 7 6 8 7 9 8 10 11 11 12 12
REMARK SMILES IDX 13 13 19 14 15 15 17 16 14 17 16 19 18 21 9 23 1 25 5 27
REMARK H PARENT 14 18 16 20 18 22 9 24 1 26 5 28
REMARK Flexibility Score: inf
ROOT
ATOM      1  C   UNL     1      35.411 -12.959   5.750  1.00  0.00     0.402 A 
ATOM      2  O   UNL     1      36.064 -13.729   6.615  1.00  0.00    -0.202 OA
ATOM      3  C   UNL     1      36.759 -13.248   7.640  1.00  0.00     0.368 A 
ATOM      4  C   UNL     1      37.410 -14.138   8.498  1.00  0.00     0.162 A 
ATOM      5  C   UNL     1      38.146 -13.662   9.584  1.00  0.00     0.128 A 
ATOM      6  C   UNL     1      38.232 -12.284   9.816  1.00  0.00     0.093 A 
ATOM      7  C   UNL     1      37.589 -11.371   8.971  1.00  0.00     0.136 A 
ATOM      8  C   UNL     1      36.842 -11.853   7.864  1.00  0.00     0.125 A 
ATOM      9  C   UNL     1      36.176 -11.011   6.958  1.00  0.00     0.078 A 
ATOM     10  C   UNL     1      35.463 -11.559   5.887  1.00  0.00     0.223 A 
ENDROOT
BRANCH   1  11
ATOM     11  C   UNL     1      34.662 -13.615   4.654  1.00  0.00     0.091 A 
ATOM     12  C   UNL     1      35.282 -13.798   3.408  1.00  0.00     0.068 A 
ATOM     13  C   UNL     1      34.602 -14.434   2.361  1.00  0.00     0.162 A 
ATOM     14  C   UNL     1      33.361 -14.110   4.850  1.00  0.00     0.068 A 
ATOM     15  C   UNL     1      33.298 -14.907   2.556  1.00  0.00     0.200 A 
ATOM     16  C   UNL     1      32.678 -14.749   3.806  1.00  0.00     0.162 A 
BRANCH  13  17
ATOM     17  O   UNL     1      35.218 -14.600   1.120  1.00  0.00    -0.504 OA
ATOM     18  H   UNL     1      36.196 -14.377   0.980  1.00  0.00     0.293 HD
ENDBRANCH  13  17
BRANCH  15  19
ATOM     19  O   UNL     1      32.637 -15.535   1.500  1.00  0.00    -0.502 OA
ATOM     20  H   UNL     1      33.129 -15.878   0.683  1.00  0.00     0.293 HD
ENDBRANCH  15  19
BRANCH  16  21
ATOM     21  O   UNL     1      31.385 -15.233   4.009  1.00  0.00    -0.504 OA
ATOM     22  H   UNL     1      31.114 -16.163   3.713  1.00  0.00     0.293 HD
ENDBRANCH  16  21
ENDBRANCH   1  11
BRANCH  10  23
ATOM     23  O   UNL     1      34.844 -10.724   4.958  1.00  0.00    -0.500 OA
ATOM     24  H   UNL     1      35.102  -9.747   4.864  1.00  0.00     0.294 HD
ENDBRANCH  10  23
BRANCH   5  25
ATOM     25  O   UNL     1      38.788 -14.566  10.428  1.00  0.00    -0.507 OA
ATOM     26  H   UNL     1      38.509 -14.677  11.396  1.00  0.00     0.293 HD
ENDBRANCH   5  25
BRANCH   7  27
ATOM     27  O   UNL     1      37.720 -10.013   9.272  1.00  0.00    -0.507 OA
ATOM     28  H   UNL     1      38.198  -9.653  10.086  1.00  0.00     0.293 HD
ENDBRANCH   7  27
TORSDOF 7
ENDMDL
