MODEL 1
REMARK VINA RESULT:    -5.321      0.000      0.000
REMARK INTER + INTRA:          -6.373
REMARK INTER:                  -6.565
REMARK INTRA:                   0.192
REMARK UNBOUND:                 0.192
REMARK SMILES Oc1cc(O)c2cc(O)c(-c3cc(O)c(O)c(O)c3)[o+]c2c1
REMARK SMILES IDX 10 1 20 2 21 3 22 4 2 5 3 6 4 7 6 8 7 9 8 10 11 11 12 12
REMARK SMILES IDX 13 13 19 14 15 15 17 16 14 17 16 19 18 21 9 23 1 25 5 27
REMARK H PARENT 14 18 16 20 18 22 9 24 1 26 5 28
REMARK Flexibility Score: inf
ROOT
ATOM      1  C   UNL     1      20.760  -0.513 -25.136  1.00  0.00     0.402 A 
ATOM      2  O   UNL     1      20.713  -1.676 -24.492  1.00  0.00    -0.202 OA
ATOM      3  C   UNL     1      21.549  -2.004 -23.514  1.00  0.00     0.368 A 
ATOM      4  C   UNL     1      21.422  -3.253 -22.900  1.00  0.00     0.162 A 
ATOM      5  C   UNL     1      22.290  -3.625 -21.869  1.00  0.00     0.128 A 
ATOM      6  C   UNL     1      23.291  -2.744 -21.453  1.00  0.00     0.093 A 
ATOM      7  C   UNL     1      23.439  -1.487 -22.051  1.00  0.00     0.136 A 
ATOM      8  C   UNL     1      22.558  -1.104 -23.096  1.00  0.00     0.125 A 
ATOM      9  C   UNL     1      22.625   0.140 -23.745  1.00  0.00     0.078 A 
ATOM     10  C   UNL     1      21.718   0.448 -24.764  1.00  0.00     0.223 A 
ENDROOT
BRANCH   1  11
ATOM     11  C   UNL     1      19.779  -0.268 -26.216  1.00  0.00     0.091 A 
ATOM     12  C   UNL     1      19.364  -1.337 -27.026  1.00  0.00     0.068 A 
ATOM     13  C   UNL     1      18.451  -1.129 -28.070  1.00  0.00     0.162 A 
ATOM     14  C   UNL     1      19.295   1.024 -26.489  1.00  0.00     0.068 A 
ATOM     15  C   UNL     1      17.957   0.157 -28.323  1.00  0.00     0.200 A 
ATOM     16  C   UNL     1      18.383   1.238 -27.533  1.00  0.00     0.162 A 
BRANCH  13  17
ATOM     17  O   UNL     1      18.031  -2.196 -28.862  1.00  0.00    -0.504 OA
ATOM     18  H   UNL     1      18.153  -3.157 -28.564  1.00  0.00     0.293 HD
ENDBRANCH  13  17
BRANCH  15  19
ATOM     19  O   UNL     1      17.048   0.346 -29.363  1.00  0.00    -0.502 OA
ATOM     20  H   UNL     1      16.048   0.399 -29.203  1.00  0.00     0.293 HD
ENDBRANCH  15  19
BRANCH  16  21
ATOM     21  O   UNL     1      17.905   2.522 -27.790  1.00  0.00    -0.504 OA
ATOM     22  H   UNL     1      16.918   2.704 -27.925  1.00  0.00     0.293 HD
ENDBRANCH  16  21
ENDBRANCH   1  11
BRANCH  10  23
ATOM     23  O   UNL     1      21.752   1.703 -25.374  1.00  0.00    -0.500 OA
ATOM     24  H   UNL     1      22.546   2.325 -25.270  1.00  0.00     0.294 HD
ENDBRANCH  10  23
BRANCH   5  25
ATOM     25  O   UNL     1      22.168  -4.868 -21.253  1.00  0.00    -0.507 OA
ATOM     26  H   UNL     1      22.469  -5.016 -20.296  1.00  0.00     0.293 HD
ENDBRANCH   5  25
BRANCH   7  27
ATOM     27  O   UNL     1      24.467  -0.666 -21.578  1.00  0.00    -0.507 OA
ATOM     28  H   UNL     1      24.812   0.152 -22.059  1.00  0.00     0.293 HD
ENDBRANCH   7  27
TORSDOF 7
ENDMDL
MODEL 2
REMARK VINA RESULT:    -5.269      1.156      1.272
REMARK INTER + INTRA:          -6.309
REMARK INTER:                  -6.132
REMARK INTRA:                  -0.177
REMARK UNBOUND:                 0.192
REMARK SMILES Oc1cc(O)c2cc(O)c(-c3cc(O)c(O)c(O)c3)[o+]c2c1
REMARK SMILES IDX 10 1 20 2 21 3 22 4 2 5 3 6 4 7 6 8 7 9 8 10 11 11 12 12
REMARK SMILES IDX 13 13 19 14 15 15 17 16 14 17 16 19 18 21 9 23 1 25 5 27
REMARK H PARENT 14 18 16 20 18 22 9 24 1 26 5 28
REMARK Flexibility Score: inf
ROOT
ATOM      1  C   UNL     1      21.228  -0.184 -25.641  1.00  0.00     0.402 A 
ATOM      2  O   UNL     1      21.111  -0.868 -24.506  1.00  0.00    -0.202 OA
ATOM      3  C   UNL     1      22.133  -1.114 -23.693  1.00  0.00     0.368 A 
ATOM      4  C   UNL     1      21.911  -1.845 -22.523  1.00  0.00     0.162 A 
ATOM      5  C   UNL     1      22.969  -2.121 -21.652  1.00  0.00     0.128 A 
ATOM      6  C   UNL     1      24.254  -1.665 -21.954  1.00  0.00     0.093 A 
ATOM      7  C   UNL     1      24.503  -0.931 -23.119  1.00  0.00     0.136 A 
ATOM      8  C   UNL     1      23.432  -0.645 -24.006  1.00  0.00     0.125 A 
ATOM      9  C   UNL     1      23.586   0.093 -25.190  1.00  0.00     0.078 A 
ATOM     10  C   UNL     1      22.481   0.338 -26.012  1.00  0.00     0.223 A 
ENDROOT
BRANCH   1  11
ATOM     11  C   UNL     1      20.017   0.016 -26.467  1.00  0.00     0.091 A 
ATOM     12  C   UNL     1      19.374  -1.097 -27.031  1.00  0.00     0.068 A 
ATOM     13  C   UNL     1      18.237  -0.934 -27.834  1.00  0.00     0.162 A 
ATOM     14  C   UNL     1      19.526   1.303 -26.749  1.00  0.00     0.068 A 
ATOM     15  C   UNL     1      17.741   0.351 -28.094  1.00  0.00     0.200 A 
ATOM     16  C   UNL     1      18.390   1.473 -27.553  1.00  0.00     0.162 A 
BRANCH  13  17
ATOM     17  O   UNL     1      17.594  -2.044 -28.380  1.00  0.00    -0.504 OA
ATOM     18  H   UNL     1      17.138  -2.001 -29.284  1.00  0.00     0.293 HD
ENDBRANCH  13  17
BRANCH  15  19
ATOM     19  O   UNL     1      16.607   0.495 -28.893  1.00  0.00    -0.502 OA
ATOM     20  H   UNL     1      16.489   1.276 -29.527  1.00  0.00     0.293 HD
ENDBRANCH  15  19
BRANCH  16  21
ATOM     21  O   UNL     1      17.908   2.754 -27.820  1.00  0.00    -0.504 OA
ATOM     22  H   UNL     1      18.230   3.562 -27.301  1.00  0.00     0.293 HD
ENDBRANCH  16  21
ENDBRANCH   1  11
BRANCH  10  23
ATOM     23  O   UNL     1      22.624   1.115 -27.162  1.00  0.00    -0.500 OA
ATOM     24  H   UNL     1      22.243   0.821 -28.054  1.00  0.00     0.294 HD
ENDBRANCH  10  23
BRANCH   5  25
ATOM     25  O   UNL     1      22.754  -2.848 -20.484  1.00  0.00    -0.507 OA
ATOM     26  H   UNL     1      23.224  -3.730 -20.315  1.00  0.00     0.293 HD
ENDBRANCH   5  25
BRANCH   7  27
ATOM     27  O   UNL     1      25.818  -0.514 -23.349  1.00  0.00    -0.507 OA
ATOM     28  H   UNL     1      26.075   0.400 -23.692  1.00  0.00     0.293 HD
ENDBRANCH   7  27
TORSDOF 7
ENDMDL
MODEL 3
REMARK VINA RESULT:    -5.257      1.157      2.190
REMARK INTER + INTRA:          -6.295
REMARK INTER:                  -6.125
REMARK INTRA:                  -0.170
REMARK UNBOUND:                 0.192
REMARK SMILES Oc1cc(O)c2cc(O)c(-c3cc(O)c(O)c(O)c3)[o+]c2c1
REMARK SMILES IDX 10 1 20 2 21 3 22 4 2 5 3 6 4 7 6 8 7 9 8 10 11 11 12 12
REMARK SMILES IDX 13 13 19 14 15 15 17 16 14 17 16 19 18 21 9 23 1 25 5 27
REMARK H PARENT 14 18 16 20 18 22 9 24 1 26 5 28
REMARK Flexibility Score: inf
ROOT
ATOM      1  C   UNL     1      21.253  -0.210 -25.692  1.00  0.00     0.402 A 
ATOM      2  O   UNL     1      21.129  -0.895 -24.558  1.00  0.00    -0.202 OA
ATOM      3  C   UNL     1      22.139  -1.116 -23.724  1.00  0.00     0.368 A 
ATOM      4  C   UNL     1      21.911  -1.851 -22.558  1.00  0.00     0.162 A 
ATOM      5  C   UNL     1      22.957  -2.100 -21.665  1.00  0.00     0.128 A 
ATOM      6  C   UNL     1      24.236  -1.613 -21.940  1.00  0.00     0.093 A 
ATOM      7  C   UNL     1      24.492  -0.874 -23.101  1.00  0.00     0.136 A 
ATOM      8  C   UNL     1      23.433  -0.615 -24.010  1.00  0.00     0.125 A 
ATOM      9  C   UNL     1      23.593   0.126 -25.192  1.00  0.00     0.078 A 
ATOM     10  C   UNL     1      22.500   0.343 -26.037  1.00  0.00     0.223 A 
ENDROOT
BRANCH   1  11
ATOM     11  C   UNL     1      20.054  -0.040 -26.543  1.00  0.00     0.091 A 
ATOM     12  C   UNL     1      19.550   1.250 -26.775  1.00  0.00     0.068 A 
ATOM     13  C   UNL     1      18.404   1.437 -27.561  1.00  0.00     0.162 A 
ATOM     14  C   UNL     1      19.372  -1.146 -27.079  1.00  0.00     0.068 A 
ATOM     15  C   UNL     1      17.741   0.331 -28.109  1.00  0.00     0.200 A 
ATOM     16  C   UNL     1      18.224  -0.965 -27.863  1.00  0.00     0.162 A 
BRANCH  13  17
ATOM     17  O   UNL     1      17.916   2.721 -27.800  1.00  0.00    -0.504 OA
ATOM     18  H   UNL     1      17.008   3.015 -27.460  1.00  0.00     0.293 HD
ENDBRANCH  13  17
BRANCH  15  19
ATOM     19  O   UNL     1      16.605   0.536 -28.890  1.00  0.00    -0.502 OA
ATOM     20  H   UNL     1      16.189  -0.204 -29.444  1.00  0.00     0.293 HD
ENDBRANCH  15  19
BRANCH  16  21
ATOM     21  O   UNL     1      17.560  -2.070 -28.395  1.00  0.00    -0.504 OA
ATOM     22  H   UNL     1      16.783  -2.506 -27.911  1.00  0.00     0.293 HD
ENDBRANCH  16  21
ENDBRANCH   1  11
BRANCH  10  23
ATOM     23  O   UNL     1      22.647   1.121 -27.185  1.00  0.00    -0.500 OA
ATOM     24  H   UNL     1      22.922   0.716 -28.072  1.00  0.00     0.294 HD
ENDBRANCH  10  23
BRANCH   5  25
ATOM     25  O   UNL     1      22.736  -2.831 -20.500  1.00  0.00    -0.507 OA
ATOM     26  H   UNL     1      22.041  -2.546 -19.820  1.00  0.00     0.293 HD
ENDBRANCH   5  25
BRANCH   7  27
ATOM     27  O   UNL     1      25.800  -0.425 -23.304  1.00  0.00    -0.507 OA
ATOM     28  H   UNL     1      26.042   0.439 -23.767  1.00  0.00     0.293 HD
ENDBRANCH   7  27
TORSDOF 7
ENDMDL
MODEL 4
REMARK VINA RESULT:    -5.154      1.261      6.962
REMARK INTER + INTRA:          -6.167
REMARK INTER:                  -5.829
REMARK INTRA:                  -0.338
REMARK UNBOUND:                 0.192
REMARK SMILES Oc1cc(O)c2cc(O)c(-c3cc(O)c(O)c(O)c3)[o+]c2c1
REMARK SMILES IDX 10 1 20 2 21 3 22 4 2 5 3 6 4 7 6 8 7 9 8 10 11 11 12 12
REMARK SMILES IDX 13 13 19 14 15 15 17 16 14 17 16 19 18 21 9 23 1 25 5 27
REMARK H PARENT 14 18 16 20 18 22 9 24 1 26 5 28
REMARK Flexibility Score: inf
ROOT
ATOM      1  C   UNL     1      21.273  -0.179 -25.064  1.00  0.00     0.402 A 
ATOM      2  O   UNL     1      20.584  -1.024 -25.827  1.00  0.00    -0.202 OA
ATOM      3  C   UNL     1      19.631  -0.638 -26.668  1.00  0.00     0.368 A 
ATOM      4  C   UNL     1      18.960  -1.602 -27.425  1.00  0.00     0.162 A 
ATOM      5  C   UNL     1      17.951  -1.223 -28.315  1.00  0.00     0.128 A 
ATOM      6  C   UNL     1      17.611   0.125 -28.447  1.00  0.00     0.093 A 
ATOM      7  C   UNL     1      18.268   1.110 -27.701  1.00  0.00     0.136 A 
ATOM      8  C   UNL     1      19.295   0.732 -26.797  1.00  0.00     0.125 A 
ATOM      9  C   UNL     1      20.015   1.651 -26.017  1.00  0.00     0.078 A 
ATOM     10  C   UNL     1      21.018   1.202 -25.151  1.00  0.00     0.223 A 
ENDROOT
BRANCH   1  11
ATOM     11  C   UNL     1      22.305  -0.732 -24.158  1.00  0.00     0.091 A 
ATOM     12  C   UNL     1      21.919  -1.275 -22.923  1.00  0.00     0.068 A 
ATOM     13  C   UNL     1      22.877  -1.788 -22.038  1.00  0.00     0.162 A 
ATOM     14  C   UNL     1      23.671  -0.676 -24.483  1.00  0.00     0.068 A 
ATOM     15  C   UNL     1      24.236  -1.746 -22.376  1.00  0.00     0.200 A 
ATOM     16  C   UNL     1      24.635  -1.185 -23.600  1.00  0.00     0.162 A 
BRANCH  13  17
ATOM     17  O   UNL     1      22.487  -2.338 -20.818  1.00  0.00    -0.504 OA
ATOM     18  H   UNL     1      22.406  -3.340 -20.690  1.00  0.00     0.293 HD
ENDBRANCH  13  17
BRANCH  15  19
ATOM     19  O   UNL     1      25.176  -2.263 -21.485  1.00  0.00    -0.502 OA
ATOM     20  H   UNL     1      24.963  -3.034 -20.862  1.00  0.00     0.293 HD
ENDBRANCH  15  19
BRANCH  16  21
ATOM     21  O   UNL     1      25.988  -1.129 -23.935  1.00  0.00    -0.504 OA
ATOM     22  H   UNL     1      26.569  -0.343 -23.667  1.00  0.00     0.293 HD
ENDBRANCH  16  21
ENDBRANCH   1  11
BRANCH  10  23
ATOM     23  O   UNL     1      21.767   2.119 -24.414  1.00  0.00    -0.500 OA
ATOM     24  H   UNL     1      21.693   2.179 -23.405  1.00  0.00     0.294 HD
ENDBRANCH  10  23
BRANCH   5  25
ATOM     25  O   UNL     1      17.279  -2.178 -29.074  1.00  0.00    -0.507 OA
ATOM     26  H   UNL     1      16.556  -1.917 -29.733  1.00  0.00     0.293 HD
ENDBRANCH   5  25
BRANCH   7  27
ATOM     27  O   UNL     1      17.866   2.436 -27.889  1.00  0.00    -0.507 OA
ATOM     28  H   UNL     1      18.031   3.182 -27.229  1.00  0.00     0.293 HD
ENDBRANCH   7  27
TORSDOF 7
ENDMDL
MODEL 5
REMARK VINA RESULT:    -5.104      1.271      7.400
REMARK INTER + INTRA:          -6.106
REMARK INTER:                  -5.912
REMARK INTRA:                  -0.194
REMARK UNBOUND:                 0.192
REMARK SMILES Oc1cc(O)c2cc(O)c(-c3cc(O)c(O)c(O)c3)[o+]c2c1
REMARK SMILES IDX 10 1 20 2 21 3 22 4 2 5 3 6 4 7 6 8 7 9 8 10 11 11 12 12
REMARK SMILES IDX 13 13 19 14 15 15 17 16 14 17 16 19 18 21 9 23 1 25 5 27
REMARK H PARENT 14 18 16 20 18 22 9 24 1 26 5 28
REMARK Flexibility Score: inf
ROOT
ATOM      1  C   UNL     1      21.255  -1.363 -24.894  1.00  0.00     0.402 A 
ATOM      2  O   UNL     1      20.730  -0.193 -25.248  1.00  0.00    -0.202 OA
ATOM      3  C   UNL     1      19.830  -0.059 -26.215  1.00  0.00     0.368 A 
ATOM      4  C   UNL     1      19.338   1.213 -26.517  1.00  0.00     0.162 A 
ATOM      5  C   UNL     1      18.392   1.382 -27.532  1.00  0.00     0.128 A 
ATOM      6  C   UNL     1      17.937   0.273 -28.249  1.00  0.00     0.093 A 
ATOM      7  C   UNL     1      18.413  -1.012 -27.967  1.00  0.00     0.136 A 
ATOM      8  C   UNL     1      19.372  -1.190 -26.935  1.00  0.00     0.125 A 
ATOM      9  C   UNL     1      19.896  -2.442 -26.575  1.00  0.00     0.078 A 
ATOM     10  C   UNL     1      20.835  -2.538 -25.543  1.00  0.00     0.223 A 
ENDROOT
BRANCH   1  11
ATOM     11  C   UNL     1      22.259  -1.380 -23.806  1.00  0.00     0.091 A 
ATOM     12  C   UNL     1      23.493  -0.740 -23.995  1.00  0.00     0.068 A 
ATOM     13  C   UNL     1      24.469  -0.758 -22.989  1.00  0.00     0.162 A 
ATOM     14  C   UNL     1      22.027  -2.075 -22.606  1.00  0.00     0.068 A 
ATOM     15  C   UNL     1      24.223  -1.435 -21.787  1.00  0.00     0.200 A 
ATOM     16  C   UNL     1      23.000  -2.099 -21.597  1.00  0.00     0.162 A 
BRANCH  13  17
ATOM     17  O   UNL     1      25.687  -0.108 -23.177  1.00  0.00    -0.504 OA
ATOM     18  H   UNL     1      26.043   0.558 -22.502  1.00  0.00     0.293 HD
ENDBRANCH  13  17
BRANCH  15  19
ATOM     19  O   UNL     1      25.204  -1.441 -20.796  1.00  0.00    -0.502 OA
ATOM     20  H   UNL     1      25.569  -2.301 -20.403  1.00  0.00     0.293 HD
ENDBRANCH  15  19
BRANCH  16  21
ATOM     21  O   UNL     1      22.757  -2.786 -20.408  1.00  0.00    -0.504 OA
ATOM     22  H   UNL     1      23.025  -3.756 -20.290  1.00  0.00     0.293 HD
ENDBRANCH  16  21
ENDBRANCH   1  11
BRANCH  10  23
ATOM     23  O   UNL     1      21.318  -3.787 -25.151  1.00  0.00    -0.500 OA
ATOM     24  H   UNL     1      22.058  -4.256 -25.660  1.00  0.00     0.294 HD
ENDBRANCH  10  23
BRANCH   5  25
ATOM     25  O   UNL     1      17.897   2.648 -27.838  1.00  0.00    -0.507 OA
ATOM     26  H   UNL     1      17.531   3.261 -27.119  1.00  0.00     0.293 HD
ENDBRANCH   5  25
BRANCH   7  27
ATOM     27  O   UNL     1      17.909  -2.069 -28.732  1.00  0.00    -0.507 OA
ATOM     28  H   UNL     1      18.468  -2.652 -29.337  1.00  0.00     0.293 HD
ENDBRANCH   7  27
TORSDOF 7
ENDMDL
MODEL 6
REMARK VINA RESULT:    -5.063      8.858     11.775
REMARK INTER + INTRA:          -6.055
REMARK INTER:                  -5.971
REMARK INTRA:                  -0.084
REMARK UNBOUND:                 0.192
REMARK SMILES Oc1cc(O)c2cc(O)c(-c3cc(O)c(O)c(O)c3)[o+]c2c1
REMARK SMILES IDX 10 1 20 2 21 3 22 4 2 5 3 6 4 7 6 8 7 9 8 10 11 11 12 12
REMARK SMILES IDX 13 13 19 14 15 15 17 16 14 17 16 19 18 21 9 23 1 25 5 27
REMARK H PARENT 14 18 16 20 18 22 9 24 1 26 5 28
REMARK Flexibility Score: inf
ROOT
ATOM      1  C   UNL     1      23.145  -4.155 -33.258  1.00  0.00     0.402 A 
ATOM      2  O   UNL     1      22.407  -4.615 -34.265  1.00  0.00    -0.202 OA
ATOM      3  C   UNL     1      21.629  -3.841 -35.013  1.00  0.00     0.368 A 
ATOM      4  C   UNL     1      20.887  -4.418 -36.047  1.00  0.00     0.162 A 
ATOM      5  C   UNL     1      20.058  -3.626 -36.848  1.00  0.00     0.128 A 
ATOM      6  C   UNL     1      19.971  -2.252 -36.612  1.00  0.00     0.093 A 
ATOM      7  C   UNL     1      20.704  -1.650 -35.583  1.00  0.00     0.136 A 
ATOM      8  C   UNL     1      21.549  -2.448 -34.769  1.00  0.00     0.125 A 
ATOM      9  C   UNL     1      22.329  -1.929 -33.723  1.00  0.00     0.078 A 
ATOM     10  C   UNL     1      23.142  -2.779 -32.966  1.00  0.00     0.223 A 
ENDROOT
BRANCH   1  11
ATOM     11  C   UNL     1      23.964  -5.121 -32.491  1.00  0.00     0.091 A 
ATOM     12  C   UNL     1      25.348  -4.915 -32.378  1.00  0.00     0.068 A 
ATOM     13  C   UNL     1      26.149  -5.825 -31.674  1.00  0.00     0.162 A 
ATOM     14  C   UNL     1      23.396  -6.273 -31.919  1.00  0.00     0.068 A 
ATOM     15  C   UNL     1      25.573  -6.960 -31.089  1.00  0.00     0.200 A 
ATOM     16  C   UNL     1      24.193  -7.187 -31.216  1.00  0.00     0.162 A 
BRANCH  13  17
ATOM     17  O   UNL     1      27.521  -5.608 -31.553  1.00  0.00    -0.504 OA
ATOM     18  H   UNL     1      28.137  -6.314 -31.167  1.00  0.00     0.293 HD
ENDBRANCH  13  17
BRANCH  15  19
ATOM     19  O   UNL     1      26.385  -7.853 -30.391  1.00  0.00    -0.502 OA
ATOM     20  H   UNL     1      26.695  -8.729 -30.794  1.00  0.00     0.293 HD
ENDBRANCH  15  19
BRANCH  16  21
ATOM     21  O   UNL     1      23.617  -8.323 -30.648  1.00  0.00    -0.504 OA
ATOM     22  H   UNL     1      22.764  -8.727 -31.016  1.00  0.00     0.293 HD
ENDBRANCH  16  21
ENDBRANCH   1  11
BRANCH  10  23
ATOM     23  O   UNL     1      23.955  -2.256 -31.960  1.00  0.00    -0.500 OA
ATOM     24  H   UNL     1      24.379  -2.849 -31.255  1.00  0.00     0.294 HD
ENDBRANCH  10  23
BRANCH   5  25
ATOM     25  O   UNL     1      19.317  -4.194 -37.881  1.00  0.00    -0.507 OA
ATOM     26  H   UNL     1      19.245  -3.749 -38.788  1.00  0.00     0.293 HD
ENDBRANCH   5  25
BRANCH   7  27
ATOM     27  O   UNL     1      20.559  -0.270 -35.411  1.00  0.00    -0.507 OA
ATOM     28  H   UNL     1      20.011   0.160 -34.680  1.00  0.00     0.293 HD
ENDBRANCH   7  27
TORSDOF 7
ENDMDL
MODEL 7
REMARK VINA RESULT:    -5.041      1.509      2.755
REMARK INTER + INTRA:          -6.028
REMARK INTER:                  -5.695
REMARK INTRA:                  -0.333
REMARK UNBOUND:                 0.192
REMARK SMILES Oc1cc(O)c2cc(O)c(-c3cc(O)c(O)c(O)c3)[o+]c2c1
REMARK SMILES IDX 10 1 20 2 21 3 22 4 2 5 3 6 4 7 6 8 7 9 8 10 11 11 12 12
REMARK SMILES IDX 13 13 19 14 15 15 17 16 14 17 16 19 18 21 9 23 1 25 5 27
REMARK H PARENT 14 18 16 20 18 22 9 24 1 26 5 28
REMARK Flexibility Score: inf
ROOT
ATOM      1  C   UNL     1      21.226  -1.154 -24.571  1.00  0.00     0.402 A 
ATOM      2  O   UNL     1      22.468  -0.700 -24.713  1.00  0.00    -0.202 OA
ATOM      3  C   UNL     1      23.428  -0.907 -23.819  1.00  0.00     0.368 A 
ATOM      4  C   UNL     1      24.703  -0.386 -24.056  1.00  0.00     0.162 A 
ATOM      5  C   UNL     1      25.731  -0.587 -23.131  1.00  0.00     0.128 A 
ATOM      6  C   UNL     1      25.482  -1.311 -21.963  1.00  0.00     0.093 A 
ATOM      7  C   UNL     1      24.215  -1.844 -21.701  1.00  0.00     0.136 A 
ATOM      8  C   UNL     1      23.168  -1.645 -22.639  1.00  0.00     0.125 A 
ATOM      9  C   UNL     1      21.870  -2.152 -22.466  1.00  0.00     0.078 A 
ATOM     10  C   UNL     1      20.891  -1.918 -23.437  1.00  0.00     0.223 A 
ENDROOT
BRANCH   1  11
ATOM     11  C   UNL     1      20.241  -0.849 -25.633  1.00  0.00     0.091 A 
ATOM     12  C   UNL     1      19.920  -1.833 -26.580  1.00  0.00     0.068 A 
ATOM     13  C   UNL     1      19.006  -1.564 -27.608  1.00  0.00     0.162 A 
ATOM     14  C   UNL     1      19.660   0.426 -25.749  1.00  0.00     0.068 A 
ATOM     15  C   UNL     1      18.416  -0.297 -27.706  1.00  0.00     0.200 A 
ATOM     16  C   UNL     1      18.747   0.702 -26.777  1.00  0.00     0.162 A 
BRANCH  13  17
ATOM     17  O   UNL     1      18.681  -2.550 -28.538  1.00  0.00    -0.504 OA
ATOM     18  H   UNL     1      17.920  -2.428 -29.196  1.00  0.00     0.293 HD
ENDBRANCH  13  17
BRANCH  15  19
ATOM     19  O   UNL     1      17.507  -0.047 -28.734  1.00  0.00    -0.502 OA
ATOM     20  H   UNL     1      17.557   0.786 -29.308  1.00  0.00     0.293 HD
ENDBRANCH  15  19
BRANCH  16  21
ATOM     21  O   UNL     1      18.173   1.969 -26.879  1.00  0.00    -0.504 OA
ATOM     22  H   UNL     1      18.056   2.566 -26.069  1.00  0.00     0.293 HD
ENDBRANCH  16  21
ENDBRANCH   1  11
BRANCH  10  23
ATOM     23  O   UNL     1      19.616  -2.465 -23.290  1.00  0.00    -0.500 OA
ATOM     24  H   UNL     1      19.205  -2.620 -22.377  1.00  0.00     0.294 HD
ENDBRANCH  10  23
BRANCH   5  25
ATOM     25  O   UNL     1      27.004  -0.071 -23.361  1.00  0.00    -0.507 OA
ATOM     26  H   UNL     1      27.167   0.927 -23.426  1.00  0.00     0.293 HD
ENDBRANCH   5  25
BRANCH   7  27
ATOM     27  O   UNL     1      24.048  -2.553 -20.508  1.00  0.00    -0.507 OA
ATOM     28  H   UNL     1      23.177  -2.965 -20.206  1.00  0.00     0.293 HD
ENDBRANCH   7  27
TORSDOF 7
ENDMDL
MODEL 8
REMARK VINA RESULT:    -4.970      2.001      3.874
REMARK INTER + INTRA:          -5.941
REMARK INTER:                  -5.810
REMARK INTRA:                  -0.130
REMARK UNBOUND:                 0.192
REMARK SMILES Oc1cc(O)c2cc(O)c(-c3cc(O)c(O)c(O)c3)[o+]c2c1
REMARK SMILES IDX 10 1 20 2 21 3 22 4 2 5 3 6 4 7 6 8 7 9 8 10 11 11 12 12
REMARK SMILES IDX 13 13 19 14 15 15 17 16 14 17 16 19 18 21 9 23 1 25 5 27
REMARK H PARENT 14 18 16 20 18 22 9 24 1 26 5 28
REMARK Flexibility Score: inf
ROOT
ATOM      1  C   UNL     1      21.382  -0.127 -25.781  1.00  0.00     0.402 A 
ATOM      2  O   UNL     1      22.487   0.483 -26.202  1.00  0.00    -0.202 OA
ATOM      3  C   UNL     1      23.645   0.425 -25.555  1.00  0.00     0.368 A 
ATOM      4  C   UNL     1      24.750   1.103 -26.075  1.00  0.00     0.162 A 
ATOM      5  C   UNL     1      25.980   1.061 -25.411  1.00  0.00     0.128 A 
ATOM      6  C   UNL     1      26.104   0.338 -24.223  1.00  0.00     0.093 A 
ATOM      7  C   UNL     1      25.012  -0.350 -23.681  1.00  0.00     0.136 A 
ATOM      8  C   UNL     1      23.762  -0.312 -24.351  1.00  0.00     0.125 A 
ATOM      9  C   UNL     1      22.617  -0.981 -23.888  1.00  0.00     0.078 A 
ATOM     10  C   UNL     1      21.420  -0.901 -24.607  1.00  0.00     0.223 A 
ENDROOT
BRANCH   1  11
ATOM     11  C   UNL     1      20.148   0.022 -26.586  1.00  0.00     0.091 A 
ATOM     12  C   UNL     1      19.618   1.303 -26.805  1.00  0.00     0.068 A 
ATOM     13  C   UNL     1      18.440   1.470 -27.547  1.00  0.00     0.162 A 
ATOM     14  C   UNL     1      19.463  -1.097 -27.090  1.00  0.00     0.068 A 
ATOM     15  C   UNL     1      17.772   0.352 -28.063  1.00  0.00     0.200 A 
ATOM     16  C   UNL     1      18.283  -0.936 -27.831  1.00  0.00     0.162 A 
BRANCH  13  17
ATOM     17  O   UNL     1      17.925   2.745 -27.773  1.00  0.00    -0.504 OA
ATOM     18  H   UNL     1      18.052   3.495 -27.103  1.00  0.00     0.293 HD
ENDBRANCH  13  17
BRANCH  15  19
ATOM     19  O   UNL     1      16.603   0.537 -28.801  1.00  0.00    -0.502 OA
ATOM     20  H   UNL     1      15.948   1.282 -28.596  1.00  0.00     0.293 HD
ENDBRANCH  15  19
BRANCH  16  21
ATOM     21  O   UNL     1      17.614  -2.053 -28.331  1.00  0.00    -0.504 OA
ATOM     22  H   UNL     1      18.027  -2.645 -29.041  1.00  0.00     0.293 HD
ENDBRANCH  16  21
ENDBRANCH   1  11
BRANCH  10  23
ATOM     23  O   UNL     1      20.296  -1.606 -24.175  1.00  0.00    -0.500 OA
ATOM     24  H   UNL     1      19.464  -1.687 -24.748  1.00  0.00     0.294 HD
ENDBRANCH  10  23
BRANCH   5  25
ATOM     25  O   UNL     1      27.087   1.733 -25.925  1.00  0.00    -0.507 OA
ATOM     26  H   UNL     1      27.332   2.665 -25.611  1.00  0.00     0.293 HD
ENDBRANCH   5  25
BRANCH   7  27
ATOM     27  O   UNL     1      25.218  -1.047 -22.486  1.00  0.00    -0.507 OA
ATOM     28  H   UNL     1      24.678  -0.909 -21.645  1.00  0.00     0.293 HD
ENDBRANCH   7  27
TORSDOF 7
ENDMDL
MODEL 9
REMARK VINA RESULT:    -4.897      2.074      7.312
REMARK INTER + INTRA:          -5.851
REMARK INTER:                  -5.488
REMARK INTRA:                  -0.363
REMARK UNBOUND:                 0.192
REMARK SMILES Oc1cc(O)c2cc(O)c(-c3cc(O)c(O)c(O)c3)[o+]c2c1
REMARK SMILES IDX 10 1 20 2 21 3 22 4 2 5 3 6 4 7 6 8 7 9 8 10 11 11 12 12
REMARK SMILES IDX 13 13 19 14 15 15 17 16 14 17 16 19 18 21 9 23 1 25 5 27
REMARK H PARENT 14 18 16 20 18 22 9 24 1 26 5 28
REMARK Flexibility Score: inf
ROOT
ATOM      1  C   UNL     1      22.231  -0.766 -25.359  1.00  0.00     0.402 A 
ATOM      2  O   UNL     1      21.107  -0.062 -25.467  1.00  0.00    -0.202 OA
ATOM      3  C   UNL     1      20.703   0.500 -26.600  1.00  0.00     0.368 A 
ATOM      4  C   UNL     1      19.507   1.223 -26.613  1.00  0.00     0.162 A 
ATOM      5  C   UNL     1      19.060   1.827 -27.792  1.00  0.00     0.128 A 
ATOM      6  C   UNL     1      19.813   1.708 -28.962  1.00  0.00     0.093 A 
ATOM      7  C   UNL     1      21.014   0.989 -28.977  1.00  0.00     0.136 A 
ATOM      8  C   UNL     1      21.471   0.371 -27.783  1.00  0.00     0.125 A 
ATOM      9  C   UNL     1      22.656  -0.379 -27.707  1.00  0.00     0.078 A 
ATOM     10  C   UNL     1      23.039  -0.962 -26.494  1.00  0.00     0.223 A 
ENDROOT
BRANCH   1  11
ATOM     11  C   UNL     1      22.579  -1.334 -24.038  1.00  0.00     0.091 A 
ATOM     12  C   UNL     1      23.513  -0.672 -23.226  1.00  0.00     0.068 A 
ATOM     13  C   UNL     1      23.876  -1.200 -21.979  1.00  0.00     0.162 A 
ATOM     14  C   UNL     1      22.038  -2.556 -23.600  1.00  0.00     0.068 A 
ATOM     15  C   UNL     1      23.317  -2.407 -21.540  1.00  0.00     0.200 A 
ATOM     16  C   UNL     1      22.399  -3.090 -22.354  1.00  0.00     0.162 A 
BRANCH  13  17
ATOM     17  O   UNL     1      24.793  -0.530 -21.170  1.00  0.00    -0.504 OA
ATOM     18  H   UNL     1      25.352  -1.022 -20.483  1.00  0.00     0.293 HD
ENDBRANCH  13  17
BRANCH  15  19
ATOM     19  O   UNL     1      23.687  -2.916 -20.295  1.00  0.00    -0.502 OA
ATOM     20  H   UNL     1      24.457  -2.530 -19.761  1.00  0.00     0.293 HD
ENDBRANCH  15  19
BRANCH  16  21
ATOM     21  O   UNL     1      21.851  -4.299 -21.928  1.00  0.00    -0.504 OA
ATOM     22  H   UNL     1      22.429  -5.041 -21.553  1.00  0.00     0.293 HD
ENDBRANCH  16  21
ENDBRANCH   1  11
BRANCH  10  23
ATOM     23  O   UNL     1      24.190  -1.748 -26.430  1.00  0.00    -0.500 OA
ATOM     24  H   UNL     1      24.522  -2.136 -25.555  1.00  0.00     0.294 HD
ENDBRANCH  10  23
BRANCH   5  25
ATOM     25  O   UNL     1      17.869   2.549 -27.812  1.00  0.00    -0.507 OA
ATOM     26  H   UNL     1      17.607   3.159 -27.047  1.00  0.00     0.293 HD
ENDBRANCH   5  25
BRANCH   7  27
ATOM     27  O   UNL     1      21.709   0.920 -30.188  1.00  0.00    -0.507 OA
ATOM     28  H   UNL     1      22.675   1.187 -30.307  1.00  0.00     0.293 HD
ENDBRANCH   7  27
TORSDOF 7
ENDMDL
