MODEL 1
REMARK VINA RESULT:    -5.318      0.000      0.000
REMARK INTER + INTRA:         -13.008
REMARK INTER:                 -10.292
REMARK INTRA:                  -2.716
REMARK UNBOUND:                -2.716
REMARK SMILES CCCCCCCCCCCCCCCCCC(=O)[O-]
REMARK SMILES IDX 10 1 11 2 12 3 13 4 14 5 15 6 16 7 17 8 18 9 19 10 20 11
REMARK SMILES IDX 9 12 8 13 7 14 6 15 5 16 4 17 3 18 2 19 1 20
REMARK H PARENT
REMARK Flexibility Score: inf
ROOT
ATOM      1  C   UNL     1     107.197  20.559 197.896  1.00  0.00     0.000 C 
ENDROOT
BRANCH   1   2
ATOM      2  C   UNL     1     106.914  20.870 199.377  1.00  0.00     0.000 C 
BRANCH   2   3
ATOM      3  C   UNL     1     106.759  22.368 199.712  1.00  0.00     0.000 C 
BRANCH   3   4
ATOM      4  C   UNL     1     105.332  22.927 199.577  1.00  0.00     0.000 C 
BRANCH   4   5
ATOM      5  C   UNL     1     105.217  24.015 198.495  1.00  0.00     0.000 C 
BRANCH   5   6
ATOM      6  C   UNL     1     103.812  24.085 197.875  1.00  0.00     0.000 C 
BRANCH   6   7
ATOM      7  C   UNL     1     102.869  22.999 198.421  1.00  0.00     0.006 C 
BRANCH   7   8
ATOM      8  C   UNL     1     101.418  23.488 198.515  1.00  0.00     0.053 C 
BRANCH   8   9
ATOM      9  C   UNL     1     101.013  23.768 199.929  1.00  0.00     0.041 C 
ATOM     10  O   UNL     1      99.823  24.080 200.199  1.00  0.00    -0.550 OA
ATOM     11  O   UNL     1     101.957  23.716 200.947  1.00  0.00    -0.550 OA
ENDBRANCH   8   9
ENDBRANCH   7   8
ENDBRANCH   6   7
ENDBRANCH   5   6
ENDBRANCH   4   5
ENDBRANCH   3   4
ENDBRANCH   2   3
ENDBRANCH   1   2
BRANCH   1  12
ATOM     12  C   UNL     1     106.092  19.716 197.242  1.00  0.00     0.000 C 
BRANCH  12  13
ATOM     13  C   UNL     1     105.371  20.511 196.146  1.00  0.00    -0.000 C 
BRANCH  13  14
ATOM     14  C   UNL     1     106.198  21.734 195.721  1.00  0.00    -0.000 C 
BRANCH  14  15
ATOM     15  C   UNL     1     105.367  22.774 194.952  1.00  0.00    -0.000 C 
BRANCH  15  16
ATOM     16  C   UNL     1     104.865  22.245 193.597  1.00  0.00    -0.000 C 
BRANCH  16  17
ATOM     17  C   UNL     1     103.368  22.514 193.378  1.00  0.00    -0.000 C 
BRANCH  17  18
ATOM     18  C   UNL     1     102.568  22.527 194.693  1.00  0.00    -0.000 C 
BRANCH  18  19
ATOM     19  C   UNL     1     101.333  21.614 194.639  1.00  0.00    -0.003 C 
ATOM     20  C   UNL     1     101.256  20.655 195.827  1.00  0.00     0.004 C 
ENDBRANCH  18  19
ENDBRANCH  17  18
ENDBRANCH  16  17
ENDBRANCH  15  16
ENDBRANCH  14  15
ENDBRANCH  13  14
ENDBRANCH  12  13
ENDBRANCH   1  12
TORSDOF 16
ENDMDL
MODEL 2
REMARK VINA RESULT:    -5.238      2.792      4.431
REMARK INTER + INTRA:         -12.854
REMARK INTER:                 -10.360
REMARK INTRA:                  -2.494
REMARK UNBOUND:                -2.716
REMARK SMILES CCCCCCCCCCCCCCCCCC(=O)[O-]
REMARK SMILES IDX 10 1 11 2 12 3 13 4 14 5 15 6 16 7 17 8 18 9 19 10 20 11
REMARK SMILES IDX 9 12 8 13 7 14 6 15 5 16 4 17 3 18 2 19 1 20
REMARK H PARENT
REMARK Flexibility Score: inf
ROOT
ATOM      1  C   UNL     1     104.006  23.212 200.319  1.00  0.00     0.000 C 
ENDROOT
BRANCH   1   2
ATOM      2  C   UNL     1     102.479  23.221 200.514  1.00  0.00     0.000 C 
BRANCH   2   3
ATOM      3  C   UNL     1     101.681  23.921 199.396  1.00  0.00     0.000 C 
BRANCH   3   4
ATOM      4  C   UNL     1     100.189  23.551 199.321  1.00  0.00     0.000 C 
BRANCH   4   5
ATOM      5  C   UNL     1      99.841  22.722 198.073  1.00  0.00     0.000 C 
BRANCH   5   6
ATOM      6  C   UNL     1     101.079  22.375 197.230  1.00  0.00     0.000 C 
BRANCH   6   7
ATOM      7  C   UNL     1     101.184  20.871 196.922  1.00  0.00     0.006 C 
BRANCH   7   8
ATOM      8  C   UNL     1     102.570  20.307 197.262  1.00  0.00     0.053 C 
BRANCH   8   9
ATOM      9  C   UNL     1     102.576  18.810 197.270  1.00  0.00     0.041 C 
ATOM     10  O   UNL     1     101.502  18.172 197.432  1.00  0.00    -0.550 OA
ATOM     11  O   UNL     1     103.772  18.116 197.130  1.00  0.00    -0.550 OA
ENDBRANCH   8   9
ENDBRANCH   7   8
ENDBRANCH   6   7
ENDBRANCH   5   6
ENDBRANCH   4   5
ENDBRANCH   3   4
ENDBRANCH   2   3
ENDBRANCH   1   2
BRANCH   1  12
ATOM     12  C   UNL     1     104.420  22.971 198.861  1.00  0.00     0.000 C 
BRANCH  12  13
ATOM     13  C   UNL     1     105.464  24.000 198.409  1.00  0.00    -0.000 C 
BRANCH  13  14
ATOM     14  C   UNL     1     104.799  25.162 197.655  1.00  0.00    -0.000 C 
BRANCH  14  15
ATOM     15  C   UNL     1     103.950  24.688 196.464  1.00  0.00    -0.000 C 
BRANCH  15  16
ATOM     16  C   UNL     1     104.763  24.586 195.162  1.00  0.00    -0.000 C 
BRANCH  16  17
ATOM     17  C   UNL     1     105.487  23.238 195.024  1.00  0.00    -0.000 C 
BRANCH  17  18
ATOM     18  C   UNL     1     104.550  22.105 194.566  1.00  0.00    -0.000 C 
BRANCH  18  19
ATOM     19  C   UNL     1     103.671  22.515 193.374  1.00  0.00    -0.003 C 
ATOM     20  C   UNL     1     102.178  22.453 193.695  1.00  0.00     0.004 C 
ENDBRANCH  18  19
ENDBRANCH  17  18
ENDBRANCH  16  17
ENDBRANCH  15  16
ENDBRANCH  14  15
ENDBRANCH  13  14
ENDBRANCH  12  13
ENDBRANCH   1  12
TORSDOF 16
ENDMDL
MODEL 3
REMARK VINA RESULT:    -5.207      1.924      5.017
REMARK INTER + INTRA:         -12.794
REMARK INTER:                 -10.040
REMARK INTRA:                  -2.755
REMARK UNBOUND:                -2.716
REMARK SMILES CCCCCCCCCCCCCCCCCC(=O)[O-]
REMARK SMILES IDX 10 1 11 2 12 3 13 4 14 5 15 6 16 7 17 8 18 9 19 10 20 11
REMARK SMILES IDX 9 12 8 13 7 14 6 15 5 16 4 17 3 18 2 19 1 20
REMARK H PARENT
REMARK Flexibility Score: inf
ROOT
ATOM      1  C   UNL     1     103.145  25.043 197.011  1.00  0.00     0.000 C 
ENDROOT
BRANCH   1   2
ATOM      2  C   UNL     1     104.589  25.568 197.114  1.00  0.00     0.000 C 
BRANCH   2   3
ATOM      3  C   UNL     1     105.586  24.937 196.122  1.00  0.00     0.000 C 
BRANCH   3   4
ATOM      4  C   UNL     1     104.993  24.535 194.760  1.00  0.00     0.000 C 
BRANCH   4   5
ATOM      5  C   UNL     1     105.044  23.017 194.511  1.00  0.00     0.000 C 
BRANCH   5   6
ATOM      6  C   UNL     1     104.057  22.565 193.422  1.00  0.00     0.000 C 
BRANCH   6   7
ATOM      7  C   UNL     1     102.617  22.432 193.946  1.00  0.00     0.006 C 
BRANCH   7   8
ATOM      8  C   UNL     1     102.561  21.739 195.314  1.00  0.00     0.053 C 
BRANCH   8   9
ATOM      9  C   UNL     1     101.187  21.783 195.907  1.00  0.00     0.041 C 
ATOM     10  O   UNL     1     100.526  22.855 195.895  1.00  0.00    -0.550 OA
ATOM     11  O   UNL     1     100.647  20.649 196.500  1.00  0.00    -0.550 OA
ENDBRANCH   8   9
ENDBRANCH   7   8
ENDBRANCH   6   7
ENDBRANCH   5   6
ENDBRANCH   4   5
ENDBRANCH   3   4
ENDBRANCH   2   3
ENDBRANCH   1   2
BRANCH   1  12
ATOM     12  C   UNL     1     102.680  24.321 198.284  1.00  0.00     0.000 C 
BRANCH  12  13
ATOM     13  C   UNL     1     103.539  23.081 198.557  1.00  0.00    -0.000 C 
BRANCH  13  14
ATOM     14  C   UNL     1     104.232  23.184 199.925  1.00  0.00    -0.000 C 
BRANCH  14  15
ATOM     15  C   UNL     1     105.761  23.300 199.808  1.00  0.00    -0.000 C 
BRANCH  15  16
ATOM     16  C   UNL     1     106.425  21.974 199.396  1.00  0.00    -0.000 C 
BRANCH  16  17
ATOM     17  C   UNL     1     106.931  21.996 197.946  1.00  0.00    -0.000 C 
BRANCH  17  18
ATOM     18  C   UNL     1     107.083  20.585 197.349  1.00  0.00    -0.000 C 
BRANCH  18  19
ATOM     19  C   UNL     1     105.862  20.164 196.516  1.00  0.00    -0.003 C 
ATOM     20  C   UNL     1     104.801  19.445 197.349  1.00  0.00     0.004 C 
ENDBRANCH  18  19
ENDBRANCH  17  18
ENDBRANCH  16  17
ENDBRANCH  15  16
ENDBRANCH  14  15
ENDBRANCH  13  14
ENDBRANCH  12  13
ENDBRANCH   1  12
TORSDOF 16
ENDMDL
MODEL 4
REMARK VINA RESULT:    -5.195      2.953      6.399
REMARK INTER + INTRA:         -12.770
REMARK INTER:                 -10.329
REMARK INTRA:                  -2.441
REMARK UNBOUND:                -2.716
REMARK SMILES CCCCCCCCCCCCCCCCCC(=O)[O-]
REMARK SMILES IDX 10 1 11 2 12 3 13 4 14 5 15 6 16 7 17 8 18 9 19 10 20 11
REMARK SMILES IDX 9 12 8 13 7 14 6 15 5 16 4 17 3 18 2 19 1 20
REMARK H PARENT
REMARK Flexibility Score: inf
ROOT
ATOM      1  C   UNL     1     101.346  23.009 196.559  1.00  0.00     0.000 C 
ENDROOT
BRANCH   1   2
ATOM      2  C   UNL     1     102.401  22.222 195.761  1.00  0.00     0.000 C 
BRANCH   2   3
ATOM      3  C   UNL     1     102.176  22.188 194.235  1.00  0.00     0.000 C 
BRANCH   3   4
ATOM      4  C   UNL     1     103.389  22.599 193.383  1.00  0.00     0.000 C 
BRANCH   4   5
ATOM      5  C   UNL     1     104.686  22.710 194.203  1.00  0.00     0.000 C 
BRANCH   5   6
ATOM      6  C   UNL     1     105.762  21.712 193.743  1.00  0.00     0.000 C 
BRANCH   6   7
ATOM      7  C   UNL     1     106.155  20.715 194.846  1.00  0.00     0.006 C 
BRANCH   7   8
ATOM      8  C   UNL     1     106.375  21.406 196.198  1.00  0.00     0.053 C 
BRANCH   8   9
ATOM      9  C   UNL     1     107.613  20.913 196.882  1.00  0.00     0.041 C 
ATOM     10  O   UNL     1     107.995  19.724 196.722  1.00  0.00    -0.550 OA
ATOM     11  O   UNL     1     108.329  21.758 197.721  1.00  0.00    -0.550 OA
ENDBRANCH   8   9
ENDBRANCH   7   8
ENDBRANCH   6   7
ENDBRANCH   5   6
ENDBRANCH   4   5
ENDBRANCH   3   4
ENDBRANCH   2   3
ENDBRANCH   1   2
BRANCH   1  12
ATOM     12  C   UNL     1     100.909  22.290 197.843  1.00  0.00     0.000 C 
BRANCH  12  13
ATOM     13  C   UNL     1     100.253  23.268 198.825  1.00  0.00    -0.000 C 
BRANCH  13  14
ATOM     14  C   UNL     1     101.306  23.922 199.733  1.00  0.00    -0.000 C 
BRANCH  14  15
ATOM     15  C   UNL     1     102.226  22.894 200.411  1.00  0.00    -0.000 C 
BRANCH  15  16
ATOM     16  C   UNL     1     103.711  23.288 200.332  1.00  0.00    -0.000 C 
BRANCH  16  17
ATOM     17  C   UNL     1     104.307  23.061 198.934  1.00  0.00    -0.000 C 
BRANCH  17  18
ATOM     18  C   UNL     1     105.337  24.138 198.545  1.00  0.00    -0.000 C 
BRANCH  18  19
ATOM     19  C   UNL     1     105.046  24.762 197.172  1.00  0.00    -0.003 C 
ATOM     20  C   UNL     1     103.674  25.434 197.109  1.00  0.00     0.004 C 
ENDBRANCH  18  19
ENDBRANCH  17  18
ENDBRANCH  16  17
ENDBRANCH  15  16
ENDBRANCH  14  15
ENDBRANCH  13  14
ENDBRANCH  12  13
ENDBRANCH   1  12
TORSDOF 16
ENDMDL
MODEL 5
REMARK VINA RESULT:    -5.192      1.711      4.519
REMARK INTER + INTRA:         -12.764
REMARK INTER:                 -10.180
REMARK INTRA:                  -2.584
REMARK UNBOUND:                -2.716
REMARK SMILES CCCCCCCCCCCCCCCCCC(=O)[O-]
REMARK SMILES IDX 10 1 11 2 12 3 13 4 14 5 15 6 16 7 17 8 18 9 19 10 20 11
REMARK SMILES IDX 9 12 8 13 7 14 6 15 5 16 4 17 3 18 2 19 1 20
REMARK H PARENT
REMARK Flexibility Score: inf
ROOT
ATOM      1  C   UNL     1     105.744  20.821 196.551  1.00  0.00     0.000 C 
ENDROOT
BRANCH   1   2
ATOM      2  C   UNL     1     105.777  21.903 195.458  1.00  0.00     0.000 C 
BRANCH   2   3
ATOM      3  C   UNL     1     105.875  21.371 194.014  1.00  0.00     0.000 C 
BRANCH   3   4
ATOM      4  C   UNL     1     104.803  21.900 193.044  1.00  0.00     0.000 C 
BRANCH   4   5
ATOM      5  C   UNL     1     103.853  22.916 193.701  1.00  0.00     0.000 C 
BRANCH   5   6
ATOM      6  C   UNL     1     102.455  22.333 193.964  1.00  0.00     0.000 C 
BRANCH   6   7
ATOM      7  C   UNL     1     102.227  21.987 195.445  1.00  0.00     0.006 C 
BRANCH   7   8
ATOM      8  C   UNL     1     101.200  22.917 196.104  1.00  0.00     0.053 C 
BRANCH   8   9
ATOM      9  C   UNL     1     100.334  22.187 197.085  1.00  0.00     0.041 C 
ATOM     10  O   UNL     1      99.799  22.805 198.042  1.00  0.00    -0.550 OA
ATOM     11  O   UNL     1     100.143  20.816 196.959  1.00  0.00    -0.550 OA
ENDBRANCH   8   9
ENDBRANCH   7   8
ENDBRANCH   6   7
ENDBRANCH   5   6
ENDBRANCH   4   5
ENDBRANCH   3   4
ENDBRANCH   2   3
ENDBRANCH   1   2
BRANCH   1  12
ATOM     12  C   UNL     1     107.108  20.607 197.222  1.00  0.00     0.000 C 
BRANCH  12  13
ATOM     13  C   UNL     1     107.483  21.808 198.099  1.00  0.00    -0.000 C 
BRANCH  13  14
ATOM     14  C   UNL     1     106.737  21.761 199.441  1.00  0.00    -0.000 C 
BRANCH  14  15
ATOM     15  C   UNL     1     106.098  23.110 199.812  1.00  0.00    -0.000 C 
BRANCH  15  16
ATOM     16  C   UNL     1     104.561  23.074 199.745  1.00  0.00    -0.000 C 
BRANCH  16  17
ATOM     17  C   UNL     1     104.020  23.559 198.391  1.00  0.00    -0.000 C 
BRANCH  17  18
ATOM     18  C   UNL     1     104.870  24.689 197.781  1.00  0.00    -0.000 C 
BRANCH  18  19
ATOM     19  C   UNL     1     104.206  25.327 196.552  1.00  0.00    -0.003 C 
ATOM     20  C   UNL     1     105.198  25.606 195.423  1.00  0.00     0.004 C 
ENDBRANCH  18  19
ENDBRANCH  17  18
ENDBRANCH  16  17
ENDBRANCH  15  16
ENDBRANCH  14  15
ENDBRANCH  13  14
ENDBRANCH  12  13
ENDBRANCH   1  12
TORSDOF 16
ENDMDL
MODEL 6
REMARK VINA RESULT:    -5.157      3.650      5.262
REMARK INTER + INTRA:         -12.697
REMARK INTER:                 -10.196
REMARK INTRA:                  -2.501
REMARK UNBOUND:                -2.716
REMARK SMILES CCCCCCCCCCCCCCCCCC(=O)[O-]
REMARK SMILES IDX 10 1 11 2 12 3 13 4 14 5 15 6 16 7 17 8 18 9 19 10 20 11
REMARK SMILES IDX 9 12 8 13 7 14 6 15 5 16 4 17 3 18 2 19 1 20
REMARK H PARENT
REMARK Flexibility Score: inf
ROOT
ATOM      1  C   UNL     1     103.371  25.004 197.061  1.00  0.00     0.000 C 
ENDROOT
BRANCH   1   2
ATOM      2  C   UNL     1     103.089  24.020 198.211  1.00  0.00     0.000 C 
BRANCH   2   3
ATOM      3  C   UNL     1     104.199  22.980 198.468  1.00  0.00     0.000 C 
BRANCH   3   4
ATOM      4  C   UNL     1     105.044  23.219 199.731  1.00  0.00     0.000 C 
BRANCH   4   5
ATOM      5  C   UNL     1     106.383  22.462 199.707  1.00  0.00     0.000 C 
BRANCH   5   6
ATOM      6  C   UNL     1     106.476  21.465 198.540  1.00  0.00     0.000 C 
BRANCH   6   7
ATOM      7  C   UNL     1     107.747  21.658 197.696  1.00  0.00     0.006 C 
BRANCH   7   8
ATOM      8  C   UNL     1     107.814  20.676 196.518  1.00  0.00     0.053 C 
BRANCH   8   9
ATOM      9  C   UNL     1     109.195  20.128 196.327  1.00  0.00     0.041 C 
ATOM     10  O   UNL     1     109.379  18.885 196.250  1.00  0.00    -0.550 OA
ATOM     11  O   UNL     1     110.284  20.990 196.264  1.00  0.00    -0.550 OA
ENDBRANCH   8   9
ENDBRANCH   7   8
ENDBRANCH   6   7
ENDBRANCH   5   6
ENDBRANCH   4   5
ENDBRANCH   3   4
ENDBRANCH   2   3
ENDBRANCH   1   2
BRANCH   1  12
ATOM     12  C   UNL     1     104.837  24.982 196.602  1.00  0.00     0.000 C 
BRANCH  12  13
ATOM     13  C   UNL     1     104.949  24.523 195.143  1.00  0.00    -0.000 C 
BRANCH  13  14
ATOM     14  C   UNL     1     105.479  23.084 195.060  1.00  0.00    -0.000 C 
BRANCH  14  15
ATOM     15  C   UNL     1     104.528  22.143 194.302  1.00  0.00    -0.000 C 
BRANCH  15  16
ATOM     16  C   UNL     1     103.477  22.905 193.477  1.00  0.00    -0.000 C 
BRANCH  16  17
ATOM     17  C   UNL     1     102.055  22.359 193.685  1.00  0.00    -0.000 C 
BRANCH  17  18
ATOM     18  C   UNL     1     101.652  22.303 195.170  1.00  0.00    -0.000 C 
BRANCH  18  19
ATOM     19  C   UNL     1     101.245  20.890 195.616  1.00  0.00    -0.003 C 
ATOM     20  C   UNL     1     101.743  20.548 197.020  1.00  0.00     0.004 C 
ENDBRANCH  18  19
ENDBRANCH  17  18
ENDBRANCH  16  17
ENDBRANCH  15  16
ENDBRANCH  14  15
ENDBRANCH  13  14
ENDBRANCH  12  13
ENDBRANCH   1  12
TORSDOF 16
ENDMDL
MODEL 7
REMARK VINA RESULT:    -5.132      2.449      4.149
REMARK INTER + INTRA:         -12.648
REMARK INTER:                 -10.334
REMARK INTRA:                  -2.314
REMARK UNBOUND:                -2.716
REMARK SMILES CCCCCCCCCCCCCCCCCC(=O)[O-]
REMARK SMILES IDX 10 1 11 2 12 3 13 4 14 5 15 6 16 7 17 8 18 9 19 10 20 11
REMARK SMILES IDX 9 12 8 13 7 14 6 15 5 16 4 17 3 18 2 19 1 20
REMARK H PARENT
REMARK Flexibility Score: inf
ROOT
ATOM      1  C   UNL     1     105.334  24.349 198.076  1.00  0.00     0.000 C 
ENDROOT
BRANCH   1   2
ATOM      2  C   UNL     1     104.725  23.092 198.721  1.00  0.00     0.000 C 
BRANCH   2   3
ATOM      3  C   UNL     1     104.262  23.266 200.182  1.00  0.00     0.000 C 
BRANCH   3   4
ATOM      4  C   UNL     1     102.778  22.953 200.442  1.00  0.00     0.000 C 
BRANCH   4   5
ATOM      5  C   UNL     1     101.827  23.943 199.747  1.00  0.00     0.000 C 
BRANCH   5   6
ATOM      6  C   UNL     1     100.763  23.238 198.890  1.00  0.00     0.000 C 
BRANCH   6   7
ATOM      7  C   UNL     1     101.223  23.017 197.439  1.00  0.00     0.006 C 
BRANCH   7   8
ATOM      8  C   UNL     1     101.768  21.601 197.215  1.00  0.00     0.053 C 
BRANCH   8   9
ATOM      9  C   UNL     1     100.894  20.806 196.294  1.00  0.00     0.041 C 
ATOM     10  O   UNL     1     101.098  20.827 195.051  1.00  0.00    -0.550 OA
ATOM     11  O   UNL     1      99.835  20.065 196.804  1.00  0.00    -0.550 OA
ENDBRANCH   8   9
ENDBRANCH   7   8
ENDBRANCH   6   7
ENDBRANCH   5   6
ENDBRANCH   4   5
ENDBRANCH   3   4
ENDBRANCH   2   3
ENDBRANCH   1   2
BRANCH   1  12
ATOM     12  C   UNL     1     104.317  25.147 197.247  1.00  0.00     0.000 C 
BRANCH  12  13
ATOM     13  C   UNL     1     104.933  25.613 195.921  1.00  0.00    -0.000 C 
BRANCH  13  14
ATOM     14  C   UNL     1     105.344  24.413 195.055  1.00  0.00    -0.000 C 
BRANCH  14  15
ATOM     15  C   UNL     1     104.198  23.900 194.168  1.00  0.00    -0.000 C 
BRANCH  15  16
ATOM     16  C   UNL     1     104.110  22.365 194.143  1.00  0.00    -0.000 C 
BRANCH  16  17
ATOM     17  C   UNL     1     104.951  21.709 195.250  1.00  0.00    -0.000 C 
BRANCH  17  18
ATOM     18  C   UNL     1     106.314  21.205 194.741  1.00  0.00    -0.000 C 
BRANCH  18  19
ATOM     19  C   UNL     1     106.301  20.892 193.237  1.00  0.00    -0.003 C 
ATOM     20  C   UNL     1     107.678  21.045 192.590  1.00  0.00     0.004 C 
ENDBRANCH  18  19
ENDBRANCH  17  18
ENDBRANCH  16  17
ENDBRANCH  15  16
ENDBRANCH  14  15
ENDBRANCH  13  14
ENDBRANCH  12  13
ENDBRANCH   1  12
TORSDOF 16
ENDMDL
MODEL 8
REMARK VINA RESULT:    -5.084      2.579      4.696
REMARK INTER + INTRA:         -12.555
REMARK INTER:                  -9.848
REMARK INTRA:                  -2.707
REMARK UNBOUND:                -2.716
REMARK SMILES CCCCCCCCCCCCCCCCCC(=O)[O-]
REMARK SMILES IDX 10 1 11 2 12 3 13 4 14 5 15 6 16 7 17 8 18 9 19 10 20 11
REMARK SMILES IDX 9 12 8 13 7 14 6 15 5 16 4 17 3 18 2 19 1 20
REMARK H PARENT
REMARK Flexibility Score: inf
ROOT
ATOM      1  C   UNL     1     103.247  22.490 198.173  1.00  0.00     0.000 C 
ENDROOT
BRANCH   1   2
ATOM      2  C   UNL     1     103.912  23.876 198.226  1.00  0.00     0.000 C 
BRANCH   2   3
ATOM      3  C   UNL     1     105.359  23.888 198.759  1.00  0.00     0.000 C 
BRANCH   3   4
ATOM      4  C   UNL     1     105.677  22.820 199.820  1.00  0.00     0.000 C 
BRANCH   4   5
ATOM      5  C   UNL     1     106.901  21.962 199.457  1.00  0.00     0.000 C 
BRANCH   5   6
ATOM      6  C   UNL     1     106.927  21.569 197.971  1.00  0.00     0.000 C 
BRANCH   6   7
ATOM      7  C   UNL     1     106.664  20.068 197.752  1.00  0.00     0.006 C 
BRANCH   7   8
ATOM      8  C   UNL     1     105.438  19.821 196.863  1.00  0.00     0.053 C 
BRANCH   8   9
ATOM      9  C   UNL     1     104.672  18.608 197.295  1.00  0.00     0.041 C 
ATOM     10  O   UNL     1     103.438  18.689 197.535  1.00  0.00    -0.550 OA
ATOM     11  O   UNL     1     105.327  17.394 197.463  1.00  0.00    -0.550 OA
ENDBRANCH   8   9
ENDBRANCH   7   8
ENDBRANCH   6   7
ENDBRANCH   5   6
ENDBRANCH   4   5
ENDBRANCH   3   4
ENDBRANCH   2   3
ENDBRANCH   1   2
BRANCH   1  12
ATOM     12  C   UNL     1     101.739  22.561 197.891  1.00  0.00     0.000 C 
BRANCH  12  13
ATOM     13  C   UNL     1     101.471  22.912 196.422  1.00  0.00    -0.000 C 
BRANCH  13  14
ATOM     14  C   UNL     1     101.968  21.796 195.492  1.00  0.00    -0.000 C 
BRANCH  14  15
ATOM     15  C   UNL     1     101.952  22.206 194.010  1.00  0.00    -0.000 C 
BRANCH  15  16
ATOM     16  C   UNL     1     103.346  22.598 193.489  1.00  0.00    -0.000 C 
BRANCH  16  17
ATOM     17  C   UNL     1     104.467  22.229 194.474  1.00  0.00    -0.000 C 
BRANCH  17  18
ATOM     18  C   UNL     1     105.354  23.432 194.841  1.00  0.00    -0.000 C 
BRANCH  18  19
ATOM     19  C   UNL     1     104.593  24.765 194.778  1.00  0.00    -0.003 C 
ATOM     20  C   UNL     1     105.320  25.895 195.506  1.00  0.00     0.004 C 
ENDBRANCH  18  19
ENDBRANCH  17  18
ENDBRANCH  16  17
ENDBRANCH  15  16
ENDBRANCH  14  15
ENDBRANCH  13  14
ENDBRANCH  12  13
ENDBRANCH   1  12
TORSDOF 16
ENDMDL
MODEL 9
REMARK VINA RESULT:    -5.065      2.594      5.271
REMARK INTER + INTRA:         -12.518
REMARK INTER:                  -9.371
REMARK INTRA:                  -3.147
REMARK UNBOUND:                -2.716
REMARK SMILES CCCCCCCCCCCCCCCCCC(=O)[O-]
REMARK SMILES IDX 10 1 11 2 12 3 13 4 14 5 15 6 16 7 17 8 18 9 19 10 20 11
REMARK SMILES IDX 9 12 8 13 7 14 6 15 5 16 4 17 3 18 2 19 1 20
REMARK H PARENT
REMARK Flexibility Score: inf
ROOT
ATOM      1  C   UNL     1     105.056  24.147 198.120  1.00  0.00     0.000 C 
ENDROOT
BRANCH   1   2
ATOM      2  C   UNL     1     104.278  24.807 196.967  1.00  0.00     0.000 C 
BRANCH   2   3
ATOM      3  C   UNL     1     104.949  24.703 195.582  1.00  0.00     0.000 C 
BRANCH   3   4
ATOM      4  C   UNL     1     104.387  23.608 194.659  1.00  0.00     0.000 C 
BRANCH   4   5
ATOM      5  C   UNL     1     105.398  22.482 194.382  1.00  0.00     0.000 C 
BRANCH   5   6
ATOM      6  C   UNL     1     105.454  21.447 195.518  1.00  0.00     0.000 C 
BRANCH   6   7
ATOM      7  C   UNL     1     106.880  20.933 195.780  1.00  0.00     0.006 C 
BRANCH   7   8
ATOM      8  C   UNL     1     107.380  21.308 197.182  1.00  0.00     0.053 C 
BRANCH   8   9
ATOM      9  C   UNL     1     106.965  20.302 198.210  1.00  0.00     0.041 C 
ATOM     10  O   UNL     1     107.000  20.594 199.435  1.00  0.00    -0.550 OA
ATOM     11  O   UNL     1     106.568  19.029 197.819  1.00  0.00    -0.550 OA
ENDBRANCH   8   9
ENDBRANCH   7   8
ENDBRANCH   6   7
ENDBRANCH   5   6
ENDBRANCH   4   5
ENDBRANCH   3   4
ENDBRANCH   2   3
ENDBRANCH   1   2
BRANCH   1  12
ATOM     12  C   UNL     1     104.331  22.928 198.709  1.00  0.00     0.000 C 
BRANCH  12  13
ATOM     13  C   UNL     1     103.752  23.248 200.093  1.00  0.00    -0.000 C 
BRANCH  13  14
ATOM     14  C   UNL     1     102.258  22.899 200.157  1.00  0.00    -0.000 C 
BRANCH  14  15
ATOM     15  C   UNL     1     101.409  23.743 199.192  1.00  0.00    -0.000 C 
BRANCH  15  16
ATOM     16  C   UNL     1     100.578  22.880 198.226  1.00  0.00    -0.000 C 
BRANCH  16  17
ATOM     17  C   UNL     1     101.046  23.012 196.768  1.00  0.00    -0.000 C 
BRANCH  17  18
ATOM     18  C   UNL     1     101.785  21.758 196.266  1.00  0.00    -0.000 C 
BRANCH  18  19
ATOM     19  C   UNL     1     101.556  20.538 197.171  1.00  0.00    -0.003 C 
ATOM     20  C   UNL     1     102.848  19.782 197.480  1.00  0.00     0.004 C 
ENDBRANCH  18  19
ENDBRANCH  17  18
ENDBRANCH  16  17
ENDBRANCH  15  16
ENDBRANCH  14  15
ENDBRANCH  13  14
ENDBRANCH  12  13
ENDBRANCH   1  12
TORSDOF 16
ENDMDL
