MODEL 1
REMARK VINA RESULT:    -4.054      0.000      0.000
REMARK INTER + INTRA:          -6.206
REMARK INTER:                  -6.662
REMARK INTRA:                   0.456
REMARK UNBOUND:                 0.456
REMARK SMILES C[C@@H]1O[C@H](OC[C@@H]2O[C@H](Oc3c(-c4ccc(O)c(O)c4)oc4cc(O)cc(O)c4c3=O)[C@H](O)[C@H](O)[C@@H]2O)[C@H](O)[C@@H](O)[C@@H]1O
REMARK SMILES IDX 7 1 36 2 34 3 32 4 9 5 8 6 6 7 5 8 4 9 1 10 2 11 42 12 3 13
REMARK SMILES IDX 40 14 38 15 43 16 41 18 39 20 37 22 35 24 10 26 11 27 12 28
REMARK SMILES IDX 30 29 21 30 29 31 31 32 22 33 27 34 23 35 26 36 24 37 13 38
REMARK SMILES IDX 20 39 14 40 18 41 15 42 16 43 19 44 17 46 28 48 25 50 33 52
REMARK H PARENT 43 17 41 19 39 21 37 23 35 25 19 45 17 47 28 49 25 51 33 53
REMARK Flexibility Score: inf
ROOT
ATOM      1  C   UNL     1      59.627 154.749   5.268  1.00  0.00     0.180 C 
ATOM      2  C   UNL     1      59.744 156.197   5.872  1.00  0.00     0.177 C 
ATOM      3  C   UNL     1      59.533 156.157   7.396  1.00  0.00     0.180 C 
ATOM      4  C   UNL     1      60.585 155.184   8.063  1.00  0.00     0.214 C 
ATOM      5  C   UNL     1      61.169 154.235   6.994  1.00  0.00     0.339 C 
ATOM      6  O   UNL     1      60.132 153.734   6.165  1.00  0.00    -0.332 OA
ENDROOT
BRANCH   1   7
ATOM      7  C   UNL     1      58.169 154.437   4.883  1.00  0.00     0.198 C 
BRANCH   7   8
ATOM      8  O   UNL     1      57.925 154.648   3.506  1.00  0.00    -0.347 OA
BRANCH   8   9
ATOM      9  C   UNL     1      58.541 153.689   2.648  1.00  0.00     0.281 C 
ATOM     10  C   UNL     1      61.211 154.158   0.163  1.00  0.00     0.041 C 
ATOM     11  C   UNL     1      60.256 153.374   1.063  1.00  0.00     0.150 C 
ATOM     12  C   UNL     1      60.878 152.159   1.769  1.00  0.00     0.174 C 
ATOM     13  O   UNL     1      59.679 154.261   2.013  1.00  0.00    -0.344 OA
ATOM     14  C   UNL     1      60.392 152.031   3.223  1.00  0.00     0.179 C 
ATOM     15  C   UNL     1      58.868 152.294   3.298  1.00  0.00     0.202 C 
BRANCH  12  16
ATOM     16  O   UNL     1      62.297 152.149   1.716  1.00  0.00    -0.388 OA
ATOM     17  H   UNL     1      62.577 151.520   1.024  1.00  0.00     0.211 HD
ENDBRANCH  12  16
BRANCH  14  18
ATOM     18  O   UNL     1      60.685 150.732   3.670  1.00  0.00    -0.387 OA
ATOM     19  H   UNL     1      59.830 150.231   3.641  1.00  0.00     0.211 HD
ENDBRANCH  14  18
BRANCH  15  20
ATOM     20  O   UNL     1      58.448 152.246   4.637  1.00  0.00    -0.385 OA
ATOM     21  H   UNL     1      57.648 152.866   4.682  1.00  0.00     0.211 HD
ENDBRANCH  15  20
ENDBRANCH   8   9
ENDBRANCH   7   8
ENDBRANCH   1   7
BRANCH   2  22
ATOM     22  O   UNL     1      58.856 157.078   5.276  1.00  0.00    -0.387 OA
ATOM     23  H   UNL     1      58.316 157.456   5.977  1.00  0.00     0.211 HD
ENDBRANCH   2  22
BRANCH   3  24
ATOM     24  O   UNL     1      58.212 155.736   7.689  1.00  0.00    -0.387 OA
ATOM     25  H   UNL     1      57.626 156.477   7.412  1.00  0.00     0.211 HD
ENDBRANCH   3  24
BRANCH   5  26
ATOM     26  O   UNL     1      61.876 153.150   7.612  1.00  0.00    -0.454 OA
BRANCH  26  27
ATOM     27  C   UNL     1      61.530 151.828   7.276  1.00  0.00     0.214 A 
ATOM     28  C   UNL     1      62.381 151.039   6.486  1.00  0.00     0.180 A 
ATOM     29  C   UNL     1      60.403 151.261   7.865  1.00  0.00     0.239 A 
ATOM     30  O   UNL     1      62.127 149.736   6.332  1.00  0.00    -0.452 OA
ATOM     31  C   UNL     1      60.160 149.877   7.680  1.00  0.00     0.111 A 
ATOM     32  O   UNL     1      59.642 151.984   8.548  1.00  0.00    -0.285 OA
ATOM     33  C   UNL     1      61.089 149.137   6.904  1.00  0.00     0.146 A 
ATOM     34  C   UNL     1      59.087 149.197   8.300  1.00  0.00     0.134 A 
ATOM     35  C   UNL     1      60.946 147.751   6.805  1.00  0.00     0.094 A 
ATOM     36  C   UNL     1      58.934 147.823   8.103  1.00  0.00     0.093 A 
ATOM     37  C   UNL     1      59.866 147.105   7.389  1.00  0.00     0.123 A 
BRANCH  28  38
ATOM     38  C   UNL     1      63.562 151.622   5.811  1.00  0.00     0.025 A 
ATOM     39  C   UNL     1      64.392 152.529   6.503  1.00  0.00     0.062 A 
ATOM     40  C   UNL     1      63.882 151.275   4.470  1.00  0.00     0.016 A 
ATOM     41  C   UNL     1      65.531 153.078   5.874  1.00  0.00     0.158 A 
ATOM     42  C   UNL     1      65.024 151.807   3.861  1.00  0.00     0.051 A 
ATOM     43  C   UNL     1      65.844 152.693   4.531  1.00  0.00     0.157 A 
BRANCH  41  44
ATOM     44  O   UNL     1      66.312 153.971   6.609  1.00  0.00    -0.504 OA
ATOM     45  H   UNL     1      65.952 154.836   7.006  1.00  0.00     0.293 HD
ENDBRANCH  41  44
BRANCH  43  46
ATOM     46  O   UNL     1      66.946 153.177   3.861  1.00  0.00    -0.504 OA
ATOM     47  H   UNL     1      67.139 154.147   3.759  1.00  0.00     0.293 HD
ENDBRANCH  43  46
ENDBRANCH  28  38
BRANCH  34  48
ATOM     48  O   UNL     1      58.194 149.891   9.125  1.00  0.00    -0.507 OA
ATOM     49  H   UNL     1      58.371 150.004  10.115  1.00  0.00     0.293 HD
ENDBRANCH  34  48
BRANCH  37  50
ATOM     50  O   UNL     1      59.786 145.709   7.254  1.00  0.00    -0.508 OA
ATOM     51  H   UNL     1      59.727 145.232   6.360  1.00  0.00     0.293 HD
ENDBRANCH  37  50
ENDBRANCH  26  27
ENDBRANCH   5  26
BRANCH   4  52
ATOM     52  O   UNL     1      59.997 154.440   9.081  1.00  0.00    -0.384 OA
ATOM     53  H   UNL     1      60.549 153.599   9.187  1.00  0.00     0.211 HD
ENDBRANCH   4  52
TORSDOF 16
ENDMDL
MODEL 2
REMARK VINA RESULT:    -2.823      1.463      4.319
REMARK INTER + INTRA:          -4.182
REMARK INTER:                  -2.361
REMARK INTRA:                  -1.820
REMARK UNBOUND:                 0.456
REMARK SMILES C[C@@H]1O[C@H](OC[C@@H]2O[C@H](Oc3c(-c4ccc(O)c(O)c4)oc4cc(O)cc(O)c4c3=O)[C@H](O)[C@H](O)[C@@H]2O)[C@H](O)[C@@H](O)[C@@H]1O
REMARK SMILES IDX 7 1 36 2 34 3 32 4 9 5 8 6 6 7 5 8 4 9 1 10 2 11 42 12 3 13
REMARK SMILES IDX 40 14 38 15 43 16 41 18 39 20 37 22 35 24 10 26 11 27 12 28
REMARK SMILES IDX 30 29 21 30 29 31 31 32 22 33 27 34 23 35 26 36 24 37 13 38
REMARK SMILES IDX 20 39 14 40 18 41 15 42 16 43 19 44 17 46 28 48 25 50 33 52
REMARK H PARENT 43 17 41 19 39 21 37 23 35 25 19 45 17 47 28 49 25 51 33 53
REMARK Flexibility Score: inf
ROOT
ATOM      1  C   UNL     1      61.154 154.405   7.761  1.00  0.00     0.180 C 
ATOM      2  C   UNL     1      60.312 155.614   8.313  1.00  0.00     0.177 C 
ATOM      3  C   UNL     1      59.606 156.342   7.157  1.00  0.00     0.180 C 
ATOM      4  C   UNL     1      58.684 155.333   6.363  1.00  0.00     0.214 C 
ATOM      5  C   UNL     1      59.117 153.882   6.667  1.00  0.00     0.339 C 
ATOM      6  O   UNL     1      60.531 153.775   6.620  1.00  0.00    -0.332 OA
ENDROOT
BRANCH   1   7
ATOM      7  C   UNL     1      62.582 154.855   7.403  1.00  0.00     0.198 C 
BRANCH   7   8
ATOM      8  O   UNL     1      63.491 153.771   7.373  1.00  0.00    -0.347 OA
BRANCH   8   9
ATOM      9  C   UNL     1      63.551 153.094   6.119  1.00  0.00     0.281 C 
ATOM     10  C   UNL     1      66.361 152.788   3.766  1.00  0.00     0.041 C 
ATOM     11  C   UNL     1      64.984 152.476   4.354  1.00  0.00     0.150 C 
ATOM     12  C   UNL     1      64.616 150.985   4.389  1.00  0.00     0.174 C 
ATOM     13  O   UNL     1      64.896 153.042   5.654  1.00  0.00    -0.344 OA
ATOM     14  C   UNL     1      63.899 150.603   5.696  1.00  0.00     0.179 C 
ATOM     15  C   UNL     1      62.854 151.683   6.063  1.00  0.00     0.202 C 
BRANCH  12  16
ATOM     16  O   UNL     1      65.726 150.129   4.162  1.00  0.00    -0.388 OA
ATOM     17  H   UNL     1      65.422 149.354   3.653  1.00  0.00     0.211 HD
ENDBRANCH  12  16
BRANCH  14  18
ATOM     18  O   UNL     1      63.270 149.362   5.504  1.00  0.00    -0.387 OA
ATOM     19  H   UNL     1      63.433 149.114   4.558  1.00  0.00     0.211 HD
ENDBRANCH  14  18
BRANCH  15  20
ATOM     20  O   UNL     1      62.258 151.363   7.293  1.00  0.00    -0.385 OA
ATOM     21  H   UNL     1      63.030 151.281   7.945  1.00  0.00     0.211 HD
ENDBRANCH  15  20
ENDBRANCH   8   9
ENDBRANCH   7   8
ENDBRANCH   1   7
BRANCH   2  22
ATOM     22  O   UNL     1      61.093 156.494   9.045  1.00  0.00    -0.387 OA
ATOM     23  H   UNL     1      61.967 156.100   9.125  1.00  0.00     0.211 HD
ENDBRANCH   2  22
BRANCH   3  24
ATOM     24  O   UNL     1      60.568 156.922   6.293  1.00  0.00    -0.387 OA
ATOM     25  H   UNL     1      61.410 156.944   6.803  1.00  0.00     0.211 HD
ENDBRANCH   3  24
BRANCH   5  26
ATOM     26  O   UNL     1      58.520 152.970   5.734  1.00  0.00    -0.454 OA
BRANCH  26  27
ATOM     27  C   UNL     1      58.931 151.625   5.733  1.00  0.00     0.214 A 
ATOM     28  C   UNL     1      59.756 151.124   4.715  1.00  0.00     0.180 A 
ATOM     29  C   UNL     1      58.632 150.833   6.839  1.00  0.00     0.239 A 
ATOM     30  O   UNL     1      60.285 149.901   4.828  1.00  0.00    -0.452 OA
ATOM     31  C   UNL     1      59.206 149.541   6.928  1.00  0.00     0.111 A 
ATOM     32  O   UNL     1      57.875 151.287   7.728  1.00  0.00    -0.285 OA
ATOM     33  C   UNL     1      60.065 149.122   5.879  1.00  0.00     0.146 A 
ATOM     34  C   UNL     1      59.024 148.696   8.047  1.00  0.00     0.134 A 
ATOM     35  C   UNL     1      60.742 147.905   5.996  1.00  0.00     0.094 A 
ATOM     36  C   UNL     1      59.654 147.450   8.081  1.00  0.00     0.093 A 
ATOM     37  C   UNL     1      60.523 147.072   7.083  1.00  0.00     0.123 A 
BRANCH  28  38
ATOM     38  C   UNL     1      60.056 151.923   3.506  1.00  0.00     0.025 A 
ATOM     39  C   UNL     1      59.070 152.777   2.965  1.00  0.00     0.062 A 
ATOM     40  C   UNL     1      61.331 151.854   2.881  1.00  0.00     0.016 A 
ATOM     41  C   UNL     1      59.351 153.557   1.822  1.00  0.00     0.158 A 
ATOM     42  C   UNL     1      61.607 152.646   1.761  1.00  0.00     0.051 A 
ATOM     43  C   UNL     1      60.651 153.486   1.226  1.00  0.00     0.157 A 
BRANCH  41  44
ATOM     44  O   UNL     1      58.336 154.379   1.331  1.00  0.00    -0.504 OA
ATOM     45  H   UNL     1      57.351 154.244   1.546  1.00  0.00     0.293 HD
ENDBRANCH  41  44
BRANCH  43  46
ATOM     46  O   UNL     1      60.999 154.229   0.119  1.00  0.00    -0.504 OA
ATOM     47  H   UNL     1      61.338 153.826  -0.723  1.00  0.00     0.293 HD
ENDBRANCH  43  46
ENDBRANCH  28  38
BRANCH  34  48
ATOM     48  O   UNL     1      58.235 149.112   9.125  1.00  0.00    -0.507 OA
ATOM     49  H   UNL     1      57.539 148.502   9.534  1.00  0.00     0.293 HD
ENDBRANCH  34  48
BRANCH  37  50
ATOM     50  O   UNL     1      61.242 145.866   7.139  1.00  0.00    -0.508 OA
ATOM     51  H   UNL     1      60.990 145.087   7.741  1.00  0.00     0.293 HD
ENDBRANCH  37  50
ENDBRANCH  26  27
ENDBRANCH   5  26
BRANCH   4  52
ATOM     52  O   UNL     1      58.755 155.569   4.994  1.00  0.00    -0.384 OA
ATOM     53  H   UNL     1      59.670 155.265   4.691  1.00  0.00     0.211 HD
ENDBRANCH   4  52
TORSDOF 16
ENDMDL
