MODEL 1
REMARK VINA RESULT:    -3.742      0.000      0.000
REMARK INTER + INTRA:          -8.164
REMARK INTER:                  -6.367
REMARK INTRA:                  -1.797
REMARK UNBOUND:                -1.797
REMARK SMILES CCCCCCCCCCCCCC(=O)[O-]
REMARK SMILES IDX 8 1 9 2 10 3 11 4 12 5 13 6 14 7 15 8 16 9 7 10 6 11 5 12
REMARK SMILES IDX 4 13 3 14 2 15 1 16
REMARK H PARENT
REMARK Flexibility Score: inf
ROOT
ATOM      1  C   UNL     1      76.158 -73.810  -4.119  1.00  0.00     0.000 C 
ENDROOT
BRANCH   1   2
ATOM      2  C   UNL     1      76.238 -72.280  -3.971  1.00  0.00     0.000 C 
BRANCH   2   3
ATOM      3  C   UNL     1      75.019 -71.682  -3.253  1.00  0.00     0.000 C 
BRANCH   3   4
ATOM      4  C   UNL     1      74.011 -72.781  -2.878  1.00  0.00     0.000 C 
BRANCH   4   5
ATOM      5  C   UNL     1      73.251 -72.469  -1.580  1.00  0.00     0.006 C 
BRANCH   5   6
ATOM      6  C   UNL     1      73.979 -71.442  -0.702  1.00  0.00     0.053 C 
BRANCH   6   7
ATOM      7  C   UNL     1      72.999 -70.699   0.152  1.00  0.00     0.041 C 
ATOM      8  O   UNL     1      71.878 -71.208   0.420  1.00  0.00    -0.550 OA
ATOM      9  O   UNL     1      73.304 -69.424   0.610  1.00  0.00    -0.550 OA
ENDBRANCH   6   7
ENDBRANCH   5   6
ENDBRANCH   4   5
ENDBRANCH   3   4
ENDBRANCH   2   3
ENDBRANCH   1   2
BRANCH   1  10
ATOM     10  C   UNL     1      77.433 -74.570  -3.710  1.00  0.00     0.000 C 
BRANCH  10  11
ATOM     11  C   UNL     1      77.880 -74.263  -2.274  1.00  0.00    -0.000 C 
BRANCH  11  12
ATOM     12  C   UNL     1      78.289 -75.549  -1.540  1.00  0.00    -0.000 C 
BRANCH  12  13
ATOM     13  C   UNL     1      77.209 -76.051  -0.565  1.00  0.00    -0.000 C 
BRANCH  13  14
ATOM     14  C   UNL     1      75.960 -75.152  -0.453  1.00  0.00    -0.000 C 
BRANCH  14  15
ATOM     15  C   UNL     1      74.637 -75.826  -0.854  1.00  0.00    -0.003 C 
ATOM     16  C   UNL     1      74.757 -76.666  -2.126  1.00  0.00     0.004 C 
ENDBRANCH  14  15
ENDBRANCH  13  14
ENDBRANCH  12  13
ENDBRANCH  11  12
ENDBRANCH  10  11
ENDBRANCH   1  10
TORSDOF 12
ENDMDL
MODEL 2
REMARK VINA RESULT:    -3.561      1.070      1.859
REMARK INTER + INTRA:          -7.856
REMARK INTER:                  -6.060
REMARK INTRA:                  -1.796
REMARK UNBOUND:                -1.797
REMARK SMILES CCCCCCCCCCCCCC(=O)[O-]
REMARK SMILES IDX 8 1 9 2 10 3 11 4 12 5 13 6 14 7 15 8 16 9 7 10 6 11 5 12
REMARK SMILES IDX 4 13 3 14 2 15 1 16
REMARK H PARENT
REMARK Flexibility Score: inf
ROOT
ATOM      1  C   UNL     1      77.542 -73.589  -3.697  1.00  0.00     0.000 C 
ENDROOT
BRANCH   1   2
ATOM      2  C   UNL     1      76.349 -72.623  -3.817  1.00  0.00     0.000 C 
BRANCH   2   3
ATOM      3  C   UNL     1      75.026 -73.339  -4.125  1.00  0.00     0.000 C 
BRANCH   3   4
ATOM      4  C   UNL     1      73.893 -72.805  -3.235  1.00  0.00     0.000 C 
BRANCH   4   5
ATOM      5  C   UNL     1      74.375 -71.741  -2.237  1.00  0.00     0.006 C 
BRANCH   5   6
ATOM      6  C   UNL     1      74.028 -72.093  -0.784  1.00  0.00     0.053 C 
BRANCH   6   7
ATOM      7  C   UNL     1      73.387 -70.924  -0.103  1.00  0.00     0.041 C 
ATOM      8  O   UNL     1      74.065 -69.899   0.168  1.00  0.00    -0.550 OA
ATOM      9  O   UNL     1      72.052 -70.987   0.276  1.00  0.00    -0.550 OA
ENDBRANCH   6   7
ENDBRANCH   5   6
ENDBRANCH   4   5
ENDBRANCH   3   4
ENDBRANCH   2   3
ENDBRANCH   1   2
BRANCH   1  10
ATOM     10  C   UNL     1      77.834 -74.088  -2.270  1.00  0.00     0.000 C 
BRANCH  10  11
ATOM     11  C   UNL     1      78.198 -75.579  -2.219  1.00  0.00    -0.000 C 
BRANCH  11  12
ATOM     12  C   UNL     1      77.881 -76.267  -3.554  1.00  0.00    -0.000 C 
BRANCH  12  13
ATOM     13  C   UNL     1      76.807 -77.361  -3.424  1.00  0.00    -0.000 C 
BRANCH  13  14
ATOM     14  C   UNL     1      75.351 -76.851  -3.414  1.00  0.00    -0.000 C 
BRANCH  14  15
ATOM     15  C   UNL     1      74.607 -77.037  -2.081  1.00  0.00    -0.003 C 
ATOM     16  C   UNL     1      74.638 -75.787  -1.201  1.00  0.00     0.004 C 
ENDBRANCH  14  15
ENDBRANCH  13  14
ENDBRANCH  12  13
ENDBRANCH  11  12
ENDBRANCH  10  11
ENDBRANCH   1  10
TORSDOF 12
ENDMDL
MODEL 3
REMARK VINA RESULT:    -3.558      1.034      1.733
REMARK INTER + INTRA:          -7.852
REMARK INTER:                  -5.973
REMARK INTRA:                  -1.879
REMARK UNBOUND:                -1.797
REMARK SMILES CCCCCCCCCCCCCC(=O)[O-]
REMARK SMILES IDX 8 1 9 2 10 3 11 4 12 5 13 6 14 7 15 8 16 9 7 10 6 11 5 12
REMARK SMILES IDX 4 13 3 14 2 15 1 16
REMARK H PARENT
REMARK Flexibility Score: inf
ROOT
ATOM      1  C   UNL     1      77.831 -74.569  -4.046  1.00  0.00     0.000 C 
ENDROOT
BRANCH   1   2
ATOM      2  C   UNL     1      77.553 -73.249  -3.305  1.00  0.00     0.000 C 
BRANCH   2   3
ATOM      3  C   UNL     1      76.342 -72.490  -3.867  1.00  0.00     0.000 C 
BRANCH   3   4
ATOM      4  C   UNL     1      75.096 -73.389  -3.893  1.00  0.00     0.000 C 
BRANCH   4   5
ATOM      5  C   UNL     1      74.012 -72.928  -2.907  1.00  0.00     0.006 C 
BRANCH   5   6
ATOM      6  C   UNL     1      74.463 -71.742  -2.044  1.00  0.00     0.053 C 
BRANCH   6   7
ATOM      7  C   UNL     1      73.712 -71.723  -0.750  1.00  0.00     0.041 C 
ATOM      8  O   UNL     1      73.781 -70.719   0.008  1.00  0.00    -0.550 OA
ATOM      9  O   UNL     1      72.976 -72.833  -0.357  1.00  0.00    -0.550 OA
ENDBRANCH   6   7
ENDBRANCH   5   6
ENDBRANCH   4   5
ENDBRANCH   3   4
ENDBRANCH   2   3
ENDBRANCH   1   2
BRANCH   1  10
ATOM     10  C   UNL     1      77.766 -75.834  -3.170  1.00  0.00     0.000 C 
BRANCH  10  11
ATOM     11  C   UNL     1      78.433 -75.648  -1.799  1.00  0.00    -0.000 C 
BRANCH  11  12
ATOM     12  C   UNL     1      77.458 -75.992  -0.664  1.00  0.00    -0.000 C 
BRANCH  12  13
ATOM     13  C   UNL     1      76.215 -75.085  -0.646  1.00  0.00    -0.000 C 
BRANCH  13  14
ATOM     14  C   UNL     1      74.865 -75.827  -0.558  1.00  0.00    -0.000 C 
BRANCH  14  15
ATOM     15  C   UNL     1      74.774 -77.110  -1.402  1.00  0.00    -0.003 C 
ATOM     16  C   UNL     1      74.205 -76.865  -2.799  1.00  0.00     0.004 C 
ENDBRANCH  14  15
ENDBRANCH  13  14
ENDBRANCH  12  13
ENDBRANCH  11  12
ENDBRANCH  10  11
ENDBRANCH   1  10
TORSDOF 12
ENDMDL
MODEL 4
REMARK VINA RESULT:    -3.545      1.531      2.893
REMARK INTER + INTRA:          -7.829
REMARK INTER:                  -6.898
REMARK INTRA:                  -0.930
REMARK UNBOUND:                -1.797
REMARK SMILES CCCCCCCCCCCCCC(=O)[O-]
REMARK SMILES IDX 8 1 9 2 10 3 11 4 12 5 13 6 14 7 15 8 16 9 7 10 6 11 5 12
REMARK SMILES IDX 4 13 3 14 2 15 1 16
REMARK H PARENT
REMARK Flexibility Score: inf
ROOT
ATOM      1  C   UNL     1      75.010 -71.220  -2.979  1.00  0.00     0.000 C 
ENDROOT
BRANCH   1   2
ATOM      2  C   UNL     1      74.143 -72.296  -2.302  1.00  0.00     0.000 C 
BRANCH   2   3
ATOM      3  C   UNL     1      74.146 -72.192  -0.770  1.00  0.00     0.000 C 
BRANCH   3   4
ATOM      4  C   UNL     1      73.191 -71.086  -0.293  1.00  0.00     0.000 C 
BRANCH   4   5
ATOM      5  C   UNL     1      73.829 -70.164   0.756  1.00  0.00     0.006 C 
BRANCH   5   6
ATOM      6  C   UNL     1      72.975 -68.923   1.050  1.00  0.00     0.053 C 
BRANCH   6   7
ATOM      7  C   UNL     1      72.067 -69.179   2.213  1.00  0.00     0.041 C 
ATOM      8  O   UNL     1      71.103 -68.403   2.446  1.00  0.00    -0.550 OA
ATOM      9  O   UNL     1      72.316 -70.245   3.068  1.00  0.00    -0.550 OA
ENDBRANCH   6   7
ENDBRANCH   5   6
ENDBRANCH   4   5
ENDBRANCH   3   4
ENDBRANCH   2   3
ENDBRANCH   1   2
BRANCH   1  10
ATOM     10  C   UNL     1      75.904 -71.731  -4.125  1.00  0.00     0.000 C 
BRANCH  10  11
ATOM     11  C   UNL     1      76.156 -73.244  -4.059  1.00  0.00    -0.000 C 
BRANCH  11  12
ATOM     12  C   UNL     1      77.570 -73.542  -3.539  1.00  0.00    -0.000 C 
BRANCH  12  13
ATOM     13  C   UNL     1      77.638 -74.824  -2.691  1.00  0.00    -0.000 C 
BRANCH  13  14
ATOM     14  C   UNL     1      76.746 -74.823  -1.432  1.00  0.00    -0.000 C 
BRANCH  14  15
ATOM     15  C   UNL     1      76.790 -76.118  -0.603  1.00  0.00    -0.003 C 
ATOM     16  C   UNL     1      77.970 -77.019  -0.968  1.00  0.00     0.004 C 
ENDBRANCH  14  15
ENDBRANCH  13  14
ENDBRANCH  12  13
ENDBRANCH  11  12
ENDBRANCH  10  11
ENDBRANCH   1  10
TORSDOF 12
ENDMDL
MODEL 5
REMARK VINA RESULT:    -3.509      4.141      5.939
REMARK INTER + INTRA:          -7.769
REMARK INTER:                  -5.922
REMARK INTRA:                  -1.847
REMARK UNBOUND:                -1.797
REMARK SMILES CCCCCCCCCCCCCC(=O)[O-]
REMARK SMILES IDX 8 1 9 2 10 3 11 4 12 5 13 6 14 7 15 8 16 9 7 10 6 11 5 12
REMARK SMILES IDX 4 13 3 14 2 15 1 16
REMARK H PARENT
REMARK Flexibility Score: inf
ROOT
ATOM      1  C   UNL     1      77.224 -73.148  -3.323  1.00  0.00     0.000 C 
ENDROOT
BRANCH   1   2
ATOM      2  C   UNL     1      77.165 -74.499  -4.058  1.00  0.00     0.000 C 
BRANCH   2   3
ATOM      3  C   UNL     1      77.230 -75.703  -3.106  1.00  0.00     0.000 C 
BRANCH   3   4
ATOM      4  C   UNL     1      78.086 -75.379  -1.871  1.00  0.00     0.000 C 
BRANCH   4   5
ATOM      5  C   UNL     1      77.866 -76.374  -0.721  1.00  0.00     0.006 C 
BRANCH   5   6
ATOM      6  C   UNL     1      77.487 -77.775  -1.217  1.00  0.00     0.053 C 
BRANCH   6   7
ATOM      7  C   UNL     1      78.653 -78.706  -1.093  1.00  0.00     0.041 C 
ATOM      8  O   UNL     1      79.514 -78.767  -2.009  1.00  0.00    -0.550 OA
ATOM      9  O   UNL     1      78.761 -79.541   0.012  1.00  0.00    -0.550 OA
ENDBRANCH   6   7
ENDBRANCH   5   6
ENDBRANCH   4   5
ENDBRANCH   3   4
ENDBRANCH   2   3
ENDBRANCH   1   2
BRANCH   1  10
ATOM     10  C   UNL     1      76.360 -72.033  -3.940  1.00  0.00     0.000 C 
BRANCH  10  11
ATOM     11  C   UNL     1      74.859 -72.227  -3.685  1.00  0.00    -0.000 C 
BRANCH  11  12
ATOM     12  C   UNL     1      74.557 -72.254  -2.179  1.00  0.00    -0.000 C 
BRANCH  12  13
ATOM     13  C   UNL     1      74.010 -73.611  -1.702  1.00  0.00    -0.000 C 
BRANCH  13  14
ATOM     14  C   UNL     1      74.766 -74.239  -0.513  1.00  0.00    -0.000 C 
BRANCH  14  15
ATOM     15  C   UNL     1      74.378 -75.693  -0.192  1.00  0.00    -0.003 C 
ATOM     16  C   UNL     1      73.945 -76.481  -1.428  1.00  0.00     0.004 C 
ENDBRANCH  14  15
ENDBRANCH  13  14
ENDBRANCH  12  13
ENDBRANCH  11  12
ENDBRANCH  10  11
ENDBRANCH   1  10
TORSDOF 12
ENDMDL
MODEL 6
REMARK VINA RESULT:    -3.440      3.207      5.054
REMARK INTER + INTRA:          -7.651
REMARK INTER:                  -5.798
REMARK INTRA:                  -1.853
REMARK UNBOUND:                -1.797
REMARK SMILES CCCCCCCCCCCCCC(=O)[O-]
REMARK SMILES IDX 8 1 9 2 10 3 11 4 12 5 13 6 14 7 15 8 16 9 7 10 6 11 5 12
REMARK SMILES IDX 4 13 3 14 2 15 1 16
REMARK H PARENT
REMARK Flexibility Score: inf
ROOT
ATOM      1  C   UNL     1      74.991 -71.877  -3.010  1.00  0.00     0.000 C 
ENDROOT
BRANCH   1   2
ATOM      2  C   UNL     1      75.739 -72.908  -3.875  1.00  0.00     0.000 C 
BRANCH   2   3
ATOM      3  C   UNL     1      77.260 -72.877  -3.663  1.00  0.00     0.000 C 
BRANCH   3   4
ATOM      4  C   UNL     1      77.665 -73.746  -2.462  1.00  0.00     0.000 C 
BRANCH   4   5
ATOM      5  C   UNL     1      77.413 -75.242  -2.702  1.00  0.00     0.006 C 
BRANCH   5   6
ATOM      6  C   UNL     1      78.501 -76.131  -2.086  1.00  0.00     0.053 C 
BRANCH   6   7
ATOM      7  C   UNL     1      77.947 -76.912  -0.935  1.00  0.00     0.041 C 
ATOM      8  O   UNL     1      78.228 -78.132  -0.803  1.00  0.00    -0.550 OA
ATOM      9  O   UNL     1      77.081 -76.303  -0.036  1.00  0.00    -0.550 OA
ENDBRANCH   6   7
ENDBRANCH   5   6
ENDBRANCH   4   5
ENDBRANCH   3   4
ENDBRANCH   2   3
ENDBRANCH   1   2
BRANCH   1  10
ATOM     10  C   UNL     1      73.867 -72.458  -2.132  1.00  0.00     0.000 C 
BRANCH  10  11
ATOM     11  C   UNL     1      74.394 -73.200  -0.896  1.00  0.00    -0.000 C 
BRANCH  11  12
ATOM     12  C   UNL     1      74.078 -74.700  -0.981  1.00  0.00    -0.000 C 
BRANCH  12  13
ATOM     13  C   UNL     1      73.204 -75.060  -2.195  1.00  0.00    -0.000 C 
BRANCH  13  14
ATOM     14  C   UNL     1      73.544 -76.407  -2.869  1.00  0.00    -0.000 C 
BRANCH  14  15
ATOM     15  C   UNL     1      74.395 -77.363  -2.016  1.00  0.00    -0.003 C 
ATOM     16  C   UNL     1      75.121 -78.419  -2.849  1.00  0.00     0.004 C 
ENDBRANCH  14  15
ENDBRANCH  13  14
ENDBRANCH  12  13
ENDBRANCH  11  12
ENDBRANCH  10  11
ENDBRANCH   1  10
TORSDOF 12
ENDMDL
MODEL 7
REMARK VINA RESULT:    -3.420      2.133      3.751
REMARK INTER + INTRA:          -7.617
REMARK INTER:                  -5.513
REMARK INTRA:                  -2.104
REMARK UNBOUND:                -1.797
REMARK SMILES CCCCCCCCCCCCCC(=O)[O-]
REMARK SMILES IDX 8 1 9 2 10 3 11 4 12 5 13 6 14 7 15 8 16 9 7 10 6 11 5 12
REMARK SMILES IDX 4 13 3 14 2 15 1 16
REMARK H PARENT
REMARK Flexibility Score: inf
ROOT
ATOM      1  C   UNL     1      78.624 -76.488  -2.479  1.00  0.00     0.000 C 
ENDROOT
BRANCH   1   2
ATOM      2  C   UNL     1      78.503 -75.260  -1.559  1.00  0.00     0.000 C 
BRANCH   2   3
ATOM      3  C   UNL     1      77.922 -74.031  -2.274  1.00  0.00     0.000 C 
BRANCH   3   4
ATOM      4  C   UNL     1      77.421 -74.400  -3.680  1.00  0.00     0.000 C 
BRANCH   4   5
ATOM      5  C   UNL     1      75.974 -73.949  -3.930  1.00  0.00     0.006 C 
BRANCH   5   6
ATOM      6  C   UNL     1      75.270 -73.484  -2.649  1.00  0.00     0.053 C 
BRANCH   6   7
ATOM      7  C   UNL     1      74.898 -72.037  -2.753  1.00  0.00     0.041 C 
ATOM      8  O   UNL     1      75.182 -71.384  -3.792  1.00  0.00    -0.550 OA
ATOM      9  O   UNL     1      74.284 -71.399  -1.684  1.00  0.00    -0.550 OA
ENDBRANCH   6   7
ENDBRANCH   5   6
ENDBRANCH   4   5
ENDBRANCH   3   4
ENDBRANCH   2   3
ENDBRANCH   1   2
BRANCH   1  10
ATOM     10  C   UNL     1      78.442 -77.847  -1.778  1.00  0.00     0.000 C 
BRANCH  10  11
ATOM     11  C   UNL     1      77.376 -78.728  -2.445  1.00  0.00    -0.000 C 
BRANCH  11  12
ATOM     12  C   UNL     1      76.723 -77.998  -3.628  1.00  0.00    -0.000 C 
BRANCH  12  13
ATOM     13  C   UNL     1      75.195 -77.882  -3.491  1.00  0.00    -0.000 C 
BRANCH  13  14
ATOM     14  C   UNL     1      74.654 -78.034  -2.054  1.00  0.00    -0.000 C 
BRANCH  14  15
ATOM     15  C   UNL     1      74.292 -76.712  -1.354  1.00  0.00    -0.003 C 
ATOM     16  C   UNL     1      75.287 -76.326  -0.259  1.00  0.00     0.004 C 
ENDBRANCH  14  15
ENDBRANCH  13  14
ENDBRANCH  12  13
ENDBRANCH  11  12
ENDBRANCH  10  11
ENDBRANCH   1  10
TORSDOF 12
ENDMDL
MODEL 8
REMARK VINA RESULT:    -3.415      4.211      6.461
REMARK INTER + INTRA:          -7.608
REMARK INTER:                  -6.091
REMARK INTRA:                  -1.518
REMARK UNBOUND:                -1.797
REMARK SMILES CCCCCCCCCCCCCC(=O)[O-]
REMARK SMILES IDX 8 1 9 2 10 3 11 4 12 5 13 6 14 7 15 8 16 9 7 10 6 11 5 12
REMARK SMILES IDX 4 13 3 14 2 15 1 16
REMARK H PARENT
REMARK Flexibility Score: inf
ROOT
ATOM      1  C   UNL     1      77.529 -73.624  -2.473  1.00  0.00     0.000 C 
ENDROOT
BRANCH   1   2
ATOM      2  C   UNL     1      77.664 -75.150  -2.622  1.00  0.00     0.000 C 
BRANCH   2   3
ATOM      3  C   UNL     1      78.441 -75.798  -1.467  1.00  0.00     0.000 C 
BRANCH   3   4
ATOM      4  C   UNL     1      77.591 -76.872  -0.768  1.00  0.00     0.000 C 
BRANCH   4   5
ATOM      5  C   UNL     1      78.267 -78.251  -0.763  1.00  0.00     0.006 C 
BRANCH   5   6
ATOM      6  C   UNL     1      79.089 -78.512  -2.033  1.00  0.00     0.053 C 
BRANCH   6   7
ATOM      7  C   UNL     1      78.245 -79.186  -3.070  1.00  0.00     0.041 C 
ATOM      8  O   UNL     1      78.200 -80.443  -3.131  1.00  0.00    -0.550 OA
ATOM      9  O   UNL     1      77.548 -78.425  -4.000  1.00  0.00    -0.550 OA
ENDBRANCH   6   7
ENDBRANCH   5   6
ENDBRANCH   4   5
ENDBRANCH   3   4
ENDBRANCH   2   3
ENDBRANCH   1   2
BRANCH   1  10
ATOM     10  C   UNL     1      77.204 -72.869  -3.775  1.00  0.00     0.000 C 
BRANCH  10  11
ATOM     11  C   UNL     1      75.697 -72.773  -4.053  1.00  0.00    -0.000 C 
BRANCH  11  12
ATOM     12  C   UNL     1      75.024 -71.783  -3.091  1.00  0.00    -0.000 C 
BRANCH  12  13
ATOM     13  C   UNL     1      73.941 -72.439  -2.217  1.00  0.00    -0.000 C 
BRANCH  13  14
ATOM     14  C   UNL     1      74.396 -72.829  -0.795  1.00  0.00    -0.000 C 
BRANCH  14  15
ATOM     15  C   UNL     1      74.463 -74.342  -0.527  1.00  0.00    -0.003 C 
ATOM     16  C   UNL     1      74.010 -75.180  -1.723  1.00  0.00     0.004 C 
ENDBRANCH  14  15
ENDBRANCH  13  14
ENDBRANCH  12  13
ENDBRANCH  11  12
ENDBRANCH  10  11
ENDBRANCH   1  10
TORSDOF 12
ENDMDL
MODEL 9
REMARK VINA RESULT:    -3.407      1.889      3.440
REMARK INTER + INTRA:          -7.594
REMARK INTER:                  -5.742
REMARK INTRA:                  -1.853
REMARK UNBOUND:                -1.797
REMARK SMILES CCCCCCCCCCCCCC(=O)[O-]
REMARK SMILES IDX 8 1 9 2 10 3 11 4 12 5 13 6 14 7 15 8 16 9 7 10 6 11 5 12
REMARK SMILES IDX 4 13 3 14 2 15 1 16
REMARK H PARENT
REMARK Flexibility Score: inf
ROOT
ATOM      1  C   UNL     1      76.739 -75.012  -1.281  1.00  0.00     0.000 C 
ENDROOT
BRANCH   1   2
ATOM      2  C   UNL     1      77.857 -74.483  -2.198  1.00  0.00     0.000 C 
BRANCH   2   3
ATOM      3  C   UNL     1      77.505 -74.582  -3.689  1.00  0.00     0.000 C 
BRANCH   3   4
ATOM      4  C   UNL     1      76.207 -73.818  -3.998  1.00  0.00     0.000 C 
BRANCH   4   5
ATOM      5  C   UNL     1      76.315 -72.317  -3.688  1.00  0.00     0.006 C 
BRANCH   5   6
ATOM      6  C   UNL     1      74.944 -71.649  -3.518  1.00  0.00     0.053 C 
BRANCH   6   7
ATOM      7  C   UNL     1      74.161 -72.331  -2.439  1.00  0.00     0.041 C 
ATOM      8  O   UNL     1      74.538 -72.255  -1.240  1.00  0.00    -0.550 OA
ATOM      9  O   UNL     1      73.045 -73.091  -2.765  1.00  0.00    -0.550 OA
ENDBRANCH   6   7
ENDBRANCH   5   6
ENDBRANCH   4   5
ENDBRANCH   3   4
ENDBRANCH   2   3
ENDBRANCH   1   2
BRANCH   1  10
ATOM     10  C   UNL     1      77.126 -76.229  -0.420  1.00  0.00     0.000 C 
BRANCH  10  11
ATOM     11  C   UNL     1      78.128 -77.162  -1.116  1.00  0.00    -0.000 C 
BRANCH  11  12
ATOM     12  C   UNL     1      77.415 -78.385  -1.712  1.00  0.00    -0.000 C 
BRANCH  12  13
ATOM     13  C   UNL     1      77.099 -78.223  -3.210  1.00  0.00    -0.000 C 
BRANCH  13  14
ATOM     14  C   UNL     1      75.634 -78.508  -3.603  1.00  0.00    -0.000 C 
BRANCH  14  15
ATOM     15  C   UNL     1      74.785 -77.258  -3.895  1.00  0.00    -0.003 C 
ATOM     16  C   UNL     1      73.963 -76.802  -2.689  1.00  0.00     0.004 C 
ENDBRANCH  14  15
ENDBRANCH  13  14
ENDBRANCH  12  13
ENDBRANCH  11  12
ENDBRANCH  10  11
ENDBRANCH   1  10
TORSDOF 12
ENDMDL
