MODEL 1
REMARK VINA RESULT:    -6.100      0.000      0.000
REMARK INTER + INTRA:         -10.861
REMARK INTER:                 -10.380
REMARK INTRA:                  -0.481
REMARK UNBOUND:                -0.481
REMARK SMILES CCCCCCCCCCCCCC(=O)[O-]
REMARK SMILES IDX 8 1 9 2 10 3 11 4 12 5 13 6 14 7 15 8 16 9 7 10 6 11 5 12
REMARK SMILES IDX 4 13 3 14 2 15 1 16
REMARK H PARENT
REMARK Flexibility Score: inf
ROOT
ATOM      1  C   UNL     1      95.746 122.354 122.187  1.00  0.00     0.000 C 
ENDROOT
BRANCH   1   2
ATOM      2  C   UNL     1      96.430 122.644 123.536  1.00  0.00     0.000 C 
BRANCH   2   3
ATOM      3  C   UNL     1      95.914 123.930 124.203  1.00  0.00     0.000 C 
BRANCH   3   4
ATOM      4  C   UNL     1      96.756 124.341 125.423  1.00  0.00     0.000 C 
BRANCH   4   5
ATOM      5  C   UNL     1      97.523 125.656 125.198  1.00  0.00     0.006 C 
BRANCH   5   6
ATOM      6  C   UNL     1      98.362 126.053 126.420  1.00  0.00     0.053 C 
BRANCH   6   7
ATOM      7  C   UNL     1      98.357 127.534 126.644  1.00  0.00     0.041 C 
ATOM      8  O   UNL     1      97.510 128.055 127.416  1.00  0.00    -0.550 OA
ATOM      9  O   UNL     1      99.268 128.342 125.976  1.00  0.00    -0.550 OA
ENDBRANCH   6   7
ENDBRANCH   5   6
ENDBRANCH   4   5
ENDBRANCH   3   4
ENDBRANCH   2   3
ENDBRANCH   1   2
BRANCH   1  10
ATOM     10  C   UNL     1      94.379 121.647 122.282  1.00  0.00     0.000 C 
BRANCH  10  11
ATOM     11  C   UNL     1      93.863 121.044 120.964  1.00  0.00    -0.000 C 
BRANCH  11  12
ATOM     12  C   UNL     1      94.823 121.274 119.787  1.00  0.00    -0.000 C 
BRANCH  12  13
ATOM     13  C   UNL     1      94.122 121.000 118.448  1.00  0.00    -0.000 C 
BRANCH  13  14
ATOM     14  C   UNL     1      92.724 121.636 118.369  1.00  0.00    -0.000 C 
BRANCH  14  15
ATOM     15  C   UNL     1      92.427 122.240 116.989  1.00  0.00    -0.003 C 
ATOM     16  C   UNL     1      92.664 123.747 116.987  1.00  0.00     0.004 C 
ENDBRANCH  14  15
ENDBRANCH  13  14
ENDBRANCH  12  13
ENDBRANCH  11  12
ENDBRANCH  10  11
ENDBRANCH   1  10
TORSDOF 12
ENDMDL
MODEL 2
REMARK VINA RESULT:    -5.913      1.250      1.792
REMARK INTER + INTRA:         -10.542
REMARK INTER:                  -9.965
REMARK INTRA:                  -0.578
REMARK UNBOUND:                -0.481
REMARK SMILES CCCCCCCCCCCCCC(=O)[O-]
REMARK SMILES IDX 8 1 9 2 10 3 11 4 12 5 13 6 14 7 15 8 16 9 7 10 6 11 5 12
REMARK SMILES IDX 4 13 3 14 2 15 1 16
REMARK H PARENT
REMARK Flexibility Score: inf
ROOT
ATOM      1  C   UNL     1      96.080 122.965 122.825  1.00  0.00     0.000 C 
ENDROOT
BRANCH   1   2
ATOM      2  C   UNL     1      95.485 123.839 123.944  1.00  0.00     0.000 C 
BRANCH   2   3
ATOM      3  C   UNL     1      96.443 124.021 125.134  1.00  0.00     0.000 C 
BRANCH   3   4
ATOM      4  C   UNL     1      97.239 125.335 125.054  1.00  0.00     0.000 C 
BRANCH   4   5
ATOM      5  C   UNL     1      98.035 125.624 126.339  1.00  0.00     0.006 C 
BRANCH   5   6
ATOM      6  C   UNL     1      98.717 126.999 126.300  1.00  0.00     0.053 C 
BRANCH   6   7
ATOM      7  C   UNL     1     100.048 126.943 125.616  1.00  0.00     0.041 C 
ATOM      8  O   UNL     1     100.290 127.701 124.640  1.00  0.00    -0.550 OA
ATOM      9  O   UNL     1     101.009 126.033 126.035  1.00  0.00    -0.550 OA
ENDBRANCH   6   7
ENDBRANCH   5   6
ENDBRANCH   4   5
ENDBRANCH   3   4
ENDBRANCH   2   3
ENDBRANCH   1   2
BRANCH   1  10
ATOM     10  C   UNL     1      95.241 121.730 122.438  1.00  0.00     0.000 C 
BRANCH  10  11
ATOM     11  C   UNL     1      93.728 121.980 122.316  1.00  0.00    -0.000 C 
BRANCH  11  12
ATOM     12  C   UNL     1      93.173 121.617 120.930  1.00  0.00    -0.000 C 
BRANCH  12  13
ATOM     13  C   UNL     1      94.306 121.201 119.980  1.00  0.00    -0.000 C 
BRANCH  13  14
ATOM     14  C   UNL     1      93.850 121.118 118.514  1.00  0.00    -0.000 C 
BRANCH  14  15
ATOM     15  C   UNL     1      92.452 121.716 118.296  1.00  0.00    -0.003 C 
ATOM     16  C   UNL     1      92.469 122.756 117.180  1.00  0.00     0.004 C 
ENDBRANCH  14  15
ENDBRANCH  13  14
ENDBRANCH  12  13
ENDBRANCH  11  12
ENDBRANCH  10  11
ENDBRANCH   1  10
TORSDOF 12
ENDMDL
MODEL 3
REMARK VINA RESULT:    -5.859      4.476      8.852
REMARK INTER + INTRA:         -10.451
REMARK INTER:                  -9.825
REMARK INTRA:                  -0.626
REMARK UNBOUND:                -0.481
REMARK SMILES CCCCCCCCCCCCCC(=O)[O-]
REMARK SMILES IDX 8 1 9 2 10 3 11 4 12 5 13 6 14 7 15 8 16 9 7 10 6 11 5 12
REMARK SMILES IDX 4 13 3 14 2 15 1 16
REMARK H PARENT
REMARK Flexibility Score: inf
ROOT
ATOM      1  C   UNL     1      94.893 123.887 124.275  1.00  0.00     0.000 C 
ENDROOT
BRANCH   1   2
ATOM      2  C   UNL     1      94.562 122.778 123.260  1.00  0.00     0.000 C 
BRANCH   2   3
ATOM      3  C   UNL     1      95.818 122.097 122.688  1.00  0.00     0.000 C 
BRANCH   3   4
ATOM      4  C   UNL     1      95.795 122.009 121.153  1.00  0.00     0.000 C 
BRANCH   4   5
ATOM      5  C   UNL     1      94.597 121.203 120.623  1.00  0.00     0.006 C 
BRANCH   5   6
ATOM      6  C   UNL     1      94.710 120.919 119.119  1.00  0.00     0.053 C 
BRANCH   6   7
ATOM      7  C   UNL     1      93.473 121.330 118.379  1.00  0.00     0.041 C 
ATOM      8  O   UNL     1      92.589 122.016 118.957  1.00  0.00    -0.550 OA
ATOM      9  O   UNL     1      93.284 120.930 117.064  1.00  0.00    -0.550 OA
ENDBRANCH   6   7
ENDBRANCH   5   6
ENDBRANCH   4   5
ENDBRANCH   3   4
ENDBRANCH   2   3
ENDBRANCH   1   2
BRANCH   1  10
ATOM     10  C   UNL     1      96.390 124.235 124.404  1.00  0.00     0.000 C 
BRANCH  10  11
ATOM     11  C   UNL     1      97.027 123.893 125.762  1.00  0.00    -0.000 C 
BRANCH  11  12
ATOM     12  C   UNL     1      97.826 125.062 126.358  1.00  0.00    -0.000 C 
BRANCH  12  13
ATOM     13  C   UNL     1      97.855 126.253 125.390  1.00  0.00    -0.000 C 
BRANCH  13  14
ATOM     14  C   UNL     1      98.048 127.598 126.110  1.00  0.00    -0.000 C 
BRANCH  14  15
ATOM     15  C   UNL     1      99.485 128.129 125.997  1.00  0.00    -0.003 C 
ATOM     16  C   UNL     1     100.289 127.322 124.982  1.00  0.00     0.004 C 
ENDBRANCH  14  15
ENDBRANCH  13  14
ENDBRANCH  12  13
ENDBRANCH  11  12
ENDBRANCH  10  11
ENDBRANCH   1  10
TORSDOF 12
ENDMDL
MODEL 4
REMARK VINA RESULT:    -5.829      0.996      1.533
REMARK INTER + INTRA:         -10.400
REMARK INTER:                  -9.986
REMARK INTRA:                  -0.414
REMARK UNBOUND:                -0.481
REMARK SMILES CCCCCCCCCCCCCC(=O)[O-]
REMARK SMILES IDX 8 1 9 2 10 3 11 4 12 5 13 6 14 7 15 8 16 9 7 10 6 11 5 12
REMARK SMILES IDX 4 13 3 14 2 15 1 16
REMARK H PARENT
REMARK Flexibility Score: inf
ROOT
ATOM      1  C   UNL     1      94.326 123.765 123.786  1.00  0.00     0.000 C 
ENDROOT
BRANCH   1   2
ATOM      2  C   UNL     1      95.769 123.507 124.253  1.00  0.00     0.000 C 
BRANCH   2   3
ATOM      3  C   UNL     1      96.554 124.805 124.513  1.00  0.00     0.000 C 
BRANCH   3   4
ATOM      4  C   UNL     1      97.246 124.811 125.886  1.00  0.00     0.000 C 
BRANCH   4   5
ATOM      5  C   UNL     1      98.440 125.780 125.944  1.00  0.00     0.006 C 
BRANCH   5   6
ATOM      6  C   UNL     1      98.005 127.244 125.790  1.00  0.00     0.053 C 
BRANCH   6   7
ATOM      7  C   UNL     1      98.796 128.158 126.676  1.00  0.00     0.041 C 
ATOM      8  O   UNL     1      98.457 128.324 127.877  1.00  0.00    -0.550 OA
ATOM      9  O   UNL     1      99.886 128.849 126.166  1.00  0.00    -0.550 OA
ENDBRANCH   6   7
ENDBRANCH   5   6
ENDBRANCH   4   5
ENDBRANCH   3   4
ENDBRANCH   2   3
ENDBRANCH   1   2
BRANCH   1  10
ATOM     10  C   UNL     1      93.591 122.537 123.209  1.00  0.00     0.000 C 
BRANCH  10  11
ATOM     11  C   UNL     1      94.467 121.584 122.377  1.00  0.00    -0.000 C 
BRANCH  11  12
ATOM     12  C   UNL     1      93.854 121.252 121.009  1.00  0.00    -0.000 C 
BRANCH  12  13
ATOM     13  C   UNL     1      94.937 121.201 119.922  1.00  0.00    -0.000 C 
BRANCH  13  14
ATOM     14  C   UNL     1      94.367 120.875 118.531  1.00  0.00    -0.000 C 
BRANCH  14  15
ATOM     15  C   UNL     1      93.134 121.722 118.185  1.00  0.00    -0.003 C 
ATOM     16  C   UNL     1      92.569 121.337 116.822  1.00  0.00     0.004 C 
ENDBRANCH  14  15
ENDBRANCH  13  14
ENDBRANCH  12  13
ENDBRANCH  11  12
ENDBRANCH  10  11
ENDBRANCH   1  10
TORSDOF 12
ENDMDL
MODEL 5
REMARK VINA RESULT:    -5.790      1.797      2.973
REMARK INTER + INTRA:         -10.333
REMARK INTER:                  -9.780
REMARK INTRA:                  -0.554
REMARK UNBOUND:                -0.481
REMARK SMILES CCCCCCCCCCCCCC(=O)[O-]
REMARK SMILES IDX 8 1 9 2 10 3 11 4 12 5 13 6 14 7 15 8 16 9 7 10 6 11 5 12
REMARK SMILES IDX 4 13 3 14 2 15 1 16
REMARK H PARENT
REMARK Flexibility Score: inf
ROOT
ATOM      1  C   UNL     1      96.266 124.121 124.224  1.00  0.00     0.000 C 
ENDROOT
BRANCH   1   2
ATOM      2  C   UNL     1      96.908 123.865 125.599  1.00  0.00     0.000 C 
BRANCH   2   3
ATOM      3  C   UNL     1      97.756 125.050 126.093  1.00  0.00     0.000 C 
BRANCH   3   4
ATOM      4  C   UNL     1      97.720 126.245 125.126  1.00  0.00     0.000 C 
BRANCH   4   5
ATOM      5  C   UNL     1      98.642 127.394 125.570  1.00  0.00     0.006 C 
BRANCH   5   6
ATOM      6  C   UNL     1     100.083 126.923 125.803  1.00  0.00     0.053 C 
BRANCH   6   7
ATOM      7  C   UNL     1     101.010 127.405 124.729  1.00  0.00     0.041 C 
ATOM      8  O   UNL     1     101.822 126.609 124.189  1.00  0.00    -0.550 OA
ATOM      9  O   UNL     1     100.998 128.740 124.347  1.00  0.00    -0.550 OA
ENDBRANCH   6   7
ENDBRANCH   5   6
ENDBRANCH   4   5
ENDBRANCH   3   4
ENDBRANCH   2   3
ENDBRANCH   1   2
BRANCH   1  10
ATOM     10  C   UNL     1      94.876 123.485 124.018  1.00  0.00     0.000 C 
BRANCH  10  11
ATOM     11  C   UNL     1      94.778 122.495 122.844  1.00  0.00    -0.000 C 
BRANCH  11  12
ATOM     12  C   UNL     1      93.328 122.216 122.419  1.00  0.00    -0.000 C 
BRANCH  12  13
ATOM     13  C   UNL     1      93.279 121.608 121.010  1.00  0.00    -0.000 C 
BRANCH  13  14
ATOM     14  C   UNL     1      94.654 121.118 120.527  1.00  0.00    -0.000 C 
BRANCH  14  15
ATOM     15  C   UNL     1      94.785 121.141 118.996  1.00  0.00    -0.003 C 
ATOM     16  C   UNL     1      93.416 121.231 118.330  1.00  0.00     0.004 C 
ENDBRANCH  14  15
ENDBRANCH  13  14
ENDBRANCH  12  13
ENDBRANCH  11  12
ENDBRANCH  10  11
ENDBRANCH   1  10
TORSDOF 12
ENDMDL
MODEL 6
REMARK VINA RESULT:    -5.544      1.117      2.156
REMARK INTER + INTRA:          -9.914
REMARK INTER:                  -9.308
REMARK INTRA:                  -0.605
REMARK UNBOUND:                -0.481
REMARK SMILES CCCCCCCCCCCCCC(=O)[O-]
REMARK SMILES IDX 8 1 9 2 10 3 11 4 12 5 13 6 14 7 15 8 16 9 7 10 6 11 5 12
REMARK SMILES IDX 4 13 3 14 2 15 1 16
REMARK H PARENT
REMARK Flexibility Score: inf
ROOT
ATOM      1  C   UNL     1      95.756 123.378 123.847  1.00  0.00     0.000 C 
ENDROOT
BRANCH   1   2
ATOM      2  C   UNL     1      96.452 124.587 124.497  1.00  0.00     0.000 C 
BRANCH   2   3
ATOM      3  C   UNL     1      97.031 124.267 125.886  1.00  0.00     0.000 C 
BRANCH   3   4
ATOM      4  C   UNL     1      98.124 125.260 126.313  1.00  0.00     0.000 C 
BRANCH   4   5
ATOM      5  C   UNL     1      98.146 126.528 125.441  1.00  0.00     0.006 C 
BRANCH   5   6
ATOM      6  C   UNL     1      97.985 127.807 126.274  1.00  0.00     0.053 C 
BRANCH   6   7
ATOM      7  C   UNL     1      99.162 128.041 127.171  1.00  0.00     0.041 C 
ATOM      8  O   UNL     1     100.284 128.331 126.680  1.00  0.00    -0.550 OA
ATOM      9  O   UNL     1      99.026 127.909 128.546  1.00  0.00    -0.550 OA
ENDBRANCH   6   7
ENDBRANCH   5   6
ENDBRANCH   4   5
ENDBRANCH   3   4
ENDBRANCH   2   3
ENDBRANCH   1   2
BRANCH   1  10
ATOM     10  C   UNL     1      94.220 123.480 123.743  1.00  0.00     0.000 C 
BRANCH  10  11
ATOM     11  C   UNL     1      93.534 122.302 123.028  1.00  0.00    -0.000 C 
BRANCH  11  12
ATOM     12  C   UNL     1      94.534 121.278 122.472  1.00  0.00    -0.000 C 
BRANCH  12  13
ATOM     13  C   UNL     1      94.661 121.408 120.948  1.00  0.00    -0.000 C 
BRANCH  13  14
ATOM     14  C   UNL     1      93.299 121.554 120.249  1.00  0.00    -0.000 C 
BRANCH  14  15
ATOM     15  C   UNL     1      93.391 121.357 118.729  1.00  0.00    -0.003 C 
ATOM     16  C   UNL     1      92.413 122.270 117.997  1.00  0.00     0.004 C 
ENDBRANCH  14  15
ENDBRANCH  13  14
ENDBRANCH  12  13
ENDBRANCH  11  12
ENDBRANCH  10  11
ENDBRANCH   1  10
TORSDOF 12
ENDMDL
MODEL 7
REMARK VINA RESULT:    -5.445      4.690      9.157
REMARK INTER + INTRA:          -9.745
REMARK INTER:                  -9.338
REMARK INTRA:                  -0.407
REMARK UNBOUND:                -0.481
REMARK SMILES CCCCCCCCCCCCCC(=O)[O-]
REMARK SMILES IDX 8 1 9 2 10 3 11 4 12 5 13 6 14 7 15 8 16 9 7 10 6 11 5 12
REMARK SMILES IDX 4 13 3 14 2 15 1 16
REMARK H PARENT
REMARK Flexibility Score: inf
ROOT
ATOM      1  C   UNL     1      96.079 123.089 122.913  1.00  0.00     0.000 C 
ENDROOT
BRANCH   1   2
ATOM      2  C   UNL     1      95.311 121.798 122.575  1.00  0.00     0.000 C 
BRANCH   2   3
ATOM      3  C   UNL     1      95.272 121.504 121.066  1.00  0.00     0.000 C 
BRANCH   3   4
ATOM      4  C   UNL     1      93.853 121.189 120.563  1.00  0.00     0.000 C 
BRANCH   4   5
ATOM      5  C   UNL     1      93.735 121.274 119.031  1.00  0.00     0.006 C 
BRANCH   5   6
ATOM      6  C   UNL     1      92.411 121.911 118.588  1.00  0.00     0.053 C 
BRANCH   6   7
ATOM      7  C   UNL     1      92.480 122.421 117.180  1.00  0.00     0.041 C 
ATOM      8  O   UNL     1      92.380 121.622 116.212  1.00  0.00    -0.550 OA
ATOM      9  O   UNL     1      92.685 123.773 116.939  1.00  0.00    -0.550 OA
ENDBRANCH   6   7
ENDBRANCH   5   6
ENDBRANCH   4   5
ENDBRANCH   3   4
ENDBRANCH   2   3
ENDBRANCH   1   2
BRANCH   1  10
ATOM     10  C   UNL     1      95.533 123.884 124.117  1.00  0.00     0.000 C 
BRANCH  10  11
ATOM     11  C   UNL     1      96.572 124.744 124.857  1.00  0.00    -0.000 C 
BRANCH  11  12
ATOM     12  C   UNL     1      97.167 124.037 126.084  1.00  0.00    -0.000 C 
BRANCH  12  13
ATOM     13  C   UNL     1      98.547 124.613 126.431  1.00  0.00    -0.000 C 
BRANCH  13  14
ATOM     14  C   UNL     1      98.659 126.115 126.123  1.00  0.00    -0.000 C 
BRANCH  14  15
ATOM     15  C   UNL     1     100.115 126.583 125.982  1.00  0.00    -0.003 C 
ATOM     16  C   UNL     1     100.248 127.640 124.891  1.00  0.00     0.004 C 
ENDBRANCH  14  15
ENDBRANCH  13  14
ENDBRANCH  12  13
ENDBRANCH  11  12
ENDBRANCH  10  11
ENDBRANCH   1  10
TORSDOF 12
ENDMDL
MODEL 8
REMARK VINA RESULT:    -5.439      4.419      9.049
REMARK INTER + INTRA:          -9.737
REMARK INTER:                  -9.208
REMARK INTRA:                  -0.529
REMARK UNBOUND:                -0.481
REMARK SMILES CCCCCCCCCCCCCC(=O)[O-]
REMARK SMILES IDX 8 1 9 2 10 3 11 4 12 5 13 6 14 7 15 8 16 9 7 10 6 11 5 12
REMARK SMILES IDX 4 13 3 14 2 15 1 16
REMARK H PARENT
REMARK Flexibility Score: inf
ROOT
ATOM      1  C   UNL     1      96.873 123.803 125.410  1.00  0.00     0.000 C 
ENDROOT
BRANCH   1   2
ATOM      2  C   UNL     1      95.954 124.128 124.218  1.00  0.00     0.000 C 
BRANCH   2   3
ATOM      3  C   UNL     1      95.807 122.951 123.239  1.00  0.00     0.000 C 
BRANCH   3   4
ATOM      4  C   UNL     1      94.337 122.586 122.972  1.00  0.00     0.000 C 
BRANCH   4   5
ATOM      5  C   UNL     1      94.186 121.447 121.949  1.00  0.00     0.006 C 
BRANCH   5   6
ATOM      6  C   UNL     1      93.150 121.775 120.865  1.00  0.00     0.053 C 
BRANCH   6   7
ATOM      7  C   UNL     1      93.651 121.439 119.494  1.00  0.00     0.041 C 
ATOM      8  O   UNL     1      94.882 121.265 119.294  1.00  0.00    -0.550 OA
ATOM      9  O   UNL     1      92.762 121.348 118.431  1.00  0.00    -0.550 OA
ENDBRANCH   6   7
ENDBRANCH   5   6
ENDBRANCH   4   5
ENDBRANCH   3   4
ENDBRANCH   2   3
ENDBRANCH   1   2
BRANCH   1  10
ATOM     10  C   UNL     1      97.521 125.025 126.093  1.00  0.00     0.000 C 
BRANCH  10  11
ATOM     11  C   UNL     1      97.822 126.212 125.161  1.00  0.00    -0.000 C 
BRANCH  11  12
ATOM     12  C   UNL     1      98.186 127.493 125.926  1.00  0.00    -0.000 C 
BRANCH  12  13
ATOM     13  C   UNL     1      99.696 127.560 126.193  1.00  0.00    -0.000 C 
BRANCH  13  14
ATOM     14  C   UNL     1     100.528 126.952 125.051  1.00  0.00    -0.000 C 
BRANCH  14  15
ATOM     15  C   UNL     1     101.767 127.794 124.710  1.00  0.00    -0.003 C 
ATOM     16  C   UNL     1     101.371 129.105 124.039  1.00  0.00     0.004 C 
ENDBRANCH  14  15
ENDBRANCH  13  14
ENDBRANCH  12  13
ENDBRANCH  11  12
ENDBRANCH  10  11
ENDBRANCH   1  10
TORSDOF 12
ENDMDL
MODEL 9
REMARK VINA RESULT:    -5.398      2.134      2.456
REMARK INTER + INTRA:          -9.666
REMARK INTER:                  -9.231
REMARK INTRA:                  -0.436
REMARK UNBOUND:                -0.481
REMARK SMILES CCCCCCCCCCCCCC(=O)[O-]
REMARK SMILES IDX 8 1 9 2 10 3 11 4 12 5 13 6 14 7 15 8 16 9 7 10 6 11 5 12
REMARK SMILES IDX 4 13 3 14 2 15 1 16
REMARK H PARENT
REMARK Flexibility Score: inf
ROOT
ATOM      1  C   UNL     1      96.016 122.345 122.268  1.00  0.00     0.000 C 
ENDROOT
BRANCH   1   2
ATOM      2  C   UNL     1      96.487 122.737 123.680  1.00  0.00     0.000 C 
BRANCH   2   3
ATOM      3  C   UNL     1      95.950 124.107 124.130  1.00  0.00     0.000 C 
BRANCH   3   4
ATOM      4  C   UNL     1      96.883 124.807 125.132  1.00  0.00     0.000 C 
BRANCH   4   5
ATOM      5  C   UNL     1      97.475 123.835 126.168  1.00  0.00     0.006 C 
BRANCH   5   6
ATOM      6  C   UNL     1      98.547 124.502 127.041  1.00  0.00     0.053 C 
BRANCH   6   7
ATOM      7  C   UNL     1      99.843 123.751 127.006  1.00  0.00     0.041 C 
ATOM      8  O   UNL     1     100.924 124.342 127.266  1.00  0.00    -0.550 OA
ATOM      9  O   UNL     1      99.860 122.408 126.655  1.00  0.00    -0.550 OA
ENDBRANCH   6   7
ENDBRANCH   5   6
ENDBRANCH   4   5
ENDBRANCH   3   4
ENDBRANCH   2   3
ENDBRANCH   1   2
BRANCH   1  10
ATOM     10  C   UNL     1      94.704 121.536 122.212  1.00  0.00     0.000 C 
BRANCH  10  11
ATOM     11  C   UNL     1      94.202 121.202 120.796  1.00  0.00    -0.000 C 
BRANCH  11  12
ATOM     12  C   UNL     1      92.743 121.624 120.566  1.00  0.00    -0.000 C 
BRANCH  12  13
ATOM     13  C   UNL     1      92.601 122.409 119.254  1.00  0.00    -0.000 C 
BRANCH  13  14
ATOM     14  C   UNL     1      92.153 121.524 118.079  1.00  0.00    -0.000 C 
BRANCH  14  15
ATOM     15  C   UNL     1      92.324 122.218 116.719  1.00  0.00    -0.003 C 
ATOM     16  C   UNL     1      92.681 123.690 116.895  1.00  0.00     0.004 C 
ENDBRANCH  14  15
ENDBRANCH  13  14
ENDBRANCH  12  13
ENDBRANCH  11  12
ENDBRANCH  10  11
ENDBRANCH   1  10
TORSDOF 12
ENDMDL
