MODEL 1
REMARK VINA RESULT:    -5.176      0.000      0.000
REMARK INTER + INTRA:         -10.352
REMARK INTER:                  -8.807
REMARK INTRA:                  -1.545
REMARK UNBOUND:                -1.545
REMARK SMILES CCCCCCCCCCCCCC(=O)[O-]
REMARK SMILES IDX 8 1 9 2 10 3 11 4 12 5 13 6 14 7 15 8 16 9 7 10 6 11 5 12
REMARK SMILES IDX 4 13 3 14 2 15 1 16
REMARK H PARENT
REMARK Flexibility Score: inf
ROOT
ATOM      1  C   UNL     1      -9.209  -5.807  15.736  1.00  0.00     0.000 C 
ENDROOT
BRANCH   1   2
ATOM      2  C   UNL     1     -10.534  -6.477  15.329  1.00  0.00     0.000 C 
BRANCH   2   3
ATOM      3  C   UNL     1     -10.519  -6.987  13.877  1.00  0.00     0.000 C 
BRANCH   3   4
ATOM      4  C   UNL     1     -11.094  -5.966  12.880  1.00  0.00     0.000 C 
BRANCH   4   5
ATOM      5  C   UNL     1     -10.141  -5.570  11.733  1.00  0.00     0.006 C 
BRANCH   5   6
ATOM      6  C   UNL     1      -8.678  -5.995  11.941  1.00  0.00     0.053 C 
BRANCH   6   7
ATOM      7  C   UNL     1      -7.849  -4.889  12.517  1.00  0.00     0.041 C 
ATOM      8  O   UNL     1      -8.394  -3.817  12.891  1.00  0.00    -0.550 OA
ATOM      9  O   UNL     1      -6.470  -5.029  12.612  1.00  0.00    -0.550 OA
ENDBRANCH   6   7
ENDBRANCH   5   6
ENDBRANCH   4   5
ENDBRANCH   3   4
ENDBRANCH   2   3
ENDBRANCH   1   2
BRANCH   1  10
ATOM     10  C   UNL     1      -9.358  -4.460  16.471  1.00  0.00     0.000 C 
BRANCH  10  11
ATOM     11  C   UNL     1     -10.421  -3.508  15.894  1.00  0.00    -0.000 C 
BRANCH  11  12
ATOM     12  C   UNL     1     -11.581  -3.244  16.869  1.00  0.00    -0.000 C 
BRANCH  12  13
ATOM     13  C   UNL     1     -12.951  -3.636  16.288  1.00  0.00    -0.000 C 
BRANCH  13  14
ATOM     14  C   UNL     1     -13.070  -3.535  14.753  1.00  0.00    -0.000 C 
BRANCH  14  15
ATOM     15  C   UNL     1     -13.923  -2.360  14.245  1.00  0.00    -0.003 C 
ATOM     16  C   UNL     1     -13.294  -1.640  13.054  1.00  0.00     0.004 C 
ENDBRANCH  14  15
ENDBRANCH  13  14
ENDBRANCH  12  13
ENDBRANCH  11  12
ENDBRANCH  10  11
ENDBRANCH   1  10
TORSDOF 12
ENDMDL
MODEL 2
REMARK VINA RESULT:    -5.048      2.551      5.365
REMARK INTER + INTRA:         -10.134
REMARK INTER:                  -8.296
REMARK INTRA:                  -1.838
REMARK UNBOUND:                -1.545
REMARK SMILES CCCCCCCCCCCCCC(=O)[O-]
REMARK SMILES IDX 8 1 9 2 10 3 11 4 12 5 13 6 14 7 15 8 16 9 7 10 6 11 5 12
REMARK SMILES IDX 4 13 3 14 2 15 1 16
REMARK H PARENT
REMARK Flexibility Score: inf
ROOT
ATOM      1  C   UNL     1     -11.385  -6.222  15.359  1.00  0.00     0.000 C 
ENDROOT
BRANCH   1   2
ATOM      2  C   UNL     1     -10.841  -4.783  15.424  1.00  0.00     0.000 C 
BRANCH   2   3
ATOM      3  C   UNL     1     -11.645  -3.888  16.382  1.00  0.00     0.000 C 
BRANCH   3   4
ATOM      4  C   UNL     1     -12.966  -3.390  15.769  1.00  0.00     0.000 C 
BRANCH   4   5
ATOM      5  C   UNL     1     -12.863  -2.908  14.307  1.00  0.00     0.006 C 
BRANCH   5   6
ATOM      6  C   UNL     1     -14.048  -3.313  13.415  1.00  0.00     0.053 C 
BRANCH   6   7
ATOM      7  C   UNL     1     -13.931  -2.745  12.034  1.00  0.00     0.041 C 
ATOM      8  O   UNL     1     -14.534  -3.289  11.072  1.00  0.00    -0.550 OA
ATOM      9  O   UNL     1     -13.128  -1.635  11.804  1.00  0.00    -0.550 OA
ENDBRANCH   6   7
ENDBRANCH   5   6
ENDBRANCH   4   5
ENDBRANCH   3   4
ENDBRANCH   2   3
ENDBRANCH   1   2
BRANCH   1  10
ATOM     10  C   UNL     1     -11.330  -6.878  13.964  1.00  0.00     0.000 C 
BRANCH  10  11
ATOM     11  C   UNL     1     -12.579  -6.671  13.089  1.00  0.00    -0.000 C 
BRANCH  11  12
ATOM     12  C   UNL     1     -12.254  -6.060  11.716  1.00  0.00    -0.000 C 
BRANCH  12  13
ATOM     13  C   UNL     1     -10.977  -5.200  11.733  1.00  0.00    -0.000 C 
BRANCH  13  14
ATOM     14  C   UNL     1      -9.814  -5.727  10.867  1.00  0.00    -0.000 C 
BRANCH  14  15
ATOM     15  C   UNL     1      -8.516  -6.025  11.636  1.00  0.00    -0.003 C 
ATOM     16  C   UNL     1      -8.177  -4.953  12.670  1.00  0.00     0.004 C 
ENDBRANCH  14  15
ENDBRANCH  13  14
ENDBRANCH  12  13
ENDBRANCH  11  12
ENDBRANCH  10  11
ENDBRANCH   1  10
TORSDOF 12
ENDMDL
MODEL 3
REMARK VINA RESULT:    -5.020      2.596      4.370
REMARK INTER + INTRA:         -10.087
REMARK INTER:                  -8.808
REMARK INTRA:                  -1.279
REMARK UNBOUND:                -1.545
REMARK SMILES CCCCCCCCCCCCCC(=O)[O-]
REMARK SMILES IDX 8 1 9 2 10 3 11 4 12 5 13 6 14 7 15 8 16 9 7 10 6 11 5 12
REMARK SMILES IDX 4 13 3 14 2 15 1 16
REMARK H PARENT
REMARK Flexibility Score: inf
ROOT
ATOM      1  C   UNL     1     -10.624  -7.081  13.838  1.00  0.00     0.000 C 
ENDROOT
BRANCH   1   2
ATOM      2  C   UNL     1      -9.880  -6.256  12.772  1.00  0.00     0.000 C 
BRANCH   2   3
ATOM      3  C   UNL     1     -10.711  -5.070  12.253  1.00  0.00     0.000 C 
BRANCH   3   4
ATOM      4  C   UNL     1     -12.121  -5.483  11.796  1.00  0.00     0.000 C 
BRANCH   4   5
ATOM      5  C   UNL     1     -13.277  -4.832  12.585  1.00  0.00     0.006 C 
BRANCH   5   6
ATOM      6  C   UNL     1     -13.842  -3.551  11.950  1.00  0.00     0.053 C 
BRANCH   6   7
ATOM      7  C   UNL     1     -13.405  -2.321  12.685  1.00  0.00     0.041 C 
ATOM      8  O   UNL     1     -13.634  -2.204  13.917  1.00  0.00    -0.550 OA
ATOM      9  O   UNL     1     -12.774  -1.289  12.001  1.00  0.00    -0.550 OA
ENDBRANCH   6   7
ENDBRANCH   5   6
ENDBRANCH   4   5
ENDBRANCH   3   4
ENDBRANCH   2   3
ENDBRANCH   1   2
BRANCH   1  10
ATOM     10  C   UNL     1     -10.445  -6.587  15.287  1.00  0.00     0.000 C 
BRANCH  10  11
ATOM     11  C   UNL     1     -11.569  -5.678  15.817  1.00  0.00    -0.000 C 
BRANCH  11  12
ATOM     12  C   UNL     1     -11.238  -4.182  15.691  1.00  0.00    -0.000 C 
BRANCH  12  13
ATOM     13  C   UNL     1     -11.894  -3.331  16.793  1.00  0.00    -0.000 C 
BRANCH  13  14
ATOM     14  C   UNL     1     -10.914  -2.624  17.752  1.00  0.00    -0.000 C 
BRANCH  14  15
ATOM     15  C   UNL     1      -9.433  -2.712  17.348  1.00  0.00    -0.003 C 
ATOM     16  C   UNL     1      -8.518  -3.081  18.514  1.00  0.00     0.004 C 
ENDBRANCH  14  15
ENDBRANCH  13  14
ENDBRANCH  12  13
ENDBRANCH  11  12
ENDBRANCH  10  11
ENDBRANCH   1  10
TORSDOF 12
ENDMDL
MODEL 4
REMARK VINA RESULT:    -5.009      2.204      4.903
REMARK INTER + INTRA:         -10.068
REMARK INTER:                  -8.497
REMARK INTRA:                  -1.571
REMARK UNBOUND:                -1.545
REMARK SMILES CCCCCCCCCCCCCC(=O)[O-]
REMARK SMILES IDX 8 1 9 2 10 3 11 4 12 5 13 6 14 7 15 8 16 9 7 10 6 11 5 12
REMARK SMILES IDX 4 13 3 14 2 15 1 16
REMARK H PARENT
REMARK Flexibility Score: inf
ROOT
ATOM      1  C   UNL     1      -9.830  -4.199  15.662  1.00  0.00     0.000 C 
ENDROOT
BRANCH   1   2
ATOM      2  C   UNL     1     -10.565  -3.543  16.845  1.00  0.00     0.000 C 
BRANCH   2   3
ATOM      3  C   UNL     1     -12.077  -3.403  16.602  1.00  0.00     0.000 C 
BRANCH   3   4
ATOM      4  C   UNL     1     -12.451  -3.473  15.111  1.00  0.00     0.000 C 
BRANCH   4   5
ATOM      5  C   UNL     1     -13.905  -3.072  14.785  1.00  0.00     0.006 C 
BRANCH   5   6
ATOM      6  C   UNL     1     -14.038  -1.875  13.829  1.00  0.00     0.053 C 
BRANCH   6   7
ATOM      7  C   UNL     1     -13.084  -1.966  12.678  1.00  0.00     0.041 C 
ATOM      8  O   UNL     1     -12.186  -1.097  12.529  1.00  0.00    -0.550 OA
ATOM      9  O   UNL     1     -13.208  -2.993  11.751  1.00  0.00    -0.550 OA
ENDBRANCH   6   7
ENDBRANCH   5   6
ENDBRANCH   4   5
ENDBRANCH   3   4
ENDBRANCH   2   3
ENDBRANCH   1   2
BRANCH   1  10
ATOM     10  C   UNL     1      -9.501  -5.694  15.846  1.00  0.00     0.000 C 
BRANCH  10  11
ATOM     11  C   UNL     1     -10.705  -6.649  15.770  1.00  0.00    -0.000 C 
BRANCH  11  12
ATOM     12  C   UNL     1     -10.783  -7.411  14.436  1.00  0.00    -0.000 C 
BRANCH  12  13
ATOM     13  C   UNL     1     -11.649  -6.691  13.387  1.00  0.00    -0.000 C 
BRANCH  13  14
ATOM     14  C   UNL     1     -10.876  -5.815  12.380  1.00  0.00    -0.000 C 
BRANCH  14  15
ATOM     15  C   UNL     1      -9.436  -6.275  12.091  1.00  0.00    -0.003 C 
ATOM     16  C   UNL     1      -8.408  -5.160  12.271  1.00  0.00     0.004 C 
ENDBRANCH  14  15
ENDBRANCH  13  14
ENDBRANCH  12  13
ENDBRANCH  11  12
ENDBRANCH  10  11
ENDBRANCH   1  10
TORSDOF 12
ENDMDL
MODEL 5
REMARK VINA RESULT:    -4.978      2.461      4.983
REMARK INTER + INTRA:         -10.016
REMARK INTER:                  -7.922
REMARK INTRA:                  -2.093
REMARK UNBOUND:                -1.545
REMARK SMILES CCCCCCCCCCCCCC(=O)[O-]
REMARK SMILES IDX 8 1 9 2 10 3 11 4 12 5 13 6 14 7 15 8 16 9 7 10 6 11 5 12
REMARK SMILES IDX 4 13 3 14 2 15 1 16
REMARK H PARENT
REMARK Flexibility Score: inf
ROOT
ATOM      1  C   UNL     1      -9.282  -4.208  16.425  1.00  0.00     0.000 C 
ENDROOT
BRANCH   1   2
ATOM      2  C   UNL     1     -10.361  -3.173  16.060  1.00  0.00     0.000 C 
BRANCH   2   3
ATOM      3  C   UNL     1     -11.761  -3.573  16.558  1.00  0.00     0.000 C 
BRANCH   3   4
ATOM      4  C   UNL     1     -12.844  -3.432  15.474  1.00  0.00     0.000 C 
BRANCH   4   5
ATOM      5  C   UNL     1     -12.384  -2.721  14.184  1.00  0.00     0.006 C 
BRANCH   5   6
ATOM      6  C   UNL     1     -13.527  -2.291  13.250  1.00  0.00     0.053 C 
BRANCH   6   7
ATOM      7  C   UNL     1     -14.008  -3.423  12.394  1.00  0.00     0.041 C 
ATOM      8  O   UNL     1     -13.508  -3.612  11.254  1.00  0.00    -0.550 OA
ATOM      9  O   UNL     1     -15.031  -4.248  12.842  1.00  0.00    -0.550 OA
ENDBRANCH   6   7
ENDBRANCH   5   6
ENDBRANCH   4   5
ENDBRANCH   3   4
ENDBRANCH   2   3
ENDBRANCH   1   2
BRANCH   1  10
ATOM     10  C   UNL     1      -8.468  -4.751  15.234  1.00  0.00     0.000 C 
BRANCH  10  11
ATOM     11  C   UNL     1      -8.995  -4.359  13.842  1.00  0.00    -0.000 C 
BRANCH  11  12
ATOM     12  C   UNL     1      -9.436  -5.570  13.005  1.00  0.00    -0.000 C 
BRANCH  12  13
ATOM     13  C   UNL     1     -10.946  -5.570  12.704  1.00  0.00    -0.000 C 
BRANCH  13  14
ATOM     14  C   UNL     1     -11.745  -6.731  13.331  1.00  0.00    -0.000 C 
BRANCH  14  15
ATOM     15  C   UNL     1     -11.008  -7.502  14.439  1.00  0.00    -0.003 C 
ATOM     16  C   UNL     1     -11.487  -7.132  15.841  1.00  0.00     0.004 C 
ENDBRANCH  14  15
ENDBRANCH  13  14
ENDBRANCH  12  13
ENDBRANCH  11  12
ENDBRANCH  10  11
ENDBRANCH   1  10
TORSDOF 12
ENDMDL
MODEL 6
REMARK VINA RESULT:    -4.964      1.586      4.011
REMARK INTER + INTRA:          -9.992
REMARK INTER:                  -8.195
REMARK INTRA:                  -1.797
REMARK UNBOUND:                -1.545
REMARK SMILES CCCCCCCCCCCCCC(=O)[O-]
REMARK SMILES IDX 8 1 9 2 10 3 11 4 12 5 13 6 14 7 15 8 16 9 7 10 6 11 5 12
REMARK SMILES IDX 4 13 3 14 2 15 1 16
REMARK H PARENT
REMARK Flexibility Score: inf
ROOT
ATOM      1  C   UNL     1     -11.796  -3.990  16.180  1.00  0.00     0.000 C 
ENDROOT
BRANCH   1   2
ATOM      2  C   UNL     1     -11.021  -3.000  17.069  1.00  0.00     0.000 C 
BRANCH   2   3
ATOM      3  C   UNL     1      -9.501  -3.231  17.030  1.00  0.00     0.000 C 
BRANCH   3   4
ATOM      4  C   UNL     1      -9.118  -4.583  16.402  1.00  0.00     0.000 C 
BRANCH   4   5
ATOM      5  C   UNL     1      -8.284  -4.486  15.107  1.00  0.00     0.006 C 
BRANCH   5   6
ATOM      6  C   UNL     1      -7.681  -3.098  14.837  1.00  0.00     0.053 C 
BRANCH   6   7
ATOM      7  C   UNL     1      -7.699  -2.752  13.380  1.00  0.00     0.041 C 
ATOM      8  O   UNL     1      -8.461  -1.845  12.953  1.00  0.00    -0.550 OA
ATOM      9  O   UNL     1      -6.898  -3.453  12.488  1.00  0.00    -0.550 OA
ENDBRANCH   6   7
ENDBRANCH   5   6
ENDBRANCH   4   5
ENDBRANCH   3   4
ENDBRANCH   2   3
ENDBRANCH   1   2
BRANCH   1  10
ATOM     10  C   UNL     1     -12.958  -3.373  15.376  1.00  0.00     0.000 C 
BRANCH  10  11
ATOM     11  C   UNL     1     -12.727  -3.269  13.858  1.00  0.00    -0.000 C 
BRANCH  11  12
ATOM     12  C   UNL     1     -11.490  -4.049  13.385  1.00  0.00    -0.000 C 
BRANCH  12  13
ATOM     13  C   UNL     1     -11.849  -5.273  12.523  1.00  0.00    -0.000 C 
BRANCH  13  14
ATOM     14  C   UNL     1     -12.197  -6.554  13.309  1.00  0.00    -0.000 C 
BRANCH  14  15
ATOM     15  C   UNL     1     -11.035  -7.154  14.120  1.00  0.00    -0.003 C 
ATOM     16  C   UNL     1     -11.419  -7.470  15.565  1.00  0.00     0.004 C 
ENDBRANCH  14  15
ENDBRANCH  13  14
ENDBRANCH  12  13
ENDBRANCH  11  12
ENDBRANCH  10  11
ENDBRANCH   1  10
TORSDOF 12
ENDMDL
MODEL 7
REMARK VINA RESULT:    -4.959      1.415      3.231
REMARK INTER + INTRA:          -9.984
REMARK INTER:                  -8.140
REMARK INTRA:                  -1.844
REMARK UNBOUND:                -1.545
REMARK SMILES CCCCCCCCCCCCCC(=O)[O-]
REMARK SMILES IDX 8 1 9 2 10 3 11 4 12 5 13 6 14 7 15 8 16 9 7 10 6 11 5 12
REMARK SMILES IDX 4 13 3 14 2 15 1 16
REMARK H PARENT
REMARK Flexibility Score: inf
ROOT
ATOM      1  C   UNL     1     -11.262  -7.050  13.748  1.00  0.00     0.000 C 
ENDROOT
BRANCH   1   2
ATOM      2  C   UNL     1     -11.199  -6.756  15.258  1.00  0.00     0.000 C 
BRANCH   2   3
ATOM      3  C   UNL     1      -9.785  -6.378  15.731  1.00  0.00     0.000 C 
BRANCH   3   4
ATOM      4  C   UNL     1      -9.587  -4.858  15.866  1.00  0.00     0.000 C 
BRANCH   4   5
ATOM      5  C   UNL     1      -8.523  -4.254  14.927  1.00  0.00     0.006 C 
BRANCH   5   6
ATOM      6  C   UNL     1      -8.952  -4.157  13.453  1.00  0.00     0.053 C 
BRANCH   6   7
ATOM      7  C   UNL     1      -8.053  -4.949  12.554  1.00  0.00     0.041 C 
ATOM      8  O   UNL     1      -6.816  -4.717  12.530  1.00  0.00    -0.550 OA
ATOM      9  O   UNL     1      -8.587  -5.920  11.717  1.00  0.00    -0.550 OA
ENDBRANCH   6   7
ENDBRANCH   5   6
ENDBRANCH   4   5
ENDBRANCH   3   4
ENDBRANCH   2   3
ENDBRANCH   1   2
BRANCH   1  10
ATOM     10  C   UNL     1     -12.504  -6.492  13.025  1.00  0.00     0.000 C 
BRANCH  10  11
ATOM     11  C   UNL     1     -12.213  -5.624  11.787  1.00  0.00    -0.000 C 
BRANCH  11  12
ATOM     12  C   UNL     1     -12.884  -4.243  11.853  1.00  0.00    -0.000 C 
BRANCH  12  13
ATOM     13  C   UNL     1     -14.033  -4.185  12.876  1.00  0.00    -0.000 C 
BRANCH  13  14
ATOM     14  C   UNL     1     -13.913  -3.078  13.943  1.00  0.00    -0.000 C 
BRANCH  14  15
ATOM     15  C   UNL     1     -12.679  -3.186  14.855  1.00  0.00    -0.003 C 
ATOM     16  C   UNL     1     -13.014  -3.709  16.250  1.00  0.00     0.004 C 
ENDBRANCH  14  15
ENDBRANCH  13  14
ENDBRANCH  12  13
ENDBRANCH  11  12
ENDBRANCH  10  11
ENDBRANCH   1  10
TORSDOF 12
ENDMDL
MODEL 8
REMARK VINA RESULT:    -4.951      2.568      3.627
REMARK INTER + INTRA:          -9.969
REMARK INTER:                  -8.155
REMARK INTRA:                  -1.814
REMARK UNBOUND:                -1.545
REMARK SMILES CCCCCCCCCCCCCC(=O)[O-]
REMARK SMILES IDX 8 1 9 2 10 3 11 4 12 5 13 6 14 7 15 8 16 9 7 10 6 11 5 12
REMARK SMILES IDX 4 13 3 14 2 15 1 16
REMARK H PARENT
REMARK Flexibility Score: inf
ROOT
ATOM      1  C   UNL     1     -10.632  -3.635  15.542  1.00  0.00     0.000 C 
ENDROOT
BRANCH   1   2
ATOM      2  C   UNL     1      -9.742  -4.803  15.079  1.00  0.00     0.000 C 
BRANCH   2   3
ATOM      3  C   UNL     1      -9.188  -4.600  13.658  1.00  0.00     0.000 C 
BRANCH   3   4
ATOM      4  C   UNL     1      -9.595  -5.725  12.691  1.00  0.00     0.000 C 
BRANCH   4   5
ATOM      5  C   UNL     1     -11.017  -5.598  12.107  1.00  0.00     0.006 C 
BRANCH   5   6
ATOM      6  C   UNL     1     -11.066  -5.355  10.590  1.00  0.00     0.053 C 
BRANCH   6   7
ATOM      7  C   UNL     1     -12.472  -5.263  10.081  1.00  0.00     0.041 C 
ATOM      8  O   UNL     1     -13.311  -4.529  10.667  1.00  0.00    -0.550 OA
ATOM      9  O   UNL     1     -12.864  -6.012   8.980  1.00  0.00    -0.550 OA
ENDBRANCH   6   7
ENDBRANCH   5   6
ENDBRANCH   4   5
ENDBRANCH   3   4
ENDBRANCH   2   3
ENDBRANCH   1   2
BRANCH   1  10
ATOM     10  C   UNL     1     -11.989  -4.049  16.146  1.00  0.00     0.000 C 
BRANCH  10  11
ATOM     11  C   UNL     1     -13.222  -3.367  15.526  1.00  0.00    -0.000 C 
BRANCH  11  12
ATOM     12  C   UNL     1     -13.133  -3.245  13.996  1.00  0.00    -0.000 C 
BRANCH  12  13
ATOM     13  C   UNL     1     -13.596  -1.871  13.478  1.00  0.00    -0.000 C 
BRANCH  13  14
ATOM     14  C   UNL     1     -12.730  -1.261  12.358  1.00  0.00    -0.000 C 
BRANCH  14  15
ATOM     15  C   UNL     1     -11.346  -1.909  12.181  1.00  0.00    -0.003 C 
ATOM     16  C   UNL     1     -10.214  -1.063  12.760  1.00  0.00     0.004 C 
ENDBRANCH  14  15
ENDBRANCH  13  14
ENDBRANCH  12  13
ENDBRANCH  11  12
ENDBRANCH  10  11
ENDBRANCH   1  10
TORSDOF 12
ENDMDL
MODEL 9
REMARK VINA RESULT:    -4.944      2.492      4.209
REMARK INTER + INTRA:          -9.958
REMARK INTER:                  -8.245
REMARK INTRA:                  -1.712
REMARK UNBOUND:                -1.545
REMARK SMILES CCCCCCCCCCCCCC(=O)[O-]
REMARK SMILES IDX 8 1 9 2 10 3 11 4 12 5 13 6 14 7 15 8 16 9 7 10 6 11 5 12
REMARK SMILES IDX 4 13 3 14 2 15 1 16
REMARK H PARENT
REMARK Flexibility Score: inf
ROOT
ATOM      1  C   UNL     1      -9.362  -5.994  11.932  1.00  0.00     0.000 C 
ENDROOT
BRANCH   1   2
ATOM      2  C   UNL     1     -10.274  -6.590  13.019  1.00  0.00     0.000 C 
BRANCH   2   3
ATOM      3  C   UNL     1     -11.726  -6.091  12.916  1.00  0.00     0.000 C 
BRANCH   3   4
ATOM      4  C   UNL     1     -12.051  -5.478  11.543  1.00  0.00     0.000 C 
BRANCH   4   5
ATOM      5  C   UNL     1     -12.657  -4.060  11.590  1.00  0.00     0.006 C 
BRANCH   5   6
ATOM      6  C   UNL     1     -11.981  -3.108  12.590  1.00  0.00     0.053 C 
BRANCH   6   7
ATOM      7  C   UNL     1     -12.695  -1.795  12.684  1.00  0.00     0.041 C 
ATOM      8  O   UNL     1     -12.356  -0.835  11.944  1.00  0.00    -0.550 OA
ATOM      9  O   UNL     1     -13.713  -1.621  13.613  1.00  0.00    -0.550 OA
ENDBRANCH   6   7
ENDBRANCH   5   6
ENDBRANCH   4   5
ENDBRANCH   3   4
ENDBRANCH   2   3
ENDBRANCH   1   2
BRANCH   1  10
ATOM     10  C   UNL     1      -8.177  -5.160  12.458  1.00  0.00     0.000 C 
BRANCH  10  11
ATOM     11  C   UNL     1      -8.554  -3.992  13.388  1.00  0.00    -0.000 C 
BRANCH  11  12
ATOM     12  C   UNL     1      -7.769  -4.001  14.710  1.00  0.00    -0.000 C 
BRANCH  12  13
ATOM     13  C   UNL     1      -8.673  -3.813  15.942  1.00  0.00    -0.000 C 
BRANCH  13  14
ATOM     14  C   UNL     1     -10.147  -4.222  15.748  1.00  0.00    -0.000 C 
BRANCH  14  15
ATOM     15  C   UNL     1     -11.164  -3.383  16.541  1.00  0.00    -0.003 C 
ATOM     16  C   UNL     1     -12.612  -3.776  16.254  1.00  0.00     0.004 C 
ENDBRANCH  14  15
ENDBRANCH  13  14
ENDBRANCH  12  13
ENDBRANCH  11  12
ENDBRANCH  10  11
ENDBRANCH   1  10
TORSDOF 12
ENDMDL
