MODEL 1
REMARK VINA RESULT:    -2.746      0.000      0.000
REMARK INTER + INTRA:          -2.711
REMARK INTER:                  -2.987
REMARK INTRA:                   0.276
REMARK UNBOUND:                 0.276
REMARK SMILES CC1(C)CC[C@]2(C(=O)[O-])CC[C@@]3(C)C(=CC[C@H]4[C@@]5(C)CC[C@H](O)C(C)(C)[C@H]5CC[C@]43C)[C@H]2C1
REMARK SMILES IDX 6 1 5 2 10 3 32 4 4 5 11 6 14 7 33 8 2 9 12 10 15 11 1 12
REMARK SMILES IDX 3 13 13 14 30 15 16 16 17 17 29 18 31 19 18 20 28 21 27 22
REMARK SMILES IDX 20 23 19 24 24 25 21 26 22 27 25 28 26 29 7 30 8 31 9 32
REMARK SMILES IDX 23 33
REMARK H PARENT 23 34
REMARK Flexibility Score: inf
ROOT
ATOM      1  C   UNL     1       9.462  16.442 -19.032  1.00  0.00     0.017 C 
ATOM      2  C   UNL     1      10.167  16.768 -20.378  1.00  0.00     0.014 C 
ATOM      3  C   UNL     1      10.481  16.666 -17.856  1.00  0.00     0.014 C 
ATOM      4  C   UNL     1       8.996  14.950 -19.077  1.00  0.00     0.028 C 
ATOM      5  C   UNL     1       9.256  16.524 -21.592  1.00  0.00     0.007 C 
ATOM      6  C   UNL     1      10.641  15.469 -16.891  1.00  0.00     0.013 C 
ATOM      7  C   UNL     1       8.442  14.526 -17.706  1.00  0.00    -0.064 C 
ATOM      8  C   UNL     1       8.088  14.650 -20.304  1.00  0.00     0.015 C 
ATOM      9  C   UNL     1       8.715  15.073 -21.664  1.00  0.00    -0.035 C 
ATOM     10  C   UNL     1       9.272  14.837 -16.448  1.00  0.00    -0.006 C 
ATOM     11  C   UNL     1       7.383  13.700 -17.584  1.00  0.00    -0.027 C 
ATOM     12  C   UNL     1       9.842  14.095 -22.077  1.00  0.00     0.011 C 
ATOM     13  C   UNL     1       7.620  15.013 -22.751  1.00  0.00     0.011 C 
ATOM     14  C   UNL     1       8.549  15.922 -15.587  1.00  0.00     0.017 C 
ATOM     15  C   UNL     1       9.466  13.457 -15.639  1.00  0.00    -0.020 C 
ATOM     16  C   UNL     1       6.898  13.248 -16.242  1.00  0.00     0.032 C 
ATOM     17  C   UNL     1       8.051  12.817 -15.249  1.00  0.00     0.006 C 
ATOM     18  C   UNL     1      10.305  12.456 -16.518  1.00  0.00     0.008 C 
ATOM     19  C   UNL     1      10.266  13.754 -14.329  1.00  0.00     0.012 C 
ATOM     20  C   UNL     1       8.066  11.263 -14.749  1.00  0.00    -0.025 C 
ATOM     21  C   UNL     1       9.836  11.002 -16.530  1.00  0.00     0.005 C 
ATOM     22  C   UNL     1       9.424  10.528 -15.120  1.00  0.00     0.003 C 
ATOM     23  C   UNL     1       6.876  10.447 -15.359  1.00  0.00     0.010 C 
ATOM     24  C   UNL     1       7.872  11.293 -13.201  1.00  0.00     0.012 C 
ATOM     25  C   UNL     1       9.447   8.937 -14.943  1.00  0.00    -0.006 C 
ATOM     26  C   UNL     1       6.888   8.945 -15.073  1.00  0.00     0.033 C 
ATOM     27  C   UNL     1       8.181   8.294 -15.574  1.00  0.00     0.120 C 
ATOM     28  C   UNL     1      10.692   8.309 -15.638  1.00  0.00     0.014 C 
ATOM     29  C   UNL     1       9.577   8.540 -13.435  1.00  0.00     0.014 C 
ENDROOT
BRANCH   1  30
ATOM     30  C   UNL     1       8.290  17.411 -18.849  1.00  0.00     0.048 C 
ATOM     31  O   UNL     1       8.498  18.654 -18.858  1.00  0.00    -0.550 OA
ATOM     32  O   UNL     1       6.995  16.956 -18.625  1.00  0.00    -0.550 OA
ENDBRANCH   1  30
BRANCH  27  33
ATOM     33  O   UNL     1       8.148   6.915 -15.300  1.00  0.00    -0.393 OA
ATOM     34  H   UNL     1       8.923   6.717 -14.711  1.00  0.00     0.210 HD
ENDBRANCH  27  33
TORSDOF 2
ENDMDL
MODEL 2
REMARK VINA RESULT:     0.143      2.087      4.791
REMARK INTER + INTRA:           0.431
REMARK INTER:                  -0.341
REMARK INTRA:                   0.772
REMARK UNBOUND:                 0.276
REMARK SMILES CC1(C)CC[C@]2(C(=O)[O-])CC[C@@]3(C)C(=CC[C@H]4[C@@]5(C)CC[C@H](O)C(C)(C)[C@H]5CC[C@]43C)[C@H]2C1
REMARK SMILES IDX 6 1 5 2 10 3 32 4 4 5 11 6 14 7 33 8 2 9 12 10 15 11 1 12
REMARK SMILES IDX 3 13 13 14 30 15 16 16 17 17 29 18 31 19 18 20 28 21 27 22
REMARK SMILES IDX 20 23 19 24 24 25 21 26 22 27 25 28 26 29 7 30 8 31 9 32
REMARK SMILES IDX 23 33
REMARK H PARENT 23 34
REMARK Flexibility Score: inf
ROOT
ATOM      1  C   UNL     1       7.769  18.735 -17.777  1.00  0.00     0.017 C 
ATOM      2  C   UNL     1       6.876  19.762 -17.028  1.00  0.00     0.014 C 
ATOM      3  C   UNL     1       6.947  18.114 -18.963  1.00  0.00     0.014 C 
ATOM      4  C   UNL     1       8.187  17.623 -16.759  1.00  0.00     0.028 C 
ATOM      5  C   UNL     1       7.586  20.383 -15.814  1.00  0.00     0.007 C 
ATOM      6  C   UNL     1       6.907  16.569 -18.996  1.00  0.00     0.013 C 
ATOM      7  C   UNL     1       8.933  16.492 -17.487  1.00  0.00    -0.064 C 
ATOM      8  C   UNL     1       8.891  18.207 -15.500  1.00  0.00     0.015 C 
ATOM      9  C   UNL     1       8.074  19.326 -14.790  1.00  0.00    -0.035 C 
ATOM     10  C   UNL     1       8.311  15.903 -18.765  1.00  0.00    -0.006 C 
ATOM     11  C   UNL     1       9.978  15.847 -16.929  1.00  0.00    -0.027 C 
ATOM     12  C   UNL     1       6.875  18.724 -14.018  1.00  0.00     0.011 C 
ATOM     13  C   UNL     1       8.989  20.026 -13.762  1.00  0.00     0.011 C 
ATOM     14  C   UNL     1       9.183  16.284 -20.005  1.00  0.00     0.017 C 
ATOM     15  C   UNL     1       8.209  14.308 -18.568  1.00  0.00    -0.020 C 
ATOM     16  C   UNL     1      10.651  14.705 -17.626  1.00  0.00     0.032 C 
ATOM     17  C   UNL     1       9.652  13.672 -18.286  1.00  0.00     0.006 C 
ATOM     18  C   UNL     1       7.223  13.995 -17.382  1.00  0.00     0.008 C 
ATOM     19  C   UNL     1       7.626  13.678 -19.875  1.00  0.00     0.012 C 
ATOM     20  C   UNL     1       9.676  12.141 -17.718  1.00  0.00    -0.025 C 
ATOM     21  C   UNL     1       7.650  12.893 -16.413  1.00  0.00     0.005 C 
ATOM     22  C   UNL     1       8.260  11.687 -17.159  1.00  0.00     0.003 C 
ATOM     23  C   UNL     1      10.740  11.962 -16.582  1.00  0.00     0.010 C 
ATOM     24  C   UNL     1      10.104  11.231 -18.911  1.00  0.00     0.012 C 
ATOM     25  C   UNL     1       8.227  10.325 -16.319  1.00  0.00    -0.006 C 
ATOM     26  C   UNL     1      10.736  10.604 -15.879  1.00  0.00     0.033 C 
ATOM     27  C   UNL     1       9.366  10.302 -15.263  1.00  0.00     0.120 C 
ATOM     28  C   UNL     1       6.875  10.164 -15.559  1.00  0.00     0.014 C 
ATOM     29  C   UNL     1       8.318   9.080 -17.261  1.00  0.00     0.014 C 
ENDROOT
BRANCH   1  30
ATOM     30  C   UNL     1       8.979  19.473 -18.358  1.00  0.00     0.048 C 
ATOM     31  O   UNL     1       8.925  20.720 -18.534  1.00  0.00    -0.550 OA
ATOM     32  O   UNL     1      10.130  18.797 -18.746  1.00  0.00    -0.550 OA
ENDBRANCH   1  30
BRANCH  27  33
ATOM     33  O   UNL     1       9.407   9.051 -14.620  1.00  0.00    -0.393 OA
ATOM     34  H   UNL     1       8.586   8.560 -14.887  1.00  0.00     0.210 HD
ENDBRANCH  27  33
TORSDOF 2
ENDMDL
