MODEL 1
REMARK VINA RESULT:    -5.281      0.000      0.000
REMARK INTER + INTRA:          -5.590
REMARK INTER:                  -5.590
REMARK INTRA:                   0.000
REMARK UNBOUND:                 0.000
REMARK SMILES O=c1ccc2cc(O)c(O)cc2o1
REMARK SMILES IDX 4 1 3 2 2 3 1 4 13 5 12 6 11 7 9 8 7 9 6 10 5 11 8 12 10 14
REMARK H PARENT 8 13 10 15
REMARK Flexibility Score: inf
ROOT
ATOM      1  C   UNL     1      10.770 -17.638   8.566  1.00  0.00     0.019 A 
ATOM      2  C   UNL     1       9.416 -17.398   8.336  1.00  0.00     0.094 A 
ATOM      3  C   UNL     1       9.029 -16.169   7.791  1.00  0.00     0.336 A 
ATOM      4  O   UNL     1       7.811 -15.932   7.576  1.00  0.00    -0.246 OA
ATOM      5  O   UNL     1       9.940 -15.245   7.497  1.00  0.00    -0.423 OA
ATOM      6  C   UNL     1      11.242 -15.433   7.701  1.00  0.00     0.142 A 
ATOM      7  C   UNL     1      12.154 -14.426   7.373  1.00  0.00     0.098 A 
ATOM      8  C   UNL     1      13.525 -14.616   7.584  1.00  0.00     0.161 A 
ATOM      9  C   UNL     1      13.990 -15.827   8.129  1.00  0.00     0.158 A 
ATOM     10  C   UNL     1      13.078 -16.842   8.460  1.00  0.00     0.062 A 
ATOM     11  C   UNL     1      11.706 -16.649   8.248  1.00  0.00     0.022 A 
ENDROOT
BRANCH   9  12
ATOM     12  O   UNL     1      15.354 -16.018   8.340  1.00  0.00    -0.504 OA
ATOM     13  H   UNL     1      15.715 -16.333   9.233  1.00  0.00     0.293 HD
ENDBRANCH   9  12
BRANCH   8  14
ATOM     14  O   UNL     1      14.409 -13.591   7.247  1.00  0.00    -0.504 OA
ATOM     15  H   UNL     1      14.174 -12.614   7.376  1.00  0.00     0.293 HD
ENDBRANCH   8  14
TORSDOF 2
ENDMDL
MODEL 2
REMARK VINA RESULT:    -5.222      1.018      4.498
REMARK INTER + INTRA:          -5.528
REMARK INTER:                  -5.528
REMARK INTRA:                   0.000
REMARK UNBOUND:                 0.000
REMARK SMILES O=c1ccc2cc(O)c(O)cc2o1
REMARK SMILES IDX 4 1 3 2 2 3 1 4 13 5 12 6 11 7 9 8 7 9 6 10 5 11 8 12 10 14
REMARK H PARENT 8 13 10 15
REMARK Flexibility Score: inf
ROOT
ATOM      1  C   UNL     1      13.512 -16.755   8.479  1.00  0.00     0.019 A 
ATOM      2  C   UNL     1      14.456 -15.768   8.202  1.00  0.00     0.094 A 
ATOM      3  C   UNL     1      14.026 -14.545   7.676  1.00  0.00     0.336 A 
ATOM      4  O   UNL     1      14.863 -13.641   7.419  1.00  0.00    -0.246 OA
ATOM      5  O   UNL     1      12.733 -14.329   7.445  1.00  0.00    -0.423 OA
ATOM      6  C   UNL     1      11.799 -15.244   7.695  1.00  0.00     0.142 A 
ATOM      7  C   UNL     1      10.456 -14.961   7.432  1.00  0.00     0.098 A 
ATOM      8  C   UNL     1       9.466 -15.917   7.692  1.00  0.00     0.161 A 
ATOM      9  C   UNL     1       9.824 -17.171   8.222  1.00  0.00     0.158 A 
ATOM     10  C   UNL     1      11.172 -17.460   8.488  1.00  0.00     0.062 A 
ATOM     11  C   UNL     1      12.160 -16.501   8.226  1.00  0.00     0.022 A 
ENDROOT
BRANCH   9  12
ATOM     12  O   UNL     1       8.841 -18.124   8.482  1.00  0.00    -0.504 OA
ATOM     13  H   UNL     1       8.712 -18.516   9.407  1.00  0.00     0.293 HD
ENDBRANCH   9  12
BRANCH   8  14
ATOM     14  O   UNL     1       8.135 -15.604   7.418  1.00  0.00    -0.504 OA
ATOM     15  H   UNL     1       7.875 -14.969   6.672  1.00  0.00     0.293 HD
ENDBRANCH   8  14
TORSDOF 2
ENDMDL
MODEL 3
REMARK VINA RESULT:    -5.188      1.118      2.268
REMARK INTER + INTRA:          -5.491
REMARK INTER:                  -5.491
REMARK INTRA:                   0.000
REMARK UNBOUND:                 0.000
REMARK SMILES O=c1ccc2cc(O)c(O)cc2o1
REMARK SMILES IDX 4 1 3 2 2 3 1 4 13 5 12 6 11 7 9 8 7 9 6 10 5 11 8 12 10 14
REMARK H PARENT 8 13 10 15
REMARK Flexibility Score: inf
ROOT
ATOM      1  C   UNL     1      10.187 -15.008   7.439  1.00  0.00     0.019 A 
ATOM      2  C   UNL     1       9.257 -15.990   7.772  1.00  0.00     0.094 A 
ATOM      3  C   UNL     1       9.711 -17.202   8.306  1.00  0.00     0.336 A 
ATOM      4  O   UNL     1       8.887 -18.102   8.613  1.00  0.00    -0.246 OA
ATOM      5  O   UNL     1      11.012 -17.409   8.491  1.00  0.00    -0.423 OA
ATOM      6  C   UNL     1      11.934 -16.498   8.187  1.00  0.00     0.142 A 
ATOM      7  C   UNL     1      13.287 -16.772   8.404  1.00  0.00     0.098 A 
ATOM      8  C   UNL     1      14.262 -15.819   8.087  1.00  0.00     0.161 A 
ATOM      9  C   UNL     1      13.881 -14.577   7.546  1.00  0.00     0.158 A 
ATOM     10  C   UNL     1      12.523 -14.297   7.327  1.00  0.00     0.062 A 
ATOM     11  C   UNL     1      11.548 -15.253   7.645  1.00  0.00     0.022 A 
ENDROOT
BRANCH   9  12
ATOM     12  O   UNL     1      14.850 -13.627   7.230  1.00  0.00    -0.504 OA
ATOM     13  H   UNL     1      15.171 -13.493   6.278  1.00  0.00     0.293 HD
ENDBRANCH   9  12
BRANCH   8  14
ATOM     14  O   UNL     1      15.604 -16.124   8.315  1.00  0.00    -0.504 OA
ATOM     15  H   UNL     1      16.157 -15.632   9.007  1.00  0.00     0.293 HD
ENDBRANCH   8  14
TORSDOF 2
ENDMDL
MODEL 4
REMARK VINA RESULT:    -4.914      1.425      1.609
REMARK INTER + INTRA:          -5.201
REMARK INTER:                  -5.201
REMARK INTRA:                   0.000
REMARK UNBOUND:                 0.000
REMARK SMILES O=c1ccc2cc(O)c(O)cc2o1
REMARK SMILES IDX 4 1 3 2 2 3 1 4 13 5 12 6 11 7 9 8 7 9 6 10 5 11 8 12 10 14
REMARK H PARENT 8 13 10 15
REMARK Flexibility Score: inf
ROOT
ATOM      1  C   UNL     1       9.426 -18.107   7.291  1.00  0.00     0.019 A 
ATOM      2  C   UNL     1       8.227 -17.601   7.788  1.00  0.00     0.094 A 
ATOM      3  C   UNL     1       8.208 -16.313   8.334  1.00  0.00     0.336 A 
ATOM      4  O   UNL     1       7.135 -15.838   8.788  1.00  0.00    -0.246 OA
ATOM      5  O   UNL     1       9.320 -15.583   8.376  1.00  0.00    -0.423 OA
ATOM      6  C   UNL     1      10.486 -16.028   7.912  1.00  0.00     0.142 A 
ATOM      7  C   UNL     1      11.622 -15.217   7.982  1.00  0.00     0.098 A 
ATOM      8  C   UNL     1      12.852 -15.677   7.497  1.00  0.00     0.161 A 
ATOM      9  C   UNL     1      12.948 -16.962   6.934  1.00  0.00     0.158 A 
ATOM     10  C   UNL     1      11.810 -17.781   6.861  1.00  0.00     0.062 A 
ATOM     11  C   UNL     1      10.580 -17.319   7.348  1.00  0.00     0.022 A 
ENDROOT
BRANCH   9  12
ATOM     12  O   UNL     1      14.171 -17.422   6.450  1.00  0.00    -0.504 OA
ATOM     13  H   UNL     1      14.881 -17.797   7.070  1.00  0.00     0.293 HD
ENDBRANCH   9  12
BRANCH   8  14
ATOM     14  O   UNL     1      13.967 -14.843   7.582  1.00  0.00    -0.504 OA
ATOM     15  H   UNL     1      14.555 -14.814   8.407  1.00  0.00     0.293 HD
ENDBRANCH   8  14
TORSDOF 2
ENDMDL
MODEL 5
REMARK VINA RESULT:    -4.729      1.630      2.426
REMARK INTER + INTRA:          -5.005
REMARK INTER:                  -5.005
REMARK INTRA:                   0.000
REMARK UNBOUND:                 0.000
REMARK SMILES O=c1ccc2cc(O)c(O)cc2o1
REMARK SMILES IDX 4 1 3 2 2 3 1 4 13 5 12 6 11 7 9 8 7 9 6 10 5 11 8 12 10 14
REMARK H PARENT 8 13 10 15
REMARK Flexibility Score: inf
ROOT
ATOM      1  C   UNL     1       9.962 -15.503   7.785  1.00  0.00     0.019 A 
ATOM      2  C   UNL     1       8.816 -16.187   7.381  1.00  0.00     0.094 A 
ATOM      3  C   UNL     1       8.944 -17.485   6.875  1.00  0.00     0.336 A 
ATOM      4  O   UNL     1       7.922 -18.119   6.505  1.00  0.00    -0.246 OA
ATOM      5  O   UNL     1      10.142 -18.057   6.784  1.00  0.00    -0.423 OA
ATOM      6  C   UNL     1      11.261 -17.440   7.158  1.00  0.00     0.142 A 
ATOM      7  C   UNL     1      12.492 -18.090   7.039  1.00  0.00     0.098 A 
ATOM      8  C   UNL     1      13.673 -17.448   7.431  1.00  0.00     0.161 A 
ATOM      9  C   UNL     1      13.623 -16.141   7.948  1.00  0.00     0.158 A 
ATOM     10  C   UNL     1      12.389 -15.483   8.071  1.00  0.00     0.062 A 
ATOM     11  C   UNL     1      11.208 -16.128   7.677  1.00  0.00     0.022 A 
ENDROOT
BRANCH   9  12
ATOM     12  O   UNL     1      14.797 -15.500   8.339  1.00  0.00    -0.504 OA
ATOM     13  H   UNL     1      15.513 -15.247   7.667  1.00  0.00     0.293 HD
ENDBRANCH   9  12
BRANCH   8  14
ATOM     14  O   UNL     1      14.885 -18.124   7.298  1.00  0.00    -0.504 OA
ATOM     15  H   UNL     1      15.165 -18.561   6.427  1.00  0.00     0.293 HD
ENDBRANCH   8  14
TORSDOF 2
ENDMDL
MODEL 6
REMARK VINA RESULT:    -4.615      2.004      5.147
REMARK INTER + INTRA:          -4.885
REMARK INTER:                  -4.885
REMARK INTRA:                   0.000
REMARK UNBOUND:                 0.000
REMARK SMILES O=c1ccc2cc(O)c(O)cc2o1
REMARK SMILES IDX 4 1 3 2 2 3 1 4 13 5 12 6 11 7 9 8 7 9 6 10 5 11 8 12 10 14
REMARK H PARENT 8 13 10 15
REMARK Flexibility Score: inf
ROOT
ATOM      1  C   UNL     1      11.891 -15.552   8.281  1.00  0.00     0.019 A 
ATOM      2  C   UNL     1      13.059 -16.066   7.721  1.00  0.00     0.094 A 
ATOM      3  C   UNL     1      12.975 -17.189   6.890  1.00  0.00     0.336 A 
ATOM      4  O   UNL     1      14.018 -17.670   6.375  1.00  0.00    -0.246 OA
ATOM      5  O   UNL     1      11.797 -17.756   6.641  1.00  0.00    -0.423 OA
ATOM      6  C   UNL     1      10.659 -17.297   7.155  1.00  0.00     0.142 A 
ATOM      7  C   UNL     1       9.450 -17.932   6.858  1.00  0.00     0.098 A 
ATOM      8  C   UNL     1       8.248 -17.456   7.395  1.00  0.00     0.161 A 
ATOM      9  C   UNL     1       8.254 -16.330   8.239  1.00  0.00     0.158 A 
ATOM     10  C   UNL     1       9.465 -15.687   8.540  1.00  0.00     0.062 A 
ATOM     11  C   UNL     1      10.667 -16.167   8.002  1.00  0.00     0.022 A 
ENDROOT
BRANCH   9  12
ATOM     12  O   UNL     1       7.059 -15.854   8.774  1.00  0.00    -0.504 OA
ATOM     13  H   UNL     1       6.225 -15.751   8.206  1.00  0.00     0.293 HD
ENDBRANCH   9  12
BRANCH   8  14
ATOM     14  O   UNL     1       7.060 -18.113   7.079  1.00  0.00    -0.504 OA
ATOM     15  H   UNL     1       7.044 -18.953   6.511  1.00  0.00     0.293 HD
ENDBRANCH   8  14
TORSDOF 2
ENDMDL
MODEL 7
REMARK VINA RESULT:    -4.125      1.253      1.421
REMARK INTER + INTRA:          -4.366
REMARK INTER:                  -4.366
REMARK INTRA:                   0.000
REMARK UNBOUND:                 0.000
REMARK SMILES O=c1ccc2cc(O)c(O)cc2o1
REMARK SMILES IDX 4 1 3 2 2 3 1 4 13 5 12 6 11 7 9 8 7 9 6 10 5 11 8 12 10 14
REMARK H PARENT 8 13 10 15
REMARK Flexibility Score: inf
ROOT
ATOM      1  C   UNL     1      10.037 -17.878   9.037  1.00  0.00     0.019 A 
ATOM      2  C   UNL     1       8.740 -18.122   8.587  1.00  0.00     0.094 A 
ATOM      3  C   UNL     1       8.152 -17.220   7.693  1.00  0.00     0.336 A 
ATOM      4  O   UNL     1       6.982 -17.422   7.275  1.00  0.00    -0.246 OA
ATOM      5  O   UNL     1       8.823 -16.148   7.280  1.00  0.00    -0.423 OA
ATOM      6  C   UNL     1      10.062 -15.878   7.684  1.00  0.00     0.142 A 
ATOM      7  C   UNL     1      10.717 -14.736   7.216  1.00  0.00     0.098 A 
ATOM      8  C   UNL     1      12.020 -14.444   7.636  1.00  0.00     0.161 A 
ATOM      9  C   UNL     1      12.677 -15.305   8.535  1.00  0.00     0.158 A 
ATOM     10  C   UNL     1      12.023 -16.454   9.009  1.00  0.00     0.062 A 
ATOM     11  C   UNL     1      10.718 -16.743   8.586  1.00  0.00     0.022 A 
ENDROOT
BRANCH   9  12
ATOM     12  O   UNL     1      13.974 -15.017   8.955  1.00  0.00    -0.504 OA
ATOM     13  H   UNL     1      14.764 -15.084   8.324  1.00  0.00     0.293 HD
ENDBRANCH   9  12
BRANCH   8  14
ATOM     14  O   UNL     1      12.646 -13.297   7.151  1.00  0.00    -0.504 OA
ATOM     15  H   UNL     1      13.331 -12.785   7.697  1.00  0.00     0.293 HD
ENDBRANCH   8  14
TORSDOF 2
ENDMDL
MODEL 8
REMARK VINA RESULT:    -2.440      1.097      5.034
REMARK INTER + INTRA:          -2.583
REMARK INTER:                  -2.583
REMARK INTRA:                   0.000
REMARK UNBOUND:                 0.000
REMARK SMILES O=c1ccc2cc(O)c(O)cc2o1
REMARK SMILES IDX 4 1 3 2 2 3 1 4 13 5 12 6 11 7 9 8 7 9 6 10 5 11 8 12 10 14
REMARK H PARENT 8 13 10 15
REMARK Flexibility Score: inf
ROOT
ATOM      1  C   UNL     1      12.412 -14.259   7.217  1.00  0.00     0.019 A 
ATOM      2  C   UNL     1      13.737 -14.484   7.586  1.00  0.00     0.094 A 
ATOM      3  C   UNL     1      14.057 -15.655   8.282  1.00  0.00     0.336 A 
ATOM      4  O   UNL     1      15.248 -15.878   8.624  1.00  0.00    -0.246 OA
ATOM      5  O   UNL     1      13.109 -16.539   8.585  1.00  0.00    -0.423 OA
ATOM      6  C   UNL     1      11.833 -16.362   8.252  1.00  0.00     0.142 A 
ATOM      7  C   UNL     1      10.880 -17.324   8.598  1.00  0.00     0.098 A 
ATOM      8  C   UNL     1       9.535 -17.146   8.251  1.00  0.00     0.161 A 
ATOM      9  C   UNL     1       9.138 -15.993   7.551  1.00  0.00     0.158 A 
ATOM     10  C   UNL     1      10.091 -15.023   7.200  1.00  0.00     0.062 A 
ATOM     11  C   UNL     1      11.437 -15.204   7.549  1.00  0.00     0.022 A 
ENDROOT
BRANCH   9  12
ATOM     12  O   UNL     1       7.800 -15.814   7.205  1.00  0.00    -0.504 OA
ATOM     13  H   UNL     1       7.150 -16.592   7.173  1.00  0.00     0.293 HD
ENDBRANCH   9  12
BRANCH   8  14
ATOM     14  O   UNL     1       8.610 -18.125   8.612  1.00  0.00    -0.504 OA
ATOM     15  H   UNL     1       7.756 -18.278   8.087  1.00  0.00     0.293 HD
ENDBRANCH   8  14
TORSDOF 2
ENDMDL
