MODEL 1
REMARK VINA RESULT:    -6.419      0.000      0.000
REMARK INTER + INTRA:          -7.819
REMARK INTER:                  -7.545
REMARK INTRA:                  -0.274
REMARK UNBOUND:                -0.274
REMARK SMILES O=c1c(O)c(-c2ccc(O)cc2)oc2cc(O)cc(O)c12
REMARK SMILES IDX 5 1 3 2 2 3 1 4 21 5 19 6 18 7 16 8 15 9 14 10 13 11 6 12
REMARK SMILES IDX 7 13 8 14 9 15 12 16 11 17 10 18 4 20 20 22 17 24
REMARK H PARENT 10 19 4 21 20 23 17 25
REMARK Flexibility Score: inf
ROOT
ATOM      1  C   UNL     1       6.732  52.842  21.241  1.00  0.00     0.180 A 
ATOM      2  C   UNL     1       6.440  52.163  20.045  1.00  0.00     0.208 A 
ATOM      3  C   UNL     1       5.445  52.674  19.197  1.00  0.00     0.238 A 
ATOM      4  O   UNL     1       5.242  52.104  18.093  1.00  0.00    -0.285 OA
ATOM      5  C   UNL     1       4.714  53.826  19.580  1.00  0.00     0.111 A 
ATOM      6  C   UNL     1       3.654  54.405  18.820  1.00  0.00     0.134 A 
ATOM      7  C   UNL     1       3.073  55.606  19.247  1.00  0.00     0.093 A 
ATOM      8  C   UNL     1       3.472  56.215  20.439  1.00  0.00     0.123 A 
ATOM      9  C   UNL     1       4.467  55.628  21.216  1.00  0.00     0.094 A 
ATOM     10  C   UNL     1       5.092  54.450  20.798  1.00  0.00     0.146 A 
ATOM     11  O   UNL     1       6.051  53.938  21.558  1.00  0.00    -0.452 OA
ENDROOT
BRANCH   1  12
ATOM     12  C   UNL     1       7.776  52.373  22.179  1.00  0.00     0.021 A 
ATOM     13  C   UNL     1       9.139  52.638  21.951  1.00  0.00     0.016 A 
ATOM     14  C   UNL     1      10.105  52.205  22.865  1.00  0.00     0.047 A 
ATOM     15  C   UNL     1       9.721  51.518  24.024  1.00  0.00     0.115 A 
ATOM     16  C   UNL     1       7.398  51.702  23.354  1.00  0.00     0.016 A 
ATOM     17  C   UNL     1       8.367  51.271  24.266  1.00  0.00     0.047 A 
BRANCH  15  18
ATOM     18  O   UNL     1      10.675  51.083  24.941  1.00  0.00    -0.508 OA
ATOM     19  H   UNL     1      10.540  50.236  25.482  1.00  0.00     0.293 HD
ENDBRANCH  15  18
ENDBRANCH   1  12
BRANCH   2  20
ATOM     20  O   UNL     1       7.119  50.986  19.721  1.00  0.00    -0.502 OA
ATOM     21  H   UNL     1       7.967  50.698  20.196  1.00  0.00     0.293 HD
ENDBRANCH   2  20
BRANCH   6  22
ATOM     22  O   UNL     1       3.117  53.834  17.661  1.00  0.00    -0.507 OA
ATOM     23  H   UNL     1       2.811  52.877  17.577  1.00  0.00     0.293 HD
ENDBRANCH   6  22
BRANCH   8  24
ATOM     24  O   UNL     1       2.877  57.400  20.865  1.00  0.00    -0.508 OA
ATOM     25  H   UNL     1       2.642  58.140  20.213  1.00  0.00     0.293 HD
ENDBRANCH   8  24
TORSDOF 5
ENDMDL
MODEL 2
REMARK VINA RESULT:    -6.272      3.071      7.522
REMARK INTER + INTRA:          -7.645
REMARK INTER:                  -7.411
REMARK INTRA:                  -0.234
REMARK UNBOUND:                -0.274
REMARK SMILES O=c1c(O)c(-c2ccc(O)cc2)oc2cc(O)cc(O)c12
REMARK SMILES IDX 5 1 3 2 2 3 1 4 21 5 19 6 18 7 16 8 15 9 14 10 13 11 6 12
REMARK SMILES IDX 7 13 8 14 9 15 12 16 11 17 10 18 4 20 20 22 17 24
REMARK H PARENT 10 19 4 21 20 23 17 25
REMARK Flexibility Score: inf
ROOT
ATOM      1  C   UNL     1       9.260  52.725  20.261  1.00  0.00     0.180 A 
ATOM      2  C   UNL     1      10.132  53.322  19.334  1.00  0.00     0.208 A 
ATOM      3  C   UNL     1      11.517  53.193  19.521  1.00  0.00     0.238 A 
ATOM      4  O   UNL     1      12.291  53.664  18.648  1.00  0.00    -0.285 OA
ATOM      5  C   UNL     1      12.015  52.518  20.663  1.00  0.00     0.111 A 
ATOM      6  C   UNL     1      13.399  52.366  20.978  1.00  0.00     0.134 A 
ATOM      7  C   UNL     1      13.776  51.587  22.079  1.00  0.00     0.093 A 
ATOM      8  C   UNL     1      12.817  51.008  22.914  1.00  0.00     0.123 A 
ATOM      9  C   UNL     1      11.464  51.197  22.647  1.00  0.00     0.094 A 
ATOM     10  C   UNL     1      11.056  51.936  21.534  1.00  0.00     0.146 A 
ATOM     11  O   UNL     1       9.756  52.072  21.305  1.00  0.00    -0.452 OA
ENDROOT
BRANCH   1  12
ATOM     12  C   UNL     1       7.788  52.806  20.124  1.00  0.00     0.021 A 
ATOM     13  C   UNL     1       7.100  52.050  19.157  1.00  0.00     0.016 A 
ATOM     14  C   UNL     1       5.706  52.124  19.063  1.00  0.00     0.047 A 
ATOM     15  C   UNL     1       4.984  52.942  19.942  1.00  0.00     0.115 A 
ATOM     16  C   UNL     1       7.053  53.606  21.014  1.00  0.00     0.016 A 
ATOM     17  C   UNL     1       5.660  53.679  20.918  1.00  0.00     0.047 A 
BRANCH  15  18
ATOM     18  O   UNL     1       3.595  53.024  19.857  1.00  0.00    -0.508 OA
ATOM     19  H   UNL     1       3.141  53.726  19.284  1.00  0.00     0.293 HD
ENDBRANCH  15  18
ENDBRANCH   1  12
BRANCH   2  20
ATOM     20  O   UNL     1       9.622  54.048  18.255  1.00  0.00    -0.502 OA
ATOM     21  H   UNL     1       9.985  54.956  17.990  1.00  0.00     0.293 HD
ENDBRANCH   2  20
BRANCH   6  22
ATOM     22  O   UNL     1      14.436  52.975  20.264  1.00  0.00    -0.507 OA
ATOM     23  H   UNL     1      14.362  53.851  19.772  1.00  0.00     0.293 HD
ENDBRANCH   6  22
BRANCH   8  24
ATOM     24  O   UNL     1      13.201  50.249  24.017  1.00  0.00    -0.508 OA
ATOM     25  H   UNL     1      13.669  50.668  24.813  1.00  0.00     0.293 HD
ENDBRANCH   8  24
TORSDOF 5
ENDMDL
MODEL 3
REMARK VINA RESULT:    -6.137      2.089      7.544
REMARK INTER + INTRA:          -7.487
REMARK INTER:                  -7.386
REMARK INTRA:                  -0.101
REMARK UNBOUND:                -0.274
REMARK SMILES O=c1c(O)c(-c2ccc(O)cc2)oc2cc(O)cc(O)c12
REMARK SMILES IDX 5 1 3 2 2 3 1 4 21 5 19 6 18 7 16 8 15 9 14 10 13 11 6 12
REMARK SMILES IDX 7 13 8 14 9 15 12 16 11 17 10 18 4 20 20 22 17 24
REMARK H PARENT 10 19 4 21 20 23 17 25
REMARK Flexibility Score: inf
ROOT
ATOM      1  C   UNL     1       8.359  52.329  21.610  1.00  0.00     0.180 A 
ATOM      2  C   UNL     1       8.245  52.146  22.999  1.00  0.00     0.208 A 
ATOM      3  C   UNL     1       9.408  51.924  23.754  1.00  0.00     0.238 A 
ATOM      4  O   UNL     1       9.308  51.836  25.005  1.00  0.00    -0.285 OA
ATOM      5  C   UNL     1      10.664  51.832  23.104  1.00  0.00     0.111 A 
ATOM      6  C   UNL     1      11.902  51.565  23.764  1.00  0.00     0.134 A 
ATOM      7  C   UNL     1      13.096  51.601  23.033  1.00  0.00     0.093 A 
ATOM      8  C   UNL     1      13.091  51.832  21.656  1.00  0.00     0.123 A 
ATOM      9  C   UNL     1      11.884  52.038  20.994  1.00  0.00     0.094 A 
ATOM     10  C   UNL     1      10.679  52.046  21.701  1.00  0.00     0.146 A 
ATOM     11  O   UNL     1       9.554  52.269  21.033  1.00  0.00    -0.452 OA
ENDROOT
BRANCH   1  12
ATOM     12  C   UNL     1       7.181  52.581  20.749  1.00  0.00     0.021 A 
ATOM     13  C   UNL     1       6.351  53.699  20.952  1.00  0.00     0.016 A 
ATOM     14  C   UNL     1       5.258  53.929  20.110  1.00  0.00     0.047 A 
ATOM     15  C   UNL     1       4.991  53.056  19.048  1.00  0.00     0.115 A 
ATOM     16  C   UNL     1       6.918  51.723  19.668  1.00  0.00     0.016 A 
ATOM     17  C   UNL     1       5.825  51.955  18.829  1.00  0.00     0.047 A 
BRANCH  15  18
ATOM     18  O   UNL     1       3.905  53.275  18.203  1.00  0.00    -0.508 OA
ATOM     19  H   UNL     1       3.749  54.176  17.765  1.00  0.00     0.293 HD
ENDBRANCH  15  18
ENDBRANCH   1  12
BRANCH   2  20
ATOM     20  O   UNL     1       6.990  52.165  23.611  1.00  0.00    -0.502 OA
ATOM     21  H   UNL     1       6.698  51.459  24.276  1.00  0.00     0.293 HD
ENDBRANCH   2  20
BRANCH   6  22
ATOM     22  O   UNL     1      12.013  51.235  25.119  1.00  0.00    -0.507 OA
ATOM     23  H   UNL     1      12.712  50.623  25.509  1.00  0.00     0.293 HD
ENDBRANCH   6  22
BRANCH   8  24
ATOM     24  O   UNL     1      14.282  51.850  20.933  1.00  0.00    -0.508 OA
ATOM     25  H   UNL     1      15.081  51.292  21.214  1.00  0.00     0.293 HD
ENDBRANCH   8  24
TORSDOF 5
ENDMDL
MODEL 4
REMARK VINA RESULT:    -5.777      5.051      8.885
REMARK INTER + INTRA:          -7.064
REMARK INTER:                  -6.785
REMARK INTRA:                  -0.279
REMARK UNBOUND:                -0.274
REMARK SMILES O=c1c(O)c(-c2ccc(O)cc2)oc2cc(O)cc(O)c12
REMARK SMILES IDX 5 1 3 2 2 3 1 4 21 5 19 6 18 7 16 8 15 9 14 10 13 11 6 12
REMARK SMILES IDX 7 13 8 14 9 15 12 16 11 17 10 18 4 20 20 22 17 24
REMARK H PARENT 10 19 4 21 20 23 17 25
REMARK Flexibility Score: inf
ROOT
ATOM      1  C   UNL     1      11.988  51.553  22.692  1.00  0.00     0.180 A 
ATOM      2  C   UNL     1      12.344  51.220  21.374  1.00  0.00     0.208 A 
ATOM      3  C   UNL     1      13.667  51.432  20.952  1.00  0.00     0.238 A 
ATOM      4  O   UNL     1      13.997  51.063  19.795  1.00  0.00    -0.285 OA
ATOM      5  C   UNL     1      14.603  52.025  21.835  1.00  0.00     0.111 A 
ATOM      6  C   UNL     1      15.957  52.327  21.500  1.00  0.00     0.134 A 
ATOM      7  C   UNL     1      16.821  52.816  22.488  1.00  0.00     0.093 A 
ATOM      8  C   UNL     1      16.363  53.074  23.782  1.00  0.00     0.123 A 
ATOM      9  C   UNL     1      15.030  52.835  24.104  1.00  0.00     0.094 A 
ATOM     10  C   UNL     1      14.153  52.311  23.151  1.00  0.00     0.146 A 
ATOM     11  O   UNL     1      12.896  52.078  23.507  1.00  0.00    -0.452 OA
ENDROOT
BRANCH   1  12
ATOM     12  C   UNL     1      10.618  51.346  23.215  1.00  0.00     0.021 A 
ATOM     13  C   UNL     1      10.292  50.219  23.991  1.00  0.00     0.016 A 
ATOM     14  C   UNL     1       8.997  50.058  24.493  1.00  0.00     0.047 A 
ATOM     15  C   UNL     1       8.018  51.028  24.240  1.00  0.00     0.115 A 
ATOM     16  C   UNL     1       9.636  52.324  22.984  1.00  0.00     0.016 A 
ATOM     17  C   UNL     1       8.342  52.160  23.487  1.00  0.00     0.047 A 
BRANCH  15  18
ATOM     18  O   UNL     1       6.724  50.878  24.735  1.00  0.00    -0.508 OA
ATOM     19  H   UNL     1       5.942  51.383  24.334  1.00  0.00     0.293 HD
ENDBRANCH  15  18
ENDBRANCH   1  12
BRANCH   2  20
ATOM     20  O   UNL     1      11.388  50.707  20.495  1.00  0.00    -0.502 OA
ATOM     21  H   UNL     1      11.079  51.211  19.672  1.00  0.00     0.293 HD
ENDBRANCH   2  20
BRANCH   6  22
ATOM     22  O   UNL     1      16.495  52.192  20.216  1.00  0.00    -0.507 OA
ATOM     23  H   UNL     1      16.851  52.950  19.656  1.00  0.00     0.293 HD
ENDBRANCH   6  22
BRANCH   8  24
ATOM     24  O   UNL     1      17.225  53.577  24.754  1.00  0.00    -0.508 OA
ATOM     25  H   UNL     1      18.187  53.814  24.539  1.00  0.00     0.293 HD
ENDBRANCH   8  24
TORSDOF 5
ENDMDL
MODEL 5
REMARK VINA RESULT:    -5.757      3.662      6.567
REMARK INTER + INTRA:          -7.040
REMARK INTER:                  -6.759
REMARK INTRA:                  -0.281
REMARK UNBOUND:                -0.274
REMARK SMILES O=c1c(O)c(-c2ccc(O)cc2)oc2cc(O)cc(O)c12
REMARK SMILES IDX 5 1 3 2 2 3 1 4 21 5 19 6 18 7 16 8 15 9 14 10 13 11 6 12
REMARK SMILES IDX 7 13 8 14 9 15 12 16 11 17 10 18 4 20 20 22 17 24
REMARK H PARENT 10 19 4 21 20 23 17 25
REMARK Flexibility Score: inf
ROOT
ATOM      1  C   UNL     1      12.237  51.576  22.461  1.00  0.00     0.180 A 
ATOM      2  C   UNL     1      11.719  50.661  23.394  1.00  0.00     0.208 A 
ATOM      3  C   UNL     1      10.330  50.603  23.592  1.00  0.00     0.238 A 
ATOM      4  O   UNL     1       9.868  49.731  24.372  1.00  0.00    -0.285 OA
ATOM      5  C   UNL     1       9.481  51.498  22.896  1.00  0.00     0.111 A 
ATOM      6  C   UNL     1       8.063  51.558  23.051  1.00  0.00     0.134 A 
ATOM      7  C   UNL     1       7.313  52.412  22.231  1.00  0.00     0.093 A 
ATOM      8  C   UNL     1       7.937  53.253  21.307  1.00  0.00     0.123 A 
ATOM      9  C   UNL     1       9.324  53.242  21.187  1.00  0.00     0.094 A 
ATOM     10  C   UNL     1      10.096  52.374  21.963  1.00  0.00     0.146 A 
ATOM     11  O   UNL     1      11.413  52.380  21.800  1.00  0.00    -0.452 OA
ENDROOT
BRANCH   1  12
ATOM     12  C   UNL     1      13.688  51.686  22.188  1.00  0.00     0.021 A 
ATOM     13  C   UNL     1      14.277  51.045  21.083  1.00  0.00     0.016 A 
ATOM     14  C   UNL     1      15.646  51.184  20.832  1.00  0.00     0.047 A 
ATOM     15  C   UNL     1      16.438  51.978  21.672  1.00  0.00     0.115 A 
ATOM     16  C   UNL     1      14.487  52.498  23.012  1.00  0.00     0.016 A 
ATOM     17  C   UNL     1      15.855  52.635  22.759  1.00  0.00     0.047 A 
BRANCH  15  18
ATOM     18  O   UNL     1      17.803  52.124  21.432  1.00  0.00    -0.508 OA
ATOM     19  H   UNL     1      18.216  51.852  20.547  1.00  0.00     0.293 HD
ENDBRANCH  15  18
ENDBRANCH   1  12
BRANCH   2  20
ATOM     20  O   UNL     1      12.579  49.840  24.127  1.00  0.00    -0.502 OA
ATOM     21  H   UNL     1      12.739  49.966  25.119  1.00  0.00     0.293 HD
ENDBRANCH   2  20
BRANCH   6  22
ATOM     22  O   UNL     1       7.347  50.827  24.004  1.00  0.00    -0.507 OA
ATOM     23  H   UNL     1       6.871  49.956  23.827  1.00  0.00     0.293 HD
ENDBRANCH   6  22
BRANCH   8  24
ATOM     24  O   UNL     1       7.185  54.112  20.507  1.00  0.00    -0.508 OA
ATOM     25  H   UNL     1       6.993  53.898  19.535  1.00  0.00     0.293 HD
ENDBRANCH   8  24
TORSDOF 5
ENDMDL
MODEL 6
REMARK VINA RESULT:    -5.667      3.750      7.370
REMARK INTER + INTRA:          -6.934
REMARK INTER:                  -6.676
REMARK INTRA:                  -0.258
REMARK UNBOUND:                -0.274
REMARK SMILES O=c1c(O)c(-c2ccc(O)cc2)oc2cc(O)cc(O)c12
REMARK SMILES IDX 5 1 3 2 2 3 1 4 21 5 19 6 18 7 16 8 15 9 14 10 13 11 6 12
REMARK SMILES IDX 7 13 8 14 9 15 12 16 11 17 10 18 4 20 20 22 17 24
REMARK H PARENT 10 19 4 21 20 23 17 25
REMARK Flexibility Score: inf
ROOT
ATOM      1  C   UNL     1       9.329  52.828  20.223  1.00  0.00     0.180 A 
ATOM      2  C   UNL     1      10.032  52.128  21.219  1.00  0.00     0.208 A 
ATOM      3  C   UNL     1      11.436  52.163  21.215  1.00  0.00     0.238 A 
ATOM      4  O   UNL     1      12.056  51.597  22.152  1.00  0.00    -0.285 OA
ATOM      5  C   UNL     1      12.121  52.851  20.183  1.00  0.00     0.111 A 
ATOM      6  C   UNL     1      13.541  52.915  20.054  1.00  0.00     0.134 A 
ATOM      7  C   UNL     1      14.109  53.713  19.053  1.00  0.00     0.093 A 
ATOM      8  C   UNL     1      13.307  54.398  18.137  1.00  0.00     0.123 A 
ATOM      9  C   UNL     1      11.921  54.298  18.221  1.00  0.00     0.094 A 
ATOM     10  C   UNL     1      11.324  53.540  19.232  1.00  0.00     0.146 A 
ATOM     11  O   UNL     1       9.999  53.490  19.287  1.00  0.00    -0.452 OA
ENDROOT
BRANCH   1  12
ATOM     12  C   UNL     1       7.850  52.849  20.170  1.00  0.00     0.021 A 
ATOM     13  C   UNL     1       7.097  53.662  21.037  1.00  0.00     0.016 A 
ATOM     14  C   UNL     1       5.701  53.683  20.951  1.00  0.00     0.047 A 
ATOM     15  C   UNL     1       5.043  52.907  19.988  1.00  0.00     0.115 A 
ATOM     16  C   UNL     1       7.183  52.091  19.193  1.00  0.00     0.016 A 
ATOM     17  C   UNL     1       5.787  52.114  19.110  1.00  0.00     0.047 A 
BRANCH  15  18
ATOM     18  O   UNL     1       3.653  52.920  19.893  1.00  0.00    -0.508 OA
ATOM     19  H   UNL     1       3.068  52.989  20.718  1.00  0.00     0.293 HD
ENDBRANCH  15  18
ENDBRANCH   1  12
BRANCH   2  20
ATOM     20  O   UNL     1       9.339  51.392  22.184  1.00  0.00    -0.502 OA
ATOM     21  H   UNL     1       8.857  50.528  21.968  1.00  0.00     0.293 HD
ENDBRANCH   2  20
BRANCH   6  22
ATOM     22  O   UNL     1      14.434  52.200  20.859  1.00  0.00    -0.507 OA
ATOM     23  H   UNL     1      15.377  51.956  20.600  1.00  0.00     0.293 HD
ENDBRANCH   6  22
BRANCH   8  24
ATOM     24  O   UNL     1      13.880  55.177  17.133  1.00  0.00    -0.508 OA
ATOM     25  H   UNL     1      14.702  55.744  17.306  1.00  0.00     0.293 HD
ENDBRANCH   8  24
TORSDOF 5
ENDMDL
MODEL 7
REMARK VINA RESULT:    -5.639      4.468      7.749
REMARK INTER + INTRA:          -6.901
REMARK INTER:                  -6.605
REMARK INTRA:                  -0.296
REMARK UNBOUND:                -0.274
REMARK SMILES O=c1c(O)c(-c2ccc(O)cc2)oc2cc(O)cc(O)c12
REMARK SMILES IDX 5 1 3 2 2 3 1 4 21 5 19 6 18 7 16 8 15 9 14 10 13 11 6 12
REMARK SMILES IDX 7 13 8 14 9 15 12 16 11 17 10 18 4 20 20 22 17 24
REMARK H PARENT 10 19 4 21 20 23 17 25
REMARK Flexibility Score: inf
ROOT
ATOM      1  C   UNL     1      11.158  52.559  20.220  1.00  0.00     0.180 A 
ATOM      2  C   UNL     1       9.921  53.103  20.604  1.00  0.00     0.208 A 
ATOM      3  C   UNL     1       9.353  52.709  21.826  1.00  0.00     0.238 A 
ATOM      4  O   UNL     1       8.283  53.256  22.199  1.00  0.00    -0.285 OA
ATOM      5  C   UNL     1      10.002  51.735  22.624  1.00  0.00     0.111 A 
ATOM      6  C   UNL     1       9.496  51.228  23.859  1.00  0.00     0.134 A 
ATOM      7  C   UNL     1      10.276  50.342  24.614  1.00  0.00     0.093 A 
ATOM      8  C   UNL     1      11.515  49.897  24.148  1.00  0.00     0.123 A 
ATOM      9  C   UNL     1      11.992  50.342  22.918  1.00  0.00     0.094 A 
ATOM     10  C   UNL     1      11.255  51.255  22.159  1.00  0.00     0.146 A 
ATOM     11  O   UNL     1      11.758  51.670  21.004  1.00  0.00    -0.452 OA
ENDROOT
BRANCH   1  12
ATOM     12  C   UNL     1      11.826  52.935  18.953  1.00  0.00     0.021 A 
ATOM     13  C   UNL     1      12.749  53.996  18.898  1.00  0.00     0.016 A 
ATOM     14  C   UNL     1      13.385  54.316  17.694  1.00  0.00     0.047 A 
ATOM     15  C   UNL     1      13.119  53.572  16.537  1.00  0.00     0.115 A 
ATOM     16  C   UNL     1      11.582  52.181  17.793  1.00  0.00     0.016 A 
ATOM     17  C   UNL     1      12.219  52.504  16.591  1.00  0.00     0.047 A 
BRANCH  15  18
ATOM     18  O   UNL     1      13.747  53.883  15.333  1.00  0.00    -0.508 OA
ATOM     19  H   UNL     1      14.119  54.808  15.154  1.00  0.00     0.293 HD
ENDBRANCH  15  18
ENDBRANCH   1  12
BRANCH   2  20
ATOM     20  O   UNL     1       9.259  54.006  19.768  1.00  0.00    -0.502 OA
ATOM     21  H   UNL     1       9.621  54.272  18.859  1.00  0.00     0.293 HD
ENDBRANCH   2  20
BRANCH   6  22
ATOM     22  O   UNL     1       8.233  51.537  24.375  1.00  0.00    -0.507 OA
ATOM     23  H   UNL     1       7.556  52.132  23.924  1.00  0.00     0.293 HD
ENDBRANCH   6  22
BRANCH   8  24
ATOM     24  O   UNL     1      12.277  49.003  24.897  1.00  0.00    -0.508 OA
ATOM     25  H   UNL     1      11.853  48.213  25.372  1.00  0.00     0.293 HD
ENDBRANCH   8  24
TORSDOF 5
ENDMDL
MODEL 8
REMARK VINA RESULT:    -5.636      3.204      4.465
REMARK INTER + INTRA:          -6.898
REMARK INTER:                  -6.600
REMARK INTRA:                  -0.299
REMARK UNBOUND:                -0.274
REMARK SMILES O=c1c(O)c(-c2ccc(O)cc2)oc2cc(O)cc(O)c12
REMARK SMILES IDX 5 1 3 2 2 3 1 4 21 5 19 6 18 7 16 8 15 9 14 10 13 11 6 12
REMARK SMILES IDX 7 13 8 14 9 15 12 16 11 17 10 18 4 20 20 22 17 24
REMARK H PARENT 10 19 4 21 20 23 17 25
REMARK Flexibility Score: inf
ROOT
ATOM      1  C   UNL     1       8.656  52.772  19.159  1.00  0.00     0.180 A 
ATOM      2  C   UNL     1       8.006  52.803  20.404  1.00  0.00     0.208 A 
ATOM      3  C   UNL     1       6.605  52.905  20.439  1.00  0.00     0.238 A 
ATOM      4  O   UNL     1       6.024  52.856  21.554  1.00  0.00    -0.285 OA
ATOM      5  C   UNL     1       5.878  53.032  19.230  1.00  0.00     0.111 A 
ATOM      6  C   UNL     1       4.460  53.187  19.148  1.00  0.00     0.134 A 
ATOM      7  C   UNL     1       3.838  53.197  17.893  1.00  0.00     0.093 A 
ATOM      8  C   UNL     1       4.587  53.121  16.717  1.00  0.00     0.123 A 
ATOM      9  C   UNL     1       5.975  53.026  16.786  1.00  0.00     0.094 A 
ATOM     10  C   UNL     1       6.622  52.975  18.023  1.00  0.00     0.146 A 
ATOM     11  O   UNL     1       7.944  52.861  18.042  1.00  0.00    -0.452 OA
ENDROOT
BRANCH   1  12
ATOM     12  C   UNL     1      10.127  52.652  19.041  1.00  0.00     0.021 A 
ATOM     13  C   UNL     1      10.759  51.396  19.005  1.00  0.00     0.016 A 
ATOM     14  C   UNL     1      12.149  51.308  18.868  1.00  0.00     0.047 A 
ATOM     15  C   UNL     1      12.920  52.472  18.750  1.00  0.00     0.115 A 
ATOM     16  C   UNL     1      10.906  53.813  18.901  1.00  0.00     0.016 A 
ATOM     17  C   UNL     1      12.295  53.722  18.765  1.00  0.00     0.047 A 
BRANCH  15  18
ATOM     18  O   UNL     1      14.304  52.396  18.614  1.00  0.00    -0.508 OA
ATOM     19  H   UNL     1      14.737  52.177  17.724  1.00  0.00     0.293 HD
ENDBRANCH  15  18
ENDBRANCH   1  12
BRANCH   2  20
ATOM     20  O   UNL     1       8.747  52.753  21.587  1.00  0.00    -0.502 OA
ATOM     21  H   UNL     1       8.958  51.883  22.061  1.00  0.00     0.293 HD
ENDBRANCH   2  20
BRANCH   6  22
ATOM     22  O   UNL     1       3.625  53.360  20.256  1.00  0.00    -0.507 OA
ATOM     23  H   UNL     1       3.472  52.673  20.977  1.00  0.00     0.293 HD
ENDBRANCH   6  22
BRANCH   8  24
ATOM     24  O   UNL     1       3.962  53.149  15.472  1.00  0.00    -0.508 OA
ATOM     25  H   UNL     1       2.993  53.429  15.372  1.00  0.00     0.293 HD
ENDBRANCH   8  24
TORSDOF 5
ENDMDL
MODEL 9
REMARK VINA RESULT:    -5.348      3.903      6.095
REMARK INTER + INTRA:          -6.559
REMARK INTER:                  -6.451
REMARK INTRA:                  -0.108
REMARK UNBOUND:                -0.274
REMARK SMILES O=c1c(O)c(-c2ccc(O)cc2)oc2cc(O)cc(O)c12
REMARK SMILES IDX 5 1 3 2 2 3 1 4 21 5 19 6 18 7 16 8 15 9 14 10 13 11 6 12
REMARK SMILES IDX 7 13 8 14 9 15 12 16 11 17 10 18 4 20 20 22 17 24
REMARK H PARENT 10 19 4 21 20 23 17 25
REMARK Flexibility Score: inf
ROOT
ATOM      1  C   UNL     1      12.217  52.181  21.536  1.00  0.00     0.180 A 
ATOM      2  C   UNL     1      11.817  52.797  20.338  1.00  0.00     0.208 A 
ATOM      3  C   UNL     1      10.455  53.071  20.134  1.00  0.00     0.238 A 
ATOM      4  O   UNL     1      10.113  53.690  19.094  1.00  0.00    -0.285 OA
ATOM      5  C   UNL     1       9.503  52.675  21.106  1.00  0.00     0.111 A 
ATOM      6  C   UNL     1       8.093  52.861  20.984  1.00  0.00     0.134 A 
ATOM      7  C   UNL     1       7.256  52.525  22.056  1.00  0.00     0.093 A 
ATOM      8  C   UNL     1       7.773  51.951  23.220  1.00  0.00     0.123 A 
ATOM      9  C   UNL     1       9.140  51.714  23.326  1.00  0.00     0.094 A 
ATOM     10  C   UNL     1      10.005  52.074  22.290  1.00  0.00     0.146 A 
ATOM     11  O   UNL     1      11.305  51.850  22.443  1.00  0.00    -0.452 OA
ENDROOT
BRANCH   1  12
ATOM     12  C   UNL     1      13.635  51.874  21.829  1.00  0.00     0.021 A 
ATOM     13  C   UNL     1      14.373  50.985  21.026  1.00  0.00     0.016 A 
ATOM     14  C   UNL     1      15.719  50.729  21.309  1.00  0.00     0.047 A 
ATOM     15  C   UNL     1      16.346  51.369  22.386  1.00  0.00     0.115 A 
ATOM     16  C   UNL     1      14.278  52.527  22.894  1.00  0.00     0.016 A 
ATOM     17  C   UNL     1      15.624  52.269  23.174  1.00  0.00     0.047 A 
BRANCH  15  18
ATOM     18  O   UNL     1      17.686  51.121  22.677  1.00  0.00    -0.508 OA
ATOM     19  H   UNL     1      17.958  50.530  23.454  1.00  0.00     0.293 HD
ENDBRANCH  15  18
ENDBRANCH   1  12
BRANCH   2  20
ATOM     20  O   UNL     1      12.762  53.112  19.359  1.00  0.00    -0.502 OA
ATOM     21  H   UNL     1      12.515  53.578  18.494  1.00  0.00     0.293 HD
ENDBRANCH   2  20
BRANCH   6  22
ATOM     22  O   UNL     1       7.462  53.344  19.833  1.00  0.00    -0.507 OA
ATOM     23  H   UNL     1       6.960  54.215  19.772  1.00  0.00     0.293 HD
ENDBRANCH   6  22
BRANCH   8  24
ATOM     24  O   UNL     1       6.931  51.603  24.275  1.00  0.00    -0.508 OA
ATOM     25  H   UNL     1       7.296  51.400  25.199  1.00  0.00     0.293 HD
ENDBRANCH   8  24
TORSDOF 5
ENDMDL
