MODEL 1
REMARK VINA RESULT:    -3.786      0.000      0.000
REMARK INTER + INTRA:         -13.743
REMARK INTER:                  -9.982
REMARK INTRA:                  -3.761
REMARK UNBOUND:                -3.761
REMARK SMILES CCCCCCCCCCCCCCCCCCCCCCCCCCCCCC(=O)[O-]
REMARK SMILES IDX 16 1 17 2 18 3 19 4 20 5 21 6 22 7 23 8 24 9 25 10 26 11
REMARK SMILES IDX 27 12 28 13 29 14 30 15 31 16 32 17 15 18 14 19 13 20 12 21
REMARK SMILES IDX 11 22 10 23 9 24 8 25 7 26 6 27 5 28 4 29 3 30 2 31 1 32
REMARK H PARENT
REMARK Flexibility Score: inf
ROOT
ATOM      1  C   UNL     1      60.107  26.075  49.976  1.00  0.00     0.000 C 
ENDROOT
BRANCH   1   2
ATOM      2  C   UNL     1      59.139  27.076  49.308  1.00  0.00     0.000 C 
BRANCH   2   3
ATOM      3  C   UNL     1      59.719  28.477  49.034  1.00  0.00     0.000 C 
BRANCH   3   4
ATOM      4  C   UNL     1      58.733  29.612  49.363  1.00  0.00     0.000 C 
BRANCH   4   5
ATOM      5  C   UNL     1      57.578  29.156  50.275  1.00  0.00     0.000 C 
BRANCH   5   6
ATOM      6  C   UNL     1      57.721  29.558  51.753  1.00  0.00     0.000 C 
BRANCH   6   7
ATOM      7  C   UNL     1      58.816  30.612  51.982  1.00  0.00     0.000 C 
BRANCH   7   8
ATOM      8  C   UNL     1      59.940  30.115  52.910  1.00  0.00     0.000 C 
BRANCH   8   9
ATOM      9  C   UNL     1      60.340  28.639  52.721  1.00  0.00     0.000 C 
BRANCH   9  10
ATOM     10  C   UNL     1      61.780  28.470  52.203  1.00  0.00     0.000 C 
BRANCH  10  11
ATOM     11  C   UNL     1      62.307  29.721  51.477  1.00  0.00     0.000 C 
BRANCH  11  12
ATOM     12  C   UNL     1      63.074  29.448  50.169  1.00  0.00     0.000 C 
BRANCH  12  13
ATOM     13  C   UNL     1      63.266  30.709  49.310  1.00  0.00     0.006 C 
BRANCH  13  14
ATOM     14  C   UNL     1      62.269  31.817  49.676  1.00  0.00     0.053 C 
BRANCH  14  15
ATOM     15  C   UNL     1      62.750  33.166  49.238  1.00  0.00     0.041 C 
ATOM     16  O   UNL     1      63.925  33.538  49.503  1.00  0.00    -0.550 OA
ATOM     17  O   UNL     1      61.911  34.001  48.511  1.00  0.00    -0.550 OA
ENDBRANCH  14  15
ENDBRANCH  13  14
ENDBRANCH  12  13
ENDBRANCH  11  12
ENDBRANCH  10  11
ENDBRANCH   9  10
ENDBRANCH   8   9
ENDBRANCH   7   8
ENDBRANCH   6   7
ENDBRANCH   5   6
ENDBRANCH   4   5
ENDBRANCH   3   4
ENDBRANCH   2   3
ENDBRANCH   1   2
BRANCH   1  18
ATOM     18  C   UNL     1      59.484  25.191  51.073  1.00  0.00     0.000 C 
BRANCH  18  19
ATOM     19  C   UNL     1      60.129  23.796  51.151  1.00  0.00     0.000 C 
BRANCH  19  20
ATOM     20  C   UNL     1      61.082  23.525  49.968  1.00  0.00     0.000 C 
BRANCH  20  21
ATOM     21  C   UNL     1      61.427  22.040  49.765  1.00  0.00     0.000 C 
BRANCH  21  22
ATOM     22  C   UNL     1      60.872  21.470  48.450  1.00  0.00     0.000 C 
BRANCH  22  23
ATOM     23  C   UNL     1      60.141  20.125  48.629  1.00  0.00     0.000 C 
BRANCH  23  24
ATOM     24  C   UNL     1      60.841  19.104  49.548  1.00  0.00    -0.000 C 
BRANCH  24  25
ATOM     25  C   UNL     1      60.415  17.651  49.276  1.00  0.00    -0.000 C 
BRANCH  25  26
ATOM     26  C   UNL     1      58.977  17.544  48.746  1.00  0.00    -0.000 C 
BRANCH  26  27
ATOM     27  C   UNL     1      57.949  17.300  49.864  1.00  0.00    -0.000 C 
BRANCH  27  28
ATOM     28  C   UNL     1      57.167  18.573  50.232  1.00  0.00    -0.000 C 
BRANCH  28  29
ATOM     29  C   UNL     1      57.725  19.270  51.487  1.00  0.00    -0.000 C 
BRANCH  29  30
ATOM     30  C   UNL     1      56.621  19.695  52.469  1.00  0.00    -0.000 C 
BRANCH  30  31
ATOM     31  C   UNL     1      56.343  18.631  53.539  1.00  0.00    -0.003 C 
ATOM     32  C   UNL     1      57.643  18.015  54.052  1.00  0.00     0.004 C 
ENDBRANCH  30  31
ENDBRANCH  29  30
ENDBRANCH  28  29
ENDBRANCH  27  28
ENDBRANCH  26  27
ENDBRANCH  25  26
ENDBRANCH  24  25
ENDBRANCH  23  24
ENDBRANCH  22  23
ENDBRANCH  21  22
ENDBRANCH  20  21
ENDBRANCH  19  20
ENDBRANCH  18  19
ENDBRANCH   1  18
TORSDOF 28
ENDMDL
MODEL 2
REMARK VINA RESULT:    -3.726      4.508      9.059
REMARK INTER + INTRA:         -13.586
REMARK INTER:                  -7.884
REMARK INTRA:                  -5.702
REMARK UNBOUND:                -3.761
REMARK SMILES CCCCCCCCCCCCCCCCCCCCCCCCCCCCCC(=O)[O-]
REMARK SMILES IDX 16 1 17 2 18 3 19 4 20 5 21 6 22 7 23 8 24 9 25 10 26 11
REMARK SMILES IDX 27 12 28 13 29 14 30 15 31 16 32 17 15 18 14 19 13 20 12 21
REMARK SMILES IDX 11 22 10 23 9 24 8 25 7 26 6 27 5 28 4 29 3 30 2 31 1 32
REMARK H PARENT
REMARK Flexibility Score: inf
ROOT
ATOM      1  C   UNL     1      54.934  27.383  49.893  1.00  0.00     0.000 C 
ENDROOT
BRANCH   1   2
ATOM      2  C   UNL     1      53.422  27.651  49.732  1.00  0.00     0.000 C 
BRANCH   2   3
ATOM      3  C   UNL     1      52.931  29.015  50.253  1.00  0.00     0.000 C 
BRANCH   3   4
ATOM      4  C   UNL     1      54.048  30.071  50.323  1.00  0.00     0.000 C 
BRANCH   4   5
ATOM      5  C   UNL     1      54.275  30.610  51.748  1.00  0.00     0.000 C 
BRANCH   5   6
ATOM      6  C   UNL     1      54.427  29.530  52.834  1.00  0.00     0.000 C 
BRANCH   6   7
ATOM      7  C   UNL     1      55.889  29.313  53.258  1.00  0.00     0.000 C 
BRANCH   7   8
ATOM      8  C   UNL     1      56.896  29.962  52.291  1.00  0.00     0.000 C 
BRANCH   8   9
ATOM      9  C   UNL     1      57.690  28.976  51.414  1.00  0.00     0.000 C 
BRANCH   9  10
ATOM     10  C   UNL     1      58.142  29.592  50.078  1.00  0.00     0.000 C 
BRANCH  10  11
ATOM     11  C   UNL     1      58.965  28.618  49.215  1.00  0.00     0.000 C 
BRANCH  11  12
ATOM     12  C   UNL     1      58.815  27.129  49.579  1.00  0.00     0.000 C 
BRANCH  12  13
ATOM     13  C   UNL     1      60.164  26.400  49.701  1.00  0.00     0.006 C 
BRANCH  13  14
ATOM     14  C   UNL     1      60.019  25.018  50.351  1.00  0.00     0.053 C 
BRANCH  14  15
ATOM     15  C   UNL     1      61.310  24.258  50.340  1.00  0.00     0.041 C 
ATOM     16  O   UNL     1      62.307  24.691  50.978  1.00  0.00    -0.550 OA
ATOM     17  O   UNL     1      61.403  23.055  49.650  1.00  0.00    -0.550 OA
ENDBRANCH  14  15
ENDBRANCH  13  14
ENDBRANCH  12  13
ENDBRANCH  11  12
ENDBRANCH  10  11
ENDBRANCH   9  10
ENDBRANCH   8   9
ENDBRANCH   7   8
ENDBRANCH   6   7
ENDBRANCH   5   6
ENDBRANCH   4   5
ENDBRANCH   3   4
ENDBRANCH   2   3
ENDBRANCH   1   2
BRANCH   1  18
ATOM     18  C   UNL     1      55.297  26.049  50.573  1.00  0.00     0.000 C 
BRANCH  18  19
ATOM     19  C   UNL     1      54.634  25.883  51.952  1.00  0.00     0.000 C 
BRANCH  19  20
ATOM     20  C   UNL     1      55.664  25.598  53.065  1.00  0.00     0.000 C 
BRANCH  20  21
ATOM     21  C   UNL     1      57.108  25.438  52.560  1.00  0.00     0.000 C 
BRANCH  21  22
ATOM     22  C   UNL     1      58.148  25.488  53.691  1.00  0.00     0.000 C 
BRANCH  22  23
ATOM     23  C   UNL     1      58.792  26.877  53.865  1.00  0.00     0.000 C 
BRANCH  23  24
ATOM     24  C   UNL     1      60.256  26.996  53.396  1.00  0.00    -0.000 C 
BRANCH  24  25
ATOM     25  C   UNL     1      60.777  28.443  53.398  1.00  0.00    -0.000 C 
BRANCH  25  26
ATOM     26  C   UNL     1      61.382  28.859  52.048  1.00  0.00    -0.000 C 
BRANCH  26  27
ATOM     27  C   UNL     1      61.316  30.377  51.810  1.00  0.00    -0.000 C 
BRANCH  27  28
ATOM     28  C   UNL     1      61.795  30.774  50.403  1.00  0.00    -0.000 C 
BRANCH  28  29
ATOM     29  C   UNL     1      62.570  32.105  50.393  1.00  0.00    -0.000 C 
BRANCH  29  30
ATOM     30  C   UNL     1      62.631  32.744  48.996  1.00  0.00    -0.000 C 
BRANCH  30  31
ATOM     31  C   UNL     1      62.125  34.193  48.988  1.00  0.00    -0.003 C 
ATOM     32  C   UNL     1      62.794  35.014  50.088  1.00  0.00     0.004 C 
ENDBRANCH  30  31
ENDBRANCH  29  30
ENDBRANCH  28  29
ENDBRANCH  27  28
ENDBRANCH  26  27
ENDBRANCH  25  26
ENDBRANCH  24  25
ENDBRANCH  23  24
ENDBRANCH  22  23
ENDBRANCH  21  22
ENDBRANCH  20  21
ENDBRANCH  19  20
ENDBRANCH  18  19
ENDBRANCH   1  18
TORSDOF 28
ENDMDL
MODEL 3
REMARK VINA RESULT:    -3.726      3.798     10.324
REMARK INTER + INTRA:         -13.586
REMARK INTER:                  -9.326
REMARK INTRA:                  -4.260
REMARK UNBOUND:                -3.761
REMARK SMILES CCCCCCCCCCCCCCCCCCCCCCCCCCCCCC(=O)[O-]
REMARK SMILES IDX 16 1 17 2 18 3 19 4 20 5 21 6 22 7 23 8 24 9 25 10 26 11
REMARK SMILES IDX 27 12 28 13 29 14 30 15 31 16 32 17 15 18 14 19 13 20 12 21
REMARK SMILES IDX 11 22 10 23 9 24 8 25 7 26 6 27 5 28 4 29 3 30 2 31 1 32
REMARK H PARENT
REMARK Flexibility Score: inf
ROOT
ATOM      1  C   UNL     1      60.100  18.189  53.761  1.00  0.00     0.000 C 
ENDROOT
BRANCH   1   2
ATOM      2  C   UNL     1      58.812  17.339  53.781  1.00  0.00     0.000 C 
BRANCH   2   3
ATOM      3  C   UNL     1      57.891  17.558  54.996  1.00  0.00     0.000 C 
BRANCH   3   4
ATOM      4  C   UNL     1      56.864  18.684  54.778  1.00  0.00     0.000 C 
BRANCH   4   5
ATOM      5  C   UNL     1      56.021  18.486  53.504  1.00  0.00     0.000 C 
BRANCH   5   6
ATOM      6  C   UNL     1      56.043  19.670  52.521  1.00  0.00     0.000 C 
BRANCH   6   7
ATOM      7  C   UNL     1      56.904  19.398  51.277  1.00  0.00     0.000 C 
BRANCH   7   8
ATOM      8  C   UNL     1      56.598  18.038  50.624  1.00  0.00     0.000 C 
BRANCH   8   9
ATOM      9  C   UNL     1      57.810  17.098  50.471  1.00  0.00     0.000 C 
BRANCH   9  10
ATOM     10  C   UNL     1      58.368  17.068  49.037  1.00  0.00     0.000 C 
BRANCH  10  11
ATOM     11  C   UNL     1      59.700  17.828  48.896  1.00  0.00     0.000 C 
BRANCH  11  12
ATOM     12  C   UNL     1      59.599  19.217  48.237  1.00  0.00     0.000 C 
BRANCH  12  13
ATOM     13  C   UNL     1      60.024  20.360  49.173  1.00  0.00     0.006 C 
BRANCH  13  14
ATOM     14  C   UNL     1      61.462  20.825  48.904  1.00  0.00     0.053 C 
BRANCH  14  15
ATOM     15  C   UNL     1      62.398  20.403  49.995  1.00  0.00     0.041 C 
ATOM     16  O   UNL     1      62.796  19.209  50.063  1.00  0.00    -0.550 OA
ATOM     17  O   UNL     1      62.856  21.336  50.917  1.00  0.00    -0.550 OA
ENDBRANCH  14  15
ENDBRANCH  13  14
ENDBRANCH  12  13
ENDBRANCH  11  12
ENDBRANCH  10  11
ENDBRANCH   9  10
ENDBRANCH   8   9
ENDBRANCH   7   8
ENDBRANCH   6   7
ENDBRANCH   5   6
ENDBRANCH   4   5
ENDBRANCH   3   4
ENDBRANCH   2   3
ENDBRANCH   1   2
BRANCH   1  18
ATOM     18  C   UNL     1      60.084  19.383  52.787  1.00  0.00     0.000 C 
BRANCH  18  19
ATOM     19  C   UNL     1      59.697  20.706  53.473  1.00  0.00     0.000 C 
BRANCH  19  20
ATOM     20  C   UNL     1      59.266  21.786  52.458  1.00  0.00     0.000 C 
BRANCH  20  21
ATOM     21  C   UNL     1      60.280  22.931  52.289  1.00  0.00     0.000 C 
BRANCH  21  22
ATOM     22  C   UNL     1      60.155  23.647  50.935  1.00  0.00     0.000 C 
BRANCH  22  23
ATOM     23  C   UNL     1      59.379  24.975  51.018  1.00  0.00     0.000 C 
BRANCH  23  24
ATOM     24  C   UNL     1      60.227  26.224  51.329  1.00  0.00    -0.000 C 
BRANCH  24  25
ATOM     25  C   UNL     1      60.643  27.003  50.070  1.00  0.00    -0.000 C 
BRANCH  25  26
ATOM     26  C   UNL     1      59.440  27.541  49.279  1.00  0.00    -0.000 C 
BRANCH  26  27
ATOM     27  C   UNL     1      59.271  29.064  49.418  1.00  0.00    -0.000 C 
BRANCH  27  28
ATOM     28  C   UNL     1      57.880  29.456  49.941  1.00  0.00    -0.000 C 
BRANCH  28  29
ATOM     29  C   UNL     1      57.217  28.336  50.765  1.00  0.00    -0.000 C 
BRANCH  29  30
ATOM     30  C   UNL     1      55.800  27.999  50.273  1.00  0.00    -0.000 C 
BRANCH  30  31
ATOM     31  C   UNL     1      54.749  29.000  50.772  1.00  0.00    -0.003 C 
ATOM     32  C   UNL     1      53.389  28.734  50.131  1.00  0.00     0.004 C 
ENDBRANCH  30  31
ENDBRANCH  29  30
ENDBRANCH  28  29
ENDBRANCH  27  28
ENDBRANCH  26  27
ENDBRANCH  25  26
ENDBRANCH  24  25
ENDBRANCH  23  24
ENDBRANCH  22  23
ENDBRANCH  21  22
ENDBRANCH  20  21
ENDBRANCH  19  20
ENDBRANCH  18  19
ENDBRANCH   1  18
TORSDOF 28
ENDMDL
MODEL 4
REMARK VINA RESULT:    -3.723      4.510      9.153
REMARK INTER + INTRA:         -13.577
REMARK INTER:                  -7.286
REMARK INTRA:                  -6.291
REMARK UNBOUND:                -3.761
REMARK SMILES CCCCCCCCCCCCCCCCCCCCCCCCCCCCCC(=O)[O-]
REMARK SMILES IDX 16 1 17 2 18 3 19 4 20 5 21 6 22 7 23 8 24 9 25 10 26 11
REMARK SMILES IDX 27 12 28 13 29 14 30 15 31 16 32 17 15 18 14 19 13 20 12 21
REMARK SMILES IDX 11 22 10 23 9 24 8 25 7 26 6 27 5 28 4 29 3 30 2 31 1 32
REMARK H PARENT
REMARK Flexibility Score: inf
ROOT
ATOM      1  C   UNL     1      55.558  27.506  50.806  1.00  0.00     0.000 C 
ENDROOT
BRANCH   1   2
ATOM      2  C   UNL     1      56.940  27.832  50.199  1.00  0.00     0.000 C 
BRANCH   2   3
ATOM      3  C   UNL     1      57.437  29.274  50.419  1.00  0.00     0.000 C 
BRANCH   3   4
ATOM      4  C   UNL     1      58.568  29.674  49.454  1.00  0.00     0.000 C 
BRANCH   4   5
ATOM      5  C   UNL     1      59.391  28.469  48.963  1.00  0.00     0.000 C 
BRANCH   5   6
ATOM      6  C   UNL     1      60.807  28.364  49.558  1.00  0.00     0.000 C 
BRANCH   6   7
ATOM      7  C   UNL     1      61.233  29.635  50.311  1.00  0.00     0.000 C 
BRANCH   7   8
ATOM      8  C   UNL     1      61.409  29.403  51.823  1.00  0.00     0.000 C 
BRANCH   8   9
ATOM      9  C   UNL     1      60.385  28.446  52.462  1.00  0.00     0.000 C 
BRANCH   9  10
ATOM     10  C   UNL     1      61.046  27.284  53.226  1.00  0.00     0.000 C 
BRANCH  10  11
ATOM     11  C   UNL     1      60.730  25.907  52.613  1.00  0.00     0.000 C 
BRANCH  11  12
ATOM     12  C   UNL     1      59.266  25.697  52.183  1.00  0.00     0.000 C 
BRANCH  12  13
ATOM     13  C   UNL     1      59.131  25.170  50.745  1.00  0.00     0.006 C 
BRANCH  13  14
ATOM     14  C   UNL     1      60.474  24.698  50.172  1.00  0.00     0.053 C 
BRANCH  14  15
ATOM     15  C   UNL     1      60.543  23.206  50.069  1.00  0.00     0.041 C 
ATOM     16  O   UNL     1      60.121  22.484  51.012  1.00  0.00    -0.550 OA
ATOM     17  O   UNL     1      61.044  22.611  48.917  1.00  0.00    -0.550 OA
ENDBRANCH  14  15
ENDBRANCH  13  14
ENDBRANCH  12  13
ENDBRANCH  11  12
ENDBRANCH  10  11
ENDBRANCH   9  10
ENDBRANCH   8   9
ENDBRANCH   7   8
ENDBRANCH   6   7
ENDBRANCH   5   6
ENDBRANCH   4   5
ENDBRANCH   3   4
ENDBRANCH   2   3
ENDBRANCH   1   2
BRANCH   1  18
ATOM     18  C   UNL     1      54.349  27.904  49.938  1.00  0.00     0.000 C 
BRANCH  18  19
ATOM     19  C   UNL     1      53.423  28.916  50.636  1.00  0.00     0.000 C 
BRANCH  19  20
ATOM     20  C   UNL     1      54.042  30.328  50.699  1.00  0.00     0.000 C 
BRANCH  20  21
ATOM     21  C   UNL     1      54.032  30.958  52.103  1.00  0.00     0.000 C 
BRANCH  21  22
ATOM     22  C   UNL     1      55.179  30.455  52.995  1.00  0.00     0.000 C 
BRANCH  22  23
ATOM     23  C   UNL     1      54.694  29.641  54.210  1.00  0.00     0.000 C 
BRANCH  23  24
ATOM     24  C   UNL     1      55.368  28.268  54.403  1.00  0.00    -0.000 C 
BRANCH  24  25
ATOM     25  C   UNL     1      56.828  28.236  53.921  1.00  0.00    -0.000 C 
BRANCH  25  26
ATOM     26  C   UNL     1      57.819  27.906  55.049  1.00  0.00    -0.000 C 
BRANCH  26  27
ATOM     27  C   UNL     1      58.295  29.157  55.806  1.00  0.00    -0.000 C 
BRANCH  27  28
ATOM     28  C   UNL     1      58.415  30.388  54.893  1.00  0.00    -0.000 C 
BRANCH  28  29
ATOM     29  C   UNL     1      57.809  31.657  55.522  1.00  0.00    -0.000 C 
BRANCH  29  30
ATOM     30  C   UNL     1      57.422  31.460  56.997  1.00  0.00    -0.000 C 
BRANCH  30  31
ATOM     31  C   UNL     1      55.905  31.528  57.221  1.00  0.00    -0.003 C 
ATOM     32  C   UNL     1      55.372  30.209  57.776  1.00  0.00     0.004 C 
ENDBRANCH  30  31
ENDBRANCH  29  30
ENDBRANCH  28  29
ENDBRANCH  27  28
ENDBRANCH  26  27
ENDBRANCH  25  26
ENDBRANCH  24  25
ENDBRANCH  23  24
ENDBRANCH  22  23
ENDBRANCH  21  22
ENDBRANCH  20  21
ENDBRANCH  19  20
ENDBRANCH  18  19
ENDBRANCH   1  18
TORSDOF 28
ENDMDL
MODEL 5
REMARK VINA RESULT:    -3.722      4.884     10.055
REMARK INTER + INTRA:         -13.575
REMARK INTER:                  -9.737
REMARK INTRA:                  -3.838
REMARK UNBOUND:                -3.761
REMARK SMILES CCCCCCCCCCCCCCCCCCCCCCCCCCCCCC(=O)[O-]
REMARK SMILES IDX 16 1 17 2 18 3 19 4 20 5 21 6 22 7 23 8 24 9 25 10 26 11
REMARK SMILES IDX 27 12 28 13 29 14 30 15 31 16 32 17 15 18 14 19 13 20 12 21
REMARK SMILES IDX 11 22 10 23 9 24 8 25 7 26 6 27 5 28 4 29 3 30 2 31 1 32
REMARK H PARENT
REMARK Flexibility Score: inf
ROOT
ATOM      1  C   UNL     1      59.895  28.258  49.225  1.00  0.00     0.000 C 
ENDROOT
BRANCH   1   2
ATOM      2  C   UNL     1      59.308  26.865  49.538  1.00  0.00     0.000 C 
BRANCH   2   3
ATOM      3  C   UNL     1      60.340  25.767  49.859  1.00  0.00     0.000 C 
BRANCH   3   4
ATOM      4  C   UNL     1      61.089  26.012  51.181  1.00  0.00     0.000 C 
BRANCH   4   5
ATOM      5  C   UNL     1      61.773  24.744  51.726  1.00  0.00     0.000 C 
BRANCH   5   6
ATOM      6  C   UNL     1      61.018  23.432  51.454  1.00  0.00     0.000 C 
BRANCH   6   7
ATOM      7  C   UNL     1      61.627  22.621  50.299  1.00  0.00     0.000 C 
BRANCH   7   8
ATOM      8  C   UNL     1      60.569  22.100  49.310  1.00  0.00     0.000 C 
BRANCH   8   9
ATOM      9  C   UNL     1      61.015  20.909  48.440  1.00  0.00     0.000 C 
BRANCH   9  10
ATOM     10  C   UNL     1      59.959  19.792  48.366  1.00  0.00     0.000 C 
BRANCH  10  11
ATOM     11  C   UNL     1      59.847  18.984  49.672  1.00  0.00     0.000 C 
BRANCH  11  12
ATOM     12  C   UNL     1      59.056  17.667  49.566  1.00  0.00     0.000 C 
BRANCH  12  13
ATOM     13  C   UNL     1      57.588  17.809  50.003  1.00  0.00     0.006 C 
BRANCH  13  14
ATOM     14  C   UNL     1      57.358  19.060  50.861  1.00  0.00     0.053 C 
BRANCH  14  15
ATOM     15  C   UNL     1      56.588  18.746  52.108  1.00  0.00     0.041 C 
ATOM     16  O   UNL     1      55.398  19.141  52.235  1.00  0.00    -0.550 OA
ATOM     17  O   UNL     1      57.174  17.989  53.115  1.00  0.00    -0.550 OA
ENDBRANCH  14  15
ENDBRANCH  13  14
ENDBRANCH  12  13
ENDBRANCH  11  12
ENDBRANCH  10  11
ENDBRANCH   9  10
ENDBRANCH   8   9
ENDBRANCH   7   8
ENDBRANCH   6   7
ENDBRANCH   5   6
ENDBRANCH   4   5
ENDBRANCH   3   4
ENDBRANCH   2   3
ENDBRANCH   1   2
BRANCH   1  18
ATOM     18  C   UNL     1      58.873  29.410  49.193  1.00  0.00     0.000 C 
BRANCH  18  19
ATOM     19  C   UNL     1      58.346  29.778  50.591  1.00  0.00     0.000 C 
BRANCH  19  20
ATOM     20  C   UNL     1      56.879  29.344  50.795  1.00  0.00     0.000 C 
BRANCH  20  21
ATOM     21  C   UNL     1      56.338  29.601  52.212  1.00  0.00     0.000 C 
BRANCH  21  22
ATOM     22  C   UNL     1      54.816  29.413  52.316  1.00  0.00     0.000 C 
BRANCH  22  23
ATOM     23  C   UNL     1      54.020  30.367  51.404  1.00  0.00     0.000 C 
BRANCH  23  24
ATOM     24  C   UNL     1      53.257  29.696  50.244  1.00  0.00    -0.000 C 
BRANCH  24  25
ATOM     25  C   UNL     1      52.925  28.218  50.511  1.00  0.00    -0.000 C 
BRANCH  25  26
ATOM     26  C   UNL     1      53.519  27.275  49.452  1.00  0.00    -0.000 C 
BRANCH  26  27
ATOM     27  C   UNL     1      54.682  26.429  49.996  1.00  0.00    -0.000 C 
BRANCH  27  28
ATOM     28  C   UNL     1      54.300  25.648  51.265  1.00  0.00    -0.000 C 
BRANCH  28  29
ATOM     29  C   UNL     1      55.378  25.733  52.362  1.00  0.00    -0.000 C 
BRANCH  29  30
ATOM     30  C   UNL     1      56.800  25.849  51.788  1.00  0.00    -0.000 C 
BRANCH  30  31
ATOM     31  C   UNL     1      57.847  26.159  52.867  1.00  0.00    -0.003 C 
ATOM     32  C   UNL     1      58.096  24.942  53.754  1.00  0.00     0.004 C 
ENDBRANCH  30  31
ENDBRANCH  29  30
ENDBRANCH  28  29
ENDBRANCH  27  28
ENDBRANCH  26  27
ENDBRANCH  25  26
ENDBRANCH  24  25
ENDBRANCH  23  24
ENDBRANCH  22  23
ENDBRANCH  21  22
ENDBRANCH  20  21
ENDBRANCH  19  20
ENDBRANCH  18  19
ENDBRANCH   1  18
TORSDOF 28
ENDMDL
MODEL 6
REMARK VINA RESULT:    -3.708      4.498      6.888
REMARK INTER + INTRA:         -13.539
REMARK INTER:                  -8.456
REMARK INTRA:                  -5.083
REMARK UNBOUND:                -3.761
REMARK SMILES CCCCCCCCCCCCCCCCCCCCCCCCCCCCCC(=O)[O-]
REMARK SMILES IDX 16 1 17 2 18 3 19 4 20 5 21 6 22 7 23 8 24 9 25 10 26 11
REMARK SMILES IDX 27 12 28 13 29 14 30 15 31 16 32 17 15 18 14 19 13 20 12 21
REMARK SMILES IDX 11 22 10 23 9 24 8 25 7 26 6 27 5 28 4 29 3 30 2 31 1 32
REMARK H PARENT
REMARK Flexibility Score: inf
ROOT
ATOM      1  C   UNL     1      58.835  25.875  50.083  1.00  0.00     0.000 C 
ENDROOT
BRANCH   1   2
ATOM      2  C   UNL     1      60.271  26.433  49.986  1.00  0.00     0.000 C 
BRANCH   2   3
ATOM      3  C   UNL     1      60.385  27.894  49.512  1.00  0.00     0.000 C 
BRANCH   3   4
ATOM      4  C   UNL     1      59.078  28.434  48.904  1.00  0.00     0.000 C 
BRANCH   4   5
ATOM      5  C   UNL     1      58.622  29.759  49.543  1.00  0.00     0.000 C 
BRANCH   5   6
ATOM      6  C   UNL     1      57.889  29.613  50.888  1.00  0.00     0.000 C 
BRANCH   6   7
ATOM      7  C   UNL     1      58.630  30.295  52.050  1.00  0.00     0.000 C 
BRANCH   7   8
ATOM      8  C   UNL     1      59.877  29.515  52.504  1.00  0.00     0.000 C 
BRANCH   8   9
ATOM      9  C   UNL     1      61.160  30.357  52.645  1.00  0.00     0.000 C 
BRANCH   9  10
ATOM     10  C   UNL     1      61.217  31.533  51.654  1.00  0.00     0.000 C 
BRANCH  10  11
ATOM     11  C   UNL     1      61.842  31.149  50.301  1.00  0.00     0.000 C 
BRANCH  11  12
ATOM     12  C   UNL     1      63.381  31.090  50.278  1.00  0.00     0.000 C 
BRANCH  12  13
ATOM     13  C   UNL     1      64.003  32.002  49.208  1.00  0.00     0.006 C 
BRANCH  13  14
ATOM     14  C   UNL     1      63.920  33.486  49.591  1.00  0.00     0.053 C 
BRANCH  14  15
ATOM     15  C   UNL     1      63.247  34.299  48.528  1.00  0.00     0.041 C 
ATOM     16  O   UNL     1      63.933  34.993  47.730  1.00  0.00    -0.550 OA
ATOM     17  O   UNL     1      61.864  34.266  48.398  1.00  0.00    -0.550 OA
ENDBRANCH  14  15
ENDBRANCH  13  14
ENDBRANCH  12  13
ENDBRANCH  11  12
ENDBRANCH  10  11
ENDBRANCH   9  10
ENDBRANCH   8   9
ENDBRANCH   7   8
ENDBRANCH   6   7
ENDBRANCH   5   6
ENDBRANCH   4   5
ENDBRANCH   3   4
ENDBRANCH   2   3
ENDBRANCH   1   2
BRANCH   1  18
ATOM     18  C   UNL     1      58.199  25.936  51.484  1.00  0.00     0.000 C 
BRANCH  18  19
ATOM     19  C   UNL     1      56.661  25.956  51.441  1.00  0.00     0.000 C 
BRANCH  19  20
ATOM     20  C   UNL     1      56.121  26.479  50.092  1.00  0.00     0.000 C 
BRANCH  20  21
ATOM     21  C   UNL     1      54.685  26.029  49.772  1.00  0.00     0.000 C 
BRANCH  21  22
ATOM     22  C   UNL     1      53.683  27.195  49.747  1.00  0.00     0.000 C 
BRANCH  22  23
ATOM     23  C   UNL     1      54.323  28.555  50.087  1.00  0.00     0.000 C 
BRANCH  23  24
ATOM     24  C   UNL     1      53.334  29.697  50.395  1.00  0.00    -0.000 C 
BRANCH  24  25
ATOM     25  C   UNL     1      53.920  30.769  51.330  1.00  0.00    -0.000 C 
BRANCH  25  26
ATOM     26  C   UNL     1      54.594  30.169  52.574  1.00  0.00    -0.000 C 
BRANCH  26  27
ATOM     27  C   UNL     1      53.655  30.117  53.791  1.00  0.00    -0.000 C 
BRANCH  27  28
ATOM     28  C   UNL     1      53.213  28.684  54.133  1.00  0.00    -0.000 C 
BRANCH  28  29
ATOM     29  C   UNL     1      54.137  27.615  53.520  1.00  0.00    -0.000 C 
BRANCH  29  30
ATOM     30  C   UNL     1      53.429  26.265  53.320  1.00  0.00    -0.000 C 
BRANCH  30  31
ATOM     31  C   UNL     1      53.865  25.213  54.349  1.00  0.00    -0.003 C 
ATOM     32  C   UNL     1      55.253  25.527  54.900  1.00  0.00     0.004 C 
ENDBRANCH  30  31
ENDBRANCH  29  30
ENDBRANCH  28  29
ENDBRANCH  27  28
ENDBRANCH  26  27
ENDBRANCH  25  26
ENDBRANCH  24  25
ENDBRANCH  23  24
ENDBRANCH  22  23
ENDBRANCH  21  22
ENDBRANCH  20  21
ENDBRANCH  19  20
ENDBRANCH  18  19
ENDBRANCH   1  18
TORSDOF 28
ENDMDL
MODEL 7
REMARK VINA RESULT:    -3.696      3.558      6.142
REMARK INTER + INTRA:         -13.508
REMARK INTER:                  -6.933
REMARK INTRA:                  -6.575
REMARK UNBOUND:                -3.761
REMARK SMILES CCCCCCCCCCCCCCCCCCCCCCCCCCCCCC(=O)[O-]
REMARK SMILES IDX 16 1 17 2 18 3 19 4 20 5 21 6 22 7 23 8 24 9 25 10 26 11
REMARK SMILES IDX 27 12 28 13 29 14 30 15 31 16 32 17 15 18 14 19 13 20 12 21
REMARK SMILES IDX 11 22 10 23 9 24 8 25 7 26 6 27 5 28 4 29 3 30 2 31 1 32
REMARK H PARENT
REMARK Flexibility Score: inf
ROOT
ATOM      1  C   UNL     1      55.614  27.050  50.315  1.00  0.00     0.000 C 
ENDROOT
BRANCH   1   2
ATOM      2  C   UNL     1      57.004  26.379  50.356  1.00  0.00     0.000 C 
BRANCH   2   3
ATOM      3  C   UNL     1      57.319  25.584  51.638  1.00  0.00     0.000 C 
BRANCH   3   4
ATOM      4  C   UNL     1      58.295  26.317  52.576  1.00  0.00     0.000 C 
BRANCH   4   5
ATOM      5  C   UNL     1      57.648  26.727  53.912  1.00  0.00     0.000 C 
BRANCH   5   6
ATOM      6  C   UNL     1      58.220  28.009  54.543  1.00  0.00     0.000 C 
BRANCH   6   7
ATOM      7  C   UNL     1      59.687  28.260  54.157  1.00  0.00     0.000 C 
BRANCH   7   8
ATOM      8  C   UNL     1      60.251  29.559  54.762  1.00  0.00     0.000 C 
BRANCH   8   9
ATOM      9  C   UNL     1      60.848  30.550  53.745  1.00  0.00     0.000 C 
BRANCH   9  10
ATOM     10  C   UNL     1      62.354  30.335  53.511  1.00  0.00     0.000 C 
BRANCH  10  11
ATOM     11  C   UNL     1      62.891  31.119  52.300  1.00  0.00     0.000 C 
BRANCH  11  12
ATOM     12  C   UNL     1      61.818  31.788  51.420  1.00  0.00     0.000 C 
BRANCH  12  13
ATOM     13  C   UNL     1      61.893  31.356  49.946  1.00  0.00     0.006 C 
BRANCH  13  14
ATOM     14  C   UNL     1      63.028  32.063  49.192  1.00  0.00     0.053 C 
BRANCH  14  15
ATOM     15  C   UNL     1      62.808  33.543  49.115  1.00  0.00     0.041 C 
ATOM     16  O   UNL     1      61.870  34.010  48.414  1.00  0.00    -0.550 OA
ATOM     17  O   UNL     1      63.619  34.405  49.844  1.00  0.00    -0.550 OA
ENDBRANCH  14  15
ENDBRANCH  13  14
ENDBRANCH  12  13
ENDBRANCH  11  12
ENDBRANCH  10  11
ENDBRANCH   9  10
ENDBRANCH   8   9
ENDBRANCH   7   8
ENDBRANCH   6   7
ENDBRANCH   5   6
ENDBRANCH   4   5
ENDBRANCH   3   4
ENDBRANCH   2   3
ENDBRANCH   1   2
BRANCH   1  18
ATOM     18  C   UNL     1      55.414  28.209  51.310  1.00  0.00     0.000 C 
BRANCH  18  19
ATOM     19  C   UNL     1      56.060  29.522  50.834  1.00  0.00     0.000 C 
BRANCH  19  20
ATOM     20  C   UNL     1      57.228  29.961  51.742  1.00  0.00     0.000 C 
BRANCH  20  21
ATOM     21  C   UNL     1      58.616  29.832  51.090  1.00  0.00     0.000 C 
BRANCH  21  22
ATOM     22  C   UNL     1      58.547  29.636  49.567  1.00  0.00     0.000 C 
BRANCH  22  23
ATOM     23  C   UNL     1      59.499  28.540  49.051  1.00  0.00     0.000 C 
BRANCH  23  24
ATOM     24  C   UNL     1      60.454  27.939  50.101  1.00  0.00    -0.000 C 
BRANCH  24  25
ATOM     25  C   UNL     1      61.885  27.735  49.573  1.00  0.00    -0.000 C 
BRANCH  25  26
ATOM     26  C   UNL     1      62.868  27.301  50.672  1.00  0.00    -0.000 C 
BRANCH  26  27
ATOM     27  C   UNL     1      62.184  27.102  52.035  1.00  0.00    -0.000 C 
BRANCH  27  28
ATOM     28  C   UNL     1      62.386  25.684  52.594  1.00  0.00    -0.000 C 
BRANCH  28  29
ATOM     29  C   UNL     1      62.802  24.672  51.510  1.00  0.00    -0.000 C 
BRANCH  29  30
ATOM     30  C   UNL     1      62.021  23.351  51.601  1.00  0.00    -0.000 C 
BRANCH  30  31
ATOM     31  C   UNL     1      60.537  23.519  51.245  1.00  0.00    -0.003 C 
ATOM     32  C   UNL     1      60.371  24.252  49.916  1.00  0.00     0.004 C 
ENDBRANCH  30  31
ENDBRANCH  29  30
ENDBRANCH  28  29
ENDBRANCH  27  28
ENDBRANCH  26  27
ENDBRANCH  25  26
ENDBRANCH  24  25
ENDBRANCH  23  24
ENDBRANCH  22  23
ENDBRANCH  21  22
ENDBRANCH  20  21
ENDBRANCH  19  20
ENDBRANCH  18  19
ENDBRANCH   1  18
TORSDOF 28
ENDMDL
MODEL 8
REMARK VINA RESULT:    -3.692      4.819      8.982
REMARK INTER + INTRA:         -13.495
REMARK INTER:                  -7.758
REMARK INTRA:                  -5.737
REMARK UNBOUND:                -3.761
REMARK SMILES CCCCCCCCCCCCCCCCCCCCCCCCCCCCCC(=O)[O-]
REMARK SMILES IDX 16 1 17 2 18 3 19 4 20 5 21 6 22 7 23 8 24 9 25 10 26 11
REMARK SMILES IDX 27 12 28 13 29 14 30 15 31 16 32 17 15 18 14 19 13 20 12 21
REMARK SMILES IDX 11 22 10 23 9 24 8 25 7 26 6 27 5 28 4 29 3 30 2 31 1 32
REMARK H PARENT
REMARK Flexibility Score: inf
ROOT
ATOM      1  C   UNL     1      59.260  28.276  48.922  1.00  0.00     0.000 C 
ENDROOT
BRANCH   1   2
ATOM      2  C   UNL     1      60.281  27.535  49.813  1.00  0.00     0.000 C 
BRANCH   2   3
ATOM      3  C   UNL     1      59.846  26.141  50.302  1.00  0.00     0.000 C 
BRANCH   3   4
ATOM      4  C   UNL     1      58.342  25.878  50.110  1.00  0.00     0.000 C 
BRANCH   4   5
ATOM      5  C   UNL     1      57.567  25.828  51.440  1.00  0.00     0.000 C 
BRANCH   5   6
ATOM      6  C   UNL     1      56.124  26.359  51.371  1.00  0.00     0.000 C 
BRANCH   6   7
ATOM      7  C   UNL     1      55.616  26.519  49.929  1.00  0.00     0.000 C 
BRANCH   7   8
ATOM      8  C   UNL     1      54.353  27.394  49.834  1.00  0.00     0.000 C 
BRANCH   8   9
ATOM      9  C   UNL     1      54.203  28.451  50.945  1.00  0.00     0.000 C 
BRANCH   9  10
ATOM     10  C   UNL     1      54.260  29.894  50.411  1.00  0.00     0.000 C 
BRANCH  10  11
ATOM     11  C   UNL     1      53.915  30.944  51.483  1.00  0.00     0.000 C 
BRANCH  11  12
ATOM     12  C   UNL     1      54.779  30.894  52.757  1.00  0.00     0.000 C 
BRANCH  12  13
ATOM     13  C   UNL     1      55.167  32.288  53.277  1.00  0.00     0.006 C 
BRANCH  13  14
ATOM     14  C   UNL     1      56.068  32.214  54.517  1.00  0.00     0.053 C 
BRANCH  14  15
ATOM     15  C   UNL     1      57.203  33.188  54.441  1.00  0.00     0.041 C 
ATOM     16  O   UNL     1      57.728  33.636  55.495  1.00  0.00    -0.550 OA
ATOM     17  O   UNL     1      57.703  33.578  53.203  1.00  0.00    -0.550 OA
ENDBRANCH  14  15
ENDBRANCH  13  14
ENDBRANCH  12  13
ENDBRANCH  11  12
ENDBRANCH  10  11
ENDBRANCH   9  10
ENDBRANCH   8   9
ENDBRANCH   7   8
ENDBRANCH   6   7
ENDBRANCH   5   6
ENDBRANCH   4   5
ENDBRANCH   3   4
ENDBRANCH   2   3
ENDBRANCH   1   2
BRANCH   1  18
ATOM     18  C   UNL     1      58.780  29.636  49.464  1.00  0.00     0.000 C 
BRANCH  18  19
ATOM     19  C   UNL     1      57.864  29.497  50.692  1.00  0.00     0.000 C 
BRANCH  19  20
ATOM     20  C   UNL     1      58.334  30.371  51.874  1.00  0.00     0.000 C 
BRANCH  20  21
ATOM     21  C   UNL     1      58.385  29.632  53.223  1.00  0.00     0.000 C 
BRANCH  21  22
ATOM     22  C   UNL     1      59.422  28.499  53.247  1.00  0.00     0.000 C 
BRANCH  22  23
ATOM     23  C   UNL     1      60.579  28.753  54.233  1.00  0.00     0.000 C 
BRANCH  23  24
ATOM     24  C   UNL     1      61.704  29.672  53.716  1.00  0.00    -0.000 C 
BRANCH  24  25
ATOM     25  C   UNL     1      62.023  29.461  52.226  1.00  0.00    -0.000 C 
BRANCH  25  26
ATOM     26  C   UNL     1      62.059  30.777  51.434  1.00  0.00    -0.000 C 
BRANCH  26  27
ATOM     27  C   UNL     1      62.185  30.554  49.917  1.00  0.00    -0.000 C 
BRANCH  27  28
ATOM     28  C   UNL     1      63.508  31.095  49.350  1.00  0.00    -0.000 C 
BRANCH  28  29
ATOM     29  C   UNL     1      64.408  29.984  48.777  1.00  0.00    -0.000 C 
BRANCH  29  30
ATOM     30  C   UNL     1      63.619  28.722  48.393  1.00  0.00    -0.000 C 
BRANCH  30  31
ATOM     31  C   UNL     1      63.899  27.542  49.333  1.00  0.00    -0.003 C 
ATOM     32  C   UNL     1      65.131  27.808  50.194  1.00  0.00     0.004 C 
ENDBRANCH  30  31
ENDBRANCH  29  30
ENDBRANCH  28  29
ENDBRANCH  27  28
ENDBRANCH  26  27
ENDBRANCH  25  26
ENDBRANCH  24  25
ENDBRANCH  23  24
ENDBRANCH  22  23
ENDBRANCH  21  22
ENDBRANCH  20  21
ENDBRANCH  19  20
ENDBRANCH  18  19
ENDBRANCH   1  18
TORSDOF 28
ENDMDL
MODEL 9
REMARK VINA RESULT:    -3.683      4.787      8.787
REMARK INTER + INTRA:         -13.472
REMARK INTER:                  -7.120
REMARK INTRA:                  -6.352
REMARK UNBOUND:                -3.761
REMARK SMILES CCCCCCCCCCCCCCCCCCCCCCCCCCCCCC(=O)[O-]
REMARK SMILES IDX 16 1 17 2 18 3 19 4 20 5 21 6 22 7 23 8 24 9 25 10 26 11
REMARK SMILES IDX 27 12 28 13 29 14 30 15 31 16 32 17 15 18 14 19 13 20 12 21
REMARK SMILES IDX 11 22 10 23 9 24 8 25 7 26 6 27 5 28 4 29 3 30 2 31 1 32
REMARK H PARENT
REMARK Flexibility Score: inf
ROOT
ATOM      1  C   UNL     1      56.195  26.394  50.257  1.00  0.00     0.000 C 
ENDROOT
BRANCH   1   2
ATOM      2  C   UNL     1      56.176  26.943  51.700  1.00  0.00     0.000 C 
BRANCH   2   3
ATOM      3  C   UNL     1      56.911  28.281  51.910  1.00  0.00     0.000 C 
BRANCH   3   4
ATOM      4  C   UNL     1      56.928  29.163  50.649  1.00  0.00     0.000 C 
BRANCH   4   5
ATOM      5  C   UNL     1      58.344  29.635  50.268  1.00  0.00     0.000 C 
BRANCH   5   6
ATOM      6  C   UNL     1      58.899  29.033  48.965  1.00  0.00     0.000 C 
BRANCH   6   7
ATOM      7  C   UNL     1      60.092  28.092  49.202  1.00  0.00     0.000 C 
BRANCH   7   8
ATOM      8  C   UNL     1      59.661  26.650  49.529  1.00  0.00     0.000 C 
BRANCH   8   9
ATOM      9  C   UNL     1      60.466  25.964  50.649  1.00  0.00     0.000 C 
BRANCH   9  10
ATOM     10  C   UNL     1      59.754  26.010  52.013  1.00  0.00     0.000 C 
BRANCH  10  11
ATOM     11  C   UNL     1      60.420  26.981  53.005  1.00  0.00     0.000 C 
BRANCH  11  12
ATOM     12  C   UNL     1      61.924  27.225  52.779  1.00  0.00     0.000 C 
BRANCH  12  13
ATOM     13  C   UNL     1      62.324  28.701  52.934  1.00  0.00     0.006 C 
BRANCH  13  14
ATOM     14  C   UNL     1      61.440  29.633  52.094  1.00  0.00     0.053 C 
BRANCH  14  15
ATOM     15  C   UNL     1      62.239  30.405  51.090  1.00  0.00     0.041 C 
ATOM     16  O   UNL     1      63.494  30.294  51.057  1.00  0.00    -0.550 OA
ATOM     17  O   UNL     1      61.595  31.222  50.168  1.00  0.00    -0.550 OA
ENDBRANCH  14  15
ENDBRANCH  13  14
ENDBRANCH  12  13
ENDBRANCH  11  12
ENDBRANCH  10  11
ENDBRANCH   9  10
ENDBRANCH   8   9
ENDBRANCH   7   8
ENDBRANCH   6   7
ENDBRANCH   5   6
ENDBRANCH   4   5
ENDBRANCH   3   4
ENDBRANCH   2   3
ENDBRANCH   1   2
BRANCH   1  18
ATOM     18  C   UNL     1      54.811  26.211  49.605  1.00  0.00     0.000 C 
BRANCH  18  19
ATOM     19  C   UNL     1      53.689  26.928  50.377  1.00  0.00     0.000 C 
BRANCH  19  20
ATOM     20  C   UNL     1      53.126  28.137  49.601  1.00  0.00     0.000 C 
BRANCH  20  21
ATOM     21  C   UNL     1      53.237  29.475  50.353  1.00  0.00     0.000 C 
BRANCH  21  22
ATOM     22  C   UNL     1      53.312  29.301  51.878  1.00  0.00     0.000 C 
BRANCH  22  23
ATOM     23  C   UNL     1      53.359  30.639  52.641  1.00  0.00     0.000 C 
BRANCH  23  24
ATOM     24  C   UNL     1      54.752  31.290  52.758  1.00  0.00    -0.000 C 
BRANCH  24  25
ATOM     25  C   UNL     1      55.311  31.272  54.191  1.00  0.00    -0.000 C 
BRANCH  25  26
ATOM     26  C   UNL     1      56.375  32.356  54.427  1.00  0.00    -0.000 C 
BRANCH  26  27
ATOM     27  C   UNL     1      57.384  32.459  53.271  1.00  0.00    -0.000 C 
BRANCH  27  28
ATOM     28  C   UNL     1      58.478  31.381  53.346  1.00  0.00    -0.000 C 
BRANCH  28  29
ATOM     29  C   UNL     1      58.958  31.121  54.787  1.00  0.00    -0.000 C 
BRANCH  29  30
ATOM     30  C   UNL     1      58.902  29.634  55.171  1.00  0.00    -0.000 C 
BRANCH  30  31
ATOM     31  C   UNL     1      60.152  29.175  55.936  1.00  0.00    -0.003 C 
ATOM     32  C   UNL     1      61.166  30.309  56.059  1.00  0.00     0.004 C 
ENDBRANCH  30  31
ENDBRANCH  29  30
ENDBRANCH  28  29
ENDBRANCH  27  28
ENDBRANCH  26  27
ENDBRANCH  25  26
ENDBRANCH  24  25
ENDBRANCH  23  24
ENDBRANCH  22  23
ENDBRANCH  21  22
ENDBRANCH  20  21
ENDBRANCH  19  20
ENDBRANCH  18  19
ENDBRANCH   1  18
TORSDOF 28
ENDMDL
