MODEL 1
REMARK VINA RESULT:    -5.443      0.000      0.000
REMARK INTER + INTRA:          -6.536
REMARK INTER:                  -6.398
REMARK INTRA:                  -0.138
REMARK UNBOUND:                -0.138
REMARK SMILES O=C([O-])C=Cc1ccc(O)c(O)c1
REMARK SMILES IDX 6 1 13 2 7 3 11 4 8 5 9 6 5 7 4 8 2 9 1 10 3 11 12 12 10 14
REMARK H PARENT 12 13 10 15
REMARK Flexibility Score: inf
ROOT
ATOM      1  C   UNL     1       8.584  15.690 -21.586  1.00  0.00    -0.022 A 
ATOM      2  C   UNL     1       8.509  14.624 -20.673  1.00  0.00     0.058 A 
ATOM      3  C   UNL     1       8.498  17.009 -21.098  1.00  0.00     0.012 A 
ATOM      4  C   UNL     1       8.323  14.865 -19.304  1.00  0.00     0.157 A 
ATOM      5  C   UNL     1       8.316  17.249 -19.733  1.00  0.00     0.051 A 
ATOM      6  C   UNL     1       8.225  16.179 -18.833  1.00  0.00     0.157 A 
ENDROOT
BRANCH   1   7
ATOM      7  C   UNL     1       8.790  15.381 -23.023  1.00  0.00     0.010 C 
ATOM      8  C   UNL     1       9.583  16.097 -23.832  1.00  0.00     0.025 C 
BRANCH   8   9
ATOM      9  C   UNL     1       9.753  15.767 -25.257  1.00  0.00     0.064 C 
ATOM     10  O   UNL     1      10.873  15.414 -25.717  1.00  0.00    -0.545 OA
ATOM     11  O   UNL     1       8.662  15.849 -26.111  1.00  0.00    -0.545 OA
ENDBRANCH   8   9
ENDBRANCH   1   7
BRANCH   4  12
ATOM     12  O   UNL     1       8.240  13.802 -18.406  1.00  0.00    -0.504 OA
ATOM     13  H   UNL     1       8.947  13.650 -17.696  1.00  0.00     0.293 HD
ENDBRANCH   4  12
BRANCH   6  14
ATOM     14  O   UNL     1       8.041  16.416 -17.472  1.00  0.00    -0.504 OA
ATOM     15  H   UNL     1       8.742  16.154 -16.789  1.00  0.00     0.293 HD
ENDBRANCH   6  14
TORSDOF 4
ENDMDL
MODEL 2
REMARK VINA RESULT:    -5.440      0.946      2.140
REMARK INTER + INTRA:          -6.533
REMARK INTER:                  -6.401
REMARK INTRA:                  -0.132
REMARK UNBOUND:                -0.138
REMARK SMILES O=C([O-])C=Cc1ccc(O)c(O)c1
REMARK SMILES IDX 6 1 13 2 7 3 11 4 8 5 9 6 5 7 4 8 2 9 1 10 3 11 12 12 10 14
REMARK H PARENT 12 13 10 15
REMARK Flexibility Score: inf
ROOT
ATOM      1  C   UNL     1       8.519  15.572 -21.446  1.00  0.00    -0.022 A 
ATOM      2  C   UNL     1       8.477  16.915 -21.036  1.00  0.00     0.058 A 
ATOM      3  C   UNL     1       8.112  14.572 -20.539  1.00  0.00     0.012 A 
ATOM      4  C   UNL     1       8.065  17.256 -19.740  1.00  0.00     0.157 A 
ATOM      5  C   UNL     1       7.699  14.914 -19.248  1.00  0.00     0.051 A 
ATOM      6  C   UNL     1       7.677  16.254 -18.844  1.00  0.00     0.157 A 
ENDROOT
BRANCH   1   7
ATOM      7  C   UNL     1       8.954  15.265 -22.831  1.00  0.00     0.010 C 
ATOM      8  C   UNL     1       9.071  16.188 -23.797  1.00  0.00     0.025 C 
BRANCH   8   9
ATOM      9  C   UNL     1       9.496  15.845 -25.164  1.00  0.00     0.064 C 
ATOM     10  O   UNL     1       8.681  15.863 -26.125  1.00  0.00    -0.545 OA
ATOM     11  O   UNL     1      10.818  15.491 -25.399  1.00  0.00    -0.545 OA
ENDBRANCH   8   9
ENDBRANCH   1   7
BRANCH   4  12
ATOM     12  O   UNL     1       8.036  18.591 -19.338  1.00  0.00    -0.504 OA
ATOM     13  H   UNL     1       7.967  19.347 -20.009  1.00  0.00     0.293 HD
ENDBRANCH   4  12
BRANCH   6  14
ATOM     14  O   UNL     1       7.268  16.596 -17.557  1.00  0.00    -0.504 OA
ATOM     15  H   UNL     1       7.937  16.820 -16.829  1.00  0.00     0.293 HD
ENDBRANCH   6  14
TORSDOF 4
ENDMDL
MODEL 3
REMARK VINA RESULT:    -5.325     10.022     13.549
REMARK INTER + INTRA:          -6.397
REMARK INTER:                  -6.265
REMARK INTRA:                  -0.131
REMARK UNBOUND:                -0.138
REMARK SMILES O=C([O-])C=Cc1ccc(O)c(O)c1
REMARK SMILES IDX 6 1 13 2 7 3 11 4 8 5 9 6 5 7 4 8 2 9 1 10 3 11 12 12 10 14
REMARK H PARENT 12 13 10 15
REMARK Flexibility Score: inf
ROOT
ATOM      1  C   UNL     1       7.008   8.761 -12.213  1.00  0.00    -0.022 A 
ATOM      2  C   UNL     1       6.642   7.487 -12.679  1.00  0.00     0.058 A 
ATOM      3  C   UNL     1       7.350   9.755 -13.151  1.00  0.00     0.012 A 
ATOM      4  C   UNL     1       6.642   7.199 -14.052  1.00  0.00     0.157 A 
ATOM      5  C   UNL     1       7.347   9.468 -14.519  1.00  0.00     0.051 A 
ATOM      6  C   UNL     1       6.997   8.191 -14.973  1.00  0.00     0.157 A 
ENDROOT
BRANCH   1   7
ATOM      7  C   UNL     1       6.984   9.016 -10.751  1.00  0.00     0.010 C 
ATOM      8  C   UNL     1       6.990   8.045  -9.826  1.00  0.00     0.025 C 
BRANCH   8   9
ATOM      9  C   UNL     1       6.953   8.336  -8.383  1.00  0.00     0.064 C 
ATOM     10  O   UNL     1       5.875   8.282  -7.733  1.00  0.00    -0.545 OA
ATOM     11  O   UNL     1       8.128   8.680  -7.726  1.00  0.00    -0.545 OA
ENDBRANCH   8   9
ENDBRANCH   1   7
BRANCH   4  12
ATOM     12  O   UNL     1       6.287   5.930 -14.507  1.00  0.00    -0.504 OA
ATOM     13  H   UNL     1       6.929   5.361 -15.047  1.00  0.00     0.293 HD
ENDBRANCH   4  12
BRANCH   6  14
ATOM     14  O   UNL     1       6.996   7.902 -16.336  1.00  0.00    -0.504 OA
ATOM     15  H   UNL     1       7.813   8.061 -16.913  1.00  0.00     0.293 HD
ENDBRANCH   6  14
TORSDOF 4
ENDMDL
MODEL 4
REMARK VINA RESULT:    -5.124      9.740     13.467
REMARK INTER + INTRA:          -6.161
REMARK INTER:                  -6.025
REMARK INTRA:                  -0.136
REMARK UNBOUND:                -0.138
REMARK SMILES O=C([O-])C=Cc1ccc(O)c(O)c1
REMARK SMILES IDX 6 1 13 2 7 3 11 4 8 5 9 6 5 7 4 8 2 9 1 10 3 11 12 12 10 14
REMARK H PARENT 12 13 10 15
REMARK Flexibility Score: inf
ROOT
ATOM      1  C   UNL     1       6.985   8.618 -12.224  1.00  0.00    -0.022 A 
ATOM      2  C   UNL     1       7.431   9.623 -13.099  1.00  0.00     0.058 A 
ATOM      3  C   UNL     1       6.627   7.364 -12.757  1.00  0.00     0.012 A 
ATOM      4  C   UNL     1       7.495   9.394 -14.481  1.00  0.00     0.157 A 
ATOM      5  C   UNL     1       6.692   7.135 -14.135  1.00  0.00     0.051 A 
ATOM      6  C   UNL     1       7.123   8.148 -15.000  1.00  0.00     0.157 A 
ENDROOT
BRANCH   1   7
ATOM      7  C   UNL     1       6.945   8.909 -10.770  1.00  0.00     0.010 C 
ATOM      8  C   UNL     1       7.014   7.966  -9.819  1.00  0.00     0.025 C 
BRANCH   8   9
ATOM      9  C   UNL     1       6.960   8.291  -8.385  1.00  0.00     0.064 C 
ATOM     10  O   UNL     1       5.875   8.243  -7.744  1.00  0.00    -0.545 OA
ATOM     11  O   UNL     1       8.124   8.662  -7.725  1.00  0.00    -0.545 OA
ENDBRANCH   8   9
ENDBRANCH   1   7
BRANCH   4  12
ATOM     12  O   UNL     1       7.930  10.399 -15.344  1.00  0.00    -0.504 OA
ATOM     13  H   UNL     1       7.899  10.284 -16.350  1.00  0.00     0.293 HD
ENDBRANCH   4  12
BRANCH   6  14
ATOM     14  O   UNL     1       7.187   7.923 -16.374  1.00  0.00    -0.504 OA
ATOM     15  H   UNL     1       6.446   8.224 -16.996  1.00  0.00     0.293 HD
ENDBRANCH   6  14
TORSDOF 4
ENDMDL
MODEL 5
REMARK VINA RESULT:    -5.014      8.832     12.514
REMARK INTER + INTRA:          -6.032
REMARK INTER:                  -5.898
REMARK INTRA:                  -0.134
REMARK UNBOUND:                -0.138
REMARK SMILES O=C([O-])C=Cc1ccc(O)c(O)c1
REMARK SMILES IDX 6 1 13 2 7 3 11 4 8 5 9 6 5 7 4 8 2 9 1 10 3 11 12 12 10 14
REMARK H PARENT 12 13 10 15
REMARK Flexibility Score: inf
ROOT
ATOM      1  C   UNL     1       7.559   9.171 -12.817  1.00  0.00    -0.022 A 
ATOM      2  C   UNL     1       7.578  10.565 -12.640  1.00  0.00     0.058 A 
ATOM      3  C   UNL     1       8.076   8.631 -14.012  1.00  0.00     0.012 A 
ATOM      4  C   UNL     1       8.078  11.407 -13.644  1.00  0.00     0.157 A 
ATOM      5  C   UNL     1       8.576   9.471 -15.011  1.00  0.00     0.051 A 
ATOM      6  C   UNL     1       8.575  10.860 -14.832  1.00  0.00     0.157 A 
ENDROOT
BRANCH   1   7
ATOM      7  C   UNL     1       7.028   8.323 -11.721  1.00  0.00     0.010 C 
ATOM      8  C   UNL     1       6.923   8.732 -10.448  1.00  0.00     0.025 C 
BRANCH   8   9
ATOM      9  C   UNL     1       6.401   7.859  -9.384  1.00  0.00     0.064 C 
ATOM     10  O   UNL     1       6.368   6.607  -9.524  1.00  0.00    -0.545 OA
ATOM     11  O   UNL     1       5.935   8.424  -8.205  1.00  0.00    -0.545 OA
ENDBRANCH   8   9
ENDBRANCH   1   7
BRANCH   4  12
ATOM     12  O   UNL     1       8.085  12.790 -13.465  1.00  0.00    -0.504 OA
ATOM     13  H   UNL     1       7.891  13.425 -14.231  1.00  0.00     0.293 HD
ENDBRANCH   4  12
BRANCH   6  14
ATOM     14  O   UNL     1       9.071  11.700 -15.827  1.00  0.00    -0.504 OA
ATOM     15  H   UNL     1       9.908  12.252 -15.687  1.00  0.00     0.293 HD
ENDBRANCH   6  14
TORSDOF 4
ENDMDL
MODEL 6
REMARK VINA RESULT:    -4.962      2.729      5.785
REMARK INTER + INTRA:          -5.971
REMARK INTER:                  -5.843
REMARK INTRA:                  -0.128
REMARK UNBOUND:                -0.138
REMARK SMILES O=C([O-])C=Cc1ccc(O)c(O)c1
REMARK SMILES IDX 6 1 13 2 7 3 11 4 8 5 9 6 5 7 4 8 2 9 1 10 3 11 12 12 10 14
REMARK H PARENT 12 13 10 15
REMARK Flexibility Score: inf
ROOT
ATOM      1  C   UNL     1       8.876  16.874 -19.189  1.00  0.00    -0.022 A 
ATOM      2  C   UNL     1       8.528  16.686 -20.537  1.00  0.00     0.058 A 
ATOM      3  C   UNL     1       9.241  15.752 -18.419  1.00  0.00     0.012 A 
ATOM      4  C   UNL     1       8.518  15.403 -21.102  1.00  0.00     0.157 A 
ATOM      5  C   UNL     1       9.233  14.473 -18.983  1.00  0.00     0.051 A 
ATOM      6  C   UNL     1       8.869  14.294 -20.323  1.00  0.00     0.157 A 
ENDROOT
BRANCH   1   7
ATOM      7  C   UNL     1       8.879  18.254 -18.642  1.00  0.00     0.010 C 
ATOM      8  C   UNL     1       7.766  18.941 -18.346  1.00  0.00     0.025 C 
BRANCH   8   9
ATOM      9  C   UNL     1       7.808  20.313 -17.816  1.00  0.00     0.064 C 
ATOM     10  O   UNL     1       8.863  21.001 -17.866  1.00  0.00    -0.545 OA
ATOM     11  O   UNL     1       6.666  20.860 -17.246  1.00  0.00    -0.545 OA
ENDBRANCH   8   9
ENDBRANCH   1   7
BRANCH   4  12
ATOM     12  O   UNL     1       8.162  15.223 -22.437  1.00  0.00    -0.504 OA
ATOM     13  H   UNL     1       7.241  14.893 -22.702  1.00  0.00     0.293 HD
ENDBRANCH   4  12
BRANCH   6  14
ATOM     14  O   UNL     1       8.857  13.020 -20.887  1.00  0.00    -0.504 OA
ATOM     15  H   UNL     1       9.679  12.629 -21.330  1.00  0.00     0.293 HD
ENDBRANCH   6  14
TORSDOF 4
ENDMDL
MODEL 7
REMARK VINA RESULT:    -4.954      3.214      5.269
REMARK INTER + INTRA:          -5.961
REMARK INTER:                  -5.831
REMARK INTRA:                  -0.130
REMARK UNBOUND:                -0.138
REMARK SMILES O=C([O-])C=Cc1ccc(O)c(O)c1
REMARK SMILES IDX 6 1 13 2 7 3 11 4 8 5 9 6 5 7 4 8 2 9 1 10 3 11 12 12 10 14
REMARK H PARENT 12 13 10 15
REMARK Flexibility Score: inf
ROOT
ATOM      1  C   UNL     1       8.873  16.242 -19.687  1.00  0.00    -0.022 A 
ATOM      2  C   UNL     1       9.238  15.236 -18.777  1.00  0.00     0.058 A 
ATOM      3  C   UNL     1       8.476  15.870 -20.987  1.00  0.00     0.012 A 
ATOM      4  C   UNL     1       9.234  13.887 -19.160  1.00  0.00     0.157 A 
ATOM      5  C   UNL     1       8.471  14.525 -21.368  1.00  0.00     0.051 A 
ATOM      6  C   UNL     1       8.852  13.531 -20.459  1.00  0.00     0.157 A 
ENDROOT
BRANCH   1   7
ATOM      7  C   UNL     1       8.885  17.654 -19.228  1.00  0.00     0.010 C 
ATOM      8  C   UNL     1       7.817  18.278 -18.711  1.00  0.00     0.025 C 
BRANCH   8   9
ATOM      9  C   UNL     1       7.864  19.684 -18.277  1.00  0.00     0.064 C 
ATOM     10  O   UNL     1       8.930  20.352 -18.340  1.00  0.00    -0.545 OA
ATOM     11  O   UNL     1       6.712  20.284 -17.786  1.00  0.00    -0.545 OA
ENDBRANCH   8   9
ENDBRANCH   1   7
BRANCH   4  12
ATOM     12  O   UNL     1       9.606  12.895 -18.255  1.00  0.00    -0.504 OA
ATOM     13  H   UNL     1      10.013  13.123 -17.355  1.00  0.00     0.293 HD
ENDBRANCH   4  12
BRANCH   6  14
ATOM     14  O   UNL     1       8.849  12.190 -20.837  1.00  0.00    -0.504 OA
ATOM     15  H   UNL     1       8.324  11.495 -20.321  1.00  0.00     0.293 HD
ENDBRANCH   6  14
TORSDOF 4
ENDMDL
MODEL 8
REMARK VINA RESULT:    -4.894      9.450     11.410
REMARK INTER + INTRA:          -5.891
REMARK INTER:                  -5.762
REMARK INTRA:                  -0.129
REMARK UNBOUND:                -0.138
REMARK SMILES O=C([O-])C=Cc1ccc(O)c(O)c1
REMARK SMILES IDX 6 1 13 2 7 3 11 4 8 5 9 6 5 7 4 8 2 9 1 10 3 11 12 12 10 14
REMARK H PARENT 12 13 10 15
REMARK Flexibility Score: inf
ROOT
ATOM      1  C   UNL     1       7.009   8.192 -13.668  1.00  0.00    -0.022 A 
ATOM      2  C   UNL     1       7.731   9.056 -14.508  1.00  0.00     0.058 A 
ATOM      3  C   UNL     1       6.643   8.643 -12.384  1.00  0.00     0.012 A 
ATOM      4  C   UNL     1       8.106  10.334 -14.070  1.00  0.00     0.157 A 
ATOM      5  C   UNL     1       7.015   9.918 -11.948  1.00  0.00     0.051 A 
ATOM      6  C   UNL     1       7.749  10.765 -12.787  1.00  0.00     0.157 A 
ENDROOT
BRANCH   1   7
ATOM      7  C   UNL     1       6.629   6.853 -14.183  1.00  0.00     0.010 C 
ATOM      8  C   UNL     1       7.452   6.069 -14.896  1.00  0.00     0.025 C 
BRANCH   8   9
ATOM      9  C   UNL     1       7.036   4.750 -15.401  1.00  0.00     0.064 C 
ATOM     10  O   UNL     1       7.716   3.716 -15.164  1.00  0.00    -0.545 OA
ATOM     11  O   UNL     1       5.875   4.643 -16.155  1.00  0.00    -0.545 OA
ENDBRANCH   8   9
ENDBRANCH   1   7
BRANCH   4  12
ATOM     12  O   UNL     1       8.831  11.182 -14.906  1.00  0.00    -0.504 OA
ATOM     13  H   UNL     1       8.751  12.190 -14.837  1.00  0.00     0.293 HD
ENDBRANCH   4  12
BRANCH   6  14
ATOM     14  O   UNL     1       8.123  12.036 -12.354  1.00  0.00    -0.504 OA
ATOM     15  H   UNL     1       9.073  12.240 -12.067  1.00  0.00     0.293 HD
ENDBRANCH   6  14
TORSDOF 4
ENDMDL
MODEL 9
REMARK VINA RESULT:    -4.855      2.309      3.130
REMARK INTER + INTRA:          -5.845
REMARK INTER:                  -5.718
REMARK INTRA:                  -0.126
REMARK UNBOUND:                -0.138
REMARK SMILES O=C([O-])C=Cc1ccc(O)c(O)c1
REMARK SMILES IDX 6 1 13 2 7 3 11 4 8 5 9 6 5 7 4 8 2 9 1 10 3 11 12 12 10 14
REMARK H PARENT 12 13 10 15
REMARK Flexibility Score: inf
ROOT
ATOM      1  C   UNL     1       8.930  16.229 -18.915  1.00  0.00    -0.022 A 
ATOM      2  C   UNL     1      10.146  15.791 -18.364  1.00  0.00     0.058 A 
ATOM      3  C   UNL     1       7.785  16.262 -18.096  1.00  0.00     0.012 A 
ATOM      4  C   UNL     1      10.215  15.368 -17.029  1.00  0.00     0.157 A 
ATOM      5  C   UNL     1       7.855  15.841 -16.764  1.00  0.00     0.051 A 
ATOM      6  C   UNL     1       9.067  15.391 -16.228  1.00  0.00     0.157 A 
ENDROOT
BRANCH   1   7
ATOM      7  C   UNL     1       8.913  16.675 -20.331  1.00  0.00     0.010 C 
ATOM      8  C   UNL     1       8.857  15.836 -21.375  1.00  0.00     0.025 C 
BRANCH   8   9
ATOM      9  C   UNL     1       8.853  16.314 -22.767  1.00  0.00     0.064 C 
ATOM     10  O   UNL     1       8.158  17.307 -23.115  1.00  0.00    -0.545 OA
ATOM     11  O   UNL     1       9.626  15.659 -23.716  1.00  0.00    -0.545 OA
ENDBRANCH   8   9
ENDBRANCH   1   7
BRANCH   4  12
ATOM     12  O   UNL     1      11.423  14.925 -16.491  1.00  0.00    -0.504 OA
ATOM     13  H   UNL     1      11.953  14.176 -16.920  1.00  0.00     0.293 HD
ENDBRANCH   4  12
BRANCH   6  14
ATOM     14  O   UNL     1       9.139  14.969 -14.902  1.00  0.00    -0.504 OA
ATOM     15  H   UNL     1       8.374  15.118 -14.256  1.00  0.00     0.293 HD
ENDBRANCH   6  14
TORSDOF 4
ENDMDL
