MODEL 1
REMARK VINA RESULT:    -5.364      0.000      0.000
REMARK INTER + INTRA:         -18.753
REMARK INTER:                 -14.144
REMARK INTRA:                  -4.608
REMARK UNBOUND:                -4.608
REMARK SMILES CCCCCCCCCCCCCCCCCCCCCCCCCCCCCC(=O)[O-]
REMARK SMILES IDX 16 1 17 2 18 3 19 4 20 5 21 6 22 7 23 8 24 9 25 10 26 11
REMARK SMILES IDX 27 12 28 13 29 14 30 15 31 16 32 17 15 18 14 19 13 20 12 21
REMARK SMILES IDX 11 22 10 23 9 24 8 25 7 26 6 27 5 28 4 29 3 30 2 31 1 32
REMARK H PARENT
REMARK Flexibility Score: inf
ROOT
ATOM      1  C   UNL     1     -21.319  41.898  90.266  1.00  0.00     0.000 C 
ENDROOT
BRANCH   1   2
ATOM      2  C   UNL     1     -22.517  42.861  90.147  1.00  0.00     0.000 C 
BRANCH   2   3
ATOM      3  C   UNL     1     -22.460  43.699  88.858  1.00  0.00     0.000 C 
BRANCH   3   4
ATOM      4  C   UNL     1     -21.780  45.061  89.063  1.00  0.00     0.000 C 
BRANCH   4   5
ATOM      5  C   UNL     1     -21.972  46.012  87.868  1.00  0.00     0.000 C 
BRANCH   5   6
ATOM      6  C   UNL     1     -23.106  45.563  86.932  1.00  0.00     0.000 C 
BRANCH   6   7
ATOM      7  C   UNL     1     -23.623  46.704  86.038  1.00  0.00     0.000 C 
BRANCH   7   8
ATOM      8  C   UNL     1     -25.152  46.884  86.139  1.00  0.00     0.000 C 
BRANCH   8   9
ATOM      9  C   UNL     1     -25.799  46.084  87.287  1.00  0.00     0.000 C 
BRANCH   9  10
ATOM     10  C   UNL     1     -26.603  46.922  88.300  1.00  0.00     0.000 C 
BRANCH  10  11
ATOM     11  C   UNL     1     -26.711  46.307  89.709  1.00  0.00     0.000 C 
BRANCH  11  12
ATOM     12  C   UNL     1     -25.508  45.415  90.058  1.00  0.00     0.000 C 
BRANCH  12  13
ATOM     13  C   UNL     1     -25.895  43.939  90.241  1.00  0.00     0.006 C 
BRANCH  13  14
ATOM     14  C   UNL     1     -27.043  43.742  91.242  1.00  0.00     0.053 C 
BRANCH  14  15
ATOM     15  C   UNL     1     -28.146  42.945  90.618  1.00  0.00     0.041 C 
ATOM     16  O   UNL     1     -29.241  42.798  91.224  1.00  0.00    -0.550 OA
ATOM     17  O   UNL     1     -27.945  42.314  89.398  1.00  0.00    -0.550 OA
ENDBRANCH  14  15
ENDBRANCH  13  14
ENDBRANCH  12  13
ENDBRANCH  11  12
ENDBRANCH  10  11
ENDBRANCH   9  10
ENDBRANCH   8   9
ENDBRANCH   7   8
ENDBRANCH   6   7
ENDBRANCH   5   6
ENDBRANCH   4   5
ENDBRANCH   3   4
ENDBRANCH   2   3
ENDBRANCH   1   2
BRANCH   1  18
ATOM     18  C   UNL     1     -21.276  41.149  91.611  1.00  0.00     0.000 C 
BRANCH  18  19
ATOM     19  C   UNL     1     -20.155  40.094  91.649  1.00  0.00     0.000 C 
BRANCH  19  20
ATOM     20  C   UNL     1     -18.834  40.612  91.044  1.00  0.00     0.000 C 
BRANCH  20  21
ATOM     21  C   UNL     1     -18.153  39.618  90.084  1.00  0.00     0.000 C 
BRANCH  21  22
ATOM     22  C   UNL     1     -18.279  38.138  90.481  1.00  0.00     0.000 C 
BRANCH  22  23
ATOM     23  C   UNL     1     -18.942  37.285  89.384  1.00  0.00     0.000 C 
BRANCH  23  24
ATOM     24  C   UNL     1     -20.165  37.969  88.746  1.00  0.00    -0.000 C 
BRANCH  24  25
ATOM     25  C   UNL     1     -20.005  38.357  87.261  1.00  0.00    -0.000 C 
BRANCH  25  26
ATOM     26  C   UNL     1     -21.181  39.146  86.656  1.00  0.00    -0.000 C 
BRANCH  26  27
ATOM     27  C   UNL     1     -21.135  40.643  86.995  1.00  0.00    -0.000 C 
BRANCH  27  28
ATOM     28  C   UNL     1     -19.694  41.171  86.928  1.00  0.00    -0.000 C 
BRANCH  28  29
ATOM     29  C   UNL     1     -19.625  42.707  86.903  1.00  0.00    -0.000 C 
BRANCH  29  30
ATOM     30  C   UNL     1     -20.416  43.311  85.729  1.00  0.00    -0.000 C 
BRANCH  30  31
ATOM     31  C   UNL     1     -19.756  44.577  85.161  1.00  0.00    -0.003 C 
ATOM     32  C   UNL     1     -20.665  45.341  84.196  1.00  0.00     0.004 C 
ENDBRANCH  30  31
ENDBRANCH  29  30
ENDBRANCH  28  29
ENDBRANCH  27  28
ENDBRANCH  26  27
ENDBRANCH  25  26
ENDBRANCH  24  25
ENDBRANCH  23  24
ENDBRANCH  22  23
ENDBRANCH  21  22
ENDBRANCH  20  21
ENDBRANCH  19  20
ENDBRANCH  18  19
ENDBRANCH   1  18
TORSDOF 28
ENDMDL
MODEL 2
REMARK VINA RESULT:    -5.114      4.754     10.010
REMARK INTER + INTRA:         -18.092
REMARK INTER:                 -14.654
REMARK INTRA:                  -3.438
REMARK UNBOUND:                -4.608
REMARK SMILES CCCCCCCCCCCCCCCCCCCCCCCCCCCCCC(=O)[O-]
REMARK SMILES IDX 16 1 17 2 18 3 19 4 20 5 21 6 22 7 23 8 24 9 25 10 26 11
REMARK SMILES IDX 27 12 28 13 29 14 30 15 31 16 32 17 15 18 14 19 13 20 12 21
REMARK SMILES IDX 11 22 10 23 9 24 8 25 7 26 6 27 5 28 4 29 3 30 2 31 1 32
REMARK H PARENT
REMARK Flexibility Score: inf
ROOT
ATOM      1  C   UNL     1     -20.700  43.147  88.345  1.00  0.00     0.000 C 
ENDROOT
BRANCH   1   2
ATOM      2  C   UNL     1     -21.690  42.457  89.303  1.00  0.00     0.000 C 
BRANCH   2   3
ATOM      3  C   UNL     1     -20.995  41.427  90.211  1.00  0.00     0.000 C 
BRANCH   3   4
ATOM      4  C   UNL     1     -19.517  41.217  89.849  1.00  0.00     0.000 C 
BRANCH   4   5
ATOM      5  C   UNL     1     -19.223  39.795  89.339  1.00  0.00     0.000 C 
BRANCH   5   6
ATOM      6  C   UNL     1     -20.489  38.930  89.235  1.00  0.00     0.000 C 
BRANCH   6   7
ATOM      7  C   UNL     1     -20.988  38.782  87.787  1.00  0.00     0.000 C 
BRANCH   7   8
ATOM      8  C   UNL     1     -19.876  39.046  86.751  1.00  0.00     0.000 C 
BRANCH   8   9
ATOM      9  C   UNL     1     -20.092  38.323  85.407  1.00  0.00     0.000 C 
BRANCH   9  10
ATOM     10  C   UNL     1     -18.952  37.379  84.977  1.00  0.00     0.000 C 
BRANCH  10  11
ATOM     11  C   UNL     1     -18.658  37.366  83.465  1.00  0.00     0.000 C 
BRANCH  11  12
ATOM     12  C   UNL     1     -17.156  37.247  83.157  1.00  0.00     0.000 C 
BRANCH  12  13
ATOM     13  C   UNL     1     -16.871  37.024  81.664  1.00  0.00     0.006 C 
BRANCH  13  14
ATOM     14  C   UNL     1     -16.980  35.550  81.247  1.00  0.00     0.053 C 
BRANCH  14  15
ATOM     15  C   UNL     1     -17.903  35.407  80.078  1.00  0.00     0.041 C 
ATOM     16  O   UNL     1     -17.880  34.359  79.378  1.00  0.00    -0.550 OA
ATOM     17  O   UNL     1     -18.745  36.452  79.723  1.00  0.00    -0.550 OA
ENDBRANCH  14  15
ENDBRANCH  13  14
ENDBRANCH  12  13
ENDBRANCH  11  12
ENDBRANCH  10  11
ENDBRANCH   9  10
ENDBRANCH   8   9
ENDBRANCH   7   8
ENDBRANCH   6   7
ENDBRANCH   5   6
ENDBRANCH   4   5
ENDBRANCH   3   4
ENDBRANCH   2   3
ENDBRANCH   1   2
BRANCH   1  18
ATOM     18  C   UNL     1     -20.909  42.752  86.871  1.00  0.00     0.000 C 
BRANCH  18  19
ATOM     19  C   UNL     1     -19.575  42.621  86.113  1.00  0.00     0.000 C 
BRANCH  19  20
ATOM     20  C   UNL     1     -18.939  43.990  85.793  1.00  0.00     0.000 C 
BRANCH  20  21
ATOM     21  C   UNL     1     -19.727  44.820  84.763  1.00  0.00     0.000 C 
BRANCH  21  22
ATOM     22  C   UNL     1     -20.301  46.145  85.293  1.00  0.00     0.000 C 
BRANCH  22  23
ATOM     23  C   UNL     1     -21.772  46.355  84.891  1.00  0.00     0.000 C 
BRANCH  23  24
ATOM     24  C   UNL     1     -22.726  46.401  86.099  1.00  0.00    -0.000 C 
BRANCH  24  25
ATOM     25  C   UNL     1     -22.040  46.480  87.479  1.00  0.00    -0.000 C 
BRANCH  25  26
ATOM     26  C   UNL     1     -22.887  45.976  88.663  1.00  0.00    -0.000 C 
BRANCH  26  27
ATOM     27  C   UNL     1     -24.155  45.233  88.219  1.00  0.00    -0.000 C 
BRANCH  27  28
ATOM     28  C   UNL     1     -24.949  44.737  89.438  1.00  0.00    -0.000 C 
BRANCH  28  29
ATOM     29  C   UNL     1     -26.238  45.539  89.674  1.00  0.00    -0.000 C 
BRANCH  29  30
ATOM     30  C   UNL     1     -27.063  44.992  90.853  1.00  0.00    -0.000 C 
BRANCH  30  31
ATOM     31  C   UNL     1     -27.118  43.457  90.874  1.00  0.00    -0.003 C 
ATOM     32  C   UNL     1     -28.516  42.908  90.587  1.00  0.00     0.004 C 
ENDBRANCH  30  31
ENDBRANCH  29  30
ENDBRANCH  28  29
ENDBRANCH  27  28
ENDBRANCH  26  27
ENDBRANCH  25  26
ENDBRANCH  24  25
ENDBRANCH  23  24
ENDBRANCH  22  23
ENDBRANCH  21  22
ENDBRANCH  20  21
ENDBRANCH  19  20
ENDBRANCH  18  19
ENDBRANCH   1  18
TORSDOF 28
ENDMDL
MODEL 3
REMARK VINA RESULT:    -5.062      2.137      4.733
REMARK INTER + INTRA:         -17.956
REMARK INTER:                 -14.412
REMARK INTRA:                  -3.545
REMARK UNBOUND:                -4.608
REMARK SMILES CCCCCCCCCCCCCCCCCCCCCCCCCCCCCC(=O)[O-]
REMARK SMILES IDX 16 1 17 2 18 3 19 4 20 5 21 6 22 7 23 8 24 9 25 10 26 11
REMARK SMILES IDX 27 12 28 13 29 14 30 15 31 16 32 17 15 18 14 19 13 20 12 21
REMARK SMILES IDX 11 22 10 23 9 24 8 25 7 26 6 27 5 28 4 29 3 30 2 31 1 32
REMARK H PARENT
REMARK Flexibility Score: inf
ROOT
ATOM      1  C   UNL     1     -18.687  44.840  85.894  1.00  0.00     0.000 C 
ENDROOT
BRANCH   1   2
ATOM      2  C   UNL     1     -17.552  45.314  84.965  1.00  0.00     0.000 C 
BRANCH   2   3
ATOM      3  C   UNL     1     -18.081  45.787  83.599  1.00  0.00     0.000 C 
BRANCH   3   4
ATOM      4  C   UNL     1     -18.922  47.069  83.698  1.00  0.00     0.000 C 
BRANCH   4   5
ATOM      5  C   UNL     1     -20.266  46.962  82.957  1.00  0.00     0.000 C 
BRANCH   5   6
ATOM      6  C   UNL     1     -21.356  46.283  83.802  1.00  0.00     0.000 C 
BRANCH   6   7
ATOM      7  C   UNL     1     -21.680  47.063  85.088  1.00  0.00     0.000 C 
BRANCH   7   8
ATOM      8  C   UNL     1     -22.448  46.208  86.117  1.00  0.00     0.000 C 
BRANCH   8   9
ATOM      9  C   UNL     1     -21.864  46.275  87.542  1.00  0.00     0.000 C 
BRANCH   9  10
ATOM     10  C   UNL     1     -22.591  45.413  88.592  1.00  0.00     0.000 C 
BRANCH  10  11
ATOM     11  C   UNL     1     -23.680  44.482  88.024  1.00  0.00     0.000 C 
BRANCH  11  12
ATOM     12  C   UNL     1     -24.455  43.740  89.124  1.00  0.00     0.000 C 
BRANCH  12  13
ATOM     13  C   UNL     1     -25.752  44.458  89.526  1.00  0.00     0.006 C 
BRANCH  13  14
ATOM     14  C   UNL     1     -26.443  43.813  90.736  1.00  0.00     0.053 C 
BRANCH  14  15
ATOM     15  C   UNL     1     -27.727  43.167  90.319  1.00  0.00     0.041 C 
ATOM     16  O   UNL     1     -28.785  43.385  90.967  1.00  0.00    -0.550 OA
ATOM     17  O   UNL     1     -27.745  42.275  89.255  1.00  0.00    -0.550 OA
ENDBRANCH  14  15
ENDBRANCH  13  14
ENDBRANCH  12  13
ENDBRANCH  11  12
ENDBRANCH  10  11
ENDBRANCH   9  10
ENDBRANCH   8   9
ENDBRANCH   7   8
ENDBRANCH   6   7
ENDBRANCH   5   6
ENDBRANCH   4   5
ENDBRANCH   3   4
ENDBRANCH   2   3
ENDBRANCH   1   2
BRANCH   1  18
ATOM     18  C   UNL     1     -19.391  43.566  85.388  1.00  0.00     0.000 C 
BRANCH  18  19
ATOM     19  C   UNL     1     -20.591  43.180  86.272  1.00  0.00     0.000 C 
BRANCH  19  20
ATOM     20  C   UNL     1     -20.446  41.771  86.885  1.00  0.00     0.000 C 
BRANCH  20  21
ATOM     21  C   UNL     1     -21.396  41.503  88.067  1.00  0.00     0.000 C 
BRANCH  21  22
ATOM     22  C   UNL     1     -20.842  41.883  89.450  1.00  0.00     0.000 C 
BRANCH  22  23
ATOM     23  C   UNL     1     -20.673  40.665  90.375  1.00  0.00     0.000 C 
BRANCH  23  24
ATOM     24  C   UNL     1     -20.907  39.324  89.656  1.00  0.00    -0.000 C 
BRANCH  24  25
ATOM     25  C   UNL     1     -19.689  38.377  89.610  1.00  0.00    -0.000 C 
BRANCH  25  26
ATOM     26  C   UNL     1     -19.503  37.608  88.288  1.00  0.00    -0.000 C 
BRANCH  26  27
ATOM     27  C   UNL     1     -20.339  38.187  87.136  1.00  0.00    -0.000 C 
BRANCH  27  28
ATOM     28  C   UNL     1     -19.440  38.561  85.948  1.00  0.00    -0.000 C 
BRANCH  28  29
ATOM     29  C   UNL     1     -19.587  37.594  84.763  1.00  0.00    -0.000 C 
BRANCH  29  30
ATOM     30  C   UNL     1     -18.331  37.560  83.873  1.00  0.00    -0.000 C 
BRANCH  30  31
ATOM     31  C   UNL     1     -18.551  36.772  82.572  1.00  0.00    -0.003 C 
ATOM     32  C   UNL     1     -17.442  37.002  81.543  1.00  0.00     0.004 C 
ENDBRANCH  30  31
ENDBRANCH  29  30
ENDBRANCH  28  29
ENDBRANCH  27  28
ENDBRANCH  26  27
ENDBRANCH  25  26
ENDBRANCH  24  25
ENDBRANCH  23  24
ENDBRANCH  22  23
ENDBRANCH  21  22
ENDBRANCH  20  21
ENDBRANCH  19  20
ENDBRANCH  18  19
ENDBRANCH   1  18
TORSDOF 28
ENDMDL
MODEL 4
REMARK VINA RESULT:    -5.052      3.629      5.659
REMARK INTER + INTRA:         -17.931
REMARK INTER:                 -15.330
REMARK INTRA:                  -2.601
REMARK UNBOUND:                -4.608
REMARK SMILES CCCCCCCCCCCCCCCCCCCCCCCCCCCCCC(=O)[O-]
REMARK SMILES IDX 16 1 17 2 18 3 19 4 20 5 21 6 22 7 23 8 24 9 25 10 26 11
REMARK SMILES IDX 27 12 28 13 29 14 30 15 31 16 32 17 15 18 14 19 13 20 12 21
REMARK SMILES IDX 11 22 10 23 9 24 8 25 7 26 6 27 5 28 4 29 3 30 2 31 1 32
REMARK H PARENT
REMARK Flexibility Score: inf
ROOT
ATOM      1  C   UNL     1     -18.009  44.629  84.885  1.00  0.00     0.000 C 
ENDROOT
BRANCH   1   2
ATOM      2  C   UNL     1     -17.380  46.033  84.972  1.00  0.00     0.000 C 
BRANCH   2   3
ATOM      3  C   UNL     1     -17.985  47.003  83.942  1.00  0.00     0.000 C 
BRANCH   3   4
ATOM      4  C   UNL     1     -18.880  46.296  82.913  1.00  0.00     0.000 C 
BRANCH   4   5
ATOM      5  C   UNL     1     -20.254  46.972  82.752  1.00  0.00     0.000 C 
BRANCH   5   6
ATOM      6  C   UNL     1     -21.332  46.342  83.648  1.00  0.00     0.000 C 
BRANCH   6   7
ATOM      7  C   UNL     1     -21.498  47.083  84.986  1.00  0.00     0.000 C 
BRANCH   7   8
ATOM      8  C   UNL     1     -21.967  46.150  86.121  1.00  0.00     0.000 C 
BRANCH   8   9
ATOM      9  C   UNL     1     -23.452  46.327  86.499  1.00  0.00     0.000 C 
BRANCH   9  10
ATOM     10  C   UNL     1     -23.836  45.828  87.905  1.00  0.00     0.000 C 
BRANCH  10  11
ATOM     11  C   UNL     1     -22.662  45.285  88.743  1.00  0.00     0.000 C 
BRANCH  11  12
ATOM     12  C   UNL     1     -22.897  43.843  89.222  1.00  0.00     0.000 C 
BRANCH  12  13
ATOM     13  C   UNL     1     -24.379  43.440  89.194  1.00  0.00     0.006 C 
BRANCH  13  14
ATOM     14  C   UNL     1     -25.094  43.692  90.529  1.00  0.00     0.053 C 
BRANCH  14  15
ATOM     15  C   UNL     1     -26.406  44.373  90.297  1.00  0.00     0.041 C 
ATOM     16  O   UNL     1     -27.252  43.866  89.512  1.00  0.00    -0.550 OA
ATOM     17  O   UNL     1     -26.671  45.597  90.896  1.00  0.00    -0.550 OA
ENDBRANCH  14  15
ENDBRANCH  13  14
ENDBRANCH  12  13
ENDBRANCH  11  12
ENDBRANCH  10  11
ENDBRANCH   9  10
ENDBRANCH   8   9
ENDBRANCH   7   8
ENDBRANCH   6   7
ENDBRANCH   5   6
ENDBRANCH   4   5
ENDBRANCH   3   4
ENDBRANCH   2   3
ENDBRANCH   1   2
BRANCH   1  18
ATOM     18  C   UNL     1     -18.965  44.320  86.052  1.00  0.00     0.000 C 
BRANCH  18  19
ATOM     19  C   UNL     1     -19.911  43.148  85.730  1.00  0.00     0.000 C 
BRANCH  19  20
ATOM     20  C   UNL     1     -20.348  42.376  86.993  1.00  0.00     0.000 C 
BRANCH  20  21
ATOM     21  C   UNL     1     -19.828  40.927  87.050  1.00  0.00     0.000 C 
BRANCH  21  22
ATOM     22  C   UNL     1     -20.914  39.848  87.190  1.00  0.00     0.000 C 
BRANCH  22  23
ATOM     23  C   UNL     1     -20.493  38.501  86.576  1.00  0.00     0.000 C 
BRANCH  23  24
ATOM     24  C   UNL     1     -19.429  38.647  85.473  1.00  0.00    -0.000 C 
BRANCH  24  25
ATOM     25  C   UNL     1     -19.179  37.382  84.624  1.00  0.00    -0.000 C 
BRANCH  25  26
ATOM     26  C   UNL     1     -17.854  37.368  83.840  1.00  0.00    -0.000 C 
BRANCH  26  27
ATOM     27  C   UNL     1     -17.345  35.948  83.551  1.00  0.00    -0.000 C 
BRANCH  27  28
ATOM     28  C   UNL     1     -16.345  35.957  82.384  1.00  0.00    -0.000 C 
BRANCH  28  29
ATOM     29  C   UNL     1     -17.020  35.727  81.022  1.00  0.00    -0.000 C 
BRANCH  29  30
ATOM     30  C   UNL     1     -17.533  37.035  80.393  1.00  0.00    -0.000 C 
BRANCH  30  31
ATOM     31  C   UNL     1     -18.812  36.831  79.566  1.00  0.00    -0.003 C 
ATOM     32  C   UNL     1     -18.694  37.382  78.143  1.00  0.00     0.004 C 
ENDBRANCH  30  31
ENDBRANCH  29  30
ENDBRANCH  28  29
ENDBRANCH  27  28
ENDBRANCH  26  27
ENDBRANCH  25  26
ENDBRANCH  24  25
ENDBRANCH  23  24
ENDBRANCH  22  23
ENDBRANCH  21  22
ENDBRANCH  20  21
ENDBRANCH  19  20
ENDBRANCH  18  19
ENDBRANCH   1  18
TORSDOF 28
ENDMDL
MODEL 5
REMARK VINA RESULT:    -5.034      2.738      4.472
REMARK INTER + INTRA:         -17.884
REMARK INTER:                 -14.778
REMARK INTRA:                  -3.106
REMARK UNBOUND:                -4.608
REMARK SMILES CCCCCCCCCCCCCCCCCCCCCCCCCCCCCC(=O)[O-]
REMARK SMILES IDX 16 1 17 2 18 3 19 4 20 5 21 6 22 7 23 8 24 9 25 10 26 11
REMARK SMILES IDX 27 12 28 13 29 14 30 15 31 16 32 17 15 18 14 19 13 20 12 21
REMARK SMILES IDX 11 22 10 23 9 24 8 25 7 26 6 27 5 28 4 29 3 30 2 31 1 32
REMARK H PARENT
REMARK Flexibility Score: inf
ROOT
ATOM      1  C   UNL     1     -21.053  42.027  87.015  1.00  0.00     0.000 C 
ENDROOT
BRANCH   1   2
ATOM      2  C   UNL     1     -19.825  42.472  86.197  1.00  0.00     0.000 C 
BRANCH   2   3
ATOM      3  C   UNL     1     -19.518  43.969  86.383  1.00  0.00     0.000 C 
BRANCH   3   4
ATOM      4  C   UNL     1     -18.508  44.501  85.354  1.00  0.00     0.000 C 
BRANCH   4   5
ATOM      5  C   UNL     1     -19.172  45.321  84.234  1.00  0.00     0.000 C 
BRANCH   5   6
ATOM      6  C   UNL     1     -20.652  45.621  84.518  1.00  0.00     0.000 C 
BRANCH   6   7
ATOM      7  C   UNL     1     -20.873  47.037  85.078  1.00  0.00     0.000 C 
BRANCH   7   8
ATOM      8  C   UNL     1     -21.655  47.029  86.408  1.00  0.00     0.000 C 
BRANCH   8   9
ATOM      9  C   UNL     1     -22.584  45.810  86.577  1.00  0.00     0.000 C 
BRANCH   9  10
ATOM     10  C   UNL     1     -22.909  45.429  88.034  1.00  0.00     0.000 C 
BRANCH  10  11
ATOM     11  C   UNL     1     -23.992  44.345  88.193  1.00  0.00     0.000 C 
BRANCH  11  12
ATOM     12  C   UNL     1     -25.180  44.818  89.046  1.00  0.00     0.000 C 
BRANCH  12  13
ATOM     13  C   UNL     1     -25.650  43.757  90.053  1.00  0.00     0.006 C 
BRANCH  13  14
ATOM     14  C   UNL     1     -27.008  44.092  90.687  1.00  0.00     0.053 C 
BRANCH  14  15
ATOM     15  C   UNL     1     -27.996  43.004  90.407  1.00  0.00     0.041 C 
ATOM     16  O   UNL     1     -28.921  42.762  91.228  1.00  0.00    -0.550 OA
ATOM     17  O   UNL     1     -27.861  42.215  89.273  1.00  0.00    -0.550 OA
ENDBRANCH  14  15
ENDBRANCH  13  14
ENDBRANCH  12  13
ENDBRANCH  11  12
ENDBRANCH  10  11
ENDBRANCH   9  10
ENDBRANCH   8   9
ENDBRANCH   7   8
ENDBRANCH   6   7
ENDBRANCH   5   6
ENDBRANCH   4   5
ENDBRANCH   3   4
ENDBRANCH   2   3
ENDBRANCH   1   2
BRANCH   1  18
ATOM     18  C   UNL     1     -20.917  42.322  88.521  1.00  0.00     0.000 C 
BRANCH  18  19
ATOM     19  C   UNL     1     -19.937  41.357  89.213  1.00  0.00     0.000 C 
BRANCH  19  20
ATOM     20  C   UNL     1     -20.575  40.621  90.410  1.00  0.00     0.000 C 
BRANCH  20  21
ATOM     21  C   UNL     1     -20.492  39.086  90.316  1.00  0.00     0.000 C 
BRANCH  21  22
ATOM     22  C   UNL     1     -19.204  38.539  89.679  1.00  0.00     0.000 C 
BRANCH  22  23
ATOM     23  C   UNL     1     -19.470  37.775  88.370  1.00  0.00     0.000 C 
BRANCH  23  24
ATOM     24  C   UNL     1     -20.831  38.119  87.737  1.00  0.00    -0.000 C 
BRANCH  24  25
ATOM     25  C   UNL     1     -20.786  38.517  86.247  1.00  0.00    -0.000 C 
BRANCH  25  26
ATOM     26  C   UNL     1     -19.394  38.451  85.591  1.00  0.00    -0.000 C 
BRANCH  26  27
ATOM     27  C   UNL     1     -19.358  37.543  84.353  1.00  0.00    -0.000 C 
BRANCH  27  28
ATOM     28  C   UNL     1     -17.911  37.309  83.893  1.00  0.00    -0.000 C 
BRANCH  28  29
ATOM     29  C   UNL     1     -17.440  35.864  84.121  1.00  0.00    -0.000 C 
BRANCH  29  30
ATOM     30  C   UNL     1     -16.973  35.186  82.820  1.00  0.00    -0.000 C 
BRANCH  30  31
ATOM     31  C   UNL     1     -17.933  35.434  81.647  1.00  0.00    -0.003 C 
ATOM     32  C   UNL     1     -17.564  34.634  80.396  1.00  0.00     0.004 C 
ENDBRANCH  30  31
ENDBRANCH  29  30
ENDBRANCH  28  29
ENDBRANCH  27  28
ENDBRANCH  26  27
ENDBRANCH  25  26
ENDBRANCH  24  25
ENDBRANCH  23  24
ENDBRANCH  22  23
ENDBRANCH  21  22
ENDBRANCH  20  21
ENDBRANCH  19  20
ENDBRANCH  18  19
ENDBRANCH   1  18
TORSDOF 28
ENDMDL
MODEL 6
REMARK VINA RESULT:    -5.007      3.485      4.725
REMARK INTER + INTRA:         -17.813
REMARK INTER:                 -14.797
REMARK INTRA:                  -3.016
REMARK UNBOUND:                -4.608
REMARK SMILES CCCCCCCCCCCCCCCCCCCCCCCCCCCCCC(=O)[O-]
REMARK SMILES IDX 16 1 17 2 18 3 19 4 20 5 21 6 22 7 23 8 24 9 25 10 26 11
REMARK SMILES IDX 27 12 28 13 29 14 30 15 31 16 32 17 15 18 14 19 13 20 12 21
REMARK SMILES IDX 11 22 10 23 9 24 8 25 7 26 6 27 5 28 4 29 3 30 2 31 1 32
REMARK H PARENT
REMARK Flexibility Score: inf
ROOT
ATOM      1  C   UNL     1     -19.479  41.405  90.218  1.00  0.00     0.000 C 
ENDROOT
BRANCH   1   2
ATOM      2  C   UNL     1     -20.989  41.193  89.995  1.00  0.00     0.000 C 
BRANCH   2   3
ATOM      3  C   UNL     1     -21.600  42.282  89.096  1.00  0.00     0.000 C 
BRANCH   3   4
ATOM      4  C   UNL     1     -21.706  41.848  87.626  1.00  0.00     0.000 C 
BRANCH   4   5
ATOM      5  C   UNL     1     -20.468  42.235  86.797  1.00  0.00     0.000 C 
BRANCH   5   6
ATOM      6  C   UNL     1     -20.148  43.736  86.878  1.00  0.00     0.000 C 
BRANCH   6   7
ATOM      7  C   UNL     1     -20.491  44.486  85.580  1.00  0.00     0.000 C 
BRANCH   7   8
ATOM      8  C   UNL     1     -21.691  45.440  85.751  1.00  0.00     0.000 C 
BRANCH   8   9
ATOM      9  C   UNL     1     -22.202  45.544  87.202  1.00  0.00     0.000 C 
BRANCH   9  10
ATOM     10  C   UNL     1     -23.710  45.828  87.349  1.00  0.00     0.000 C 
BRANCH  10  11
ATOM     11  C   UNL     1     -24.198  45.995  88.801  1.00  0.00     0.000 C 
BRANCH  11  12
ATOM     12  C   UNL     1     -25.639  45.494  89.000  1.00  0.00     0.000 C 
BRANCH  12  13
ATOM     13  C   UNL     1     -25.703  44.130  89.703  1.00  0.00     0.006 C 
BRANCH  13  14
ATOM     14  C   UNL     1     -26.694  44.106  90.875  1.00  0.00     0.053 C 
BRANCH  14  15
ATOM     15  C   UNL     1     -27.701  43.015  90.683  1.00  0.00     0.041 C 
ATOM     16  O   UNL     1     -28.241  42.470  91.682  1.00  0.00    -0.550 OA
ATOM     17  O   UNL     1     -27.997  42.557  89.406  1.00  0.00    -0.550 OA
ENDBRANCH  14  15
ENDBRANCH  13  14
ENDBRANCH  12  13
ENDBRANCH  11  12
ENDBRANCH  10  11
ENDBRANCH   9  10
ENDBRANCH   8   9
ENDBRANCH   7   8
ENDBRANCH   6   7
ENDBRANCH   5   6
ENDBRANCH   4   5
ENDBRANCH   3   4
ENDBRANCH   2   3
ENDBRANCH   1   2
BRANCH   1  18
ATOM     18  C   UNL     1     -18.690  40.085  90.317  1.00  0.00     0.000 C 
BRANCH  18  19
ATOM     19  C   UNL     1     -19.590  38.903  90.721  1.00  0.00     0.000 C 
BRANCH  19  20
ATOM     20  C   UNL     1     -19.523  37.736  89.712  1.00  0.00     0.000 C 
BRANCH  20  21
ATOM     21  C   UNL     1     -19.526  38.183  88.238  1.00  0.00     0.000 C 
BRANCH  21  22
ATOM     22  C   UNL     1     -20.919  38.349  87.609  1.00  0.00     0.000 C 
BRANCH  22  23
ATOM     23  C   UNL     1     -20.865  38.470  86.075  1.00  0.00     0.000 C 
BRANCH  23  24
ATOM     24  C   UNL     1     -19.432  38.399  85.515  1.00  0.00    -0.000 C 
BRANCH  24  25
ATOM     25  C   UNL     1     -19.234  37.436  84.326  1.00  0.00    -0.000 C 
BRANCH  25  26
ATOM     26  C   UNL     1     -17.779  37.268  83.850  1.00  0.00    -0.000 C 
BRANCH  26  27
ATOM     27  C   UNL     1     -17.492  35.870  83.284  1.00  0.00    -0.000 C 
BRANCH  27  28
ATOM     28  C   UNL     1     -16.460  35.945  82.148  1.00  0.00    -0.000 C 
BRANCH  28  29
ATOM     29  C   UNL     1     -16.902  35.179  80.891  1.00  0.00    -0.000 C 
BRANCH  29  30
ATOM     30  C   UNL     1     -18.223  35.716  80.311  1.00  0.00    -0.000 C 
BRANCH  30  31
ATOM     31  C   UNL     1     -18.084  37.137  79.743  1.00  0.00    -0.003 C 
ATOM     32  C   UNL     1     -18.790  37.311  78.397  1.00  0.00     0.004 C 
ENDBRANCH  30  31
ENDBRANCH  29  30
ENDBRANCH  28  29
ENDBRANCH  27  28
ENDBRANCH  26  27
ENDBRANCH  25  26
ENDBRANCH  24  25
ENDBRANCH  23  24
ENDBRANCH  22  23
ENDBRANCH  21  22
ENDBRANCH  20  21
ENDBRANCH  19  20
ENDBRANCH  18  19
ENDBRANCH   1  18
TORSDOF 28
ENDMDL
MODEL 7
REMARK VINA RESULT:    -4.981      3.878      9.260
REMARK INTER + INTRA:         -17.742
REMARK INTER:                 -13.585
REMARK INTRA:                  -4.156
REMARK UNBOUND:                -4.608
REMARK SMILES CCCCCCCCCCCCCCCCCCCCCCCCCCCCCC(=O)[O-]
REMARK SMILES IDX 16 1 17 2 18 3 19 4 20 5 21 6 22 7 23 8 24 9 25 10 26 11
REMARK SMILES IDX 27 12 28 13 29 14 30 15 31 16 32 17 15 18 14 19 13 20 12 21
REMARK SMILES IDX 11 22 10 23 9 24 8 25 7 26 6 27 5 28 4 29 3 30 2 31 1 32
REMARK H PARENT
REMARK Flexibility Score: inf
ROOT
ATOM      1  C   UNL     1     -19.502  42.051  86.222  1.00  0.00     0.000 C 
ENDROOT
BRANCH   1   2
ATOM      2  C   UNL     1     -20.554  41.690  87.289  1.00  0.00     0.000 C 
BRANCH   2   3
ATOM      3  C   UNL     1     -19.961  41.687  88.710  1.00  0.00     0.000 C 
BRANCH   3   4
ATOM      4  C   UNL     1     -21.001  41.347  89.788  1.00  0.00     0.000 C 
BRANCH   4   5
ATOM      5  C   UNL     1     -20.366  40.812  91.084  1.00  0.00     0.000 C 
BRANCH   5   6
ATOM      6  C   UNL     1     -18.872  40.490  90.921  1.00  0.00     0.000 C 
BRANCH   6   7
ATOM      7  C   UNL     1     -18.541  39.026  91.261  1.00  0.00     0.000 C 
BRANCH   7   8
ATOM      8  C   UNL     1     -18.259  38.179  90.004  1.00  0.00     0.000 C 
BRANCH   8   9
ATOM      9  C   UNL     1     -19.470  37.357  89.522  1.00  0.00     0.000 C 
BRANCH   9  10
ATOM     10  C   UNL     1     -20.264  37.978  88.356  1.00  0.00     0.000 C 
BRANCH  10  11
ATOM     11  C   UNL     1     -19.412  38.399  87.144  1.00  0.00     0.000 C 
BRANCH  11  12
ATOM     12  C   UNL     1     -20.112  38.119  85.804  1.00  0.00     0.000 C 
BRANCH  12  13
ATOM     13  C   UNL     1     -19.141  38.120  84.613  1.00  0.00     0.006 C 
BRANCH  13  14
ATOM     14  C   UNL     1     -18.390  36.791  84.452  1.00  0.00     0.053 C 
BRANCH  14  15
ATOM     15  C   UNL     1     -17.509  36.835  83.243  1.00  0.00     0.041 C 
ATOM     16  O   UNL     1     -18.011  36.998  82.099  1.00  0.00    -0.550 OA
ATOM     17  O   UNL     1     -16.141  36.633  83.371  1.00  0.00    -0.550 OA
ENDBRANCH  14  15
ENDBRANCH  13  14
ENDBRANCH  12  13
ENDBRANCH  11  12
ENDBRANCH  10  11
ENDBRANCH   9  10
ENDBRANCH   8   9
ENDBRANCH   7   8
ENDBRANCH   6   7
ENDBRANCH   5   6
ENDBRANCH   4   5
ENDBRANCH   3   4
ENDBRANCH   2   3
ENDBRANCH   1   2
BRANCH   1  18
ATOM     18  C   UNL     1     -19.772  43.405  85.540  1.00  0.00     0.000 C 
BRANCH  18  19
ATOM     19  C   UNL     1     -18.631  44.411  85.780  1.00  0.00     0.000 C 
BRANCH  19  20
ATOM     20  C   UNL     1     -17.992  44.907  84.466  1.00  0.00     0.000 C 
BRANCH  20  21
ATOM     21  C   UNL     1     -18.547  46.256  83.970  1.00  0.00     0.000 C 
BRANCH  21  22
ATOM     22  C   UNL     1     -19.602  46.158  82.856  1.00  0.00     0.000 C 
BRANCH  22  23
ATOM     23  C   UNL     1     -21.002  46.593  83.326  1.00  0.00     0.000 C 
BRANCH  23  24
ATOM     24  C   UNL     1     -21.072  46.864  84.840  1.00  0.00    -0.000 C 
BRANCH  24  25
ATOM     25  C   UNL     1     -22.492  47.062  85.411  1.00  0.00    -0.000 C 
BRANCH  25  26
ATOM     26  C   UNL     1     -22.842  46.180  86.624  1.00  0.00    -0.000 C 
BRANCH  26  27
ATOM     27  C   UNL     1     -21.617  45.820  87.477  1.00  0.00    -0.000 C 
BRANCH  27  28
ATOM     28  C   UNL     1     -22.002  44.841  88.596  1.00  0.00    -0.000 C 
BRANCH  28  29
ATOM     29  C   UNL     1     -23.203  43.956  88.224  1.00  0.00    -0.000 C 
BRANCH  29  30
ATOM     30  C   UNL     1     -24.209  43.815  89.380  1.00  0.00    -0.000 C 
BRANCH  30  31
ATOM     31  C   UNL     1     -25.145  45.027  89.502  1.00  0.00    -0.003 C 
ATOM     32  C   UNL     1     -26.608  44.631  89.711  1.00  0.00     0.004 C 
ENDBRANCH  30  31
ENDBRANCH  29  30
ENDBRANCH  28  29
ENDBRANCH  27  28
ENDBRANCH  26  27
ENDBRANCH  25  26
ENDBRANCH  24  25
ENDBRANCH  23  24
ENDBRANCH  22  23
ENDBRANCH  21  22
ENDBRANCH  20  21
ENDBRANCH  19  20
ENDBRANCH  18  19
ENDBRANCH   1  18
TORSDOF 28
ENDMDL
MODEL 8
REMARK VINA RESULT:    -4.967      2.812      5.374
REMARK INTER + INTRA:         -17.707
REMARK INTER:                 -15.040
REMARK INTRA:                  -2.667
REMARK UNBOUND:                -4.608
REMARK SMILES CCCCCCCCCCCCCCCCCCCCCCCCCCCCCC(=O)[O-]
REMARK SMILES IDX 16 1 17 2 18 3 19 4 20 5 21 6 22 7 23 8 24 9 25 10 26 11
REMARK SMILES IDX 27 12 28 13 29 14 30 15 31 16 32 17 15 18 14 19 13 20 12 21
REMARK SMILES IDX 11 22 10 23 9 24 8 25 7 26 6 27 5 28 4 29 3 30 2 31 1 32
REMARK H PARENT
REMARK Flexibility Score: inf
ROOT
ATOM      1  C   UNL     1     -18.183  46.633  84.462  1.00  0.00     0.000 C 
ENDROOT
BRANCH   1   2
ATOM      2  C   UNL     1     -18.855  46.696  83.077  1.00  0.00     0.000 C 
BRANCH   2   3
ATOM      3  C   UNL     1     -20.269  46.088  83.091  1.00  0.00     0.000 C 
BRANCH   3   4
ATOM      4  C   UNL     1     -21.287  46.968  83.832  1.00  0.00     0.000 C 
BRANCH   4   5
ATOM      5  C   UNL     1     -21.876  46.282  85.077  1.00  0.00     0.000 C 
BRANCH   5   6
ATOM      6  C   UNL     1     -21.508  47.006  86.382  1.00  0.00     0.000 C 
BRANCH   6   7
ATOM      7  C   UNL     1     -22.596  46.871  87.462  1.00  0.00     0.000 C 
BRANCH   7   8
ATOM      8  C   UNL     1     -23.405  45.565  87.322  1.00  0.00     0.000 C 
BRANCH   8   9
ATOM      9  C   UNL     1     -24.893  45.787  86.986  1.00  0.00     0.000 C 
BRANCH   9  10
ATOM     10  C   UNL     1     -25.887  45.346  88.078  1.00  0.00     0.000 C 
BRANCH  10  11
ATOM     11  C   UNL     1     -26.154  46.397  89.173  1.00  0.00     0.000 C 
BRANCH  11  12
ATOM     12  C   UNL     1     -26.369  45.765  90.558  1.00  0.00     0.000 C 
BRANCH  12  13
ATOM     13  C   UNL     1     -25.853  44.321  90.640  1.00  0.00     0.006 C 
BRANCH  13  14
ATOM     14  C   UNL     1     -26.780  43.398  91.444  1.00  0.00     0.053 C 
BRANCH  14  15
ATOM     15  C   UNL     1     -27.993  43.050  90.640  1.00  0.00     0.041 C 
ATOM     16  O   UNL     1     -29.051  42.682  91.217  1.00  0.00    -0.550 OA
ATOM     17  O   UNL     1     -27.939  43.071  89.253  1.00  0.00    -0.550 OA
ENDBRANCH  14  15
ENDBRANCH  13  14
ENDBRANCH  12  13
ENDBRANCH  11  12
ENDBRANCH  10  11
ENDBRANCH   9  10
ENDBRANCH   8   9
ENDBRANCH   7   8
ENDBRANCH   6   7
ENDBRANCH   5   6
ENDBRANCH   4   5
ENDBRANCH   3   4
ENDBRANCH   2   3
ENDBRANCH   1   2
BRANCH   1  18
ATOM     18  C   UNL     1     -17.613  45.242  84.796  1.00  0.00     0.000 C 
BRANCH  18  19
ATOM     19  C   UNL     1     -18.377  44.566  85.949  1.00  0.00     0.000 C 
BRANCH  19  20
ATOM     20  C   UNL     1     -19.188  43.338  85.484  1.00  0.00     0.000 C 
BRANCH  20  21
ATOM     21  C   UNL     1     -20.625  43.292  86.037  1.00  0.00     0.000 C 
BRANCH  21  22
ATOM     22  C   UNL     1     -20.761  42.714  87.455  1.00  0.00     0.000 C 
BRANCH  22  23
ATOM     23  C   UNL     1     -21.365  41.298  87.461  1.00  0.00     0.000 C 
BRANCH  23  24
ATOM     24  C   UNL     1     -20.300  40.188  87.375  1.00  0.00    -0.000 C 
BRANCH  24  25
ATOM     25  C   UNL     1     -20.643  39.015  86.432  1.00  0.00    -0.000 C 
BRANCH  25  26
ATOM     26  C   UNL     1     -19.449  38.138  86.013  1.00  0.00    -0.000 C 
BRANCH  26  27
ATOM     27  C   UNL     1     -19.453  37.798  84.515  1.00  0.00    -0.000 C 
BRANCH  27  28
ATOM     28  C   UNL     1     -18.310  36.830  84.175  1.00  0.00    -0.000 C 
BRANCH  28  29
ATOM     29  C   UNL     1     -17.337  37.402  83.131  1.00  0.00    -0.000 C 
BRANCH  29  30
ATOM     30  C   UNL     1     -16.881  36.343  82.111  1.00  0.00    -0.000 C 
BRANCH  30  31
ATOM     31  C   UNL     1     -17.940  36.067  81.032  1.00  0.00    -0.003 C 
ATOM     32  C   UNL     1     -17.527  34.959  80.062  1.00  0.00     0.004 C 
ENDBRANCH  30  31
ENDBRANCH  29  30
ENDBRANCH  28  29
ENDBRANCH  27  28
ENDBRANCH  26  27
ENDBRANCH  25  26
ENDBRANCH  24  25
ENDBRANCH  23  24
ENDBRANCH  22  23
ENDBRANCH  21  22
ENDBRANCH  20  21
ENDBRANCH  19  20
ENDBRANCH  18  19
ENDBRANCH   1  18
TORSDOF 28
ENDMDL
MODEL 9
REMARK VINA RESULT:    -4.951      2.795      4.307
REMARK INTER + INTRA:         -17.664
REMARK INTER:                 -14.383
REMARK INTRA:                  -3.281
REMARK UNBOUND:                -4.608
REMARK SMILES CCCCCCCCCCCCCCCCCCCCCCCCCCCCCC(=O)[O-]
REMARK SMILES IDX 16 1 17 2 18 3 19 4 20 5 21 6 22 7 23 8 24 9 25 10 26 11
REMARK SMILES IDX 27 12 28 13 29 14 30 15 31 16 32 17 15 18 14 19 13 20 12 21
REMARK SMILES IDX 11 22 10 23 9 24 8 25 7 26 6 27 5 28 4 29 3 30 2 31 1 32
REMARK H PARENT
REMARK Flexibility Score: inf
ROOT
ATOM      1  C   UNL     1     -21.006  41.106  90.929  1.00  0.00     0.000 C 
ENDROOT
BRANCH   1   2
ATOM      2  C   UNL     1     -20.457  41.673  89.605  1.00  0.00     0.000 C 
BRANCH   2   3
ATOM      3  C   UNL     1     -21.577  42.214  88.699  1.00  0.00     0.000 C 
BRANCH   3   4
ATOM      4  C   UNL     1     -21.343  41.901  87.213  1.00  0.00     0.000 C 
BRANCH   4   5
ATOM      5  C   UNL     1     -19.860  41.991  86.810  1.00  0.00     0.000 C 
BRANCH   5   6
ATOM      6  C   UNL     1     -19.602  43.068  85.744  1.00  0.00     0.000 C 
BRANCH   6   7
ATOM      7  C   UNL     1     -19.880  44.491  86.258  1.00  0.00     0.000 C 
BRANCH   7   8
ATOM      8  C   UNL     1     -21.018  45.186  85.482  1.00  0.00     0.000 C 
BRANCH   8   9
ATOM      9  C   UNL     1     -22.167  45.688  86.378  1.00  0.00     0.000 C 
BRANCH   9  10
ATOM     10  C   UNL     1     -21.835  45.785  87.880  1.00  0.00     0.000 C 
BRANCH  10  11
ATOM     11  C   UNL     1     -22.986  46.296  88.766  1.00  0.00     0.000 C 
BRANCH  11  12
ATOM     12  C   UNL     1     -24.335  45.647  88.415  1.00  0.00     0.000 C 
BRANCH  12  13
ATOM     13  C   UNL     1     -25.288  45.568  89.617  1.00  0.00     0.006 C 
BRANCH  13  14
ATOM     14  C   UNL     1     -26.567  44.774  89.316  1.00  0.00     0.053 C 
BRANCH  14  15
ATOM     15  C   UNL     1     -26.702  43.624  90.264  1.00  0.00     0.041 C 
ATOM     16  O   UNL     1     -27.541  42.712  90.037  1.00  0.00    -0.550 OA
ATOM     17  O   UNL     1     -25.947  43.590  91.429  1.00  0.00    -0.550 OA
ENDBRANCH  14  15
ENDBRANCH  13  14
ENDBRANCH  12  13
ENDBRANCH  11  12
ENDBRANCH  10  11
ENDBRANCH   9  10
ENDBRANCH   8   9
ENDBRANCH   7   8
ENDBRANCH   6   7
ENDBRANCH   5   6
ENDBRANCH   4   5
ENDBRANCH   3   4
ENDBRANCH   2   3
ENDBRANCH   1   2
BRANCH   1  18
ATOM     18  C   UNL     1     -19.899  40.747  91.939  1.00  0.00     0.000 C 
BRANCH  18  19
ATOM     19  C   UNL     1     -18.496  41.082  91.401  1.00  0.00     0.000 C 
BRANCH  19  20
ATOM     20  C   UNL     1     -17.590  39.837  91.292  1.00  0.00     0.000 C 
BRANCH  20  21
ATOM     21  C   UNL     1     -18.362  38.506  91.231  1.00  0.00     0.000 C 
BRANCH  21  22
ATOM     22  C   UNL     1     -18.223  37.730  89.910  1.00  0.00     0.000 C 
BRANCH  22  23
ATOM     23  C   UNL     1     -19.564  37.579  89.169  1.00  0.00     0.000 C 
BRANCH  23  24
ATOM     24  C   UNL     1     -19.772  38.645  88.078  1.00  0.00    -0.000 C 
BRANCH  24  25
ATOM     25  C   UNL     1     -20.345  38.122  86.744  1.00  0.00    -0.000 C 
BRANCH  25  26
ATOM     26  C   UNL     1     -19.542  38.506  85.487  1.00  0.00    -0.000 C 
BRANCH  26  27
ATOM     27  C   UNL     1     -18.936  37.292  84.769  1.00  0.00    -0.000 C 
BRANCH  27  28
ATOM     28  C   UNL     1     -18.440  37.681  83.368  1.00  0.00    -0.000 C 
BRANCH  28  29
ATOM     29  C   UNL     1     -16.953  37.357  83.153  1.00  0.00    -0.000 C 
BRANCH  29  30
ATOM     30  C   UNL     1     -16.731  36.343  82.015  1.00  0.00    -0.000 C 
BRANCH  30  31
ATOM     31  C   UNL     1     -17.792  36.454  80.910  1.00  0.00    -0.003 C 
ATOM     32  C   UNL     1     -17.979  35.150  80.131  1.00  0.00     0.004 C 
ENDBRANCH  30  31
ENDBRANCH  29  30
ENDBRANCH  28  29
ENDBRANCH  27  28
ENDBRANCH  26  27
ENDBRANCH  25  26
ENDBRANCH  24  25
ENDBRANCH  23  24
ENDBRANCH  22  23
ENDBRANCH  21  22
ENDBRANCH  20  21
ENDBRANCH  19  20
ENDBRANCH  18  19
ENDBRANCH   1  18
TORSDOF 28
ENDMDL
