MODEL 1
REMARK VINA RESULT:   140.915      0.000      0.000
REMARK INTER + INTRA:         145.034
REMARK INTER:                 145.034
REMARK INTRA:                   0.000
REMARK UNBOUND:                 0.000
REMARK SMILES CC1(C)CC[C@@]2(C)CC[C@]3(C)C(=CC[C@H]4[C@]5(C)CC[C@@H](O)C(C)(C)[C@@H]5CC[C@]43C)[C@H]2C1
REMARK SMILES IDX 1 1 2 2 4 3 5 4 6 5 8 6 9 7 10 8 12 9 13 10 14 11 15 12
REMARK SMILES IDX 28 13 27 14 26 15 25 16 16 17 18 18 19 19 20 20 22 21 23 22
REMARK SMILES IDX 24 23 17 24 29 25 30 26 31 27 11 28 7 29 3 30 21 31
REMARK H PARENT 21 32
REMARK Flexibility Score: inf
ROOT
ATOM      1  C   UNL     1      88.533  -8.407  69.724  1.00  0.00     0.011 C 
ATOM      2  C   UNL     1      87.915  -7.935  68.386  1.00  0.00    -0.035 C 
ATOM      3  C   UNL     1      88.996  -7.490  67.377  1.00  0.00     0.007 C 
ATOM      4  C   UNL     1      89.770  -6.264  67.863  1.00  0.00     0.008 C 
ATOM      5  C   UNL     1      88.870  -5.021  68.155  1.00  0.00    -0.026 C 
ATOM      6  C   UNL     1      88.507  -4.291  66.807  1.00  0.00     0.008 C 
ATOM      7  C   UNL     1      87.000  -4.114  66.534  1.00  0.00     0.012 C 
ATOM      8  C   UNL     1      86.195  -3.504  67.735  1.00  0.00    -0.006 C 
ATOM      9  C   UNL     1      86.536  -4.312  68.992  1.00  0.00    -0.064 C 
ATOM     10  C   UNL     1      85.815  -4.106  70.104  1.00  0.00    -0.027 C 
ATOM     11  C   UNL     1      84.601  -3.230  70.088  1.00  0.00     0.032 C 
ATOM     12  C   UNL     1      83.710  -3.554  68.850  1.00  0.00     0.006 C 
ATOM     13  C   UNL     1      84.569  -3.484  67.488  1.00  0.00    -0.020 C 
ATOM     14  C   UNL     1      84.187  -2.214  66.684  1.00  0.00     0.008 C 
ATOM     15  C   UNL     1      82.696  -2.007  66.510  1.00  0.00     0.005 C 
ATOM     16  C   UNL     1      82.012  -1.686  67.862  1.00  0.00     0.003 C 
ATOM     17  C   UNL     1      82.212  -2.895  68.878  1.00  0.00    -0.025 C 
ATOM     18  C   UNL     1      81.164  -4.011  68.554  1.00  0.00     0.010 C 
ATOM     19  C   UNL     1      79.716  -3.523  68.449  1.00  0.00     0.033 C 
ATOM     20  C   UNL     1      79.562  -2.426  67.391  1.00  0.00     0.120 C 
ATOM     21  C   UNL     1      80.494  -1.199  67.647  1.00  0.00    -0.006 C 
ATOM     22  C   UNL     1      79.982  -0.348  68.856  1.00  0.00     0.014 C 
ATOM     23  C   UNL     1      80.373  -0.258  66.409  1.00  0.00     0.014 C 
ATOM     24  C   UNL     1      81.901  -2.411  70.330  1.00  0.00     0.012 C 
ATOM     25  C   UNL     1      84.166  -4.715  66.613  1.00  0.00     0.012 C 
ATOM     26  C   UNL     1      87.601  -5.415  69.000  1.00  0.00     0.022 C 
ATOM     27  C   UNL     1      86.933  -6.765  68.614  1.00  0.00     0.015 C 
ATOM     28  C   UNL     1      86.773  -2.062  67.936  1.00  0.00     0.017 C 
ATOM     29  C   UNL     1      89.748  -4.073  69.022  1.00  0.00     0.012 C 
ATOM     30  C   UNL     1      87.141  -9.125  67.777  1.00  0.00     0.011 C 
ENDROOT
BRANCH  20  31
ATOM     31  O   UNL     1      78.212  -2.027  67.357  1.00  0.00    -0.393 OA
ATOM     32  H   UNL     1      78.116  -1.249  67.965  1.00  0.00     0.210 HD
ENDBRANCH  20  31
TORSDOF 1
ENDMDL
MODEL 2
REMARK VINA RESULT:   141.741      1.345      1.740
REMARK INTER + INTRA:         145.884
REMARK INTER:                 145.884
REMARK INTRA:                   0.000
REMARK UNBOUND:                 0.000
REMARK SMILES CC1(C)CC[C@@]2(C)CC[C@]3(C)C(=CC[C@H]4[C@]5(C)CC[C@@H](O)C(C)(C)[C@@H]5CC[C@]43C)[C@H]2C1
REMARK SMILES IDX 1 1 2 2 4 3 5 4 6 5 8 6 9 7 10 8 12 9 13 10 14 11 15 12
REMARK SMILES IDX 28 13 27 14 26 15 25 16 16 17 18 18 19 19 20 20 22 21 23 22
REMARK SMILES IDX 24 23 17 24 29 25 30 26 31 27 11 28 7 29 3 30 21 31
REMARK H PARENT 21 32
REMARK Flexibility Score: inf
ROOT
ATOM      1  C   UNL     1      88.450  -6.450  69.186  1.00  0.00     0.011 C 
ATOM      2  C   UNL     1      87.716  -6.101  67.868  1.00  0.00    -0.035 C 
ATOM      3  C   UNL     1      88.651  -5.408  66.854  1.00  0.00     0.007 C 
ATOM      4  C   UNL     1      89.143  -4.050  67.357  1.00  0.00     0.008 C 
ATOM      5  C   UNL     1      87.996  -3.045  67.691  1.00  0.00    -0.026 C 
ATOM      6  C   UNL     1      87.453  -2.388  66.365  1.00  0.00     0.008 C 
ATOM      7  C   UNL     1      85.940  -2.546  66.119  1.00  0.00     0.012 C 
ATOM      8  C   UNL     1      85.043  -2.153  67.346  1.00  0.00    -0.006 C 
ATOM      9  C   UNL     1      85.579  -2.889  68.579  1.00  0.00    -0.064 C 
ATOM     10  C   UNL     1      84.853  -2.870  69.706  1.00  0.00    -0.027 C 
ATOM     11  C   UNL     1      83.474  -2.285  69.729  1.00  0.00     0.032 C 
ATOM     12  C   UNL     1      82.653  -2.776  68.498  1.00  0.00     0.006 C 
ATOM     13  C   UNL     1      83.449  -2.490  67.124  1.00  0.00    -0.020 C 
ATOM     14  C   UNL     1      82.778  -1.322  66.355  1.00  0.00     0.008 C 
ATOM     15  C   UNL     1      81.274  -1.448  66.209  1.00  0.00     0.005 C 
ATOM     16  C   UNL     1      80.564  -1.314  67.578  1.00  0.00     0.003 C 
ATOM     17  C   UNL     1      81.047  -2.467  68.563  1.00  0.00    -0.025 C 
ATOM     18  C   UNL     1      80.267  -3.782  68.229  1.00  0.00     0.010 C 
ATOM     19  C   UNL     1      78.745  -3.627  68.157  1.00  0.00     0.033 C 
ATOM     20  C   UNL     1      78.330  -2.571  67.128  1.00  0.00     0.120 C 
ATOM     21  C   UNL     1      78.972  -1.173  67.397  1.00  0.00    -0.006 C 
ATOM     22  C   UNL     1      78.307  -0.480  68.633  1.00  0.00     0.014 C 
ATOM     23  C   UNL     1      78.620  -0.259  66.183  1.00  0.00     0.014 C 
ATOM     24  C   UNL     1      80.665  -2.093  70.030  1.00  0.00     0.012 C 
ATOM     25  C   UNL     1      83.311  -3.764  66.227  1.00  0.00     0.012 C 
ATOM     26  C   UNL     1      86.863  -3.727  68.545  1.00  0.00     0.022 C 
ATOM     27  C   UNL     1      86.504  -5.184  68.139  1.00  0.00     0.015 C 
ATOM     28  C   UNL     1      85.290  -0.622  67.572  1.00  0.00     0.017 C 
ATOM     29  C   UNL     1      88.659  -1.942  68.566  1.00  0.00     0.012 C 
ATOM     30  C   UNL     1      87.214  -7.422  67.244  1.00  0.00     0.011 C 
ENDROOT
BRANCH  20  31
ATOM     31  O   UNL     1      76.925  -2.482  67.123  1.00  0.00    -0.393 OA
ATOM     32  H   UNL     1      76.601  -2.841  67.990  1.00  0.00     0.210 HD
ENDBRANCH  20  31
TORSDOF 1
ENDMDL
