MODEL 1
REMARK VINA RESULT:    -6.300      0.000      0.000
REMARK INTER + INTRA:          -7.720
REMARK INTER:                  -7.405
REMARK INTRA:                  -0.315
REMARK UNBOUND:                -0.315
REMARK SMILES O=c1cc(-c2ccc(O)c(O)c2)oc2cc(O)cc(O)c12
REMARK SMILES IDX 4 1 3 2 2 3 1 4 21 5 19 6 18 7 16 8 15 9 14 10 13 11 5 12
REMARK SMILES IDX 6 13 7 14 8 15 12 16 10 17 9 18 11 20 20 22 17 24
REMARK H PARENT 9 19 11 21 20 23 17 25
REMARK Flexibility Score: inf
ROOT
ATOM      1  C   UNL     1     -32.870 -55.375  66.863  1.00  0.00     0.138 A 
ATOM      2  C   UNL     1     -33.017 -54.717  65.633  1.00  0.00     0.100 A 
ATOM      3  C   UNL     1     -32.845 -53.333  65.567  1.00  0.00     0.197 A 
ATOM      4  O   UNL     1     -32.922 -52.780  64.439  1.00  0.00    -0.289 OA
ATOM      5  C   UNL     1     -32.553 -52.602  66.742  1.00  0.00     0.107 A 
ATOM      6  C   UNL     1     -32.397 -51.185  66.800  1.00  0.00     0.134 A 
ATOM      7  C   UNL     1     -31.994 -50.584  67.999  1.00  0.00     0.093 A 
ATOM      8  C   UNL     1     -31.802 -51.343  69.157  1.00  0.00     0.123 A 
ATOM      9  C   UNL     1     -32.005 -52.720  69.124  1.00  0.00     0.094 A 
ATOM     10  C   UNL     1     -32.373 -53.353  67.934  1.00  0.00     0.146 A 
ATOM     11  O   UNL     1     -32.541 -54.671  67.942  1.00  0.00    -0.456 OA
ENDROOT
BRANCH   1  12
ATOM     12  C   UNL     1     -33.042 -56.843  66.991  1.00  0.00     0.021 A 
ATOM     13  C   UNL     1     -33.080 -57.686  65.863  1.00  0.00     0.016 A 
ATOM     14  C   UNL     1     -33.255 -59.064  66.012  1.00  0.00     0.051 A 
ATOM     15  C   UNL     1     -33.404 -59.623  67.288  1.00  0.00     0.157 A 
ATOM     16  C   UNL     1     -33.207 -57.412  68.268  1.00  0.00     0.062 A 
ATOM     17  C   UNL     1     -33.381 -58.795  68.417  1.00  0.00     0.158 A 
BRANCH  15  18
ATOM     18  O   UNL     1     -33.577 -60.997  67.441  1.00  0.00    -0.504 OA
ATOM     19  H   UNL     1     -33.203 -61.657  66.768  1.00  0.00     0.293 HD
ENDBRANCH  15  18
BRANCH  17  20
ATOM     20  O   UNL     1     -33.533 -59.355  69.685  1.00  0.00    -0.504 OA
ATOM     21  H   UNL     1     -33.602 -60.357  69.817  1.00  0.00     0.293 HD
ENDBRANCH  17  20
ENDBRANCH   1  12
BRANCH   6  22
ATOM     22  O   UNL     1     -32.647 -50.327  65.725  1.00  0.00    -0.507 OA
ATOM     23  H   UNL     1     -32.277 -50.445  64.794  1.00  0.00     0.293 HD
ENDBRANCH   6  22
BRANCH   8  24
ATOM     24  O   UNL     1     -31.416 -50.734  70.349  1.00  0.00    -0.508 OA
ATOM     25  H   UNL     1     -32.034 -50.700  71.152  1.00  0.00     0.293 HD
ENDBRANCH   8  24
TORSDOF 5
ENDMDL
MODEL 2
REMARK VINA RESULT:    -5.715      1.186      2.762
REMARK INTER + INTRA:          -7.032
REMARK INTER:                  -6.739
REMARK INTRA:                  -0.293
REMARK UNBOUND:                -0.315
REMARK SMILES O=c1cc(-c2ccc(O)c(O)c2)oc2cc(O)cc(O)c12
REMARK SMILES IDX 4 1 3 2 2 3 1 4 21 5 19 6 18 7 16 8 15 9 14 10 13 11 5 12
REMARK SMILES IDX 6 13 7 14 8 15 12 16 10 17 9 18 11 20 20 22 17 24
REMARK H PARENT 9 19 11 21 20 23 17 25
REMARK Flexibility Score: inf
ROOT
ATOM      1  C   UNL     1     -32.890 -55.388  67.165  1.00  0.00     0.138 A 
ATOM      2  C   UNL     1     -32.622 -54.638  68.319  1.00  0.00     0.100 A 
ATOM      3  C   UNL     1     -32.481 -53.252  68.224  1.00  0.00     0.197 A 
ATOM      4  O   UNL     1     -32.303 -52.600  69.285  1.00  0.00    -0.289 OA
ATOM      5  C   UNL     1     -32.580 -52.620  66.962  1.00  0.00     0.107 A 
ATOM      6  C   UNL     1     -32.414 -51.220  66.740  1.00  0.00     0.134 A 
ATOM      7  C   UNL     1     -32.649 -50.691  65.465  1.00  0.00     0.093 A 
ATOM      8  C   UNL     1     -32.984 -51.521  64.392  1.00  0.00     0.123 A 
ATOM      9  C   UNL     1     -33.096 -52.895  64.586  1.00  0.00     0.094 A 
ATOM     10  C   UNL     1     -32.901 -53.448  65.854  1.00  0.00     0.146 A 
ATOM     11  O   UNL     1     -33.032 -54.762  66.000  1.00  0.00    -0.456 OA
ENDROOT
BRANCH   1  12
ATOM     12  C   UNL     1     -33.048 -56.863  67.209  1.00  0.00     0.021 A 
ATOM     13  C   UNL     1     -33.105 -57.636  66.032  1.00  0.00     0.016 A 
ATOM     14  C   UNL     1     -33.265 -59.023  66.102  1.00  0.00     0.051 A 
ATOM     15  C   UNL     1     -33.379 -59.659  67.345  1.00  0.00     0.157 A 
ATOM     16  C   UNL     1     -33.177 -57.509  68.452  1.00  0.00     0.062 A 
ATOM     17  C   UNL     1     -33.336 -58.901  68.521  1.00  0.00     0.158 A 
BRANCH  15  18
ATOM     18  O   UNL     1     -33.538 -61.042  67.418  1.00  0.00    -0.504 OA
ATOM     19  H   UNL     1     -34.360 -61.501  67.043  1.00  0.00     0.293 HD
ENDBRANCH  15  18
BRANCH  17  20
ATOM     20  O   UNL     1     -33.454 -59.537  69.756  1.00  0.00    -0.504 OA
ATOM     21  H   UNL     1     -33.574 -59.011  70.614  1.00  0.00     0.293 HD
ENDBRANCH  17  20
ENDBRANCH   1  12
BRANCH   6  22
ATOM     22  O   UNL     1     -31.998 -50.317  67.723  1.00  0.00    -0.507 OA
ATOM     23  H   UNL     1     -32.382 -49.395  67.859  1.00  0.00     0.293 HD
ENDBRANCH   6  22
BRANCH   8  24
ATOM     24  O   UNL     1     -33.202 -50.987  63.123  1.00  0.00    -0.508 OA
ATOM     25  H   UNL     1     -32.465 -50.513  62.613  1.00  0.00     0.293 HD
ENDBRANCH   8  24
TORSDOF 5
ENDMDL
MODEL 3
REMARK VINA RESULT:    -5.586     16.592     19.341
REMARK INTER + INTRA:          -6.881
REMARK INTER:                  -6.565
REMARK INTRA:                  -0.316
REMARK UNBOUND:                -0.315
REMARK SMILES O=c1cc(-c2ccc(O)c(O)c2)oc2cc(O)cc(O)c12
REMARK SMILES IDX 4 1 3 2 2 3 1 4 21 5 19 6 18 7 16 8 15 9 14 10 13 11 5 12
REMARK SMILES IDX 6 13 7 14 8 15 12 16 10 17 9 18 11 20 20 22 17 24
REMARK H PARENT 9 19 11 21 20 23 17 25
REMARK Flexibility Score: inf
ROOT
ATOM      1  C   UNL     1     -21.075 -64.420  56.753  1.00  0.00     0.138 A 
ATOM      2  C   UNL     1     -20.746 -65.081  55.561  1.00  0.00     0.100 A 
ATOM      3  C   UNL     1     -21.314 -66.326  55.284  1.00  0.00     0.197 A 
ATOM      4  O   UNL     1     -21.049 -66.866  54.178  1.00  0.00    -0.289 OA
ATOM      5  C   UNL     1     -22.192 -66.923  56.219  1.00  0.00     0.107 A 
ATOM      6  C   UNL     1     -22.797 -68.206  56.060  1.00  0.00     0.134 A 
ATOM      7  C   UNL     1     -23.740 -68.644  56.998  1.00  0.00     0.093 A 
ATOM      8  C   UNL     1     -24.054 -67.872  58.120  1.00  0.00     0.123 A 
ATOM      9  C   UNL     1     -23.428 -66.643  58.312  1.00  0.00     0.094 A 
ATOM     10  C   UNL     1     -22.508 -66.163  57.376  1.00  0.00     0.146 A 
ATOM     11  O   UNL     1     -21.945 -64.979  57.589  1.00  0.00    -0.456 OA
ENDROOT
BRANCH   1  12
ATOM     12  C   UNL     1     -20.500 -63.096  57.099  1.00  0.00     0.021 A 
ATOM     13  C   UNL     1     -19.785 -62.331  56.157  1.00  0.00     0.016 A 
ATOM     14  C   UNL     1     -19.245 -61.092  56.513  1.00  0.00     0.051 A 
ATOM     15  C   UNL     1     -19.401 -60.601  57.814  1.00  0.00     0.157 A 
ATOM     16  C   UNL     1     -20.640 -62.601  58.408  1.00  0.00     0.062 A 
ATOM     17  C   UNL     1     -20.099 -61.357  58.764  1.00  0.00     0.158 A 
BRANCH  15  18
ATOM     18  O   UNL     1     -18.865 -59.365  58.172  1.00  0.00    -0.504 OA
ATOM     19  H   UNL     1     -18.146 -58.918  57.615  1.00  0.00     0.293 HD
ENDBRANCH  15  18
BRANCH  17  20
ATOM     20  O   UNL     1     -20.250 -60.867  60.061  1.00  0.00    -0.504 OA
ATOM     21  H   UNL     1     -20.962 -61.227  60.684  1.00  0.00     0.293 HD
ENDBRANCH  17  20
ENDBRANCH   1  12
BRANCH   6  22
ATOM     22  O   UNL     1     -22.492 -69.091  55.022  1.00  0.00    -0.507 OA
ATOM     23  H   UNL     1     -21.866 -69.878  55.100  1.00  0.00     0.293 HD
ENDBRANCH   6  22
BRANCH   8  24
ATOM     24  O   UNL     1     -24.982 -68.323  59.056  1.00  0.00    -0.508 OA
ATOM     25  H   UNL     1     -25.093 -67.868  59.955  1.00  0.00     0.293 HD
ENDBRANCH   8  24
TORSDOF 5
ENDMDL
MODEL 4
REMARK VINA RESULT:    -5.518     16.924     20.008
REMARK INTER + INTRA:          -6.801
REMARK INTER:                  -6.506
REMARK INTRA:                  -0.294
REMARK UNBOUND:                -0.315
REMARK SMILES O=c1cc(-c2ccc(O)c(O)c2)oc2cc(O)cc(O)c12
REMARK SMILES IDX 4 1 3 2 2 3 1 4 21 5 19 6 18 7 16 8 15 9 14 10 13 11 5 12
REMARK SMILES IDX 6 13 7 14 8 15 12 16 10 17 9 18 11 20 20 22 17 24
REMARK H PARENT 9 19 11 21 20 23 17 25
REMARK Flexibility Score: inf
ROOT
ATOM      1  C   UNL     1     -21.120 -64.631  56.989  1.00  0.00     0.138 A 
ATOM      2  C   UNL     1     -21.947 -65.273  57.921  1.00  0.00     0.100 A 
ATOM      3  C   UNL     1     -22.486 -66.524  57.619  1.00  0.00     0.197 A 
ATOM      4  O   UNL     1     -23.174 -67.103  58.500  1.00  0.00    -0.289 OA
ATOM      5  C   UNL     1     -22.218 -67.122  56.365  1.00  0.00     0.107 A 
ATOM      6  C   UNL     1     -22.747 -68.376  55.933  1.00  0.00     0.134 A 
ATOM      7  C   UNL     1     -22.319 -68.921  54.716  1.00  0.00     0.093 A 
ATOM      8  C   UNL     1     -21.430 -68.231  53.889  1.00  0.00     0.123 A 
ATOM      9  C   UNL     1     -20.951 -66.982  54.277  1.00  0.00     0.094 A 
ATOM     10  C   UNL     1     -21.332 -66.426  55.500  1.00  0.00     0.146 A 
ATOM     11  O   UNL     1     -20.840 -65.239  55.840  1.00  0.00    -0.456 OA
ENDROOT
BRANCH   1  12
ATOM     12  C   UNL     1     -20.522 -63.300  57.257  1.00  0.00     0.021 A 
ATOM     13  C   UNL     1     -19.760 -62.621  56.286  1.00  0.00     0.016 A 
ATOM     14  C   UNL     1     -19.198 -61.373  56.570  1.00  0.00     0.051 A 
ATOM     15  C   UNL     1     -19.381 -60.787  57.828  1.00  0.00     0.157 A 
ATOM     16  C   UNL     1     -20.687 -62.709  58.523  1.00  0.00     0.062 A 
ATOM     17  C   UNL     1     -20.125 -61.456  58.807  1.00  0.00     0.158 A 
BRANCH  15  18
ATOM     18  O   UNL     1     -18.823 -59.541  58.114  1.00  0.00    -0.504 OA
ATOM     19  H   UNL     1     -19.381 -58.786  58.497  1.00  0.00     0.293 HD
ENDBRANCH  15  18
BRANCH  17  20
ATOM     20  O   UNL     1     -20.301 -60.871  60.060  1.00  0.00    -0.504 OA
ATOM     21  H   UNL     1     -20.218 -61.411  60.913  1.00  0.00     0.293 HD
ENDBRANCH  17  20
ENDBRANCH   1  12
BRANCH   6  22
ATOM     22  O   UNL     1     -23.704 -69.106  56.643  1.00  0.00    -0.507 OA
ATOM     23  H   UNL     1     -24.489 -69.584  56.229  1.00  0.00     0.293 HD
ENDBRANCH   6  22
BRANCH   8  24
ATOM     24  O   UNL     1     -21.021 -68.775  52.673  1.00  0.00    -0.508 OA
ATOM     25  H   UNL     1     -21.597 -69.441  52.170  1.00  0.00     0.293 HD
ENDBRANCH   8  24
TORSDOF 5
ENDMDL
MODEL 5
REMARK VINA RESULT:    -5.451      1.452      6.736
REMARK INTER + INTRA:          -6.722
REMARK INTER:                  -6.405
REMARK INTRA:                  -0.317
REMARK UNBOUND:                -0.315
REMARK SMILES O=c1cc(-c2ccc(O)c(O)c2)oc2cc(O)cc(O)c12
REMARK SMILES IDX 4 1 3 2 2 3 1 4 21 5 19 6 18 7 16 8 15 9 14 10 13 11 5 12
REMARK SMILES IDX 6 13 7 14 8 15 12 16 10 17 9 18 11 20 20 22 17 24
REMARK H PARENT 9 19 11 21 20 23 17 25
REMARK Flexibility Score: inf
ROOT
ATOM      1  C   UNL     1     -32.960 -54.599  67.237  1.00  0.00     0.138 A 
ATOM      2  C   UNL     1     -33.286 -55.002  65.934  1.00  0.00     0.100 A 
ATOM      3  C   UNL     1     -33.633 -56.332  65.691  1.00  0.00     0.197 A 
ATOM      4  O   UNL     1     -33.981 -56.650  64.524  1.00  0.00    -0.289 OA
ATOM      5  C   UNL     1     -33.624 -57.268  66.752  1.00  0.00     0.107 A 
ATOM      6  C   UNL     1     -33.920 -58.657  66.612  1.00  0.00     0.134 A 
ATOM      7  C   UNL     1     -33.993 -59.464  67.754  1.00  0.00     0.093 A 
ATOM      8  C   UNL     1     -33.719 -58.946  69.022  1.00  0.00     0.123 A 
ATOM      9  C   UNL     1     -33.376 -57.604  69.163  1.00  0.00     0.094 A 
ATOM     10  C   UNL     1     -33.329 -56.764  68.047  1.00  0.00     0.146 A 
ATOM     11  O   UNL     1     -33.012 -55.487  68.226  1.00  0.00    -0.456 OA
ENDROOT
BRANCH   1  12
ATOM     12  C   UNL     1     -32.583 -53.199  67.553  1.00  0.00     0.021 A 
ATOM     13  C   UNL     1     -32.683 -52.171  66.594  1.00  0.00     0.016 A 
ATOM     14  C   UNL     1     -32.311 -50.863  66.915  1.00  0.00     0.051 A 
ATOM     15  C   UNL     1     -31.825 -50.560  68.193  1.00  0.00     0.157 A 
ATOM     16  C   UNL     1     -32.080 -52.887  68.829  1.00  0.00     0.062 A 
ATOM     17  C   UNL     1     -31.708 -51.574  69.151  1.00  0.00     0.158 A 
BRANCH  15  18
ATOM     18  O   UNL     1     -31.454 -49.256  68.517  1.00  0.00    -0.504 OA
ATOM     19  H   UNL     1     -31.523 -48.905  69.465  1.00  0.00     0.293 HD
ENDBRANCH  15  18
BRANCH  17  20
ATOM     20  O   UNL     1     -31.219 -51.270  70.421  1.00  0.00    -0.504 OA
ATOM     21  H   UNL     1     -31.267 -50.330  70.796  1.00  0.00     0.293 HD
ENDBRANCH  17  20
ENDBRANCH   1  12
BRANCH   6  22
ATOM     22  O   UNL     1     -34.125 -59.293  65.384  1.00  0.00    -0.507 OA
ATOM     23  H   UNL     1     -34.440 -58.835  64.543  1.00  0.00     0.293 HD
ENDBRANCH   6  22
BRANCH   8  24
ATOM     24  O   UNL     1     -33.780 -59.760  70.151  1.00  0.00    -0.508 OA
ATOM     25  H   UNL     1     -33.794 -59.370  71.087  1.00  0.00     0.293 HD
ENDBRANCH   8  24
TORSDOF 5
ENDMDL
MODEL 6
REMARK VINA RESULT:    -5.348     17.490     19.497
REMARK INTER + INTRA:          -6.601
REMARK INTER:                  -6.317
REMARK INTRA:                  -0.283
REMARK UNBOUND:                -0.315
REMARK SMILES O=c1cc(-c2ccc(O)c(O)c2)oc2cc(O)cc(O)c12
REMARK SMILES IDX 4 1 3 2 2 3 1 4 21 5 19 6 18 7 16 8 15 9 14 10 13 11 5 12
REMARK SMILES IDX 6 13 7 14 8 15 12 16 10 17 9 18 11 20 20 22 17 24
REMARK H PARENT 9 19 11 21 20 23 17 25
REMARK Flexibility Score: inf
ROOT
ATOM      1  C   UNL     1     -21.003 -64.558  57.428  1.00  0.00     0.138 A 
ATOM      2  C   UNL     1     -22.286 -65.048  57.142  1.00  0.00     0.100 A 
ATOM      3  C   UNL     1     -22.666 -66.304  57.619  1.00  0.00     0.197 A 
ATOM      4  O   UNL     1     -23.843 -66.690  57.399  1.00  0.00    -0.289 OA
ATOM      5  C   UNL     1     -21.746 -67.084  58.359  1.00  0.00     0.107 A 
ATOM      6  C   UNL     1     -22.011 -68.394  58.860  1.00  0.00     0.134 A 
ATOM      7  C   UNL     1     -21.065 -69.023  59.679  1.00  0.00     0.093 A 
ATOM      8  C   UNL     1     -19.840 -68.414  59.965  1.00  0.00     0.123 A 
ATOM      9  C   UNL     1     -19.551 -67.159  59.436  1.00  0.00     0.094 A 
ATOM     10  C   UNL     1     -20.488 -66.490  58.644  1.00  0.00     0.146 A 
ATOM     11  O   UNL     1     -20.178 -65.288  58.172  1.00  0.00    -0.456 OA
ENDROOT
BRANCH   1  12
ATOM     12  C   UNL     1     -20.547 -63.231  56.946  1.00  0.00     0.021 A 
ATOM     13  C   UNL     1     -20.558 -62.896  55.577  1.00  0.00     0.016 A 
ATOM     14  C   UNL     1     -20.112 -61.643  55.150  1.00  0.00     0.051 A 
ATOM     15  C   UNL     1     -19.640 -60.707  56.078  1.00  0.00     0.157 A 
ATOM     16  C   UNL     1     -20.058 -62.289  57.869  1.00  0.00     0.062 A 
ATOM     17  C   UNL     1     -19.611 -61.031  57.440  1.00  0.00     0.158 A 
BRANCH  15  18
ATOM     18  O   UNL     1     -19.195 -59.455  55.655  1.00  0.00    -0.504 OA
ATOM     19  H   UNL     1     -19.207 -58.652  56.273  1.00  0.00     0.293 HD
ENDBRANCH  15  18
BRANCH  17  20
ATOM     20  O   UNL     1     -19.137 -60.098  58.361  1.00  0.00    -0.504 OA
ATOM     21  H   UNL     1     -19.368 -60.161  59.345  1.00  0.00     0.293 HD
ENDBRANCH  17  20
ENDBRANCH   1  12
BRANCH   6  22
ATOM     22  O   UNL     1     -23.165 -69.125  58.564  1.00  0.00    -0.507 OA
ATOM     23  H   UNL     1     -24.106 -68.768  58.626  1.00  0.00     0.293 HD
ENDBRANCH   6  22
BRANCH   8  24
ATOM     24  O   UNL     1     -18.899 -69.054  60.769  1.00  0.00    -0.508 OA
ATOM     25  H   UNL     1     -18.350 -69.833  60.425  1.00  0.00     0.293 HD
ENDBRANCH   8  24
TORSDOF 5
ENDMDL
MODEL 7
REMARK VINA RESULT:    -5.271     16.533     18.122
REMARK INTER + INTRA:          -6.510
REMARK INTER:                  -6.198
REMARK INTRA:                  -0.312
REMARK UNBOUND:                -0.315
REMARK SMILES O=c1cc(-c2ccc(O)c(O)c2)oc2cc(O)cc(O)c12
REMARK SMILES IDX 4 1 3 2 2 3 1 4 21 5 19 6 18 7 16 8 15 9 14 10 13 11 5 12
REMARK SMILES IDX 6 13 7 14 8 15 12 16 10 17 9 18 11 20 20 22 17 24
REMARK H PARENT 9 19 11 21 20 23 17 25
REMARK Flexibility Score: inf
ROOT
ATOM      1  C   UNL     1     -25.760 -67.167  56.715  1.00  0.00     0.138 A 
ATOM      2  C   UNL     1     -26.157 -66.162  55.821  1.00  0.00     0.100 A 
ATOM      3  C   UNL     1     -27.516 -65.898  55.641  1.00  0.00     0.197 A 
ATOM      4  O   UNL     1     -27.840 -64.949  54.880  1.00  0.00    -0.289 OA
ATOM      5  C   UNL     1     -28.481 -66.664  56.336  1.00  0.00     0.107 A 
ATOM      6  C   UNL     1     -29.893 -66.510  56.199  1.00  0.00     0.134 A 
ATOM      7  C   UNL     1     -30.750 -67.247  57.026  1.00  0.00     0.093 A 
ATOM      8  C   UNL     1     -30.247 -68.176  57.941  1.00  0.00     0.123 A 
ATOM      9  C   UNL     1     -28.872 -68.372  58.043  1.00  0.00     0.094 A 
ATOM     10  C   UNL     1     -27.990 -67.628  57.257  1.00  0.00     0.146 A 
ATOM     11  O   UNL     1     -26.685 -67.835  57.397  1.00  0.00    -0.456 OA
ENDROOT
BRANCH   1  12
ATOM     12  C   UNL     1     -24.330 -67.490  56.944  1.00  0.00     0.021 A 
ATOM     13  C   UNL     1     -23.338 -67.181  55.992  1.00  0.00     0.016 A 
ATOM     14  C   UNL     1     -22.001 -67.507  56.229  1.00  0.00     0.051 A 
ATOM     15  C   UNL     1     -21.631 -68.153  57.415  1.00  0.00     0.157 A 
ATOM     16  C   UNL     1     -23.950 -68.152  58.126  1.00  0.00     0.062 A 
ATOM     17  C   UNL     1     -22.607 -68.478  58.364  1.00  0.00     0.158 A 
BRANCH  15  18
ATOM     18  O   UNL     1     -20.296 -68.478  57.655  1.00  0.00    -0.504 OA
ATOM     19  H   UNL     1     -19.557 -68.174  57.033  1.00  0.00     0.293 HD
ENDBRANCH  15  18
BRANCH  17  20
ATOM     20  O   UNL     1     -22.236 -69.125  59.542  1.00  0.00    -0.504 OA
ATOM     21  H   UNL     1     -21.450 -68.807  60.097  1.00  0.00     0.293 HD
ENDBRANCH  17  20
ENDBRANCH   1  12
BRANCH   6  22
ATOM     22  O   UNL     1     -30.500 -65.673  55.258  1.00  0.00    -0.507 OA
ATOM     23  H   UNL     1     -31.323 -65.906  54.725  1.00  0.00     0.293 HD
ENDBRANCH   6  22
BRANCH   8  24
ATOM     24  O   UNL     1     -31.109 -68.915  58.749  1.00  0.00    -0.508 OA
ATOM     25  H   UNL     1     -32.087 -68.668  58.847  1.00  0.00     0.293 HD
ENDBRANCH   8  24
TORSDOF 5
ENDMDL
MODEL 8
REMARK VINA RESULT:    -5.254     14.268     16.976
REMARK INTER + INTRA:          -6.490
REMARK INTER:                  -6.228
REMARK INTRA:                  -0.262
REMARK UNBOUND:                -0.315
REMARK SMILES O=c1cc(-c2ccc(O)c(O)c2)oc2cc(O)cc(O)c12
REMARK SMILES IDX 4 1 3 2 2 3 1 4 21 5 19 6 18 7 16 8 15 9 14 10 13 11 5 12
REMARK SMILES IDX 6 13 7 14 8 15 12 16 10 17 9 18 11 20 20 22 17 24
REMARK H PARENT 9 19 11 21 20 23 17 25
REMARK Flexibility Score: inf
ROOT
ATOM      1  C   UNL     1     -26.299 -64.145  56.298  1.00  0.00     0.138 A 
ATOM      2  C   UNL     1     -27.011 -63.515  55.268  1.00  0.00     0.100 A 
ATOM      3  C   UNL     1     -28.120 -64.150  54.708  1.00  0.00     0.197 A 
ATOM      4  O   UNL     1     -28.776 -63.533  53.828  1.00  0.00    -0.289 OA
ATOM      5  C   UNL     1     -28.500 -65.435  55.163  1.00  0.00     0.107 A 
ATOM      6  C   UNL     1     -29.589 -66.193  54.638  1.00  0.00     0.134 A 
ATOM      7  C   UNL     1     -29.942 -67.404  55.246  1.00  0.00     0.093 A 
ATOM      8  C   UNL     1     -29.208 -67.912  56.322  1.00  0.00     0.123 A 
ATOM      9  C   UNL     1     -28.111 -67.205  56.806  1.00  0.00     0.094 A 
ATOM     10  C   UNL     1     -27.754 -65.977  56.243  1.00  0.00     0.146 A 
ATOM     11  O   UNL     1     -26.710 -65.328  56.745  1.00  0.00    -0.456 OA
ENDROOT
BRANCH   1  12
ATOM     12  C   UNL     1     -25.111 -63.516  56.928  1.00  0.00     0.021 A 
ATOM     13  C   UNL     1     -23.802 -63.932  56.619  1.00  0.00     0.016 A 
ATOM     14  C   UNL     1     -22.702 -63.329  57.235  1.00  0.00     0.051 A 
ATOM     15  C   UNL     1     -22.890 -62.309  58.176  1.00  0.00     0.157 A 
ATOM     16  C   UNL     1     -25.291 -62.499  57.885  1.00  0.00     0.062 A 
ATOM     17  C   UNL     1     -24.187 -61.895  58.502  1.00  0.00     0.158 A 
BRANCH  15  18
ATOM     18  O   UNL     1     -21.795 -61.705  58.792  1.00  0.00    -0.504 OA
ATOM     19  H   UNL     1     -21.064 -62.254  59.229  1.00  0.00     0.293 HD
ENDBRANCH  15  18
BRANCH  17  20
ATOM     20  O   UNL     1     -24.371 -60.881  59.442  1.00  0.00    -0.504 OA
ATOM     21  H   UNL     1     -24.613 -59.938  59.163  1.00  0.00     0.293 HD
ENDBRANCH  17  20
ENDBRANCH   1  12
BRANCH   6  22
ATOM     22  O   UNL     1     -30.333 -65.818  53.515  1.00  0.00    -0.507 OA
ATOM     23  H   UNL     1     -31.130 -65.201  53.531  1.00  0.00     0.293 HD
ENDBRANCH   6  22
BRANCH   8  24
ATOM     24  O   UNL     1     -29.559 -69.125  56.911  1.00  0.00    -0.508 OA
ATOM     25  H   UNL     1     -28.924 -69.915  56.915  1.00  0.00     0.293 HD
ENDBRANCH   8  24
TORSDOF 5
ENDMDL
