MODEL 1
REMARK VINA RESULT:    -3.765      0.000      0.000
REMARK INTER + INTRA:         -11.049
REMARK INTER:                  -8.168
REMARK INTRA:                  -2.882
REMARK UNBOUND:                -2.882
REMARK SMILES CCCCCCCCCCCCCCCCCCCCCC(=O)[O-]
REMARK SMILES IDX 12 1 11 2 10 3 9 4 8 5 7 6 6 7 5 8 4 9 3 10 2 11 1 12 13 13
REMARK SMILES IDX 14 14 15 15 16 16 17 17 18 18 19 19 20 20 21 21 22 22 23 23
REMARK SMILES IDX 24 24
REMARK H PARENT
REMARK Flexibility Score: inf
ROOT
ATOM      1  C   UNL     1     154.803 132.383 165.667  1.00  0.00     0.000 C 
ENDROOT
BRANCH   1   2
ATOM      2  C   UNL     1     154.264 132.222 167.103  1.00  0.00     0.000 C 
BRANCH   2   3
ATOM      3  C   UNL     1     155.267 132.562 168.223  1.00  0.00     0.000 C 
BRANCH   3   4
ATOM      4  C   UNL     1     156.742 132.623 167.782  1.00  0.00    -0.000 C 
BRANCH   4   5
ATOM      5  C   UNL     1     157.384 134.021 167.846  1.00  0.00    -0.000 C 
BRANCH   5   6
ATOM      6  C   UNL     1     156.678 134.989 168.821  1.00  0.00    -0.000 C 
BRANCH   6   7
ATOM      7  C   UNL     1     156.225 136.288 168.139  1.00  0.00    -0.000 C 
BRANCH   7   8
ATOM      8  C   UNL     1     155.753 136.018 166.702  1.00  0.00    -0.000 C 
BRANCH   8   9
ATOM      9  C   UNL     1     154.293 136.441 166.464  1.00  0.00    -0.000 C 
BRANCH   9  10
ATOM     10  C   UNL     1     153.248 135.649 167.275  1.00  0.00    -0.000 C 
BRANCH  10  11
ATOM     11  C   UNL     1     151.803 135.821 166.763  1.00  0.00    -0.003 C 
ATOM     12  C   UNL     1     151.740 136.058 165.254  1.00  0.00     0.004 C 
ENDBRANCH  10  11
ENDBRANCH   9  10
ENDBRANCH   8   9
ENDBRANCH   7   8
ENDBRANCH   6   7
ENDBRANCH   5   6
ENDBRANCH   4   5
ENDBRANCH   3   4
ENDBRANCH   2   3
ENDBRANCH   1   2
BRANCH   1  13
ATOM     13  C   UNL     1     153.799 132.968 164.657  1.00  0.00     0.000 C 
BRANCH  13  14
ATOM     14  C   UNL     1     153.191 131.903 163.735  1.00  0.00     0.000 C 
BRANCH  14  15
ATOM     15  C   UNL     1     151.670 132.071 163.632  1.00  0.00     0.000 C 
BRANCH  15  16
ATOM     16  C   UNL     1     151.062 132.426 164.995  1.00  0.00     0.000 C 
BRANCH  16  17
ATOM     17  C   UNL     1     149.612 132.900 164.845  1.00  0.00     0.000 C 
BRANCH  17  18
ATOM     18  C   UNL     1     149.001 132.391 163.530  1.00  0.00     0.000 C 
BRANCH  18  19
ATOM     19  C   UNL     1     147.515 132.760 163.385  1.00  0.00     0.000 C 
BRANCH  19  20
ATOM     20  C   UNL     1     147.306 134.072 162.608  1.00  0.00     0.006 C 
BRANCH  20  21
ATOM     21  C   UNL     1     146.142 134.900 163.170  1.00  0.00     0.053 C 
BRANCH  21  22
ATOM     22  C   UNL     1     145.792 136.050 162.275  1.00  0.00     0.041 C 
ATOM     23  O   UNL     1     144.765 135.998 161.548  1.00  0.00    -0.550 OA
ATOM     24  O   UNL     1     146.612 137.170 162.229  1.00  0.00    -0.550 OA
ENDBRANCH  21  22
ENDBRANCH  20  21
ENDBRANCH  19  20
ENDBRANCH  18  19
ENDBRANCH  17  18
ENDBRANCH  16  17
ENDBRANCH  15  16
ENDBRANCH  14  15
ENDBRANCH  13  14
ENDBRANCH   1  13
TORSDOF 20
ENDMDL
MODEL 2
REMARK VINA RESULT:    -3.743      3.718      7.597
REMARK INTER + INTRA:         -11.001
REMARK INTER:                  -7.923
REMARK INTRA:                  -3.079
REMARK UNBOUND:                -2.882
REMARK SMILES CCCCCCCCCCCCCCCCCCCCCC(=O)[O-]
REMARK SMILES IDX 12 1 11 2 10 3 9 4 8 5 7 6 6 7 5 8 4 9 3 10 2 11 1 12 13 13
REMARK SMILES IDX 14 14 15 15 16 16 17 17 18 18 19 19 20 20 21 21 22 22 23 23
REMARK SMILES IDX 24 24
REMARK H PARENT
REMARK Flexibility Score: inf
ROOT
ATOM      1  C   UNL     1     157.424 133.852 167.811  1.00  0.00     0.000 C 
ENDROOT
BRANCH   1   2
ATOM      2  C   UNL     1     156.966 132.429 167.432  1.00  0.00     0.000 C 
BRANCH   2   3
ATOM      3  C   UNL     1     155.440 132.238 167.318  1.00  0.00     0.000 C 
BRANCH   3   4
ATOM      4  C   UNL     1     154.914 132.036 165.885  1.00  0.00    -0.000 C 
BRANCH   4   5
ATOM      5  C   UNL     1     154.649 133.333 165.099  1.00  0.00    -0.000 C 
BRANCH   5   6
ATOM      6  C   UNL     1     153.179 133.509 164.661  1.00  0.00    -0.000 C 
BRANCH   6   7
ATOM      7  C   UNL     1     152.413 132.179 164.610  1.00  0.00    -0.000 C 
BRANCH   7   8
ATOM      8  C   UNL     1     150.958 132.367 165.065  1.00  0.00    -0.000 C 
BRANCH   8   9
ATOM      9  C   UNL     1     150.846 133.034 166.447  1.00  0.00    -0.000 C 
BRANCH   9  10
ATOM     10  C   UNL     1     151.335 132.167 167.625  1.00  0.00    -0.000 C 
BRANCH  10  11
ATOM     11  C   UNL     1     152.140 132.954 168.682  1.00  0.00    -0.003 C 
ATOM     12  C   UNL     1     152.469 134.376 168.229  1.00  0.00     0.004 C 
ENDBRANCH  10  11
ENDBRANCH   9  10
ENDBRANCH   8   9
ENDBRANCH   7   8
ENDBRANCH   6   7
ENDBRANCH   5   6
ENDBRANCH   4   5
ENDBRANCH   3   4
ENDBRANCH   2   3
ENDBRANCH   1   2
BRANCH   1  13
ATOM     13  C   UNL     1     156.714 134.460 169.034  1.00  0.00     0.000 C 
BRANCH  13  14
ATOM     14  C   UNL     1     155.896 135.712 168.687  1.00  0.00     0.000 C 
BRANCH  14  15
ATOM     15  C   UNL     1     155.999 136.037 167.192  1.00  0.00     0.000 C 
BRANCH  15  16
ATOM     16  C   UNL     1     156.828 137.307 166.959  1.00  0.00     0.000 C 
BRANCH  16  17
ATOM     17  C   UNL     1     156.937 138.136 168.244  1.00  0.00     0.000 C 
BRANCH  17  18
ATOM     18  C   UNL     1     157.186 139.617 167.922  1.00  0.00     0.000 C 
BRANCH  18  19
ATOM     19  C   UNL     1     157.972 139.816 166.615  1.00  0.00     0.000 C 
BRANCH  19  20
ATOM     20  C   UNL     1     157.180 140.618 165.566  1.00  0.00     0.006 C 
BRANCH  20  21
ATOM     21  C   UNL     1     155.696 140.749 165.934  1.00  0.00     0.053 C 
BRANCH  21  22
ATOM     22  C   UNL     1     154.834 139.845 165.105  1.00  0.00     0.041 C 
ATOM     23  O   UNL     1     153.806 139.316 165.605  1.00  0.00    -0.550 OA
ATOM     24  O   UNL     1     155.178 139.571 163.788  1.00  0.00    -0.550 OA
ENDBRANCH  21  22
ENDBRANCH  20  21
ENDBRANCH  19  20
ENDBRANCH  18  19
ENDBRANCH  17  18
ENDBRANCH  16  17
ENDBRANCH  15  16
ENDBRANCH  14  15
ENDBRANCH  13  14
ENDBRANCH   1  13
TORSDOF 20
ENDMDL
MODEL 3
REMARK VINA RESULT:    -3.688      1.833      2.847
REMARK INTER + INTRA:         -10.881
REMARK INTER:                  -9.302
REMARK INTRA:                  -1.579
REMARK UNBOUND:                -2.882
REMARK SMILES CCCCCCCCCCCCCCCCCCCCCC(=O)[O-]
REMARK SMILES IDX 12 1 11 2 10 3 9 4 8 5 7 6 6 7 5 8 4 9 3 10 2 11 1 12 13 13
REMARK SMILES IDX 14 14 15 15 16 16 17 17 18 18 19 19 20 20 21 21 22 22 23 23
REMARK SMILES IDX 24 24
REMARK H PARENT
REMARK Flexibility Score: inf
ROOT
ATOM      1  C   UNL     1     153.954 133.328 165.456  1.00  0.00     0.000 C 
ENDROOT
BRANCH   1   2
ATOM      2  C   UNL     1     155.176 132.392 165.548  1.00  0.00     0.000 C 
BRANCH   2   3
ATOM      3  C   UNL     1     155.735 132.178 166.969  1.00  0.00     0.000 C 
BRANCH   3   4
ATOM      4  C   UNL     1     157.271 132.163 167.070  1.00  0.00    -0.000 C 
BRANCH   4   5
ATOM      5  C   UNL     1     157.878 133.286 167.931  1.00  0.00    -0.000 C 
BRANCH   5   6
ATOM      6  C   UNL     1     156.900 133.876 168.969  1.00  0.00    -0.000 C 
BRANCH   6   7
ATOM      7  C   UNL     1     156.715 135.392 168.814  1.00  0.00    -0.000 C 
BRANCH   7   8
ATOM      8  C   UNL     1     156.024 135.727 167.483  1.00  0.00    -0.000 C 
BRANCH   8   9
ATOM      9  C   UNL     1     156.538 137.034 166.856  1.00  0.00    -0.000 C 
BRANCH   9  10
ATOM     10  C   UNL     1     157.263 137.980 167.833  1.00  0.00    -0.000 C 
BRANCH  10  11
ATOM     11  C   UNL     1     157.693 139.320 167.198  1.00  0.00    -0.003 C 
ATOM     12  C   UNL     1     156.578 139.961 166.372  1.00  0.00     0.004 C 
ENDBRANCH  10  11
ENDBRANCH   9  10
ENDBRANCH   8   9
ENDBRANCH   7   8
ENDBRANCH   6   7
ENDBRANCH   5   6
ENDBRANCH   4   5
ENDBRANCH   3   4
ENDBRANCH   2   3
ENDBRANCH   1   2
BRANCH   1  13
ATOM     13  C   UNL     1     152.824 133.023 166.456  1.00  0.00     0.000 C 
BRANCH  13  14
ATOM     14  C   UNL     1     151.794 132.026 165.906  1.00  0.00     0.000 C 
BRANCH  14  15
ATOM     15  C   UNL     1     151.913 131.900 164.382  1.00  0.00     0.000 C 
BRANCH  15  16
ATOM     16  C   UNL     1     150.532 131.944 163.717  1.00  0.00     0.000 C 
BRANCH  16  17
ATOM     17  C   UNL     1     149.845 133.292 163.960  1.00  0.00     0.000 C 
BRANCH  17  18
ATOM     18  C   UNL     1     148.471 133.097 164.620  1.00  0.00     0.000 C 
BRANCH  18  19
ATOM     19  C   UNL     1     147.317 133.627 163.753  1.00  0.00     0.000 C 
BRANCH  19  20
ATOM     20  C   UNL     1     146.304 132.528 163.382  1.00  0.00     0.006 C 
BRANCH  20  21
ATOM     21  C   UNL     1     146.369 132.159 161.893  1.00  0.00     0.053 C 
BRANCH  21  22
ATOM     22  C   UNL     1     145.678 133.176 161.036  1.00  0.00     0.041 C 
ATOM     23  O   UNL     1     144.956 134.063 161.562  1.00  0.00    -0.550 OA
ATOM     24  O   UNL     1     145.816 133.130 159.654  1.00  0.00    -0.550 OA
ENDBRANCH  21  22
ENDBRANCH  20  21
ENDBRANCH  19  20
ENDBRANCH  18  19
ENDBRANCH  17  18
ENDBRANCH  16  17
ENDBRANCH  15  16
ENDBRANCH  14  15
ENDBRANCH  13  14
ENDBRANCH   1  13
TORSDOF 20
ENDMDL
MODEL 4
REMARK VINA RESULT:    -3.687      4.467      7.656
REMARK INTER + INTRA:         -10.879
REMARK INTER:                  -7.241
REMARK INTRA:                  -3.638
REMARK UNBOUND:                -2.882
REMARK SMILES CCCCCCCCCCCCCCCCCCCCCC(=O)[O-]
REMARK SMILES IDX 12 1 11 2 10 3 9 4 8 5 7 6 6 7 5 8 4 9 3 10 2 11 1 12 13 13
REMARK SMILES IDX 14 14 15 15 16 16 17 17 18 18 19 19 20 20 21 21 22 22 23 23
REMARK SMILES IDX 24 24
REMARK H PARENT
REMARK Flexibility Score: inf
ROOT
ATOM      1  C   UNL     1     149.522 132.987 165.559  1.00  0.00     0.000 C 
ENDROOT
BRANCH   1   2
ATOM      2  C   UNL     1     149.546 134.230 164.647  1.00  0.00     0.000 C 
BRANCH   2   3
ATOM      3  C   UNL     1     150.940 134.843 164.407  1.00  0.00     0.000 C 
BRANCH   3   4
ATOM      4  C   UNL     1     151.350 135.942 165.406  1.00  0.00    -0.000 C 
BRANCH   4   5
ATOM      5  C   UNL     1     152.789 135.831 165.941  1.00  0.00    -0.000 C 
BRANCH   5   6
ATOM      6  C   UNL     1     152.922 136.151 167.446  1.00  0.00    -0.000 C 
BRANCH   6   7
ATOM      7  C   UNL     1     154.365 136.011 167.955  1.00  0.00    -0.000 C 
BRANCH   7   8
ATOM      8  C   UNL     1     155.339 135.794 166.787  1.00  0.00    -0.000 C 
BRANCH   8   9
ATOM      9  C   UNL     1     156.496 136.808 166.779  1.00  0.00    -0.000 C 
BRANCH   9  10
ATOM     10  C   UNL     1     156.076 138.272 167.017  1.00  0.00    -0.000 C 
BRANCH  10  11
ATOM     11  C   UNL     1     156.811 138.946 168.195  1.00  0.00    -0.003 C 
ATOM     12  C   UNL     1     157.344 137.934 169.209  1.00  0.00     0.004 C 
ENDBRANCH  10  11
ENDBRANCH   9  10
ENDBRANCH   8   9
ENDBRANCH   7   8
ENDBRANCH   6   7
ENDBRANCH   5   6
ENDBRANCH   4   5
ENDBRANCH   3   4
ENDBRANCH   2   3
ENDBRANCH   1   2
BRANCH   1  13
ATOM     13  C   UNL     1     149.362 133.285 167.061  1.00  0.00     0.000 C 
BRANCH  13  14
ATOM     14  C   UNL     1     150.670 133.115 167.846  1.00  0.00     0.000 C 
BRANCH  14  15
ATOM     15  C   UNL     1     151.513 131.972 167.265  1.00  0.00     0.000 C 
BRANCH  15  16
ATOM     16  C   UNL     1     152.987 132.379 167.148  1.00  0.00     0.000 C 
BRANCH  16  17
ATOM     17  C   UNL     1     153.504 132.172 165.720  1.00  0.00     0.000 C 
BRANCH  17  18
ATOM     18  C   UNL     1     155.039 132.196 165.683  1.00  0.00     0.000 C 
BRANCH  18  19
ATOM     19  C   UNL     1     155.666 132.247 167.087  1.00  0.00     0.000 C 
BRANCH  19  20
ATOM     20  C   UNL     1     157.204 132.217 167.049  1.00  0.00     0.006 C 
BRANCH  20  21
ATOM     21  C   UNL     1     157.827 133.409 167.788  1.00  0.00     0.053 C 
BRANCH  21  22
ATOM     22  C   UNL     1     157.486 133.401 169.247  1.00  0.00     0.041 C 
ATOM     23  O   UNL     1     157.723 132.381 169.948  1.00  0.00    -0.550 OA
ATOM     24  O   UNL     1     156.886 134.511 169.828  1.00  0.00    -0.550 OA
ENDBRANCH  21  22
ENDBRANCH  20  21
ENDBRANCH  19  20
ENDBRANCH  18  19
ENDBRANCH  17  18
ENDBRANCH  16  17
ENDBRANCH  15  16
ENDBRANCH  14  15
ENDBRANCH  13  14
ENDBRANCH   1  13
TORSDOF 20
ENDMDL
MODEL 5
REMARK VINA RESULT:    -3.639      3.420      8.526
REMARK INTER + INTRA:         -10.775
REMARK INTER:                  -8.853
REMARK INTRA:                  -1.922
REMARK UNBOUND:                -2.882
REMARK SMILES CCCCCCCCCCCCCCCCCCCCCC(=O)[O-]
REMARK SMILES IDX 12 1 11 2 10 3 9 4 8 5 7 6 6 7 5 8 4 9 3 10 2 11 1 12 13 13
REMARK SMILES IDX 14 14 15 15 16 16 17 17 18 18 19 19 20 20 21 21 22 22 23 23
REMARK SMILES IDX 24 24
REMARK H PARENT
REMARK Flexibility Score: inf
ROOT
ATOM      1  C   UNL     1     153.157 133.637 166.500  1.00  0.00     0.000 C 
ENDROOT
BRANCH   1   2
ATOM      2  C   UNL     1     152.188 132.441 166.586  1.00  0.00     0.000 C 
BRANCH   2   3
ATOM      3  C   UNL     1     150.841 132.632 165.860  1.00  0.00     0.000 C 
BRANCH   3   4
ATOM      4  C   UNL     1     150.847 132.258 164.366  1.00  0.00    -0.000 C 
BRANCH   4   5
ATOM      5  C   UNL     1     150.352 133.363 163.415  1.00  0.00    -0.000 C 
BRANCH   5   6
ATOM      6  C   UNL     1     148.960 133.088 162.808  1.00  0.00    -0.000 C 
BRANCH   6   7
ATOM      7  C   UNL     1     147.954 132.569 163.846  1.00  0.00    -0.000 C 
BRANCH   7   8
ATOM      8  C   UNL     1     146.547 133.121 163.570  1.00  0.00    -0.000 C 
BRANCH   8   9
ATOM      9  C   UNL     1     146.566 134.561 163.032  1.00  0.00    -0.000 C 
BRANCH   9  10
ATOM     10  C   UNL     1     145.673 134.804 161.798  1.00  0.00    -0.000 C 
BRANCH  10  11
ATOM     11  C   UNL     1     145.097 133.510 161.185  1.00  0.00    -0.003 C 
ATOM     12  C   UNL     1     145.813 133.101 159.898  1.00  0.00     0.004 C 
ENDBRANCH  10  11
ENDBRANCH   9  10
ENDBRANCH   8   9
ENDBRANCH   7   8
ENDBRANCH   6   7
ENDBRANCH   5   6
ENDBRANCH   4   5
ENDBRANCH   3   4
ENDBRANCH   2   3
ENDBRANCH   1   2
BRANCH   1  13
ATOM     13  C   UNL     1     154.281 133.491 165.459  1.00  0.00     0.000 C 
BRANCH  13  14
ATOM     14  C   UNL     1     155.135 132.234 165.677  1.00  0.00     0.000 C 
BRANCH  14  15
ATOM     15  C   UNL     1     155.764 132.235 167.076  1.00  0.00     0.000 C 
BRANCH  15  16
ATOM     16  C   UNL     1     157.296 132.268 166.990  1.00  0.00     0.000 C 
BRANCH  16  17
ATOM     17  C   UNL     1     157.897 133.049 168.164  1.00  0.00     0.000 C 
BRANCH  17  18
ATOM     18  C   UNL     1     156.919 134.121 168.668  1.00  0.00     0.000 C 
BRANCH  18  19
ATOM     19  C   UNL     1     156.944 135.397 167.811  1.00  0.00     0.000 C 
BRANCH  19  20
ATOM     20  C   UNL     1     155.582 136.115 167.778  1.00  0.00     0.006 C 
BRANCH  20  21
ATOM     21  C   UNL     1     155.383 136.923 166.488  1.00  0.00     0.053 C 
BRANCH  21  22
ATOM     22  C   UNL     1     155.877 138.331 166.631  1.00  0.00     0.041 C 
ATOM     23  O   UNL     1     157.095 138.555 166.864  1.00  0.00    -0.550 OA
ATOM     24  O   UNL     1     154.989 139.394 166.529  1.00  0.00    -0.550 OA
ENDBRANCH  21  22
ENDBRANCH  20  21
ENDBRANCH  19  20
ENDBRANCH  18  19
ENDBRANCH  17  18
ENDBRANCH  16  17
ENDBRANCH  15  16
ENDBRANCH  14  15
ENDBRANCH  13  14
ENDBRANCH   1  13
TORSDOF 20
ENDMDL
MODEL 6
REMARK VINA RESULT:    -3.623      3.407      6.207
REMARK INTER + INTRA:         -10.741
REMARK INTER:                  -8.023
REMARK INTRA:                  -2.718
REMARK UNBOUND:                -2.882
REMARK SMILES CCCCCCCCCCCCCCCCCCCCCC(=O)[O-]
REMARK SMILES IDX 12 1 11 2 10 3 9 4 8 5 7 6 6 7 5 8 4 9 3 10 2 11 1 12 13 13
REMARK SMILES IDX 14 14 15 15 16 16 17 17 18 18 19 19 20 20 21 21 22 22 23 23
REMARK SMILES IDX 24 24
REMARK H PARENT
REMARK Flexibility Score: inf
ROOT
ATOM      1  C   UNL     1     155.351 136.695 167.248  1.00  0.00     0.000 C 
ENDROOT
BRANCH   1   2
ATOM      2  C   UNL     1     155.434 138.055 167.971  1.00  0.00     0.000 C 
BRANCH   2   3
ATOM      3  C   UNL     1     156.836 138.445 168.479  1.00  0.00     0.000 C 
BRANCH   3   4
ATOM      4  C   UNL     1     157.362 139.799 167.967  1.00  0.00    -0.000 C 
BRANCH   4   5
ATOM      5  C   UNL     1     158.104 139.742 166.619  1.00  0.00    -0.000 C 
BRANCH   5   6
ATOM      6  C   UNL     1     157.707 140.866 165.639  1.00  0.00    -0.000 C 
BRANCH   6   7
ATOM      7  C   UNL     1     156.193 140.931 165.394  1.00  0.00    -0.000 C 
BRANCH   7   8
ATOM      8  C   UNL     1     155.712 139.704 164.603  1.00  0.00    -0.000 C 
BRANCH   8   9
ATOM      9  C   UNL     1     154.211 139.424 164.789  1.00  0.00    -0.000 C 
BRANCH   9  10
ATOM     10  C   UNL     1     153.364 140.657 165.162  1.00  0.00    -0.000 C 
BRANCH  10  11
ATOM     11  C   UNL     1     152.563 140.488 166.470  1.00  0.00    -0.003 C 
ATOM     12  C   UNL     1     153.320 141.008 167.692  1.00  0.00     0.004 C 
ENDBRANCH  10  11
ENDBRANCH   9  10
ENDBRANCH   8   9
ENDBRANCH   7   8
ENDBRANCH   6   7
ENDBRANCH   5   6
ENDBRANCH   4   5
ENDBRANCH   3   4
ENDBRANCH   2   3
ENDBRANCH   1   2
BRANCH   1  13
ATOM     13  C   UNL     1     156.672 135.908 167.192  1.00  0.00     0.000 C 
BRANCH  13  14
ATOM     14  C   UNL     1     156.755 134.804 168.255  1.00  0.00     0.000 C 
BRANCH  14  15
ATOM     15  C   UNL     1     157.598 133.624 167.755  1.00  0.00     0.000 C 
BRANCH  15  16
ATOM     16  C   UNL     1     156.721 132.394 167.490  1.00  0.00     0.000 C 
BRANCH  16  17
ATOM     17  C   UNL     1     155.308 132.594 168.049  1.00  0.00     0.000 C 
BRANCH  17  18
ATOM     18  C   UNL     1     154.250 132.389 166.954  1.00  0.00     0.000 C 
BRANCH  18  19
ATOM     19  C   UNL     1     154.855 132.377 165.540  1.00  0.00     0.000 C 
BRANCH  19  20
ATOM     20  C   UNL     1     153.914 132.992 164.489  1.00  0.00     0.006 C 
BRANCH  20  21
ATOM     21  C   UNL     1     152.941 131.958 163.905  1.00  0.00     0.053 C 
BRANCH  21  22
ATOM     22  C   UNL     1     151.512 132.347 164.132  1.00  0.00     0.041 C 
ATOM     23  O   UNL     1     150.746 132.548 163.152  1.00  0.00    -0.550 OA
ATOM     24  O   UNL     1     151.031 132.508 165.425  1.00  0.00    -0.550 OA
ENDBRANCH  21  22
ENDBRANCH  20  21
ENDBRANCH  19  20
ENDBRANCH  18  19
ENDBRANCH  17  18
ENDBRANCH  16  17
ENDBRANCH  15  16
ENDBRANCH  14  15
ENDBRANCH  13  14
ENDBRANCH   1  13
TORSDOF 20
ENDMDL
MODEL 7
REMARK VINA RESULT:    -3.604      1.543      3.563
REMARK INTER + INTRA:         -10.699
REMARK INTER:                  -8.228
REMARK INTRA:                  -2.471
REMARK UNBOUND:                -2.882
REMARK SMILES CCCCCCCCCCCCCCCCCCCCCC(=O)[O-]
REMARK SMILES IDX 12 1 11 2 10 3 9 4 8 5 7 6 6 7 5 8 4 9 3 10 2 11 1 12 13 13
REMARK SMILES IDX 14 14 15 15 16 16 17 17 18 18 19 19 20 20 21 21 22 22 23 23
REMARK SMILES IDX 24 24
REMARK H PARENT
REMARK Flexibility Score: inf
ROOT
ATOM      1  C   UNL     1     151.471 135.293 168.314  1.00  0.00     0.000 C 
ENDROOT
BRANCH   1   2
ATOM      2  C   UNL     1     152.454 135.321 167.126  1.00  0.00     0.000 C 
BRANCH   2   3
ATOM      3  C   UNL     1     153.572 134.260 167.173  1.00  0.00     0.000 C 
BRANCH   3   4
ATOM      4  C   UNL     1     154.140 133.850 165.801  1.00  0.00    -0.000 C 
BRANCH   4   5
ATOM      5  C   UNL     1     154.901 132.512 165.784  1.00  0.00    -0.000 C 
BRANCH   5   6
ATOM      6  C   UNL     1     155.700 132.232 167.075  1.00  0.00    -0.000 C 
BRANCH   6   7
ATOM      7  C   UNL     1     157.217 132.198 166.836  1.00  0.00    -0.000 C 
BRANCH   7   8
ATOM      8  C   UNL     1     157.930 133.259 167.689  1.00  0.00    -0.000 C 
BRANCH   8   9
ATOM      9  C   UNL     1     157.031 133.837 168.796  1.00  0.00    -0.000 C 
BRANCH   9  10
ATOM     10  C   UNL     1     156.707 135.337 168.649  1.00  0.00    -0.000 C 
BRANCH  10  11
ATOM     11  C   UNL     1     156.777 135.849 167.194  1.00  0.00    -0.003 C 
ATOM     12  C   UNL     1     156.477 137.344 167.084  1.00  0.00     0.004 C 
ENDBRANCH  10  11
ENDBRANCH   9  10
ENDBRANCH   8   9
ENDBRANCH   7   8
ENDBRANCH   6   7
ENDBRANCH   5   6
ENDBRANCH   4   5
ENDBRANCH   3   4
ENDBRANCH   2   3
ENDBRANCH   1   2
BRANCH   1  13
ATOM     13  C   UNL     1     150.065 134.763 167.981  1.00  0.00     0.000 C 
BRANCH  13  14
ATOM     14  C   UNL     1     149.834 134.587 166.473  1.00  0.00     0.000 C 
BRANCH  14  15
ATOM     15  C   UNL     1     149.722 133.102 166.106  1.00  0.00     0.000 C 
BRANCH  15  16
ATOM     16  C   UNL     1     150.803 132.703 165.093  1.00  0.00     0.000 C 
BRANCH  16  17
ATOM     17  C   UNL     1     150.408 133.121 163.672  1.00  0.00     0.000 C 
BRANCH  17  18
ATOM     18  C   UNL     1     149.140 132.384 163.215  1.00  0.00     0.000 C 
BRANCH  18  19
ATOM     19  C   UNL     1     148.152 133.305 162.479  1.00  0.00     0.000 C 
BRANCH  19  20
ATOM     20  C   UNL     1     146.730 133.233 163.064  1.00  0.00     0.006 C 
BRANCH  20  21
ATOM     21  C   UNL     1     145.701 132.750 162.032  1.00  0.00     0.053 C 
BRANCH  21  22
ATOM     22  C   UNL     1     145.546 133.723 160.903  1.00  0.00     0.041 C 
ATOM     23  O   UNL     1     145.822 133.375 159.724  1.00  0.00    -0.550 OA
ATOM     24  O   UNL     1     145.116 135.019 161.156  1.00  0.00    -0.550 OA
ENDBRANCH  21  22
ENDBRANCH  20  21
ENDBRANCH  19  20
ENDBRANCH  18  19
ENDBRANCH  17  18
ENDBRANCH  16  17
ENDBRANCH  15  16
ENDBRANCH  14  15
ENDBRANCH  13  14
ENDBRANCH   1  13
TORSDOF 20
ENDMDL
MODEL 8
REMARK VINA RESULT:    -3.599      4.373      8.121
REMARK INTER + INTRA:         -10.688
REMARK INTER:                  -7.647
REMARK INTRA:                  -3.041
REMARK UNBOUND:                -2.882
REMARK SMILES CCCCCCCCCCCCCCCCCCCCCC(=O)[O-]
REMARK SMILES IDX 12 1 11 2 10 3 9 4 8 5 7 6 6 7 5 8 4 9 3 10 2 11 1 12 13 13
REMARK SMILES IDX 14 14 15 15 16 16 17 17 18 18 19 19 20 20 21 21 22 22 23 23
REMARK SMILES IDX 24 24
REMARK H PARENT
REMARK Flexibility Score: inf
ROOT
ATOM      1  C   UNL     1     153.195 132.661 165.009  1.00  0.00     0.000 C 
ENDROOT
BRANCH   1   2
ATOM      2  C   UNL     1     152.205 131.876 164.125  1.00  0.00     0.000 C 
BRANCH   2   3
ATOM      3  C   UNL     1     151.105 132.724 163.455  1.00  0.00     0.000 C 
BRANCH   3   4
ATOM      4  C   UNL     1     149.717 132.631 164.116  1.00  0.00    -0.000 C 
BRANCH   4   5
ATOM      5  C   UNL     1     149.539 133.490 165.382  1.00  0.00    -0.000 C 
BRANCH   5   6
ATOM      6  C   UNL     1     149.365 132.667 166.676  1.00  0.00    -0.000 C 
BRANCH   6   7
ATOM      7  C   UNL     1     150.377 133.054 167.764  1.00  0.00    -0.000 C 
BRANCH   7   8
ATOM      8  C   UNL     1     151.052 134.394 167.433  1.00  0.00    -0.000 C 
BRANCH   8   9
ATOM      9  C   UNL     1     152.211 134.730 168.386  1.00  0.00    -0.000 C 
BRANCH   9  10
ATOM     10  C   UNL     1     153.206 135.781 167.852  1.00  0.00    -0.000 C 
BRANCH  10  11
ATOM     11  C   UNL     1     153.066 136.056 166.339  1.00  0.00    -0.003 C 
ATOM     12  C   UNL     1     153.448 137.488 165.966  1.00  0.00     0.004 C 
ENDBRANCH  10  11
ENDBRANCH   9  10
ENDBRANCH   8   9
ENDBRANCH   7   8
ENDBRANCH   6   7
ENDBRANCH   5   6
ENDBRANCH   4   5
ENDBRANCH   3   4
ENDBRANCH   2   3
ENDBRANCH   1   2
BRANCH   1  13
ATOM     13  C   UNL     1     153.739 131.886 166.222  1.00  0.00     0.000 C 
BRANCH  13  14
ATOM     14  C   UNL     1     155.162 132.310 166.612  1.00  0.00     0.000 C 
BRANCH  14  15
ATOM     15  C   UNL     1     155.246 132.633 168.109  1.00  0.00     0.000 C 
BRANCH  15  16
ATOM     16  C   UNL     1     156.697 132.892 168.536  1.00  0.00     0.000 C 
BRANCH  16  17
ATOM     17  C   UNL     1     157.273 134.117 167.815  1.00  0.00     0.000 C 
BRANCH  17  18
ATOM     18  C   UNL     1     156.637 135.412 168.342  1.00  0.00     0.000 C 
BRANCH  18  19
ATOM     19  C   UNL     1     156.754 136.578 167.345  1.00  0.00     0.000 C 
BRANCH  19  20
ATOM     20  C   UNL     1     157.039 137.922 168.038  1.00  0.00     0.006 C 
BRANCH  20  21
ATOM     21  C   UNL     1     157.792 138.899 167.124  1.00  0.00     0.053 C 
BRANCH  21  22
ATOM     22  C   UNL     1     157.516 140.327 167.486  1.00  0.00     0.041 C 
ATOM     23  O   UNL     1     157.910 141.259 166.736  1.00  0.00    -0.550 OA
ATOM     24  O   UNL     1     156.841 140.628 168.662  1.00  0.00    -0.550 OA
ENDBRANCH  21  22
ENDBRANCH  20  21
ENDBRANCH  19  20
ENDBRANCH  18  19
ENDBRANCH  17  18
ENDBRANCH  16  17
ENDBRANCH  15  16
ENDBRANCH  14  15
ENDBRANCH  13  14
ENDBRANCH   1  13
TORSDOF 20
ENDMDL
MODEL 9
REMARK VINA RESULT:    -3.577      3.525      7.514
REMARK INTER + INTRA:         -10.641
REMARK INTER:                  -7.963
REMARK INTRA:                  -2.678
REMARK UNBOUND:                -2.882
REMARK SMILES CCCCCCCCCCCCCCCCCCCCCC(=O)[O-]
REMARK SMILES IDX 12 1 11 2 10 3 9 4 8 5 7 6 6 7 5 8 4 9 3 10 2 11 1 12 13 13
REMARK SMILES IDX 14 14 15 15 16 16 17 17 18 18 19 19 20 20 21 21 22 22 23 23
REMARK SMILES IDX 24 24
REMARK H PARENT
REMARK Flexibility Score: inf
ROOT
ATOM      1  C   UNL     1     153.738 133.216 165.729  1.00  0.00     0.000 C 
ENDROOT
BRANCH   1   2
ATOM      2  C   UNL     1     153.883 132.860 164.236  1.00  0.00     0.000 C 
BRANCH   2   3
ATOM      3  C   UNL     1     152.821 131.887 163.685  1.00  0.00     0.000 C 
BRANCH   3   4
ATOM      4  C   UNL     1     151.439 131.981 164.360  1.00  0.00    -0.000 C 
BRANCH   4   5
ATOM      5  C   UNL     1     150.285 132.386 163.425  1.00  0.00    -0.000 C 
BRANCH   5   6
ATOM      6  C   UNL     1     149.714 133.792 163.711  1.00  0.00    -0.000 C 
BRANCH   6   7
ATOM      7  C   UNL     1     150.689 134.678 164.500  1.00  0.00    -0.000 C 
BRANCH   7   8
ATOM      8  C   UNL     1     150.033 135.207 165.784  1.00  0.00    -0.000 C 
BRANCH   8   9
ATOM      9  C   UNL     1     150.424 134.396 167.032  1.00  0.00    -0.000 C 
BRANCH   9  10
ATOM     10  C   UNL     1     149.583 133.126 167.268  1.00  0.00    -0.000 C 
BRANCH  10  11
ATOM     11  C   UNL     1     148.076 133.404 167.456  1.00  0.00    -0.003 C 
ATOM     12  C   UNL     1     147.224 132.785 166.349  1.00  0.00     0.004 C 
ENDBRANCH  10  11
ENDBRANCH   9  10
ENDBRANCH   8   9
ENDBRANCH   7   8
ENDBRANCH   6   7
ENDBRANCH   5   6
ENDBRANCH   4   5
ENDBRANCH   3   4
ENDBRANCH   2   3
ENDBRANCH   1   2
BRANCH   1  13
ATOM     13  C   UNL     1     154.392 132.217 166.701  1.00  0.00     0.000 C 
BRANCH  13  14
ATOM     14  C   UNL     1     155.925 132.226 166.623  1.00  0.00     0.000 C 
BRANCH  14  15
ATOM     15  C   UNL     1     156.539 132.636 167.968  1.00  0.00     0.000 C 
BRANCH  15  16
ATOM     16  C   UNL     1     157.424 133.880 167.813  1.00  0.00     0.000 C 
BRANCH  16  17
ATOM     17  C   UNL     1     156.671 135.148 168.231  1.00  0.00     0.000 C 
BRANCH  17  18
ATOM     18  C   UNL     1     156.479 136.092 167.035  1.00  0.00     0.000 C 
BRANCH  18  19
ATOM     19  C   UNL     1     155.003 136.455 166.797  1.00  0.00     0.000 C 
BRANCH  19  20
ATOM     20  C   UNL     1     154.832 137.850 166.168  1.00  0.00     0.006 C 
BRANCH  20  21
ATOM     21  C   UNL     1     156.056 138.746 166.400  1.00  0.00     0.053 C 
BRANCH  21  22
ATOM     22  C   UNL     1     156.287 139.682 165.252  1.00  0.00     0.041 C 
ATOM     23  O   UNL     1     155.456 139.745 164.308  1.00  0.00    -0.550 OA
ATOM     24  O   UNL     1     157.432 140.469 165.216  1.00  0.00    -0.550 OA
ENDBRANCH  21  22
ENDBRANCH  20  21
ENDBRANCH  19  20
ENDBRANCH  18  19
ENDBRANCH  17  18
ENDBRANCH  16  17
ENDBRANCH  15  16
ENDBRANCH  14  15
ENDBRANCH  13  14
ENDBRANCH   1  13
TORSDOF 20
ENDMDL
