MODEL 1
REMARK VINA RESULT:    -4.013      0.000      0.000
REMARK INTER + INTRA:         -14.956
REMARK INTER:                 -10.112
REMARK INTRA:                  -4.844
REMARK UNBOUND:                -4.844
REMARK SMILES CCCCCCCCCCCCCCCCCCCCCCCCCCCC(=O)[O-]
REMARK SMILES IDX 15 1 16 2 17 3 18 4 19 5 20 6 21 7 22 8 23 9 24 10 25 11
REMARK SMILES IDX 26 12 27 13 28 14 29 15 30 16 14 17 13 18 12 19 11 20 10 21
REMARK SMILES IDX 9 22 8 23 7 24 6 25 5 26 4 27 3 28 2 29 1 30
REMARK H PARENT
REMARK Flexibility Score: inf
ROOT
ATOM      1  C   UNL     1       7.745 -16.955  35.327  1.00  0.00     0.000 C 
ENDROOT
BRANCH   1   2
ATOM      2  C   UNL     1       9.252 -17.226  35.171  1.00  0.00     0.000 C 
BRANCH   2   3
ATOM      3  C   UNL     1      10.070 -15.926  35.093  1.00  0.00     0.000 C 
BRANCH   3   4
ATOM      4  C   UNL     1       9.763 -14.960  36.249  1.00  0.00     0.000 C 
BRANCH   4   5
ATOM      5  C   UNL     1       9.394 -13.525  35.816  1.00  0.00     0.000 C 
BRANCH   5   6
ATOM      6  C   UNL     1       8.142 -12.935  36.494  1.00  0.00     0.000 C 
BRANCH   6   7
ATOM      7  C   UNL     1       7.528 -13.802  37.611  1.00  0.00     0.000 C 
BRANCH   7   8
ATOM      8  C   UNL     1       6.036 -14.139  37.398  1.00  0.00     0.000 C 
BRANCH   8   9
ATOM      9  C   UNL     1       5.278 -14.339  38.723  1.00  0.00     0.000 C 
BRANCH   9  10
ATOM     10  C   UNL     1       3.923 -15.038  38.527  1.00  0.00     0.000 C 
BRANCH  10  11
ATOM     11  C   UNL     1       3.648 -15.391  37.054  1.00  0.00     0.000 C 
BRANCH  11  12
ATOM     12  C   UNL     1       3.099 -16.819  36.878  1.00  0.00     0.006 C 
BRANCH  12  13
ATOM     13  C   UNL     1       4.034 -17.762  36.102  1.00  0.00     0.053 C 
BRANCH  13  14
ATOM     14  C   UNL     1       4.176 -19.092  36.778  1.00  0.00     0.041 C 
ATOM     15  O   UNL     1       5.311 -19.495  37.152  1.00  0.00    -0.550 OA
ATOM     16  O   UNL     1       3.051 -19.869  37.024  1.00  0.00    -0.550 OA
ENDBRANCH  13  14
ENDBRANCH  12  13
ENDBRANCH  11  12
ENDBRANCH  10  11
ENDBRANCH   9  10
ENDBRANCH   8   9
ENDBRANCH   7   8
ENDBRANCH   6   7
ENDBRANCH   5   6
ENDBRANCH   4   5
ENDBRANCH   3   4
ENDBRANCH   2   3
ENDBRANCH   1   2
BRANCH   1  17
ATOM     17  C   UNL     1       6.927 -17.509  34.147  1.00  0.00     0.000 C 
BRANCH  17  18
ATOM     18  C   UNL     1       6.214 -16.397  33.346  1.00  0.00     0.000 C 
BRANCH  18  19
ATOM     19  C   UNL     1       6.645 -14.968  33.732  1.00  0.00     0.000 C 
BRANCH  19  20
ATOM     20  C   UNL     1       7.502 -14.234  32.687  1.00  0.00     0.000 C 
BRANCH  20  21
ATOM     21  C   UNL     1       7.940 -15.146  31.527  1.00  0.00     0.000 C 
BRANCH  21  22
ATOM     22  C   UNL     1       9.430 -15.531  31.603  1.00  0.00    -0.000 C 
BRANCH  22  23
ATOM     23  C   UNL     1       9.851 -16.703  30.692  1.00  0.00    -0.000 C 
BRANCH  23  24
ATOM     24  C   UNL     1      10.923 -17.641  31.282  1.00  0.00    -0.000 C 
BRANCH  24  25
ATOM     25  C   UNL     1      10.393 -19.000  31.773  1.00  0.00    -0.000 C 
BRANCH  25  26
ATOM     26  C   UNL     1       8.865 -19.118  31.650  1.00  0.00    -0.000 C 
BRANCH  26  27
ATOM     27  C   UNL     1       8.429 -20.029  30.486  1.00  0.00    -0.000 C 
BRANCH  27  28
ATOM     28  C   UNL     1       9.557 -20.883  29.870  1.00  0.00    -0.000 C 
BRANCH  28  29
ATOM     29  C   UNL     1       9.780 -20.673  28.362  1.00  0.00    -0.003 C 
ATOM     30  C   UNL     1       9.443 -19.256  27.901  1.00  0.00     0.004 C 
ENDBRANCH  28  29
ENDBRANCH  27  28
ENDBRANCH  26  27
ENDBRANCH  25  26
ENDBRANCH  24  25
ENDBRANCH  23  24
ENDBRANCH  22  23
ENDBRANCH  21  22
ENDBRANCH  20  21
ENDBRANCH  19  20
ENDBRANCH  18  19
ENDBRANCH  17  18
ENDBRANCH   1  17
TORSDOF 26
ENDMDL
MODEL 2
REMARK VINA RESULT:    -3.902      2.263      5.135
REMARK INTER + INTRA:         -14.677
REMARK INTER:                  -9.337
REMARK INTRA:                  -5.340
REMARK UNBOUND:                -4.844
REMARK SMILES CCCCCCCCCCCCCCCCCCCCCCCCCCCC(=O)[O-]
REMARK SMILES IDX 15 1 16 2 17 3 18 4 19 5 20 6 21 7 22 8 23 9 24 10 25 11
REMARK SMILES IDX 26 12 27 13 28 14 29 15 30 16 14 17 13 18 12 19 11 20 10 21
REMARK SMILES IDX 9 22 8 23 7 24 6 25 5 26 4 27 3 28 2 29 1 30
REMARK H PARENT
REMARK Flexibility Score: inf
ROOT
ATOM      1  C   UNL     1       8.972 -15.040  31.574  1.00  0.00     0.000 C 
ENDROOT
BRANCH   1   2
ATOM      2  C   UNL     1       8.932 -13.512  31.406  1.00  0.00     0.000 C 
BRANCH   2   3
ATOM      3  C   UNL     1       9.472 -12.777  32.645  1.00  0.00     0.000 C 
BRANCH   3   4
ATOM      4  C   UNL     1       8.857 -13.292  33.957  1.00  0.00     0.000 C 
BRANCH   4   5
ATOM      5  C   UNL     1       9.871 -13.554  35.090  1.00  0.00     0.000 C 
BRANCH   5   6
ATOM      6  C   UNL     1      10.623 -14.896  35.004  1.00  0.00     0.000 C 
BRANCH   6   7
ATOM      7  C   UNL     1      10.050 -16.029  35.878  1.00  0.00     0.000 C 
BRANCH   7   8
ATOM      8  C   UNL     1       9.342 -17.145  35.077  1.00  0.00     0.000 C 
BRANCH   8   9
ATOM      9  C   UNL     1       7.910 -16.762  34.665  1.00  0.00     0.000 C 
BRANCH   9  10
ATOM     10  C   UNL     1       6.843 -17.557  35.435  1.00  0.00     0.000 C 
BRANCH  10  11
ATOM     11  C   UNL     1       6.289 -16.785  36.646  1.00  0.00     0.000 C 
BRANCH  11  12
ATOM     12  C   UNL     1       6.284 -15.261  36.426  1.00  0.00     0.006 C 
BRANCH  12  13
ATOM     13  C   UNL     1       6.990 -14.461  37.534  1.00  0.00     0.053 C 
BRANCH  13  14
ATOM     14  C   UNL     1       6.058 -14.110  38.654  1.00  0.00     0.041 C 
ATOM     15  O   UNL     1       6.260 -14.565  39.813  1.00  0.00    -0.550 OA
ATOM     16  O   UNL     1       4.988 -13.254  38.424  1.00  0.00    -0.550 OA
ENDBRANCH  13  14
ENDBRANCH  12  13
ENDBRANCH  11  12
ENDBRANCH  10  11
ENDBRANCH   9  10
ENDBRANCH   8   9
ENDBRANCH   7   8
ENDBRANCH   6   7
ENDBRANCH   5   6
ENDBRANCH   4   5
ENDBRANCH   3   4
ENDBRANCH   2   3
ENDBRANCH   1   2
BRANCH   1  17
ATOM     17  C   UNL     1      10.200 -15.671  30.891  1.00  0.00     0.000 C 
BRANCH  17  18
ATOM     18  C   UNL     1      10.725 -16.912  31.646  1.00  0.00     0.000 C 
BRANCH  18  19
ATOM     19  C   UNL     1      10.879 -18.167  30.764  1.00  0.00     0.000 C 
BRANCH  19  20
ATOM     20  C   UNL     1      10.617 -19.506  31.474  1.00  0.00     0.000 C 
BRANCH  20  21
ATOM     21  C   UNL     1      10.499 -20.688  30.496  1.00  0.00     0.000 C 
BRANCH  21  22
ATOM     22  C   UNL     1       9.323 -20.533  29.514  1.00  0.00    -0.000 C 
BRANCH  22  23
ATOM     23  C   UNL     1       7.922 -20.546  30.160  1.00  0.00    -0.000 C 
BRANCH  23  24
ATOM     24  C   UNL     1       7.235 -19.169  30.268  1.00  0.00    -0.000 C 
BRANCH  24  25
ATOM     25  C   UNL     1       7.057 -18.647  31.704  1.00  0.00    -0.000 C 
BRANCH  25  26
ATOM     26  C   UNL     1       5.619 -18.823  32.223  1.00  0.00    -0.000 C 
BRANCH  26  27
ATOM     27  C   UNL     1       4.716 -17.620  31.893  1.00  0.00    -0.000 C 
BRANCH  27  28
ATOM     28  C   UNL     1       5.435 -16.255  31.859  1.00  0.00    -0.000 C 
BRANCH  28  29
ATOM     29  C   UNL     1       5.030 -15.280  32.979  1.00  0.00    -0.003 C 
ATOM     30  C   UNL     1       5.413 -13.832  32.676  1.00  0.00     0.004 C 
ENDBRANCH  28  29
ENDBRANCH  27  28
ENDBRANCH  26  27
ENDBRANCH  25  26
ENDBRANCH  24  25
ENDBRANCH  23  24
ENDBRANCH  22  23
ENDBRANCH  21  22
ENDBRANCH  20  21
ENDBRANCH  19  20
ENDBRANCH  18  19
ENDBRANCH  17  18
ENDBRANCH   1  17
TORSDOF 26
ENDMDL
MODEL 3
REMARK VINA RESULT:    -3.877      2.116      4.745
REMARK INTER + INTRA:         -14.613
REMARK INTER:                  -9.412
REMARK INTRA:                  -5.201
REMARK UNBOUND:                -4.844
REMARK SMILES CCCCCCCCCCCCCCCCCCCCCCCCCCCC(=O)[O-]
REMARK SMILES IDX 15 1 16 2 17 3 18 4 19 5 20 6 21 7 22 8 23 9 24 10 25 11
REMARK SMILES IDX 26 12 27 13 28 14 29 15 30 16 14 17 13 18 12 19 11 20 10 21
REMARK SMILES IDX 9 22 8 23 7 24 6 25 5 26 4 27 3 28 2 29 1 30
REMARK H PARENT
REMARK Flexibility Score: inf
ROOT
ATOM      1  C   UNL     1       8.428 -15.188  30.952  1.00  0.00     0.000 C 
ENDROOT
BRANCH   1   2
ATOM      2  C   UNL     1       7.602 -16.292  31.634  1.00  0.00     0.000 C 
BRANCH   2   3
ATOM      3  C   UNL     1       7.325 -15.978  33.114  1.00  0.00     0.000 C 
BRANCH   3   4
ATOM      4  C   UNL     1       7.610 -17.172  34.040  1.00  0.00     0.000 C 
BRANCH   4   5
ATOM      5  C   UNL     1       9.105 -17.443  34.311  1.00  0.00     0.000 C 
BRANCH   5   6
ATOM      6  C   UNL     1       9.801 -16.426  35.236  1.00  0.00     0.000 C 
BRANCH   6   7
ATOM      7  C   UNL     1      10.529 -15.273  34.518  1.00  0.00     0.000 C 
BRANCH   7   8
ATOM      8  C   UNL     1      10.003 -13.869  34.889  1.00  0.00     0.000 C 
BRANCH   8   9
ATOM      9  C   UNL     1       9.169 -13.870  36.182  1.00  0.00     0.000 C 
BRANCH   9  10
ATOM     10  C   UNL     1       7.900 -13.009  36.066  1.00  0.00     0.000 C 
BRANCH  10  11
ATOM     11  C   UNL     1       6.610 -13.840  36.187  1.00  0.00     0.000 C 
BRANCH  11  12
ATOM     12  C   UNL     1       6.839 -15.195  36.882  1.00  0.00     0.006 C 
BRANCH  12  13
ATOM     13  C   UNL     1       5.681 -15.641  37.791  1.00  0.00     0.053 C 
BRANCH  13  14
ATOM     14  C   UNL     1       5.379 -14.628  38.852  1.00  0.00     0.041 C 
ATOM     15  O   UNL     1       4.188 -14.271  39.067  1.00  0.00    -0.550 OA
ATOM     16  O   UNL     1       6.407 -14.105  39.626  1.00  0.00    -0.550 OA
ENDBRANCH  13  14
ENDBRANCH  12  13
ENDBRANCH  11  12
ENDBRANCH  10  11
ENDBRANCH   9  10
ENDBRANCH   8   9
ENDBRANCH   7   8
ENDBRANCH   6   7
ENDBRANCH   5   6
ENDBRANCH   4   5
ENDBRANCH   3   4
ENDBRANCH   2   3
ENDBRANCH   1   2
BRANCH   1  17
ATOM     17  C   UNL     1       9.926 -15.536  30.887  1.00  0.00     0.000 C 
BRANCH  17  18
ATOM     18  C   UNL     1      10.179 -16.978  30.396  1.00  0.00     0.000 C 
BRANCH  18  19
ATOM     19  C   UNL     1      11.029 -17.832  31.357  1.00  0.00     0.000 C 
BRANCH  19  20
ATOM     20  C   UNL     1      10.635 -19.316  31.444  1.00  0.00     0.000 C 
BRANCH  20  21
ATOM     21  C   UNL     1       9.135 -19.551  31.198  1.00  0.00     0.000 C 
BRANCH  21  22
ATOM     22  C   UNL     1       8.867 -20.538  30.046  1.00  0.00    -0.000 C 
BRANCH  22  23
ATOM     23  C   UNL     1       9.990 -20.637  28.992  1.00  0.00    -0.000 C 
BRANCH  23  24
ATOM     24  C   UNL     1       9.518 -20.939  27.555  1.00  0.00    -0.000 C 
BRANCH  24  25
ATOM     25  C   UNL     1       8.070 -21.445  27.443  1.00  0.00    -0.000 C 
BRANCH  25  26
ATOM     26  C   UNL     1       7.375 -20.968  26.157  1.00  0.00    -0.000 C 
BRANCH  26  27
ATOM     27  C   UNL     1       7.030 -19.467  26.187  1.00  0.00    -0.000 C 
BRANCH  27  28
ATOM     28  C   UNL     1       6.413 -18.967  27.509  1.00  0.00    -0.000 C 
BRANCH  28  29
ATOM     29  C   UNL     1       7.207 -17.853  28.215  1.00  0.00    -0.003 C 
ATOM     30  C   UNL     1       8.334 -17.287  27.353  1.00  0.00     0.004 C 
ENDBRANCH  28  29
ENDBRANCH  27  28
ENDBRANCH  26  27
ENDBRANCH  25  26
ENDBRANCH  24  25
ENDBRANCH  23  24
ENDBRANCH  22  23
ENDBRANCH  21  22
ENDBRANCH  20  21
ENDBRANCH  19  20
ENDBRANCH  18  19
ENDBRANCH  17  18
ENDBRANCH   1  17
TORSDOF 26
ENDMDL
MODEL 4
REMARK VINA RESULT:    -3.871      1.411      2.344
REMARK INTER + INTRA:         -14.598
REMARK INTER:                  -9.432
REMARK INTRA:                  -5.165
REMARK UNBOUND:                -4.844
REMARK SMILES CCCCCCCCCCCCCCCCCCCCCCCCCCCC(=O)[O-]
REMARK SMILES IDX 15 1 16 2 17 3 18 4 19 5 20 6 21 7 22 8 23 9 24 10 25 11
REMARK SMILES IDX 26 12 27 13 28 14 29 15 30 16 14 17 13 18 12 19 11 20 10 21
REMARK SMILES IDX 9 22 8 23 7 24 6 25 5 26 4 27 3 28 2 29 1 30
REMARK H PARENT
REMARK Flexibility Score: inf
ROOT
ATOM      1  C   UNL     1       7.652 -17.338  33.548  1.00  0.00     0.000 C 
ENDROOT
BRANCH   1   2
ATOM      2  C   UNL     1       9.106 -17.449  34.040  1.00  0.00     0.000 C 
BRANCH   2   3
ATOM      3  C   UNL     1       9.319 -16.736  35.386  1.00  0.00     0.000 C 
BRANCH   3   4
ATOM      4  C   UNL     1      10.337 -15.588  35.296  1.00  0.00     0.000 C 
BRANCH   4   5
ATOM      5  C   UNL     1      10.103 -14.600  34.134  1.00  0.00     0.000 C 
BRANCH   5   6
ATOM      6  C   UNL     1       9.088 -13.476  34.420  1.00  0.00     0.000 C 
BRANCH   6   7
ATOM      7  C   UNL     1       7.668 -13.715  33.871  1.00  0.00     0.000 C 
BRANCH   7   8
ATOM      8  C   UNL     1       6.590 -13.881  34.965  1.00  0.00     0.000 C 
BRANCH   8   9
ATOM      9  C   UNL     1       7.183 -13.898  36.385  1.00  0.00     0.000 C 
BRANCH   9  10
ATOM     10  C   UNL     1       6.428 -14.851  37.327  1.00  0.00     0.000 C 
BRANCH  10  11
ATOM     11  C   UNL     1       5.611 -15.910  36.566  1.00  0.00     0.000 C 
BRANCH  11  12
ATOM     12  C   UNL     1       6.041 -17.349  36.905  1.00  0.00     0.006 C 
BRANCH  12  13
ATOM     13  C   UNL     1       5.369 -18.429  36.040  1.00  0.00     0.053 C 
BRANCH  13  14
ATOM     14  C   UNL     1       4.964 -19.624  36.847  1.00  0.00     0.041 C 
ATOM     15  O   UNL     1       3.759 -19.997  36.867  1.00  0.00    -0.550 OA
ATOM     16  O   UNL     1       5.922 -20.345  37.549  1.00  0.00    -0.550 OA
ENDBRANCH  13  14
ENDBRANCH  12  13
ENDBRANCH  11  12
ENDBRANCH  10  11
ENDBRANCH   9  10
ENDBRANCH   8   9
ENDBRANCH   7   8
ENDBRANCH   6   7
ENDBRANCH   5   6
ENDBRANCH   4   5
ENDBRANCH   3   4
ENDBRANCH   2   3
ENDBRANCH   1   2
BRANCH   1  17
ATOM     17  C   UNL     1       7.359 -18.289  32.373  1.00  0.00     0.000 C 
BRANCH  17  18
ATOM     18  C   UNL     1       7.031 -17.532  31.067  1.00  0.00     0.000 C 
BRANCH  18  19
ATOM     19  C   UNL     1       7.560 -16.085  31.027  1.00  0.00     0.000 C 
BRANCH  19  20
ATOM     20  C   UNL     1       8.982 -15.920  30.467  1.00  0.00     0.000 C 
BRANCH  20  21
ATOM     21  C   UNL     1       9.270 -16.855  29.279  1.00  0.00     0.000 C 
BRANCH  21  22
ATOM     22  C   UNL     1      10.542 -17.699  29.479  1.00  0.00    -0.000 C 
BRANCH  22  23
ATOM     23  C   UNL     1      10.930 -17.963  30.948  1.00  0.00    -0.000 C 
BRANCH  23  24
ATOM     24  C   UNL     1      10.740 -19.417  31.428  1.00  0.00    -0.000 C 
BRANCH  24  25
ATOM     25  C   UNL     1      10.373 -20.420  30.321  1.00  0.00    -0.000 C 
BRANCH  25  26
ATOM     26  C   UNL     1       8.860 -20.688  30.244  1.00  0.00    -0.000 C 
BRANCH  26  27
ATOM     27  C   UNL     1       8.394 -21.074  28.827  1.00  0.00    -0.000 C 
BRANCH  27  28
ATOM     28  C   UNL     1       9.455 -20.893  27.721  1.00  0.00    -0.000 C 
BRANCH  28  29
ATOM     29  C   UNL     1       8.982 -20.093  26.494  1.00  0.00    -0.003 C 
ATOM     30  C   UNL     1      10.003 -19.056  26.030  1.00  0.00     0.004 C 
ENDBRANCH  28  29
ENDBRANCH  27  28
ENDBRANCH  26  27
ENDBRANCH  25  26
ENDBRANCH  24  25
ENDBRANCH  23  24
ENDBRANCH  22  23
ENDBRANCH  21  22
ENDBRANCH  20  21
ENDBRANCH  19  20
ENDBRANCH  18  19
ENDBRANCH  17  18
ENDBRANCH   1  17
TORSDOF 26
ENDMDL
MODEL 5
REMARK VINA RESULT:    -3.864      4.632      9.558
REMARK INTER + INTRA:         -14.581
REMARK INTER:                 -10.107
REMARK INTRA:                  -4.475
REMARK UNBOUND:                -4.844
REMARK SMILES CCCCCCCCCCCCCCCCCCCCCCCCCCCC(=O)[O-]
REMARK SMILES IDX 15 1 16 2 17 3 18 4 19 5 20 6 21 7 22 8 23 9 24 10 25 11
REMARK SMILES IDX 26 12 27 13 28 14 29 15 30 16 14 17 13 18 12 19 11 20 10 21
REMARK SMILES IDX 9 22 8 23 7 24 6 25 5 26 4 27 3 28 2 29 1 30
REMARK H PARENT
REMARK Flexibility Score: inf
ROOT
ATOM      1  C   UNL     1       8.653 -19.894  28.161  1.00  0.00     0.000 C 
ENDROOT
BRANCH   1   2
ATOM      2  C   UNL     1       9.143 -18.680  27.353  1.00  0.00     0.000 C 
BRANCH   2   3
ATOM      3  C   UNL     1       8.980 -17.363  28.130  1.00  0.00     0.000 C 
BRANCH   3   4
ATOM      4  C   UNL     1      10.325 -16.755  28.561  1.00  0.00     0.000 C 
BRANCH   4   5
ATOM      5  C   UNL     1      10.387 -15.214  28.514  1.00  0.00     0.000 C 
BRANCH   5   6
ATOM      6  C   UNL     1      10.999 -14.618  27.232  1.00  0.00     0.000 C 
BRANCH   6   7
ATOM      7  C   UNL     1      11.637 -15.641  26.270  1.00  0.00     0.000 C 
BRANCH   7   8
ATOM      8  C   UNL     1      13.165 -15.482  26.105  1.00  0.00     0.000 C 
BRANCH   8   9
ATOM      9  C   UNL     1      13.641 -14.039  26.349  1.00  0.00     0.000 C 
BRANCH   9  10
ATOM     10  C   UNL     1      14.852 -13.971  27.295  1.00  0.00     0.000 C 
BRANCH  10  11
ATOM     11  C   UNL     1      14.860 -12.693  28.152  1.00  0.00     0.000 C 
BRANCH  11  12
ATOM     12  C   UNL     1      13.449 -12.269  28.600  1.00  0.00     0.006 C 
BRANCH  12  13
ATOM     13  C   UNL     1      12.989 -12.905  29.922  1.00  0.00     0.053 C 
BRANCH  13  14
ATOM     14  C   UNL     1      13.300 -12.035  31.101  1.00  0.00     0.041 C 
ATOM     15  O   UNL     1      13.785 -12.539  32.151  1.00  0.00    -0.550 OA
ATOM     16  O   UNL     1      13.085 -10.664  31.029  1.00  0.00    -0.550 OA
ENDBRANCH  13  14
ENDBRANCH  12  13
ENDBRANCH  11  12
ENDBRANCH  10  11
ENDBRANCH   9  10
ENDBRANCH   8   9
ENDBRANCH   7   8
ENDBRANCH   6   7
ENDBRANCH   5   6
ENDBRANCH   4   5
ENDBRANCH   3   4
ENDBRANCH   2   3
ENDBRANCH   1   2
BRANCH   1  17
ATOM     17  C   UNL     1       9.816 -20.688  28.785  1.00  0.00     0.000 C 
BRANCH  17  18
ATOM     18  C   UNL     1       9.765 -20.700  30.328  1.00  0.00     0.000 C 
BRANCH  18  19
ATOM     19  C   UNL     1      10.780 -19.754  31.000  1.00  0.00     0.000 C 
BRANCH  19  20
ATOM     20  C   UNL     1      10.170 -18.673  31.908  1.00  0.00     0.000 C 
BRANCH  20  21
ATOM     21  C   UNL     1       8.634 -18.627  31.834  1.00  0.00     0.000 C 
BRANCH  21  22
ATOM     22  C   UNL     1       8.090 -17.203  31.616  1.00  0.00    -0.000 C 
BRANCH  22  23
ATOM     23  C   UNL     1       7.382 -16.576  32.834  1.00  0.00    -0.000 C 
BRANCH  23  24
ATOM     24  C   UNL     1       7.128 -17.537  34.013  1.00  0.00    -0.000 C 
BRANCH  24  25
ATOM     25  C   UNL     1       7.856 -17.166  35.317  1.00  0.00    -0.000 C 
BRANCH  25  26
ATOM     26  C   UNL     1       9.387 -17.174  35.163  1.00  0.00    -0.000 C 
BRANCH  26  27
ATOM     27  C   UNL     1      10.053 -15.923  35.768  1.00  0.00    -0.000 C 
BRANCH  27  28
ATOM     28  C   UNL     1      10.187 -14.726  34.805  1.00  0.00    -0.000 C 
BRANCH  28  29
ATOM     29  C   UNL     1      11.337 -14.838  33.787  1.00  0.00    -0.003 C 
ATOM     30  C   UNL     1      10.845 -14.981  32.347  1.00  0.00     0.004 C 
ENDBRANCH  28  29
ENDBRANCH  27  28
ENDBRANCH  26  27
ENDBRANCH  25  26
ENDBRANCH  24  25
ENDBRANCH  23  24
ENDBRANCH  22  23
ENDBRANCH  21  22
ENDBRANCH  20  21
ENDBRANCH  19  20
ENDBRANCH  18  19
ENDBRANCH  17  18
ENDBRANCH   1  17
TORSDOF 26
ENDMDL
MODEL 6
REMARK VINA RESULT:    -3.857      2.421      5.168
REMARK INTER + INTRA:         -14.563
REMARK INTER:                  -9.144
REMARK INTRA:                  -5.419
REMARK UNBOUND:                -4.844
REMARK SMILES CCCCCCCCCCCCCCCCCCCCCCCCCCCC(=O)[O-]
REMARK SMILES IDX 15 1 16 2 17 3 18 4 19 5 20 6 21 7 22 8 23 9 24 10 25 11
REMARK SMILES IDX 26 12 27 13 28 14 29 15 30 16 14 17 13 18 12 19 11 20 10 21
REMARK SMILES IDX 9 22 8 23 7 24 6 25 5 26 4 27 3 28 2 29 1 30
REMARK H PARENT
REMARK Flexibility Score: inf
ROOT
ATOM      1  C   UNL     1       8.505 -16.940  28.163  1.00  0.00     0.000 C 
ENDROOT
BRANCH   1   2
ATOM      2  C   UNL     1       9.781 -16.434  28.856  1.00  0.00     0.000 C 
BRANCH   2   3
ATOM      3  C   UNL     1       9.477 -15.381  29.934  1.00  0.00     0.000 C 
BRANCH   3   4
ATOM      4  C   UNL     1      10.700 -15.052  30.807  1.00  0.00     0.000 C 
BRANCH   4   5
ATOM      5  C   UNL     1      10.368 -14.530  32.221  1.00  0.00     0.000 C 
BRANCH   5   6
ATOM      6  C   UNL     1      11.160 -15.186  33.368  1.00  0.00     0.000 C 
BRANCH   6   7
ATOM      7  C   UNL     1      10.431 -15.238  34.725  1.00  0.00     0.000 C 
BRANCH   7   8
ATOM      8  C   UNL     1       8.982 -15.766  34.642  1.00  0.00     0.000 C 
BRANCH   8   9
ATOM      9  C   UNL     1       8.795 -17.106  35.376  1.00  0.00     0.000 C 
BRANCH   9  10
ATOM     10  C   UNL     1       7.318 -17.520  35.480  1.00  0.00     0.000 C 
BRANCH  10  11
ATOM     11  C   UNL     1       6.357 -16.336  35.275  1.00  0.00     0.000 C 
BRANCH  11  12
ATOM     12  C   UNL     1       5.345 -16.186  36.426  1.00  0.00     0.006 C 
BRANCH  12  13
ATOM     13  C   UNL     1       5.915 -15.502  37.681  1.00  0.00     0.053 C 
BRANCH  13  14
ATOM     14  C   UNL     1       6.679 -14.258  37.344  1.00  0.00     0.041 C 
ATOM     15  O   UNL     1       6.076 -13.246  36.894  1.00  0.00    -0.550 OA
ATOM     16  O   UNL     1       8.051 -14.206  37.558  1.00  0.00    -0.550 OA
ENDBRANCH  13  14
ENDBRANCH  12  13
ENDBRANCH  11  12
ENDBRANCH  10  11
ENDBRANCH   9  10
ENDBRANCH   8   9
ENDBRANCH   7   8
ENDBRANCH   6   7
ENDBRANCH   5   6
ENDBRANCH   4   5
ENDBRANCH   3   4
ENDBRANCH   2   3
ENDBRANCH   1   2
BRANCH   1  17
ATOM     17  C   UNL     1       8.489 -18.472  28.013  1.00  0.00     0.000 C 
BRANCH  17  18
ATOM     18  C   UNL     1       9.857 -19.113  28.339  1.00  0.00     0.000 C 
BRANCH  18  19
ATOM     19  C   UNL     1       9.760 -20.498  29.008  1.00  0.00     0.000 C 
BRANCH  19  20
ATOM     20  C   UNL     1      10.031 -20.519  30.522  1.00  0.00     0.000 C 
BRANCH  20  21
ATOM     21  C   UNL     1      10.739 -19.247  31.020  1.00  0.00     0.000 C 
BRANCH  21  22
ATOM     22  C   UNL     1       9.917 -18.480  32.072  1.00  0.00    -0.000 C 
BRANCH  22  23
ATOM     23  C   UNL     1       8.405 -18.783  32.072  1.00  0.00    -0.000 C 
BRANCH  23  24
ATOM     24  C   UNL     1       7.496 -17.598  31.683  1.00  0.00    -0.000 C 
BRANCH  24  25
ATOM     25  C   UNL     1       5.988 -17.874  31.804  1.00  0.00    -0.000 C 
BRANCH  25  26
ATOM     26  C   UNL     1       5.676 -19.359  32.062  1.00  0.00    -0.000 C 
BRANCH  26  27
ATOM     27  C   UNL     1       5.112 -20.074  30.820  1.00  0.00    -0.000 C 
BRANCH  27  28
ATOM     28  C   UNL     1       6.173 -20.561  29.811  1.00  0.00    -0.000 C 
BRANCH  28  29
ATOM     29  C   UNL     1       6.306 -22.090  29.697  1.00  0.00    -0.003 C 
ATOM     30  C   UNL     1       5.286 -22.842  30.550  1.00  0.00     0.004 C 
ENDBRANCH  28  29
ENDBRANCH  27  28
ENDBRANCH  26  27
ENDBRANCH  25  26
ENDBRANCH  24  25
ENDBRANCH  23  24
ENDBRANCH  22  23
ENDBRANCH  21  22
ENDBRANCH  20  21
ENDBRANCH  19  20
ENDBRANCH  18  19
ENDBRANCH  17  18
ENDBRANCH   1  17
TORSDOF 26
ENDMDL
MODEL 7
REMARK VINA RESULT:    -3.855      2.273      4.816
REMARK INTER + INTRA:         -14.559
REMARK INTER:                 -10.117
REMARK INTRA:                  -4.442
REMARK UNBOUND:                -4.844
REMARK SMILES CCCCCCCCCCCCCCCCCCCCCCCCCCCC(=O)[O-]
REMARK SMILES IDX 15 1 16 2 17 3 18 4 19 5 20 6 21 7 22 8 23 9 24 10 25 11
REMARK SMILES IDX 26 12 27 13 28 14 29 15 30 16 14 17 13 18 12 19 11 20 10 21
REMARK SMILES IDX 9 22 8 23 7 24 6 25 5 26 4 27 3 28 2 29 1 30
REMARK H PARENT
REMARK Flexibility Score: inf
ROOT
ATOM      1  C   UNL     1       5.948 -18.484  31.108  1.00  0.00     0.000 C 
ENDROOT
BRANCH   1   2
ATOM      2  C   UNL     1       6.629 -17.376  31.930  1.00  0.00     0.000 C 
BRANCH   2   3
ATOM      3  C   UNL     1       7.465 -17.945  33.089  1.00  0.00     0.000 C 
BRANCH   3   4
ATOM      4  C   UNL     1       7.733 -16.910  34.194  1.00  0.00     0.000 C 
BRANCH   4   5
ATOM      5  C   UNL     1       8.789 -17.331  35.237  1.00  0.00     0.000 C 
BRANCH   5   6
ATOM      6  C   UNL     1      10.035 -16.428  35.314  1.00  0.00     0.000 C 
BRANCH   6   7
ATOM      7  C   UNL     1      10.245 -15.491  34.108  1.00  0.00     0.000 C 
BRANCH   7   8
ATOM      8  C   UNL     1      10.988 -14.181  34.450  1.00  0.00     0.000 C 
BRANCH   8   9
ATOM      9  C   UNL     1      10.565 -13.596  35.809  1.00  0.00     0.000 C 
BRANCH   9  10
ATOM     10  C   UNL     1       9.387 -12.614  35.686  1.00  0.00     0.000 C 
BRANCH  10  11
ATOM     11  C   UNL     1       8.026 -13.293  35.921  1.00  0.00     0.000 C 
BRANCH  11  12
ATOM     12  C   UNL     1       8.035 -14.237  37.137  1.00  0.00     0.006 C 
BRANCH  12  13
ATOM     13  C   UNL     1       7.103 -13.801  38.281  1.00  0.00     0.053 C 
BRANCH  13  14
ATOM     14  C   UNL     1       5.800 -14.541  38.256  1.00  0.00     0.041 C 
ATOM     15  O   UNL     1       5.619 -15.478  37.432  1.00  0.00    -0.550 OA
ATOM     16  O   UNL     1       4.801 -14.217  39.165  1.00  0.00    -0.550 OA
ENDBRANCH  13  14
ENDBRANCH  12  13
ENDBRANCH  11  12
ENDBRANCH  10  11
ENDBRANCH   9  10
ENDBRANCH   8   9
ENDBRANCH   7   8
ENDBRANCH   6   7
ENDBRANCH   5   6
ENDBRANCH   4   5
ENDBRANCH   3   4
ENDBRANCH   2   3
ENDBRANCH   1   2
BRANCH   1  17
ATOM     17  C   UNL     1       6.799 -19.766  31.038  1.00  0.00     0.000 C 
BRANCH  17  18
ATOM     18  C   UNL     1       7.441 -19.976  29.649  1.00  0.00     0.000 C 
BRANCH  18  19
ATOM     19  C   UNL     1       8.523 -21.073  29.614  1.00  0.00     0.000 C 
BRANCH  19  20
ATOM     20  C   UNL     1       9.972 -20.565  29.533  1.00  0.00     0.000 C 
BRANCH  20  21
ATOM     21  C   UNL     1      10.659 -20.495  30.908  1.00  0.00     0.000 C 
BRANCH  21  22
ATOM     22  C   UNL     1      10.424 -19.152  31.624  1.00  0.00    -0.000 C 
BRANCH  22  23
ATOM     23  C   UNL     1      11.078 -17.927  30.953  1.00  0.00    -0.000 C 
BRANCH  23  24
ATOM     24  C   UNL     1      10.158 -16.702  30.781  1.00  0.00    -0.000 C 
BRANCH  24  25
ATOM     25  C   UNL     1       9.299 -16.713  29.505  1.00  0.00    -0.000 C 
BRANCH  25  26
ATOM     26  C   UNL     1      10.010 -17.388  28.319  1.00  0.00    -0.000 C 
BRANCH  26  27
ATOM     27  C   UNL     1       9.053 -17.714  27.158  1.00  0.00    -0.000 C 
BRANCH  27  28
ATOM     28  C   UNL     1       9.670 -18.557  26.022  1.00  0.00    -0.000 C 
BRANCH  28  29
ATOM     29  C   UNL     1       9.248 -20.037  26.010  1.00  0.00    -0.003 C 
ATOM     30  C   UNL     1      10.313 -20.955  25.411  1.00  0.00     0.004 C 
ENDBRANCH  28  29
ENDBRANCH  27  28
ENDBRANCH  26  27
ENDBRANCH  25  26
ENDBRANCH  24  25
ENDBRANCH  23  24
ENDBRANCH  22  23
ENDBRANCH  21  22
ENDBRANCH  20  21
ENDBRANCH  19  20
ENDBRANCH  18  19
ENDBRANCH  17  18
ENDBRANCH   1  17
TORSDOF 26
ENDMDL
MODEL 8
REMARK VINA RESULT:    -3.845      3.547      6.982
REMARK INTER + INTRA:         -14.533
REMARK INTER:                  -9.424
REMARK INTRA:                  -5.109
REMARK UNBOUND:                -4.844
REMARK SMILES CCCCCCCCCCCCCCCCCCCCCCCCCCCC(=O)[O-]
REMARK SMILES IDX 15 1 16 2 17 3 18 4 19 5 20 6 21 7 22 8 23 9 24 10 25 11
REMARK SMILES IDX 26 12 27 13 28 14 29 15 30 16 14 17 13 18 12 19 11 20 10 21
REMARK SMILES IDX 9 22 8 23 7 24 6 25 5 26 4 27 3 28 2 29 1 30
REMARK H PARENT
REMARK Flexibility Score: inf
ROOT
ATOM      1  C   UNL     1       7.315 -17.412  28.244  1.00  0.00     0.000 C 
ENDROOT
BRANCH   1   2
ATOM      2  C   UNL     1       6.731 -18.555  29.091  1.00  0.00     0.000 C 
BRANCH   2   3
ATOM      3  C   UNL     1       7.043 -18.387  30.588  1.00  0.00     0.000 C 
BRANCH   3   4
ATOM      4  C   UNL     1       7.760 -19.607  31.187  1.00  0.00     0.000 C 
BRANCH   4   5
ATOM      5  C   UNL     1       8.621 -20.410  30.190  1.00  0.00     0.000 C 
BRANCH   5   6
ATOM      6  C   UNL     1      10.086 -19.950  30.065  1.00  0.00     0.000 C 
BRANCH   6   7
ATOM      7  C   UNL     1      10.699 -19.351  31.347  1.00  0.00     0.000 C 
BRANCH   7   8
ATOM      8  C   UNL     1      11.072 -17.857  31.227  1.00  0.00     0.000 C 
BRANCH   8   9
ATOM      9  C   UNL     1      10.185 -16.953  32.102  1.00  0.00     0.000 C 
BRANCH   9  10
ATOM     10  C   UNL     1       9.845 -17.595  33.457  1.00  0.00     0.000 C 
BRANCH  10  11
ATOM     11  C   UNL     1       8.455 -17.181  33.974  1.00  0.00     0.000 C 
BRANCH  11  12
ATOM     12  C   UNL     1       8.506 -16.560  35.382  1.00  0.00     0.006 C 
BRANCH  12  13
ATOM     13  C   UNL     1       9.921 -16.187  35.856  1.00  0.00     0.053 C 
BRANCH  13  14
ATOM     14  C   UNL     1      10.129 -14.704  35.891  1.00  0.00     0.041 C 
ATOM     15  O   UNL     1      11.224 -14.207  35.510  1.00  0.00    -0.550 OA
ATOM     16  O   UNL     1       9.101 -13.869  36.313  1.00  0.00    -0.550 OA
ENDBRANCH  13  14
ENDBRANCH  12  13
ENDBRANCH  11  12
ENDBRANCH  10  11
ENDBRANCH   9  10
ENDBRANCH   8   9
ENDBRANCH   7   8
ENDBRANCH   6   7
ENDBRANCH   5   6
ENDBRANCH   4   5
ENDBRANCH   3   4
ENDBRANCH   2   3
ENDBRANCH   1   2
BRANCH   1  17
ATOM     17  C   UNL     1       8.008 -16.341  29.107  1.00  0.00     0.000 C 
BRANCH  17  18
ATOM     18  C   UNL     1       9.436 -16.018  28.617  1.00  0.00     0.000 C 
BRANCH  18  19
ATOM     19  C   UNL     1      10.036 -17.083  27.677  1.00  0.00     0.000 C 
BRANCH  19  20
ATOM     20  C   UNL     1      11.125 -16.575  26.716  1.00  0.00     0.000 C 
BRANCH  20  21
ATOM     21  C   UNL     1      11.038 -17.217  25.321  1.00  0.00     0.000 C 
BRANCH  21  22
ATOM     22  C   UNL     1       9.960 -18.313  25.235  1.00  0.00    -0.000 C 
BRANCH  22  23
ATOM     23  C   UNL     1      10.489 -19.733  24.949  1.00  0.00    -0.000 C 
BRANCH  23  24
ATOM     24  C   UNL     1       9.923 -20.842  25.860  1.00  0.00    -0.000 C 
BRANCH  24  25
ATOM     25  C   UNL     1       8.692 -20.433  26.688  1.00  0.00    -0.000 C 
BRANCH  25  26
ATOM     26  C   UNL     1       7.372 -20.643  25.927  1.00  0.00    -0.000 C 
BRANCH  26  27
ATOM     27  C   UNL     1       6.699 -21.988  26.260  1.00  0.00    -0.000 C 
BRANCH  27  28
ATOM     28  C   UNL     1       6.856 -22.449  27.724  1.00  0.00    -0.000 C 
BRANCH  28  29
ATOM     29  C   UNL     1       5.669 -22.105  28.643  1.00  0.00    -0.003 C 
ATOM     30  C   UNL     1       5.810 -22.700  30.044  1.00  0.00     0.004 C 
ENDBRANCH  28  29
ENDBRANCH  27  28
ENDBRANCH  26  27
ENDBRANCH  25  26
ENDBRANCH  24  25
ENDBRANCH  23  24
ENDBRANCH  22  23
ENDBRANCH  21  22
ENDBRANCH  20  21
ENDBRANCH  19  20
ENDBRANCH  18  19
ENDBRANCH  17  18
ENDBRANCH   1  17
TORSDOF 26
ENDMDL
MODEL 9
REMARK VINA RESULT:    -3.820      1.964      5.474
REMARK INTER + INTRA:         -14.471
REMARK INTER:                  -9.826
REMARK INTRA:                  -4.645
REMARK UNBOUND:                -4.844
REMARK SMILES CCCCCCCCCCCCCCCCCCCCCCCCCCCC(=O)[O-]
REMARK SMILES IDX 15 1 16 2 17 3 18 4 19 5 20 6 21 7 22 8 23 9 24 10 25 11
REMARK SMILES IDX 26 12 27 13 28 14 29 15 30 16 14 17 13 18 12 19 11 20 10 21
REMARK SMILES IDX 9 22 8 23 7 24 6 25 5 26 4 27 3 28 2 29 1 30
REMARK H PARENT
REMARK Flexibility Score: inf
ROOT
ATOM      1  C   UNL     1       9.537 -15.699  31.236  1.00  0.00     0.000 C 
ENDROOT
BRANCH   1   2
ATOM      2  C   UNL     1       8.282 -15.298  32.030  1.00  0.00     0.000 C 
BRANCH   2   3
ATOM      3  C   UNL     1       7.729 -16.463  32.868  1.00  0.00     0.000 C 
BRANCH   3   4
ATOM      4  C   UNL     1       8.820 -17.188  33.672  1.00  0.00     0.000 C 
BRANCH   4   5
ATOM      5  C   UNL     1       8.801 -16.912  35.190  1.00  0.00     0.000 C 
BRANCH   5   6
ATOM      6  C   UNL     1      10.056 -16.214  35.748  1.00  0.00     0.000 C 
BRANCH   6   7
ATOM      7  C   UNL     1      10.678 -15.144  34.829  1.00  0.00     0.000 C 
BRANCH   7   8
ATOM      8  C   UNL     1      10.430 -13.692  35.295  1.00  0.00     0.000 C 
BRANCH   8   9
ATOM      9  C   UNL     1       9.022 -13.186  34.936  1.00  0.00     0.000 C 
BRANCH   9  10
ATOM     10  C   UNL     1       8.433 -12.263  36.016  1.00  0.00     0.000 C 
BRANCH  10  11
ATOM     11  C   UNL     1       7.219 -12.886  36.727  1.00  0.00     0.000 C 
BRANCH  11  12
ATOM     12  C   UNL     1       7.578 -14.165  37.506  1.00  0.00     0.006 C 
BRANCH  12  13
ATOM     13  C   UNL     1       6.448 -15.207  37.563  1.00  0.00     0.053 C 
BRANCH  13  14
ATOM     14  C   UNL     1       5.115 -14.575  37.825  1.00  0.00     0.041 C 
ATOM     15  O   UNL     1       4.235 -14.552  36.922  1.00  0.00    -0.550 OA
ATOM     16  O   UNL     1       4.833 -14.044  39.078  1.00  0.00    -0.550 OA
ENDBRANCH  13  14
ENDBRANCH  12  13
ENDBRANCH  11  12
ENDBRANCH  10  11
ENDBRANCH   9  10
ENDBRANCH   8   9
ENDBRANCH   7   8
ENDBRANCH   6   7
ENDBRANCH   5   6
ENDBRANCH   4   5
ENDBRANCH   3   4
ENDBRANCH   2   3
ENDBRANCH   1   2
BRANCH   1  17
ATOM     17  C   UNL     1       9.207 -16.626  30.052  1.00  0.00     0.000 C 
BRANCH  17  18
ATOM     18  C   UNL     1      10.388 -17.546  29.672  1.00  0.00     0.000 C 
BRANCH  18  19
ATOM     19  C   UNL     1      11.104 -18.183  30.879  1.00  0.00     0.000 C 
BRANCH  19  20
ATOM     20  C   UNL     1      10.553 -19.548  31.326  1.00  0.00     0.000 C 
BRANCH  20  21
ATOM     21  C   UNL     1      10.034 -20.396  30.152  1.00  0.00     0.000 C 
BRANCH  21  22
ATOM     22  C   UNL     1       8.498 -20.499  30.124  1.00  0.00    -0.000 C 
BRANCH  22  23
ATOM     23  C   UNL     1       7.770 -19.761  31.266  1.00  0.00    -0.000 C 
BRANCH  23  24
ATOM     24  C   UNL     1       6.408 -19.144  30.887  1.00  0.00    -0.000 C 
BRANCH  24  25
ATOM     25  C   UNL     1       5.204 -19.714  31.656  1.00  0.00    -0.000 C 
BRANCH  25  26
ATOM     26  C   UNL     1       4.502 -18.656  32.525  1.00  0.00    -0.000 C 
BRANCH  26  27
ATOM     27  C   UNL     1       4.451 -19.045  34.014  1.00  0.00    -0.000 C 
BRANCH  27  28
ATOM     28  C   UNL     1       5.176 -18.071  34.967  1.00  0.00    -0.000 C 
BRANCH  28  29
ATOM     29  C   UNL     1       5.063 -18.420  36.462  1.00  0.00    -0.003 C 
ATOM     30  C   UNL     1       4.653 -19.872  36.704  1.00  0.00     0.004 C 
ENDBRANCH  28  29
ENDBRANCH  27  28
ENDBRANCH  26  27
ENDBRANCH  25  26
ENDBRANCH  24  25
ENDBRANCH  23  24
ENDBRANCH  22  23
ENDBRANCH  21  22
ENDBRANCH  20  21
ENDBRANCH  19  20
ENDBRANCH  18  19
ENDBRANCH  17  18
ENDBRANCH   1  17
TORSDOF 26
ENDMDL
