MODEL 1
REMARK VINA RESULT:    -3.560      0.000      0.000
REMARK INTER + INTRA:         -13.253
REMARK INTER:                  -8.971
REMARK INTRA:                  -4.282
REMARK UNBOUND:                -4.282
REMARK SMILES CCCCCCCCCCCCCCCCCCCCCCCCCCCC(=O)[O-]
REMARK SMILES IDX 15 1 16 2 17 3 18 4 19 5 20 6 21 7 22 8 23 9 24 10 25 11
REMARK SMILES IDX 26 12 27 13 28 14 29 15 30 16 14 17 13 18 12 19 11 20 10 21
REMARK SMILES IDX 9 22 8 23 7 24 6 25 5 26 4 27 3 28 2 29 1 30
REMARK H PARENT
REMARK Flexibility Score: inf
ROOT
ATOM      1  C   UNL     1     -94.677 148.979 238.149  1.00  0.00     0.000 C 
ENDROOT
BRANCH   1   2
ATOM      2  C   UNL     1     -95.592 147.924 238.803  1.00  0.00     0.000 C 
BRANCH   2   3
ATOM      3  C   UNL     1     -96.846 148.511 239.486  1.00  0.00     0.000 C 
BRANCH   3   4
ATOM      4  C   UNL     1     -96.986 150.033 239.305  1.00  0.00     0.000 C 
BRANCH   4   5
ATOM      5  C   UNL     1     -98.394 150.538 239.669  1.00  0.00     0.000 C 
BRANCH   5   6
ATOM      6  C   UNL     1     -99.301 149.409 240.189  1.00  0.00     0.000 C 
BRANCH   6   7
ATOM      7  C   UNL     1    -100.736 149.437 239.621  1.00  0.00     0.000 C 
BRANCH   7   8
ATOM      8  C   UNL     1    -101.697 150.427 240.306  1.00  0.00     0.000 C 
BRANCH   8   9
ATOM      9  C   UNL     1    -102.062 150.013 241.740  1.00  0.00     0.000 C 
BRANCH   9  10
ATOM     10  C   UNL     1    -101.547 151.034 242.767  1.00  0.00     0.000 C 
BRANCH  10  11
ATOM     11  C   UNL     1    -100.198 150.623 243.392  1.00  0.00     0.000 C 
BRANCH  11  12
ATOM     12  C   UNL     1     -99.064 151.650 243.218  1.00  0.00     0.006 C 
BRANCH  12  13
ATOM     13  C   UNL     1     -98.569 152.220 244.553  1.00  0.00     0.053 C 
BRANCH  13  14
ATOM     14  C   UNL     1     -99.278 153.499 244.877  1.00  0.00     0.041 C 
ATOM     15  O   UNL     1     -99.124 154.038 246.003  1.00  0.00    -0.550 OA
ATOM     16  O   UNL     1    -100.104 154.098 243.931  1.00  0.00    -0.550 OA
ENDBRANCH  13  14
ENDBRANCH  12  13
ENDBRANCH  11  12
ENDBRANCH  10  11
ENDBRANCH   9  10
ENDBRANCH   8   9
ENDBRANCH   7   8
ENDBRANCH   6   7
ENDBRANCH   5   6
ENDBRANCH   4   5
ENDBRANCH   3   4
ENDBRANCH   2   3
ENDBRANCH   1   2
BRANCH   1  17
ATOM     17  C   UNL     1     -94.220 148.580 236.735  1.00  0.00     0.000 C 
BRANCH  17  18
ATOM     18  C   UNL     1     -95.000 149.315 235.627  1.00  0.00     0.000 C 
BRANCH  18  19
ATOM     19  C   UNL     1     -96.049 148.462 234.887  1.00  0.00     0.000 C 
BRANCH  19  20
ATOM     20  C   UNL     1     -97.434 149.121 234.737  1.00  0.00     0.000 C 
BRANCH  20  21
ATOM     21  C   UNL     1     -98.132 149.473 236.064  1.00  0.00     0.000 C 
BRANCH  21  22
ATOM     22  C   UNL     1     -99.633 149.131 236.125  1.00  0.00    -0.000 C 
BRANCH  22  23
ATOM     23  C   UNL     1    -100.585 150.341 236.109  1.00  0.00    -0.000 C 
BRANCH  23  24
ATOM     24  C   UNL     1     -99.874 151.665 236.439  1.00  0.00    -0.000 C 
BRANCH  24  25
ATOM     25  C   UNL     1    -100.048 152.718 235.330  1.00  0.00    -0.000 C 
BRANCH  25  26
ATOM     26  C   UNL     1    -100.281 152.092 233.944  1.00  0.00    -0.000 C 
BRANCH  26  27
ATOM     27  C   UNL     1     -99.003 152.059 233.081  1.00  0.00    -0.000 C 
BRANCH  27  28
ATOM     28  C   UNL     1     -97.948 153.126 233.430  1.00  0.00    -0.000 C 
BRANCH  28  29
ATOM     29  C   UNL     1     -96.689 153.113 232.545  1.00  0.00    -0.003 C 
ATOM     30  C   UNL     1     -95.887 151.818 232.671  1.00  0.00     0.004 C 
ENDBRANCH  28  29
ENDBRANCH  27  28
ENDBRANCH  26  27
ENDBRANCH  25  26
ENDBRANCH  24  25
ENDBRANCH  23  24
ENDBRANCH  22  23
ENDBRANCH  21  22
ENDBRANCH  20  21
ENDBRANCH  19  20
ENDBRANCH  18  19
ENDBRANCH  17  18
ENDBRANCH   1  17
TORSDOF 26
ENDMDL
MODEL 2
REMARK VINA RESULT:    -3.534      1.221      3.485
REMARK INTER + INTRA:         -13.187
REMARK INTER:                  -8.974
REMARK INTRA:                  -4.213
REMARK UNBOUND:                -4.282
REMARK SMILES CCCCCCCCCCCCCCCCCCCCCCCCCCCC(=O)[O-]
REMARK SMILES IDX 15 1 16 2 17 3 18 4 19 5 20 6 21 7 22 8 23 9 24 10 25 11
REMARK SMILES IDX 26 12 27 13 28 14 29 15 30 16 14 17 13 18 12 19 11 20 10 21
REMARK SMILES IDX 9 22 8 23 7 24 6 25 5 26 4 27 3 28 2 29 1 30
REMARK H PARENT
REMARK Flexibility Score: inf
ROOT
ATOM      1  C   UNL     1     -96.540 148.514 235.338  1.00  0.00     0.000 C 
ENDROOT
BRANCH   1   2
ATOM      2  C   UNL     1     -95.163 149.188 235.504  1.00  0.00     0.000 C 
BRANCH   2   3
ATOM      3  C   UNL     1     -94.174 148.396 236.385  1.00  0.00     0.000 C 
BRANCH   3   4
ATOM      4  C   UNL     1     -94.266 148.751 237.881  1.00  0.00     0.000 C 
BRANCH   4   5
ATOM      5  C   UNL     1     -95.050 147.697 238.684  1.00  0.00     0.000 C 
BRANCH   5   6
ATOM      6  C   UNL     1     -96.395 148.238 239.196  1.00  0.00     0.000 C 
BRANCH   6   7
ATOM      7  C   UNL     1     -96.618 149.741 238.925  1.00  0.00     0.000 C 
BRANCH   7   8
ATOM      8  C   UNL     1     -97.733 150.404 239.756  1.00  0.00     0.000 C 
BRANCH   8   9
ATOM      9  C   UNL     1     -98.787 149.401 240.253  1.00  0.00     0.000 C 
BRANCH   9  10
ATOM     10  C   UNL     1    -100.125 150.097 240.550  1.00  0.00     0.000 C 
BRANCH  10  11
ATOM     11  C   UNL     1    -100.550 149.966 242.027  1.00  0.00     0.000 C 
BRANCH  11  12
ATOM     12  C   UNL     1     -99.418 150.183 243.048  1.00  0.00     0.006 C 
BRANCH  12  13
ATOM     13  C   UNL     1     -98.957 151.644 243.122  1.00  0.00     0.053 C 
BRANCH  13  14
ATOM     14  C   UNL     1     -99.558 152.329 244.310  1.00  0.00     0.041 C 
ATOM     15  O   UNL     1     -99.649 151.722 245.409  1.00  0.00    -0.550 OA
ATOM     16  O   UNL     1    -100.011 153.640 244.206  1.00  0.00    -0.550 OA
ENDBRANCH  13  14
ENDBRANCH  12  13
ENDBRANCH  11  12
ENDBRANCH  10  11
ENDBRANCH   9  10
ENDBRANCH   8   9
ENDBRANCH   7   8
ENDBRANCH   6   7
ENDBRANCH   5   6
ENDBRANCH   4   5
ENDBRANCH   3   4
ENDBRANCH   2   3
ENDBRANCH   1   2
BRANCH   1  17
ATOM     17  C   UNL     1     -97.709 149.511 235.422  1.00  0.00     0.000 C 
BRANCH  17  18
ATOM     18  C   UNL     1     -98.941 148.925 236.140  1.00  0.00     0.000 C 
BRANCH  18  19
ATOM     19  C   UNL     1     -99.955 149.964 236.658  1.00  0.00     0.000 C 
BRANCH  19  20
ATOM     20  C   UNL     1     -99.442 151.417 236.680  1.00  0.00     0.000 C 
BRANCH  20  21
ATOM     21  C   UNL     1    -100.311 152.425 235.904  1.00  0.00     0.000 C 
BRANCH  21  22
ATOM     22  C   UNL     1    -100.574 152.062 234.429  1.00  0.00    -0.000 C 
BRANCH  22  23
ATOM     23  C   UNL     1     -99.342 152.116 233.508  1.00  0.00    -0.000 C 
BRANCH  23  24
ATOM     24  C   UNL     1     -98.507 153.394 233.702  1.00  0.00    -0.000 C 
BRANCH  24  25
ATOM     25  C   UNL     1     -97.389 153.531 232.653  1.00  0.00    -0.000 C 
BRANCH  25  26
ATOM     26  C   UNL     1     -96.241 152.531 232.871  1.00  0.00    -0.000 C 
BRANCH  26  27
ATOM     27  C   UNL     1     -96.343 151.294 231.957  1.00  0.00    -0.000 C 
BRANCH  27  28
ATOM     28  C   UNL     1     -95.103 150.379 231.951  1.00  0.00    -0.000 C 
BRANCH  28  29
ATOM     29  C   UNL     1     -95.399 148.879 231.768  1.00  0.00    -0.003 C 
ATOM     30  C   UNL     1     -94.223 147.988 232.167  1.00  0.00     0.004 C 
ENDBRANCH  28  29
ENDBRANCH  27  28
ENDBRANCH  26  27
ENDBRANCH  25  26
ENDBRANCH  24  25
ENDBRANCH  23  24
ENDBRANCH  22  23
ENDBRANCH  21  22
ENDBRANCH  20  21
ENDBRANCH  19  20
ENDBRANCH  18  19
ENDBRANCH  17  18
ENDBRANCH   1  17
TORSDOF 26
ENDMDL
MODEL 3
REMARK VINA RESULT:    -3.528      3.940      8.231
REMARK INTER + INTRA:         -13.171
REMARK INTER:                  -7.325
REMARK INTRA:                  -5.846
REMARK UNBOUND:                -4.282
REMARK SMILES CCCCCCCCCCCCCCCCCCCCCCCCCCCC(=O)[O-]
REMARK SMILES IDX 15 1 16 2 17 3 18 4 19 5 20 6 21 7 22 8 23 9 24 10 25 11
REMARK SMILES IDX 26 12 27 13 28 14 29 15 30 16 14 17 13 18 12 19 11 20 10 21
REMARK SMILES IDX 9 22 8 23 7 24 6 25 5 26 4 27 3 28 2 29 1 30
REMARK H PARENT
REMARK Flexibility Score: inf
ROOT
ATOM      1  C   UNL     1     -98.735 150.117 234.578  1.00  0.00     0.000 C 
ENDROOT
BRANCH   1   2
ATOM      2  C   UNL     1     -99.078 149.113 233.459  1.00  0.00     0.000 C 
BRANCH   2   3
ATOM      3  C   UNL     1     -98.641 149.563 232.050  1.00  0.00     0.000 C 
BRANCH   3   4
ATOM      4  C   UNL     1     -97.357 148.870 231.556  1.00  0.00     0.000 C 
BRANCH   4   5
ATOM      5  C   UNL     1     -96.265 149.878 231.157  1.00  0.00     0.000 C 
BRANCH   5   6
ATOM      6  C   UNL     1     -95.334 150.223 232.333  1.00  0.00     0.000 C 
BRANCH   6   7
ATOM      7  C   UNL     1     -95.626 151.589 232.991  1.00  0.00     0.000 C 
BRANCH   7   8
ATOM      8  C   UNL     1     -96.335 152.617 232.090  1.00  0.00     0.000 C 
BRANCH   8   9
ATOM      9  C   UNL     1     -97.161 153.642 232.884  1.00  0.00     0.000 C 
BRANCH   9  10
ATOM     10  C   UNL     1     -98.668 153.441 232.661  1.00  0.00     0.000 C 
BRANCH  10  11
ATOM     11  C   UNL     1     -99.490 153.610 233.955  1.00  0.00     0.000 C 
BRANCH  11  12
ATOM     12  C   UNL     1    -100.901 152.995 233.911  1.00  0.00     0.006 C 
BRANCH  12  13
ATOM     13  C   UNL     1    -101.150 152.170 232.642  1.00  0.00     0.053 C 
BRANCH  13  14
ATOM     14  C   UNL     1    -102.296 151.227 232.841  1.00  0.00     0.041 C 
ATOM     15  O   UNL     1    -103.189 151.123 231.961  1.00  0.00    -0.550 OA
ATOM     16  O   UNL     1    -102.374 150.457 233.998  1.00  0.00    -0.550 OA
ENDBRANCH  13  14
ENDBRANCH  12  13
ENDBRANCH  11  12
ENDBRANCH  10  11
ENDBRANCH   9  10
ENDBRANCH   8   9
ENDBRANCH   7   8
ENDBRANCH   6   7
ENDBRANCH   5   6
ENDBRANCH   4   5
ENDBRANCH   3   4
ENDBRANCH   2   3
ENDBRANCH   1   2
BRANCH   1  17
ATOM     17  C   UNL     1     -97.576 149.643 235.473  1.00  0.00     0.000 C 
BRANCH  17  18
ATOM     18  C   UNL     1     -97.153 148.190 235.179  1.00  0.00     0.000 C 
BRANCH  18  19
ATOM     19  C   UNL     1     -95.633 147.931 235.210  1.00  0.00     0.000 C 
BRANCH  19  20
ATOM     20  C   UNL     1     -94.791 149.073 235.811  1.00  0.00     0.000 C 
BRANCH  20  21
ATOM     21  C   UNL     1     -93.984 148.693 237.067  1.00  0.00     0.000 C 
BRANCH  21  22
ATOM     22  C   UNL     1     -94.313 147.311 237.664  1.00  0.00    -0.000 C 
BRANCH  22  23
ATOM     23  C   UNL     1     -95.060 147.338 239.010  1.00  0.00    -0.000 C 
BRANCH  23  24
ATOM     24  C   UNL     1     -96.573 147.573 238.850  1.00  0.00    -0.000 C 
BRANCH  24  25
ATOM     25  C   UNL     1     -97.085 148.727 239.730  1.00  0.00    -0.000 C 
BRANCH  25  26
ATOM     26  C   UNL     1     -96.801 150.112 239.123  1.00  0.00    -0.000 C 
BRANCH  26  27
ATOM     27  C   UNL     1     -98.083 150.937 238.892  1.00  0.00    -0.000 C 
BRANCH  27  28
ATOM     28  C   UNL     1     -99.401 150.207 239.217  1.00  0.00    -0.000 C 
BRANCH  28  29
ATOM     29  C   UNL     1    -100.325 149.962 238.011  1.00  0.00    -0.003 C 
ATOM     30  C   UNL     1    -100.371 148.494 237.586  1.00  0.00     0.004 C 
ENDBRANCH  28  29
ENDBRANCH  27  28
ENDBRANCH  26  27
ENDBRANCH  25  26
ENDBRANCH  24  25
ENDBRANCH  23  24
ENDBRANCH  22  23
ENDBRANCH  21  22
ENDBRANCH  20  21
ENDBRANCH  19  20
ENDBRANCH  18  19
ENDBRANCH  17  18
ENDBRANCH   1  17
TORSDOF 26
ENDMDL
MODEL 4
REMARK VINA RESULT:    -3.478      3.935      7.890
REMARK INTER + INTRA:         -13.046
REMARK INTER:                  -8.532
REMARK INTRA:                  -4.514
REMARK UNBOUND:                -4.282
REMARK SMILES CCCCCCCCCCCCCCCCCCCCCCCCCCCC(=O)[O-]
REMARK SMILES IDX 15 1 16 2 17 3 18 4 19 5 20 6 21 7 22 8 23 9 24 10 25 11
REMARK SMILES IDX 26 12 27 13 28 14 29 15 30 16 14 17 13 18 12 19 11 20 10 21
REMARK SMILES IDX 9 22 8 23 7 24 6 25 5 26 4 27 3 28 2 29 1 30
REMARK H PARENT
REMARK Flexibility Score: inf
ROOT
ATOM      1  C   UNL     1     -98.078 150.732 238.969  1.00  0.00     0.000 C 
ENDROOT
BRANCH   1   2
ATOM      2  C   UNL     1     -98.919 150.143 237.818  1.00  0.00     0.000 C 
BRANCH   2   3
ATOM      3  C   UNL     1     -99.114 151.100 236.624  1.00  0.00     0.000 C 
BRANCH   3   4
ATOM      4  C   UNL     1     -99.713 150.416 235.382  1.00  0.00     0.000 C 
BRANCH   4   5
ATOM      5  C   UNL     1     -99.582 151.283 234.116  1.00  0.00     0.000 C 
BRANCH   5   6
ATOM      6  C   UNL     1     -99.492 150.434 232.836  1.00  0.00     0.000 C 
BRANCH   6   7
ATOM      7  C   UNL     1     -99.471 151.258 231.531  1.00  0.00     0.000 C 
BRANCH   7   8
ATOM      8  C   UNL     1     -98.374 150.868 230.522  1.00  0.00     0.000 C 
BRANCH   8   9
ATOM      9  C   UNL     1     -97.038 151.582 230.782  1.00  0.00     0.000 C 
BRANCH   9  10
ATOM     10  C   UNL     1     -97.259 153.023 231.272  1.00  0.00     0.000 C 
BRANCH  10  11
ATOM     11  C   UNL     1     -96.759 153.246 232.714  1.00  0.00     0.000 C 
BRANCH  11  12
ATOM     12  C   UNL     1     -97.395 154.443 233.442  1.00  0.00     0.006 C 
BRANCH  12  13
ATOM     13  C   UNL     1     -98.327 155.261 232.538  1.00  0.00     0.053 C 
BRANCH  13  14
ATOM     14  C   UNL     1     -99.757 155.060 232.935  1.00  0.00     0.041 C 
ATOM     15  O   UNL     1    -100.557 154.489 232.150  1.00  0.00    -0.550 OA
ATOM     16  O   UNL     1    -100.205 155.499 234.178  1.00  0.00    -0.550 OA
ENDBRANCH  13  14
ENDBRANCH  12  13
ENDBRANCH  11  12
ENDBRANCH  10  11
ENDBRANCH   9  10
ENDBRANCH   8   9
ENDBRANCH   7   8
ENDBRANCH   6   7
ENDBRANCH   5   6
ENDBRANCH   4   5
ENDBRANCH   3   4
ENDBRANCH   2   3
ENDBRANCH   1   2
BRANCH   1  17
ATOM     17  C   UNL     1     -96.888 149.837 239.359  1.00  0.00     0.000 C 
BRANCH  17  18
ATOM     18  C   UNL     1     -97.322 148.422 239.787  1.00  0.00     0.000 C 
BRANCH  18  19
ATOM     19  C   UNL     1     -96.345 147.292 239.406  1.00  0.00     0.000 C 
BRANCH  19  20
ATOM     20  C   UNL     1     -94.923 147.759 239.041  1.00  0.00     0.000 C 
BRANCH  20  21
ATOM     21  C   UNL     1     -94.354 147.155 237.743  1.00  0.00     0.000 C 
BRANCH  21  22
ATOM     22  C   UNL     1     -93.932 148.182 236.673  1.00  0.00    -0.000 C 
BRANCH  22  23
ATOM     23  C   UNL     1     -95.027 149.177 236.247  1.00  0.00    -0.000 C 
BRANCH  23  24
ATOM     24  C   UNL     1     -96.356 148.486 235.892  1.00  0.00    -0.000 C 
BRANCH  24  25
ATOM     25  C   UNL     1     -96.661 148.537 234.385  1.00  0.00    -0.000 C 
BRANCH  25  26
ATOM     26  C   UNL     1     -95.980 149.722 233.678  1.00  0.00    -0.000 C 
BRANCH  26  27
ATOM     27  C   UNL     1     -94.879 149.278 232.694  1.00  0.00    -0.000 C 
BRANCH  27  28
ATOM     28  C   UNL     1     -94.826 147.765 232.408  1.00  0.00    -0.000 C 
BRANCH  28  29
ATOM     29  C   UNL     1     -93.508 147.073 232.798  1.00  0.00    -0.003 C 
ATOM     30  C   UNL     1     -92.325 147.520 231.939  1.00  0.00     0.004 C 
ENDBRANCH  28  29
ENDBRANCH  27  28
ENDBRANCH  26  27
ENDBRANCH  25  26
ENDBRANCH  24  25
ENDBRANCH  23  24
ENDBRANCH  22  23
ENDBRANCH  21  22
ENDBRANCH  20  21
ENDBRANCH  19  20
ENDBRANCH  18  19
ENDBRANCH  17  18
ENDBRANCH   1  17
TORSDOF 26
ENDMDL
MODEL 5
REMARK VINA RESULT:    -3.466      4.313      8.080
REMARK INTER + INTRA:         -13.015
REMARK INTER:                  -7.903
REMARK INTRA:                  -5.112
REMARK UNBOUND:                -4.282
REMARK SMILES CCCCCCCCCCCCCCCCCCCCCCCCCCCC(=O)[O-]
REMARK SMILES IDX 15 1 16 2 17 3 18 4 19 5 20 6 21 7 22 8 23 9 24 10 25 11
REMARK SMILES IDX 26 12 27 13 28 14 29 15 30 16 14 17 13 18 12 19 11 20 10 21
REMARK SMILES IDX 9 22 8 23 7 24 6 25 5 26 4 27 3 28 2 29 1 30
REMARK H PARENT
REMARK Flexibility Score: inf
ROOT
ATOM      1  C   UNL     1     -96.048 150.262 233.782  1.00  0.00     0.000 C 
ENDROOT
BRANCH   1   2
ATOM      2  C   UNL     1     -95.298 150.655 232.494  1.00  0.00     0.000 C 
BRANCH   2   3
ATOM      3  C   UNL     1     -95.624 152.073 231.980  1.00  0.00     0.000 C 
BRANCH   3   4
ATOM      4  C   UNL     1     -96.069 152.104 230.507  1.00  0.00     0.000 C 
BRANCH   4   5
ATOM      5  C   UNL     1     -96.496 150.716 229.995  1.00  0.00     0.000 C 
BRANCH   5   6
ATOM      6  C   UNL     1     -98.024 150.537 230.001  1.00  0.00     0.000 C 
BRANCH   6   7
ATOM      7  C   UNL     1     -98.534 149.483 231.008  1.00  0.00     0.000 C 
BRANCH   7   8
ATOM      8  C   UNL     1     -99.501 150.013 232.083  1.00  0.00     0.000 C 
BRANCH   8   9
ATOM      9  C   UNL     1     -99.230 151.477 232.466  1.00  0.00     0.000 C 
BRANCH   9  10
ATOM     10  C   UNL     1    -100.308 152.414 231.897  1.00  0.00     0.000 C 
BRANCH  10  11
ATOM     11  C   UNL     1     -99.852 153.886 231.845  1.00  0.00     0.000 C 
BRANCH  11  12
ATOM     12  C   UNL     1     -98.521 154.178 232.561  1.00  0.00     0.006 C 
BRANCH  12  13
ATOM     13  C   UNL     1     -98.499 155.556 233.234  1.00  0.00     0.053 C 
BRANCH  13  14
ATOM     14  C   UNL     1     -98.993 156.611 232.293  1.00  0.00     0.041 C 
ATOM     15  O   UNL     1    -100.094 157.181 232.505  1.00  0.00    -0.550 OA
ATOM     16  O   UNL     1     -98.232 156.969 231.184  1.00  0.00    -0.550 OA
ENDBRANCH  13  14
ENDBRANCH  12  13
ENDBRANCH  11  12
ENDBRANCH  10  11
ENDBRANCH   9  10
ENDBRANCH   8   9
ENDBRANCH   7   8
ENDBRANCH   6   7
ENDBRANCH   5   6
ENDBRANCH   4   5
ENDBRANCH   3   4
ENDBRANCH   2   3
ENDBRANCH   1   2
BRANCH   1  17
ATOM     17  C   UNL     1     -96.243 148.741 233.922  1.00  0.00     0.000 C 
BRANCH  17  18
ATOM     18  C   UNL     1     -95.481 148.151 235.124  1.00  0.00     0.000 C 
BRANCH  18  19
ATOM     19  C   UNL     1     -94.822 149.188 236.057  1.00  0.00     0.000 C 
BRANCH  19  20
ATOM     20  C   UNL     1     -94.257 148.613 237.370  1.00  0.00     0.000 C 
BRANCH  20  21
ATOM     21  C   UNL     1     -95.204 148.710 238.581  1.00  0.00     0.000 C 
BRANCH  21  22
ATOM     22  C   UNL     1     -95.965 150.044 238.714  1.00  0.00    -0.000 C 
BRANCH  22  23
ATOM     23  C   UNL     1     -97.345 149.950 239.390  1.00  0.00    -0.000 C 
BRANCH  23  24
ATOM     24  C   UNL     1     -98.503 150.277 238.431  1.00  0.00    -0.000 C 
BRANCH  24  25
ATOM     25  C   UNL     1     -98.533 149.348 237.205  1.00  0.00    -0.000 C 
BRANCH  25  26
ATOM     26  C   UNL     1     -99.079 150.040 235.945  1.00  0.00    -0.000 C 
BRANCH  26  27
ATOM     27  C   UNL     1    -100.150 151.103 236.263  1.00  0.00    -0.000 C 
BRANCH  27  28
ATOM     28  C   UNL     1     -99.821 152.530 235.781  1.00  0.00    -0.000 C 
BRANCH  28  29
ATOM     29  C   UNL     1    -101.044 153.410 235.465  1.00  0.00    -0.003 C 
ATOM     30  C   UNL     1    -102.270 152.597 235.048  1.00  0.00     0.004 C 
ENDBRANCH  28  29
ENDBRANCH  27  28
ENDBRANCH  26  27
ENDBRANCH  25  26
ENDBRANCH  24  25
ENDBRANCH  23  24
ENDBRANCH  22  23
ENDBRANCH  21  22
ENDBRANCH  20  21
ENDBRANCH  19  20
ENDBRANCH  18  19
ENDBRANCH  17  18
ENDBRANCH   1  17
TORSDOF 26
ENDMDL
MODEL 6
REMARK VINA RESULT:    -3.439      4.108      8.614
REMARK INTER + INTRA:         -12.949
REMARK INTER:                  -8.762
REMARK INTRA:                  -4.186
REMARK UNBOUND:                -4.282
REMARK SMILES CCCCCCCCCCCCCCCCCCCCCCCCCCCC(=O)[O-]
REMARK SMILES IDX 15 1 16 2 17 3 18 4 19 5 20 6 21 7 22 8 23 9 24 10 25 11
REMARK SMILES IDX 26 12 27 13 28 14 29 15 30 16 14 17 13 18 12 19 11 20 10 21
REMARK SMILES IDX 9 22 8 23 7 24 6 25 5 26 4 27 3 28 2 29 1 30
REMARK H PARENT
REMARK Flexibility Score: inf
ROOT
ATOM      1  C   UNL     1     -93.879 148.280 237.428  1.00  0.00     0.000 C 
ENDROOT
BRANCH   1   2
ATOM      2  C   UNL     1     -93.639 147.440 236.158  1.00  0.00     0.000 C 
BRANCH   2   3
ATOM      3  C   UNL     1     -94.888 147.269 235.268  1.00  0.00     0.000 C 
BRANCH   3   4
ATOM      4  C   UNL     1     -95.044 148.377 234.211  1.00  0.00     0.000 C 
BRANCH   4   5
ATOM      5  C   UNL     1     -95.761 149.620 234.769  1.00  0.00     0.000 C 
BRANCH   5   6
ATOM      6  C   UNL     1     -97.236 149.339 235.105  1.00  0.00     0.000 C 
BRANCH   6   7
ATOM      7  C   UNL     1     -98.241 149.956 234.109  1.00  0.00     0.000 C 
BRANCH   7   8
ATOM      8  C   UNL     1     -99.114 151.093 234.672  1.00  0.00     0.000 C 
BRANCH   8   9
ATOM      9  C   UNL     1     -98.757 152.470 234.090  1.00  0.00     0.000 C 
BRANCH   9  10
ATOM     10  C   UNL     1     -98.076 152.338 232.718  1.00  0.00     0.000 C 
BRANCH  10  11
ATOM     11  C   UNL     1     -96.625 152.862 232.719  1.00  0.00     0.000 C 
BRANCH  11  12
ATOM     12  C   UNL     1     -95.635 152.031 231.884  1.00  0.00     0.006 C 
BRANCH  12  13
ATOM     13  C   UNL     1     -96.330 151.178 230.815  1.00  0.00     0.053 C 
BRANCH  13  14
ATOM     14  C   UNL     1     -95.941 149.738 230.952  1.00  0.00     0.041 C 
ATOM     15  O   UNL     1     -96.827 148.853 231.068  1.00  0.00    -0.550 OA
ATOM     16  O   UNL     1     -94.598 149.375 230.944  1.00  0.00    -0.550 OA
ENDBRANCH  13  14
ENDBRANCH  12  13
ENDBRANCH  11  12
ENDBRANCH  10  11
ENDBRANCH   9  10
ENDBRANCH   8   9
ENDBRANCH   7   8
ENDBRANCH   6   7
ENDBRANCH   5   6
ENDBRANCH   4   5
ENDBRANCH   3   4
ENDBRANCH   2   3
ENDBRANCH   1   2
BRANCH   1  17
ATOM     17  C   UNL     1     -94.742 147.552 238.474  1.00  0.00     0.000 C 
BRANCH  17  18
ATOM     18  C   UNL     1     -96.104 148.238 238.703  1.00  0.00     0.000 C 
BRANCH  18  19
ATOM     19  C   UNL     1     -96.073 149.779 238.691  1.00  0.00     0.000 C 
BRANCH  19  20
ATOM     20  C   UNL     1     -97.283 150.458 239.360  1.00  0.00     0.000 C 
BRANCH  20  21
ATOM     21  C   UNL     1     -98.416 150.861 238.398  1.00  0.00     0.000 C 
BRANCH  21  22
ATOM     22  C   UNL     1     -99.454 149.759 238.111  1.00  0.00    -0.000 C 
BRANCH  22  23
ATOM     23  C   UNL     1    -100.918 150.146 238.391  1.00  0.00    -0.000 C 
BRANCH  23  24
ATOM     24  C   UNL     1    -101.353 149.834 239.834  1.00  0.00    -0.000 C 
BRANCH  24  25
ATOM     25  C   UNL     1    -100.673 148.572 240.393  1.00  0.00    -0.000 C 
BRANCH  25  26
ATOM     26  C   UNL     1     -99.769 148.867 241.602  1.00  0.00    -0.000 C 
BRANCH  26  27
ATOM     27  C   UNL     1    -100.071 150.230 242.256  1.00  0.00    -0.000 C 
BRANCH  27  28
ATOM     28  C   UNL     1     -98.834 151.024 242.719  1.00  0.00    -0.000 C 
BRANCH  28  29
ATOM     29  C   UNL     1     -98.973 151.708 244.091  1.00  0.00    -0.003 C 
ATOM     30  C   UNL     1     -99.670 153.066 244.010  1.00  0.00     0.004 C 
ENDBRANCH  28  29
ENDBRANCH  27  28
ENDBRANCH  26  27
ENDBRANCH  25  26
ENDBRANCH  24  25
ENDBRANCH  23  24
ENDBRANCH  22  23
ENDBRANCH  21  22
ENDBRANCH  20  21
ENDBRANCH  19  20
ENDBRANCH  18  19
ENDBRANCH  17  18
ENDBRANCH   1  17
TORSDOF 26
ENDMDL
MODEL 7
REMARK VINA RESULT:    -3.436      1.728      4.731
REMARK INTER + INTRA:         -12.942
REMARK INTER:                  -8.463
REMARK INTRA:                  -4.478
REMARK UNBOUND:                -4.282
REMARK SMILES CCCCCCCCCCCCCCCCCCCCCCCCCCCC(=O)[O-]
REMARK SMILES IDX 15 1 16 2 17 3 18 4 19 5 20 6 21 7 22 8 23 9 24 10 25 11
REMARK SMILES IDX 26 12 27 13 28 14 29 15 30 16 14 17 13 18 12 19 11 20 10 21
REMARK SMILES IDX 9 22 8 23 7 24 6 25 5 26 4 27 3 28 2 29 1 30
REMARK H PARENT
REMARK Flexibility Score: inf
ROOT
ATOM      1  C   UNL     1     -97.827 148.518 234.495  1.00  0.00     0.000 C 
ENDROOT
BRANCH   1   2
ATOM      2  C   UNL     1     -96.943 149.771 234.660  1.00  0.00     0.000 C 
BRANCH   2   3
ATOM      3  C   UNL     1     -95.458 149.463 234.944  1.00  0.00     0.000 C 
BRANCH   3   4
ATOM      4  C   UNL     1     -95.153 147.957 235.045  1.00  0.00     0.000 C 
BRANCH   4   5
ATOM      5  C   UNL     1     -94.730 147.540 236.465  1.00  0.00     0.000 C 
BRANCH   5   6
ATOM      6  C   UNL     1     -94.227 148.733 237.297  1.00  0.00     0.000 C 
BRANCH   6   7
ATOM      7  C   UNL     1     -95.021 148.976 238.599  1.00  0.00     0.000 C 
BRANCH   7   8
ATOM      8  C   UNL     1     -96.463 148.435 238.603  1.00  0.00     0.000 C 
BRANCH   8   9
ATOM      9  C   UNL     1     -97.496 149.478 238.147  1.00  0.00     0.000 C 
BRANCH   9  10
ATOM     10  C   UNL     1     -97.696 150.570 239.209  1.00  0.00     0.000 C 
BRANCH  10  11
ATOM     11  C   UNL     1     -98.817 150.229 240.212  1.00  0.00     0.000 C 
BRANCH  11  12
ATOM     12  C   UNL     1     -98.359 150.101 241.676  1.00  0.00     0.006 C 
BRANCH  12  13
ATOM     13  C   UNL     1     -99.533 149.998 242.659  1.00  0.00     0.053 C 
BRANCH  13  14
ATOM     14  C   UNL     1     -99.374 150.982 243.776  1.00  0.00     0.041 C 
ATOM     15  O   UNL     1     -98.756 152.061 243.585  1.00  0.00    -0.550 OA
ATOM     16  O   UNL     1     -99.915 150.710 245.029  1.00  0.00    -0.550 OA
ENDBRANCH  13  14
ENDBRANCH  12  13
ENDBRANCH  11  12
ENDBRANCH  10  11
ENDBRANCH   9  10
ENDBRANCH   8   9
ENDBRANCH   7   8
ENDBRANCH   6   7
ENDBRANCH   5   6
ENDBRANCH   4   5
ENDBRANCH   3   4
ENDBRANCH   2   3
ENDBRANCH   1   2
BRANCH   1  17
ATOM     17  C   UNL     1     -98.381 148.360 233.068  1.00  0.00     0.000 C 
BRANCH  17  18
ATOM     18  C   UNL     1     -97.490 147.470 232.179  1.00  0.00     0.000 C 
BRANCH  18  19
ATOM     19  C   UNL     1     -96.842 148.184 230.976  1.00  0.00     0.000 C 
BRANCH  19  20
ATOM     20  C   UNL     1     -95.437 148.758 231.241  1.00  0.00     0.000 C 
BRANCH  20  21
ATOM     21  C   UNL     1     -95.375 150.293 231.357  1.00  0.00     0.000 C 
BRANCH  21  22
ATOM     22  C   UNL     1     -96.630 151.039 230.866  1.00  0.00    -0.000 C 
BRANCH  22  23
ATOM     23  C   UNL     1     -96.673 152.543 231.194  1.00  0.00    -0.000 C 
BRANCH  23  24
ATOM     24  C   UNL     1     -96.449 152.834 232.688  1.00  0.00    -0.000 C 
BRANCH  24  25
ATOM     25  C   UNL     1     -97.191 154.098 233.159  1.00  0.00    -0.000 C 
BRANCH  25  26
ATOM     26  C   UNL     1     -98.711 153.889 233.273  1.00  0.00    -0.000 C 
BRANCH  26  27
ATOM     27  C   UNL     1     -99.082 152.599 234.032  1.00  0.00    -0.000 C 
BRANCH  27  28
ATOM     28  C   UNL     1     -99.887 152.811 235.329  1.00  0.00    -0.000 C 
BRANCH  28  29
ATOM     29  C   UNL     1     -99.782 151.668 236.355  1.00  0.00    -0.003 C 
ATOM     30  C   UNL     1    -100.916 150.650 236.229  1.00  0.00     0.004 C 
ENDBRANCH  28  29
ENDBRANCH  27  28
ENDBRANCH  26  27
ENDBRANCH  25  26
ENDBRANCH  24  25
ENDBRANCH  23  24
ENDBRANCH  22  23
ENDBRANCH  21  22
ENDBRANCH  20  21
ENDBRANCH  19  20
ENDBRANCH  18  19
ENDBRANCH  17  18
ENDBRANCH   1  17
TORSDOF 26
ENDMDL
MODEL 8
REMARK VINA RESULT:    -3.430      2.241      5.704
REMARK INTER + INTRA:         -12.925
REMARK INTER:                  -8.207
REMARK INTRA:                  -4.718
REMARK UNBOUND:                -4.282
REMARK SMILES CCCCCCCCCCCCCCCCCCCCCCCCCCCC(=O)[O-]
REMARK SMILES IDX 15 1 16 2 17 3 18 4 19 5 20 6 21 7 22 8 23 9 24 10 25 11
REMARK SMILES IDX 26 12 27 13 28 14 29 15 30 16 14 17 13 18 12 19 11 20 10 21
REMARK SMILES IDX 9 22 8 23 7 24 6 25 5 26 4 27 3 28 2 29 1 30
REMARK H PARENT
REMARK Flexibility Score: inf
ROOT
ATOM      1  C   UNL     1     -99.244 150.287 236.105  1.00  0.00     0.000 C 
ENDROOT
BRANCH   1   2
ATOM      2  C   UNL     1     -98.602 149.081 235.391  1.00  0.00     0.000 C 
BRANCH   2   3
ATOM      3  C   UNL     1     -97.190 149.355 234.831  1.00  0.00     0.000 C 
BRANCH   3   4
ATOM      4  C   UNL     1     -96.509 148.105 234.246  1.00  0.00     0.000 C 
BRANCH   4   5
ATOM      5  C   UNL     1     -94.989 148.100 234.488  1.00  0.00     0.000 C 
BRANCH   5   6
ATOM      6  C   UNL     1     -94.584 149.004 235.665  1.00  0.00     0.000 C 
BRANCH   6   7
ATOM      7  C   UNL     1     -93.889 148.260 236.825  1.00  0.00     0.000 C 
BRANCH   7   8
ATOM      8  C   UNL     1     -94.674 147.069 237.409  1.00  0.00     0.000 C 
BRANCH   8   9
ATOM      9  C   UNL     1     -96.057 147.469 237.949  1.00  0.00     0.000 C 
BRANCH   9  10
ATOM     10  C   UNL     1     -95.945 148.571 239.014  1.00  0.00     0.000 C 
BRANCH  10  11
ATOM     11  C   UNL     1     -96.645 149.880 238.595  1.00  0.00     0.000 C 
BRANCH  11  12
ATOM     12  C   UNL     1     -97.633 150.447 239.630  1.00  0.00     0.006 C 
BRANCH  12  13
ATOM     13  C   UNL     1     -98.077 149.402 240.661  1.00  0.00     0.053 C 
BRANCH  13  14
ATOM     14  C   UNL     1     -99.218 149.921 241.482  1.00  0.00     0.041 C 
ATOM     15  O   UNL     1     -99.124 149.967 242.735  1.00  0.00    -0.550 OA
ATOM     16  O   UNL     1    -100.382 150.359 240.860  1.00  0.00    -0.550 OA
ENDBRANCH  13  14
ENDBRANCH  12  13
ENDBRANCH  11  12
ENDBRANCH  10  11
ENDBRANCH   9  10
ENDBRANCH   8   9
ENDBRANCH   7   8
ENDBRANCH   6   7
ENDBRANCH   5   6
ENDBRANCH   4   5
ENDBRANCH   3   4
ENDBRANCH   2   3
ENDBRANCH   1   2
BRANCH   1  17
ATOM     17  C   UNL     1     -99.490 151.479 235.163  1.00  0.00     0.000 C 
BRANCH  17  18
ATOM     18  C   UNL     1    -100.149 152.676 235.876  1.00  0.00     0.000 C 
BRANCH  18  19
ATOM     19  C   UNL     1    -100.997 153.593 234.973  1.00  0.00     0.000 C 
BRANCH  19  20
ATOM     20  C   UNL     1    -100.943 153.255 233.470  1.00  0.00     0.000 C 
BRANCH  20  21
ATOM     21  C   UNL     1    -100.766 154.468 232.538  1.00  0.00     0.000 C 
BRANCH  21  22
ATOM     22  C   UNL     1     -99.333 154.692 232.018  1.00  0.00    -0.000 C 
BRANCH  22  23
ATOM     23  C   UNL     1     -98.370 155.369 233.011  1.00  0.00    -0.000 C 
BRANCH  23  24
ATOM     24  C   UNL     1     -97.211 154.452 233.438  1.00  0.00    -0.000 C 
BRANCH  24  25
ATOM     25  C   UNL     1     -97.147 153.158 232.607  1.00  0.00    -0.000 C 
BRANCH  25  26
ATOM     26  C   UNL     1     -95.947 152.269 232.978  1.00  0.00    -0.000 C 
BRANCH  26  27
ATOM     27  C   UNL     1     -95.670 151.171 231.932  1.00  0.00    -0.000 C 
BRANCH  27  28
ATOM     28  C   UNL     1     -96.800 150.940 230.910  1.00  0.00    -0.000 C 
BRANCH  28  29
ATOM     29  C   UNL     1     -97.787 149.815 231.271  1.00  0.00    -0.003 C 
ATOM     30  C   UNL     1     -99.187 150.336 231.599  1.00  0.00     0.004 C 
ENDBRANCH  28  29
ENDBRANCH  27  28
ENDBRANCH  26  27
ENDBRANCH  25  26
ENDBRANCH  24  25
ENDBRANCH  23  24
ENDBRANCH  22  23
ENDBRANCH  21  22
ENDBRANCH  20  21
ENDBRANCH  19  20
ENDBRANCH  18  19
ENDBRANCH  17  18
ENDBRANCH   1  17
TORSDOF 26
ENDMDL
MODEL 9
REMARK VINA RESULT:    -3.414      2.113      4.740
REMARK INTER + INTRA:         -12.886
REMARK INTER:                  -7.517
REMARK INTRA:                  -5.369
REMARK UNBOUND:                -4.282
REMARK SMILES CCCCCCCCCCCCCCCCCCCCCCCCCCCC(=O)[O-]
REMARK SMILES IDX 15 1 16 2 17 3 18 4 19 5 20 6 21 7 22 8 23 9 24 10 25 11
REMARK SMILES IDX 26 12 27 13 28 14 29 15 30 16 14 17 13 18 12 19 11 20 10 21
REMARK SMILES IDX 9 22 8 23 7 24 6 25 5 26 4 27 3 28 2 29 1 30
REMARK H PARENT
REMARK Flexibility Score: inf
ROOT
ATOM      1  C   UNL     1     -98.073 148.124 235.044  1.00  0.00     0.000 C 
ENDROOT
BRANCH   1   2
ATOM      2  C   UNL     1     -96.900 147.153 234.804  1.00  0.00     0.000 C 
BRANCH   2   3
ATOM      3  C   UNL     1     -95.536 147.847 234.602  1.00  0.00     0.000 C 
BRANCH   3   4
ATOM      4  C   UNL     1     -94.561 147.633 235.774  1.00  0.00     0.000 C 
BRANCH   4   5
ATOM      5  C   UNL     1     -94.263 148.938 236.533  1.00  0.00     0.000 C 
BRANCH   5   6
ATOM      6  C   UNL     1     -94.534 148.809 238.042  1.00  0.00     0.000 C 
BRANCH   6   7
ATOM      7  C   UNL     1     -95.689 147.849 238.397  1.00  0.00     0.000 C 
BRANCH   7   8
ATOM      8  C   UNL     1     -97.029 148.527 238.740  1.00  0.00     0.000 C 
BRANCH   8   9
ATOM      9  C   UNL     1     -96.868 149.997 239.159  1.00  0.00     0.000 C 
BRANCH   9  10
ATOM     10  C   UNL     1     -98.086 150.836 238.742  1.00  0.00     0.000 C 
BRANCH  10  11
ATOM     11  C   UNL     1     -99.397 150.023 238.738  1.00  0.00     0.000 C 
BRANCH  11  12
ATOM     12  C   UNL     1    -100.308 150.256 239.956  1.00  0.00     0.006 C 
BRANCH  12  13
ATOM     13  C   UNL     1    -100.219 149.125 240.989  1.00  0.00     0.053 C 
BRANCH  13  14
ATOM     14  C   UNL     1     -99.554 149.604 242.242  1.00  0.00     0.041 C 
ATOM     15  O   UNL     1     -98.763 150.581 242.203  1.00  0.00    -0.550 OA
ATOM     16  O   UNL     1     -99.816 148.975 243.455  1.00  0.00    -0.550 OA
ENDBRANCH  13  14
ENDBRANCH  12  13
ENDBRANCH  11  12
ENDBRANCH  10  11
ENDBRANCH   9  10
ENDBRANCH   8   9
ENDBRANCH   7   8
ENDBRANCH   6   7
ENDBRANCH   5   6
ENDBRANCH   4   5
ENDBRANCH   3   4
ENDBRANCH   2   3
ENDBRANCH   1   2
BRANCH   1  17
ATOM     17  C   UNL     1     -97.613 149.576 235.264  1.00  0.00     0.000 C 
BRANCH  17  18
ATOM     18  C   UNL     1     -98.729 150.603 234.989  1.00  0.00     0.000 C 
BRANCH  18  19
ATOM     19  C   UNL     1     -99.881 150.096 234.098  1.00  0.00     0.000 C 
BRANCH  19  20
ATOM     20  C   UNL     1    -100.231 151.010 232.907  1.00  0.00     0.000 C 
BRANCH  20  21
ATOM     21  C   UNL     1     -99.557 150.629 231.576  1.00  0.00     0.000 C 
BRANCH  21  22
ATOM     22  C   UNL     1     -98.996 149.195 231.513  1.00  0.00    -0.000 C 
BRANCH  22  23
ATOM     23  C   UNL     1     -97.476 149.093 231.289  1.00  0.00    -0.000 C 
BRANCH  23  24
ATOM     24  C   UNL     1     -96.787 150.468 231.233  1.00  0.00    -0.000 C 
BRANCH  24  25
ATOM     25  C   UNL     1     -95.790 150.673 232.387  1.00  0.00    -0.000 C 
BRANCH  25  26
ATOM     26  C   UNL     1     -95.731 152.132 232.871  1.00  0.00    -0.000 C 
BRANCH  26  27
ATOM     27  C   UNL     1     -96.887 152.992 232.322  1.00  0.00    -0.000 C 
BRANCH  27  28
ATOM     28  C   UNL     1     -97.656 153.810 233.378  1.00  0.00    -0.000 C 
BRANCH  28  29
ATOM     29  C   UNL     1     -97.855 155.297 233.033  1.00  0.00    -0.003 C 
ATOM     30  C   UNL     1     -98.956 155.525 231.997  1.00  0.00     0.004 C 
ENDBRANCH  28  29
ENDBRANCH  27  28
ENDBRANCH  26  27
ENDBRANCH  25  26
ENDBRANCH  24  25
ENDBRANCH  23  24
ENDBRANCH  22  23
ENDBRANCH  21  22
ENDBRANCH  20  21
ENDBRANCH  19  20
ENDBRANCH  18  19
ENDBRANCH  17  18
ENDBRANCH   1  17
TORSDOF 26
ENDMDL
