MODEL 1
REMARK VINA RESULT:    -6.313      0.000      0.000
REMARK INTER + INTRA:          -7.797
REMARK INTER:                  -7.604
REMARK INTRA:                  -0.193
REMARK UNBOUND:                -0.193
REMARK SMILES O=c1c(O)c(-c2ccc(O)c(O)c2)oc2cc(O)cc(O)c12
REMARK SMILES IDX 5 1 3 2 2 3 1 4 22 5 20 6 19 7 17 8 16 9 15 10 14 11 6 12
REMARK SMILES IDX 7 13 8 14 9 15 13 16 11 17 10 18 12 20 4 22 21 24 18 26
REMARK H PARENT 10 19 12 21 4 23 21 25 18 27
REMARK Flexibility Score: inf
ROOT
ATOM      1  C   UNL     1      19.340  18.195   5.815  1.00  0.00     0.180 A 
ATOM      2  C   UNL     1      20.039  19.203   6.502  1.00  0.00     0.208 A 
ATOM      3  C   UNL     1      19.494  20.496   6.553  1.00  0.00     0.238 A 
ATOM      4  O   UNL     1      20.151  21.407   7.123  1.00  0.00    -0.285 OA
ATOM      5  C   UNL     1      18.250  20.762   5.932  1.00  0.00     0.111 A 
ATOM      6  C   UNL     1      17.586  22.024   5.956  1.00  0.00     0.134 A 
ATOM      7  C   UNL     1      16.423  22.207   5.197  1.00  0.00     0.093 A 
ATOM      8  C   UNL     1      15.865  21.157   4.470  1.00  0.00     0.123 A 
ATOM      9  C   UNL     1      16.473  19.902   4.488  1.00  0.00     0.094 A 
ATOM     10  C   UNL     1      17.655  19.698   5.205  1.00  0.00     0.146 A 
ATOM     11  O   UNL     1      18.208  18.491   5.188  1.00  0.00    -0.452 OA
ENDROOT
BRANCH   1  12
ATOM     12  C   UNL     1      19.838  16.803   5.739  1.00  0.00     0.025 A 
ATOM     13  C   UNL     1      21.002  16.481   5.024  1.00  0.00     0.016 A 
ATOM     14  C   UNL     1      21.466  15.165   4.987  1.00  0.00     0.051 A 
ATOM     15  C   UNL     1      20.788  14.149   5.669  1.00  0.00     0.157 A 
ATOM     16  C   UNL     1      19.168  15.789   6.442  1.00  0.00     0.062 A 
ATOM     17  C   UNL     1      19.625  14.466   6.411  1.00  0.00     0.158 A 
BRANCH  15  18
ATOM     18  O   UNL     1      21.301  12.852   5.587  1.00  0.00    -0.504 OA
ATOM     19  H   UNL     1      21.069  12.112   6.233  1.00  0.00     0.293 HD
ENDBRANCH  15  18
BRANCH  17  20
ATOM     20  O   UNL     1      18.902  13.509   7.123  1.00  0.00    -0.504 OA
ATOM     21  H   UNL     1      19.158  12.534   7.182  1.00  0.00     0.293 HD
ENDBRANCH  17  20
ENDBRANCH   1  12
BRANCH   2  22
ATOM     22  O   UNL     1      21.276  18.925   7.089  1.00  0.00    -0.502 OA
ATOM     23  H   UNL     1      21.873  18.171   6.772  1.00  0.00     0.293 HD
ENDBRANCH   2  22
BRANCH   6  24
ATOM     24  O   UNL     1      18.008  23.115   6.723  1.00  0.00    -0.507 OA
ATOM     25  H   UNL     1      17.539  23.450   7.551  1.00  0.00     0.293 HD
ENDBRANCH   6  24
BRANCH   8  26
ATOM     26  O   UNL     1      14.698  21.371   3.739  1.00  0.00    -0.508 OA
ATOM     27  H   UNL     1      13.782  21.255   4.156  1.00  0.00     0.293 HD
ENDBRANCH   8  26
TORSDOF 6
ENDMDL
MODEL 2
REMARK VINA RESULT:    -6.077      1.525      6.588
REMARK INTER + INTRA:          -7.513
REMARK INTER:                  -7.956
REMARK INTRA:                   0.442
REMARK UNBOUND:                -0.193
REMARK SMILES O=c1c(O)c(-c2ccc(O)c(O)c2)oc2cc(O)cc(O)c12
REMARK SMILES IDX 5 1 3 2 2 3 1 4 22 5 20 6 19 7 17 8 16 9 15 10 14 11 6 12
REMARK SMILES IDX 7 13 8 14 9 15 13 16 11 17 10 18 12 20 4 22 21 24 18 26
REMARK H PARENT 10 19 12 21 4 23 21 25 18 27
REMARK Flexibility Score: inf
ROOT
ATOM      1  C   UNL     1      18.965  18.088   5.685  1.00  0.00     0.180 A 
ATOM      2  C   UNL     1      20.168  18.625   6.176  1.00  0.00     0.208 A 
ATOM      3  C   UNL     1      21.221  17.753   6.501  1.00  0.00     0.238 A 
ATOM      4  O   UNL     1      22.275  18.235   6.992  1.00  0.00    -0.285 OA
ATOM      5  C   UNL     1      21.063  16.359   6.315  1.00  0.00     0.111 A 
ATOM      6  C   UNL     1      22.077  15.388   6.572  1.00  0.00     0.134 A 
ATOM      7  C   UNL     1      21.767  14.025   6.477  1.00  0.00     0.093 A 
ATOM      8  C   UNL     1      20.504  13.600   6.070  1.00  0.00     0.123 A 
ATOM      9  C   UNL     1      19.523  14.542   5.759  1.00  0.00     0.094 A 
ATOM     10  C   UNL     1      19.790  15.908   5.880  1.00  0.00     0.146 A 
ATOM     11  O   UNL     1      18.826  16.772   5.584  1.00  0.00    -0.452 OA
ENDROOT
BRANCH   1  12
ATOM     12  C   UNL     1      17.821  18.944   5.298  1.00  0.00     0.025 A 
ATOM     13  C   UNL     1      17.938  20.342   5.247  1.00  0.00     0.016 A 
ATOM     14  C   UNL     1      16.852  21.127   4.856  1.00  0.00     0.051 A 
ATOM     15  C   UNL     1      15.637  20.537   4.496  1.00  0.00     0.157 A 
ATOM     16  C   UNL     1      16.609  18.348   4.916  1.00  0.00     0.062 A 
ATOM     17  C   UNL     1      15.514  19.127   4.522  1.00  0.00     0.158 A 
BRANCH  15  18
ATOM     18  O   UNL     1      14.587  21.378   4.118  1.00  0.00    -0.504 OA
ATOM     19  H   UNL     1      13.623  21.087   4.061  1.00  0.00     0.293 HD
ENDBRANCH  15  18
BRANCH  17  20
ATOM     20  O   UNL     1      14.337  18.466   4.169  1.00  0.00    -0.504 OA
ATOM     21  H   UNL     1      13.414  18.764   4.452  1.00  0.00     0.293 HD
ENDBRANCH  17  20
ENDBRANCH   1  12
BRANCH   2  22
ATOM     22  O   UNL     1      20.295  20.002   6.374  1.00  0.00    -0.502 OA
ATOM     23  H   UNL     1      20.866  20.397   7.112  1.00  0.00     0.293 HD
ENDBRANCH   2  22
BRANCH   6  24
ATOM     24  O   UNL     1      23.399  15.706   6.896  1.00  0.00    -0.507 OA
ATOM     25  H   UNL     1      23.943  15.243   7.609  1.00  0.00     0.293 HD
ENDBRANCH   6  24
BRANCH   8  26
ATOM     26  O   UNL     1      20.236  12.236   5.972  1.00  0.00    -0.508 OA
ATOM     27  H   UNL     1      19.801  11.725   6.731  1.00  0.00     0.293 HD
ENDBRANCH   8  26
TORSDOF 6
ENDMDL
MODEL 3
REMARK VINA RESULT:    -6.059      1.374      6.722
REMARK INTER + INTRA:          -7.491
REMARK INTER:                  -8.024
REMARK INTRA:                   0.533
REMARK UNBOUND:                -0.193
REMARK SMILES O=c1c(O)c(-c2ccc(O)c(O)c2)oc2cc(O)cc(O)c12
REMARK SMILES IDX 5 1 3 2 2 3 1 4 22 5 20 6 19 7 17 8 16 9 15 10 14 11 6 12
REMARK SMILES IDX 7 13 8 14 9 15 13 16 11 17 10 18 12 20 4 22 21 24 18 26
REMARK H PARENT 10 19 12 21 4 23 21 25 18 27
REMARK Flexibility Score: inf
ROOT
ATOM      1  C   UNL     1      18.816  18.235   5.614  1.00  0.00     0.180 A 
ATOM      2  C   UNL     1      19.970  18.799   6.185  1.00  0.00     0.208 A 
ATOM      3  C   UNL     1      21.026  17.953   6.564  1.00  0.00     0.238 A 
ATOM      4  O   UNL     1      22.033  18.458   7.125  1.00  0.00    -0.285 OA
ATOM      5  C   UNL     1      20.921  16.557   6.350  1.00  0.00     0.111 A 
ATOM      6  C   UNL     1      21.945  15.612   6.658  1.00  0.00     0.134 A 
ATOM      7  C   UNL     1      21.682  14.243   6.527  1.00  0.00     0.093 A 
ATOM      8  C   UNL     1      20.458  13.788   6.038  1.00  0.00     0.123 A 
ATOM      9  C   UNL     1      19.471  14.706   5.678  1.00  0.00     0.094 A 
ATOM     10  C   UNL     1      19.691  16.077   5.832  1.00  0.00     0.146 A 
ATOM     11  O   UNL     1      18.722  16.917   5.487  1.00  0.00    -0.452 OA
ENDROOT
BRANCH   1  12
ATOM     12  C   UNL     1      17.673  19.064   5.167  1.00  0.00     0.025 A 
ATOM     13  C   UNL     1      16.470  18.481   4.740  1.00  0.00     0.016 A 
ATOM     14  C   UNL     1      15.397  19.283   4.347  1.00  0.00     0.051 A 
ATOM     15  C   UNL     1      15.498  20.677   4.383  1.00  0.00     0.157 A 
ATOM     16  C   UNL     1      17.769  20.463   5.225  1.00  0.00     0.062 A 
ATOM     17  C   UNL     1      16.699  21.276   4.832  1.00  0.00     0.158 A 
BRANCH  15  18
ATOM     18  O   UNL     1      14.391  21.423   3.971  1.00  0.00    -0.504 OA
ATOM     19  H   UNL     1      13.462  21.042   3.862  1.00  0.00     0.293 HD
ENDBRANCH  15  18
BRANCH  17  20
ATOM     20  O   UNL     1      16.871  22.660   4.904  1.00  0.00    -0.504 OA
ATOM     21  H   UNL     1      16.114  23.327   4.850  1.00  0.00     0.293 HD
ENDBRANCH  17  20
ENDBRANCH   1  12
BRANCH   2  22
ATOM     22  O   UNL     1      20.044  20.176   6.407  1.00  0.00    -0.502 OA
ATOM     23  H   UNL     1      20.737  20.764   5.959  1.00  0.00     0.293 HD
ENDBRANCH   2  22
BRANCH   6  24
ATOM     24  O   UNL     1      23.234  15.963   7.067  1.00  0.00    -0.507 OA
ATOM     25  H   UNL     1      23.769  16.730   6.687  1.00  0.00     0.293 HD
ENDBRANCH   6  24
BRANCH   8  26
ATOM     26  O   UNL     1      20.237  12.418   5.906  1.00  0.00    -0.508 OA
ATOM     27  H   UNL     1      20.506  11.916   5.068  1.00  0.00     0.293 HD
ENDBRANCH   8  26
TORSDOF 6
ENDMDL
MODEL 4
REMARK VINA RESULT:    -5.967      5.456     10.474
REMARK INTER + INTRA:          -7.380
REMARK INTER:                  -7.092
REMARK INTRA:                  -0.288
REMARK UNBOUND:                -0.193
REMARK SMILES O=c1c(O)c(-c2ccc(O)c(O)c2)oc2cc(O)cc(O)c12
REMARK SMILES IDX 5 1 3 2 2 3 1 4 22 5 20 6 19 7 17 8 16 9 15 10 14 11 6 12
REMARK SMILES IDX 7 13 8 14 9 15 13 16 11 17 10 18 12 20 4 22 21 24 18 26
REMARK H PARENT 10 19 12 21 4 23 21 25 18 27
REMARK Flexibility Score: inf
ROOT
ATOM      1  C   UNL     1      11.867  22.787   5.394  1.00  0.00     0.180 A 
ATOM      2  C   UNL     1      12.996  23.085   4.612  1.00  0.00     0.208 A 
ATOM      3  C   UNL     1      13.940  22.074   4.366  1.00  0.00     0.238 A 
ATOM      4  O   UNL     1      14.976  22.362   3.711  1.00  0.00    -0.285 OA
ATOM      5  C   UNL     1      13.735  20.776   4.891  1.00  0.00     0.111 A 
ATOM      6  C   UNL     1      14.605  19.666   4.671  1.00  0.00     0.134 A 
ATOM      7  C   UNL     1      14.372  18.462   5.347  1.00  0.00     0.093 A 
ATOM      8  C   UNL     1      13.266  18.306   6.182  1.00  0.00     0.123 A 
ATOM      9  C   UNL     1      12.376  19.367   6.357  1.00  0.00     0.094 A 
ATOM     10  C   UNL     1      12.602  20.592   5.725  1.00  0.00     0.146 A 
ATOM     11  O   UNL     1      11.736  21.579   5.927  1.00  0.00    -0.452 OA
ENDROOT
BRANCH   1  12
ATOM     12  C   UNL     1      10.817  23.793   5.676  1.00  0.00     0.025 A 
ATOM     13  C   UNL     1      10.782  24.493   6.892  1.00  0.00     0.016 A 
ATOM     14  C   UNL     1       9.797  25.454   7.125  1.00  0.00     0.051 A 
ATOM     15  C   UNL     1       8.837  25.744   6.150  1.00  0.00     0.157 A 
ATOM     16  C   UNL     1       9.868  24.097   4.688  1.00  0.00     0.062 A 
ATOM     17  C   UNL     1       8.876  25.059   4.912  1.00  0.00     0.158 A 
BRANCH  15  18
ATOM     18  O   UNL     1       7.875  26.712   6.447  1.00  0.00    -0.504 OA
ATOM     19  H   UNL     1       8.093  27.663   6.705  1.00  0.00     0.293 HD
ENDBRANCH  15  18
BRANCH  17  20
ATOM     20  O   UNL     1       7.958  25.301   3.888  1.00  0.00    -0.504 OA
ATOM     21  H   UNL     1       8.209  25.391   2.914  1.00  0.00     0.293 HD
ENDBRANCH  17  20
ENDBRANCH   1  12
BRANCH   2  22
ATOM     22  O   UNL     1      13.191  24.379   4.121  1.00  0.00    -0.502 OA
ATOM     23  H   UNL     1      12.999  24.632   3.160  1.00  0.00     0.293 HD
ENDBRANCH   2  22
BRANCH   6  24
ATOM     24  O   UNL     1      15.687  19.686   3.787  1.00  0.00    -0.507 OA
ATOM     25  H   UNL     1      15.804  20.351   3.037  1.00  0.00     0.293 HD
ENDBRANCH   6  24
BRANCH   8  26
ATOM     26  O   UNL     1      13.058  17.089   6.827  1.00  0.00    -0.508 OA
ATOM     27  H   UNL     1      12.821  17.044   7.811  1.00  0.00     0.293 HD
ENDBRANCH   8  26
TORSDOF 6
ENDMDL
MODEL 5
REMARK VINA RESULT:    -5.821      1.643      3.311
REMARK INTER + INTRA:          -7.204
REMARK INTER:                  -7.610
REMARK INTRA:                   0.406
REMARK UNBOUND:                -0.193
REMARK SMILES O=c1c(O)c(-c2ccc(O)c(O)c2)oc2cc(O)cc(O)c12
REMARK SMILES IDX 5 1 3 2 2 3 1 4 22 5 20 6 19 7 17 8 16 9 15 10 14 11 6 12
REMARK SMILES IDX 7 13 8 14 9 15 13 16 11 17 10 18 12 20 4 22 21 24 18 26
REMARK H PARENT 10 19 12 21 4 23 21 25 18 27
REMARK Flexibility Score: inf
ROOT
ATOM      1  C   UNL     1      18.282  19.549   5.566  1.00  0.00     0.180 A 
ATOM      2  C   UNL     1      17.201  19.379   4.684  1.00  0.00     0.208 A 
ATOM      3  C   UNL     1      16.371  20.477   4.403  1.00  0.00     0.238 A 
ATOM      4  O   UNL     1      15.373  20.306   3.656  1.00  0.00    -0.285 OA
ATOM      5  C   UNL     1      16.644  21.735   4.994  1.00  0.00     0.111 A 
ATOM      6  C   UNL     1      15.895  22.924   4.750  1.00  0.00     0.134 A 
ATOM      7  C   UNL     1      16.174  24.080   5.489  1.00  0.00     0.093 A 
ATOM      8  C   UNL     1      17.215  24.109   6.416  1.00  0.00     0.123 A 
ATOM      9  C   UNL     1      17.993  22.968   6.620  1.00  0.00     0.094 A 
ATOM     10  C   UNL     1      17.715  21.789   5.923  1.00  0.00     0.146 A 
ATOM     11  O   UNL     1      18.472  20.723   6.155  1.00  0.00    -0.452 OA
ENDROOT
BRANCH   1  12
ATOM     12  C   UNL     1      19.214  18.444   5.890  1.00  0.00     0.025 A 
ATOM     13  C   UNL     1      20.508  18.698   6.373  1.00  0.00     0.016 A 
ATOM     14  C   UNL     1      21.360  17.640   6.695  1.00  0.00     0.051 A 
ATOM     15  C   UNL     1      20.938  16.315   6.556  1.00  0.00     0.157 A 
ATOM     16  C   UNL     1      18.780  17.115   5.771  1.00  0.00     0.062 A 
ATOM     17  C   UNL     1      19.628  16.048   6.092  1.00  0.00     0.158 A 
BRANCH  15  18
ATOM     18  O   UNL     1      21.840  15.303   6.891  1.00  0.00    -0.504 OA
ATOM     19  H   UNL     1      21.661  14.595   7.589  1.00  0.00     0.293 HD
ENDBRANCH  15  18
BRANCH  17  20
ATOM     20  O   UNL     1      19.132  14.752   5.936  1.00  0.00    -0.504 OA
ATOM     21  H   UNL     1      18.674  14.230   6.669  1.00  0.00     0.293 HD
ENDBRANCH  17  20
ENDBRANCH   1  12
BRANCH   2  22
ATOM     22  O   UNL     1      16.936  18.124   4.128  1.00  0.00    -0.502 OA
ATOM     23  H   UNL     1      16.374  18.005   3.294  1.00  0.00     0.293 HD
ENDBRANCH   2  22
BRANCH   6  24
ATOM     24  O   UNL     1      14.893  23.031   3.781  1.00  0.00    -0.507 OA
ATOM     25  H   UNL     1      15.029  23.399   2.851  1.00  0.00     0.293 HD
ENDBRANCH   6  24
BRANCH   8  26
ATOM     26  O   UNL     1      17.474  25.281   7.123  1.00  0.00    -0.508 OA
ATOM     27  H   UNL     1      18.415  25.644   7.222  1.00  0.00     0.293 HD
ENDBRANCH   8  26
TORSDOF 6
ENDMDL
MODEL 6
REMARK VINA RESULT:    -5.764      7.382     10.419
REMARK INTER + INTRA:          -7.136
REMARK INTER:                  -6.828
REMARK INTRA:                  -0.308
REMARK UNBOUND:                -0.193
REMARK SMILES O=c1c(O)c(-c2ccc(O)c(O)c2)oc2cc(O)cc(O)c12
REMARK SMILES IDX 5 1 3 2 2 3 1 4 22 5 20 6 19 7 17 8 16 9 15 10 14 11 6 12
REMARK SMILES IDX 7 13 8 14 9 15 13 16 11 17 10 18 12 20 4 22 21 24 18 26
REMARK H PARENT 10 19 12 21 4 23 21 25 18 27
REMARK Flexibility Score: inf
ROOT
ATOM      1  C   UNL     1      24.764  24.097   5.432  1.00  0.00     0.180 A 
ATOM      2  C   UNL     1      25.980  23.765   6.054  1.00  0.00     0.208 A 
ATOM      3  C   UNL     1      26.687  22.636   5.609  1.00  0.00     0.238 A 
ATOM      4  O   UNL     1      27.747  22.312   6.206  1.00  0.00    -0.285 OA
ATOM      5  C   UNL     1      26.179  21.864   4.536  1.00  0.00     0.111 A 
ATOM      6  C   UNL     1      26.831  20.724   3.978  1.00  0.00     0.134 A 
ATOM      7  C   UNL     1      26.173  19.960   3.006  1.00  0.00     0.093 A 
ATOM      8  C   UNL     1      24.918  20.329   2.527  1.00  0.00     0.123 A 
ATOM      9  C   UNL     1      24.296  21.475   3.024  1.00  0.00     0.094 A 
ATOM     10  C   UNL     1      24.911  22.238   4.020  1.00  0.00     0.146 A 
ATOM     11  O   UNL     1      24.281  23.316   4.473  1.00  0.00    -0.452 OA
ENDROOT
BRANCH   1  12
ATOM     12  C   UNL     1      23.975  25.286   5.829  1.00  0.00     0.025 A 
ATOM     13  C   UNL     1      22.915  25.187   6.743  1.00  0.00     0.016 A 
ATOM     14  C   UNL     1      22.201  26.325   7.121  1.00  0.00     0.051 A 
ATOM     15  C   UNL     1      22.536  27.582   6.607  1.00  0.00     0.157 A 
ATOM     16  C   UNL     1      24.328  26.548   5.328  1.00  0.00     0.062 A 
ATOM     17  C   UNL     1      23.617  27.696   5.701  1.00  0.00     0.158 A 
BRANCH  15  18
ATOM     18  O   UNL     1      21.779  28.681   7.021  1.00  0.00    -0.504 OA
ATOM     19  H   UNL     1      21.815  29.072   7.951  1.00  0.00     0.293 HD
ENDBRANCH  15  18
BRANCH  17  20
ATOM     20  O   UNL     1      24.016  28.916   5.153  1.00  0.00    -0.504 OA
ATOM     21  H   UNL     1      24.459  29.655   5.680  1.00  0.00     0.293 HD
ENDBRANCH  17  20
ENDBRANCH   1  12
BRANCH   2  22
ATOM     22  O   UNL     1      26.454  24.527   7.125  1.00  0.00    -0.502 OA
ATOM     23  H   UNL     1      27.121  25.279   7.005  1.00  0.00     0.293 HD
ENDBRANCH   2  22
BRANCH   6  24
ATOM     24  O   UNL     1      28.125  20.320   4.320  1.00  0.00    -0.507 OA
ATOM     25  H   UNL     1      28.351  19.454   4.788  1.00  0.00     0.293 HD
ENDBRANCH   6  24
BRANCH   8  26
ATOM     26  O   UNL     1      24.300  19.553   1.549  1.00  0.00    -0.508 OA
ATOM     27  H   UNL     1      23.383  19.788   1.186  1.00  0.00     0.293 HD
ENDBRANCH   8  26
TORSDOF 6
ENDMDL
MODEL 7
REMARK VINA RESULT:    -5.505      1.597      3.618
REMARK INTER + INTRA:          -6.824
REMARK INTER:                  -7.277
REMARK INTRA:                   0.453
REMARK UNBOUND:                -0.193
REMARK SMILES O=c1c(O)c(-c2ccc(O)c(O)c2)oc2cc(O)cc(O)c12
REMARK SMILES IDX 5 1 3 2 2 3 1 4 22 5 20 6 19 7 17 8 16 9 15 10 14 11 6 12
REMARK SMILES IDX 7 13 8 14 9 15 13 16 11 17 10 18 12 20 4 22 21 24 18 26
REMARK H PARENT 10 19 12 21 4 23 21 25 18 27
REMARK Flexibility Score: inf
ROOT
ATOM      1  C   UNL     1      18.160  19.569   5.456  1.00  0.00     0.180 A 
ATOM      2  C   UNL     1      17.009  19.445   4.658  1.00  0.00     0.208 A 
ATOM      3  C   UNL     1      16.197  20.573   4.452  1.00  0.00     0.238 A 
ATOM      4  O   UNL     1      15.140  20.442   3.783  1.00  0.00    -0.285 OA
ATOM      5  C   UNL     1      16.556  21.813   5.033  1.00  0.00     0.111 A 
ATOM      6  C   UNL     1      15.830  23.029   4.858  1.00  0.00     0.134 A 
ATOM      7  C   UNL     1      16.203  24.167   5.585  1.00  0.00     0.093 A 
ATOM      8  C   UNL     1      17.312  24.151   6.429  1.00  0.00     0.123 A 
ATOM      9  C   UNL     1      18.065  22.984   6.561  1.00  0.00     0.094 A 
ATOM     10  C   UNL     1      17.696  21.822   5.877  1.00  0.00     0.146 A 
ATOM     11  O   UNL     1      18.433  20.730   6.039  1.00  0.00    -0.452 OA
ENDROOT
BRANCH   1  12
ATOM     12  C   UNL     1      19.077  18.432   5.697  1.00  0.00     0.025 A 
ATOM     13  C   UNL     1      18.743  17.127   5.302  1.00  0.00     0.016 A 
ATOM     14  C   UNL     1      19.635  16.075   5.519  1.00  0.00     0.051 A 
ATOM     15  C   UNL     1      20.877  16.303   6.119  1.00  0.00     0.157 A 
ATOM     16  C   UNL     1      20.332  18.668   6.280  1.00  0.00     0.062 A 
ATOM     17  C   UNL     1      21.233  17.619   6.501  1.00  0.00     0.158 A 
BRANCH  15  18
ATOM     18  O   UNL     1      21.721  15.207   6.312  1.00  0.00    -0.504 OA
ATOM     19  H   UNL     1      21.431  14.339   6.738  1.00  0.00     0.293 HD
ENDBRANCH  15  18
BRANCH  17  20
ATOM     20  O   UNL     1      22.457  17.926   7.097  1.00  0.00    -0.504 OA
ATOM     21  H   UNL     1      23.333  17.490   6.846  1.00  0.00     0.293 HD
ENDBRANCH  17  20
ENDBRANCH   1  12
BRANCH   2  22
ATOM     22  O   UNL     1      16.662  18.206   4.112  1.00  0.00    -0.502 OA
ATOM     23  H   UNL     1      17.093  17.339   4.410  1.00  0.00     0.293 HD
ENDBRANCH   2  22
BRANCH   6  24
ATOM     24  O   UNL     1      14.760  23.179   3.970  1.00  0.00    -0.507 OA
ATOM     25  H   UNL     1      14.844  23.516   3.022  1.00  0.00     0.293 HD
ENDBRANCH   6  24
BRANCH   8  26
ATOM     26  O   UNL     1      17.663  25.306   7.125  1.00  0.00    -0.508 OA
ATOM     27  H   UNL     1      17.432  25.424   8.104  1.00  0.00     0.293 HD
ENDBRANCH   8  26
TORSDOF 6
ENDMDL
MODEL 8
REMARK VINA RESULT:    -5.336      1.269      6.717
REMARK INTER + INTRA:          -6.621
REMARK INTER:                  -6.999
REMARK INTRA:                   0.378
REMARK UNBOUND:                -0.193
REMARK SMILES O=c1c(O)c(-c2ccc(O)c(O)c2)oc2cc(O)cc(O)c12
REMARK SMILES IDX 5 1 3 2 2 3 1 4 22 5 20 6 19 7 17 8 16 9 15 10 14 11 6 12
REMARK SMILES IDX 7 13 8 14 9 15 13 16 11 17 10 18 12 20 4 22 21 24 18 26
REMARK H PARENT 10 19 12 21 4 23 21 25 18 27
REMARK Flexibility Score: inf
ROOT
ATOM      1  C   UNL     1      18.142  19.331   5.443  1.00  0.00     0.180 A 
ATOM      2  C   UNL     1      19.209  19.944   6.123  1.00  0.00     0.208 A 
ATOM      3  C   UNL     1      20.331  19.172   6.469  1.00  0.00     0.238 A 
ATOM      4  O   UNL     1      21.258  19.713   7.125  1.00  0.00    -0.285 OA
ATOM      5  C   UNL     1      20.378  17.801   6.116  1.00  0.00     0.111 A 
ATOM      6  C   UNL     1      21.480  16.935   6.380  1.00  0.00     0.134 A 
ATOM      7  C   UNL     1      21.364  15.567   6.104  1.00  0.00     0.093 A 
ATOM      8  C   UNL     1      20.214  15.046   5.513  1.00  0.00     0.123 A 
ATOM      9  C   UNL     1      19.153  15.895   5.196  1.00  0.00     0.094 A 
ATOM     10  C   UNL     1      19.224  17.258   5.494  1.00  0.00     0.146 A 
ATOM     11  O   UNL     1      18.188  18.029   5.185  1.00  0.00    -0.452 OA
ENDROOT
BRANCH   1  12
ATOM     12  C   UNL     1      16.939  20.084   5.024  1.00  0.00     0.025 A 
ATOM     13  C   UNL     1      15.695  19.451   4.877  1.00  0.00     0.016 A 
ATOM     14  C   UNL     1      14.568  20.188   4.503  1.00  0.00     0.051 A 
ATOM     15  C   UNL     1      14.657  21.566   4.283  1.00  0.00     0.157 A 
ATOM     16  C   UNL     1      17.025  21.471   4.824  1.00  0.00     0.062 A 
ATOM     17  C   UNL     1      15.902  22.218   4.450  1.00  0.00     0.158 A 
BRANCH  15  18
ATOM     18  O   UNL     1      13.495  22.243   3.907  1.00  0.00    -0.504 OA
ATOM     19  H   UNL     1      13.470  22.982   3.220  1.00  0.00     0.293 HD
ENDBRANCH  15  18
BRANCH  17  20
ATOM     20  O   UNL     1      16.066  23.590   4.256  1.00  0.00    -0.504 OA
ATOM     21  H   UNL     1      16.650  24.177   4.835  1.00  0.00     0.293 HD
ENDBRANCH  17  20
ENDBRANCH   1  12
BRANCH   2  22
ATOM     22  O   UNL     1      19.133  21.292   6.481  1.00  0.00    -0.502 OA
ATOM     23  H   UNL     1      18.264  21.812   6.464  1.00  0.00     0.293 HD
ENDBRANCH   2  22
BRANCH   6  24
ATOM     24  O   UNL     1      22.710  17.367   6.885  1.00  0.00    -0.507 OA
ATOM     25  H   UNL     1      23.185  18.210   6.596  1.00  0.00     0.293 HD
ENDBRANCH   6  24
BRANCH   8  26
ATOM     26  O   UNL     1      20.140  13.682   5.238  1.00  0.00    -0.508 OA
ATOM     27  H   UNL     1      20.375  13.312   4.325  1.00  0.00     0.293 HD
ENDBRANCH   8  26
TORSDOF 6
ENDMDL
MODEL 9
REMARK VINA RESULT:    -5.281      1.863      7.188
REMARK INTER + INTRA:          -6.555
REMARK INTER:                  -6.712
REMARK INTRA:                   0.157
REMARK UNBOUND:                -0.193
REMARK SMILES O=c1c(O)c(-c2ccc(O)c(O)c2)oc2cc(O)cc(O)c12
REMARK SMILES IDX 5 1 3 2 2 3 1 4 22 5 20 6 19 7 17 8 16 9 15 10 14 11 6 12
REMARK SMILES IDX 7 13 8 14 9 15 13 16 11 17 10 18 12 20 4 22 21 24 18 26
REMARK H PARENT 10 19 12 21 4 23 21 25 18 27
REMARK Flexibility Score: inf
ROOT
ATOM      1  C   UNL     1      19.250  19.181   5.761  1.00  0.00     0.180 A 
ATOM      2  C   UNL     1      18.791  17.880   5.492  1.00  0.00     0.208 A 
ATOM      3  C   UNL     1      19.674  16.799   5.654  1.00  0.00     0.238 A 
ATOM      4  O   UNL     1      19.273  15.643   5.359  1.00  0.00    -0.285 OA
ATOM      5  C   UNL     1      20.998  17.031   6.097  1.00  0.00     0.111 A 
ATOM      6  C   UNL     1      21.964  16.008   6.334  1.00  0.00     0.134 A 
ATOM      7  C   UNL     1      23.283  16.363   6.646  1.00  0.00     0.093 A 
ATOM      8  C   UNL     1      23.654  17.698   6.794  1.00  0.00     0.123 A 
ATOM      9  C   UNL     1      22.703  18.705   6.623  1.00  0.00     0.094 A 
ATOM     10  C   UNL     1      21.388  18.384   6.275  1.00  0.00     0.146 A 
ATOM     11  O   UNL     1      20.516  19.372   6.112  1.00  0.00    -0.452 OA
ENDROOT
BRANCH   1  12
ATOM     12  C   UNL     1      18.372  20.367   5.638  1.00  0.00     0.025 A 
ATOM     13  C   UNL     1      18.417  21.410   6.577  1.00  0.00     0.016 A 
ATOM     14  C   UNL     1      17.596  22.529   6.426  1.00  0.00     0.051 A 
ATOM     15  C   UNL     1      16.728  22.638   5.335  1.00  0.00     0.157 A 
ATOM     16  C   UNL     1      17.518  20.483   4.531  1.00  0.00     0.062 A 
ATOM     17  C   UNL     1      16.692  21.602   4.371  1.00  0.00     0.158 A 
BRANCH  15  18
ATOM     18  O   UNL     1      15.931  23.781   5.245  1.00  0.00    -0.504 OA
ATOM     19  H   UNL     1      16.251  24.665   4.879  1.00  0.00     0.293 HD
ENDBRANCH  15  18
BRANCH  17  20
ATOM     20  O   UNL     1      15.859  21.643   3.252  1.00  0.00    -0.504 OA
ATOM     21  H   UNL     1      14.936  22.054   3.248  1.00  0.00     0.293 HD
ENDBRANCH  17  20
ENDBRANCH   1  12
BRANCH   2  22
ATOM     22  O   UNL     1      17.487  17.674   5.034  1.00  0.00    -0.502 OA
ATOM     23  H   UNL     1      16.672  17.956   5.566  1.00  0.00     0.293 HD
ENDBRANCH   2  22
BRANCH   6  24
ATOM     24  O   UNL     1      21.677  14.640   6.302  1.00  0.00    -0.507 OA
ATOM     25  H   UNL     1      22.278  13.918   6.670  1.00  0.00     0.293 HD
ENDBRANCH   6  24
BRANCH   8  26
ATOM     26  O   UNL     1      24.972  18.013   7.119  1.00  0.00    -0.508 OA
ATOM     27  H   UNL     1      25.473  17.511   7.842  1.00  0.00     0.293 HD
ENDBRANCH   8  26
TORSDOF 6
ENDMDL
