MODEL 1
REMARK VINA RESULT:    11.529      0.000      0.000
REMARK INTER + INTRA:          21.169
REMARK INTER:                  15.910
REMARK INTRA:                   5.259
REMARK UNBOUND:                 5.259
REMARK SMILES CC[C@H](CC[C@H](C)[C@H]1CC[C@@H]2[C@H]3CC=C4C[C@H](O)CC[C@@]4(C)[C@@H]3CC[C@@]21C)C(C)C
REMARK SMILES IDX 5 1 4 2 3 3 2 4 1 5 28 6 29 7 30 8 6 9 7 10 8 11 9 12 26 13
REMARK SMILES IDX 10 14 11 15 25 16 27 17 12 18 24 19 23 20 13 21 21 22 14 23
REMARK SMILES IDX 15 24 20 25 22 26 16 27 19 28 17 29 18 30
REMARK H PARENT 18 31
REMARK Flexibility Score: inf
ROOT
ATOM      1  C   UNL     1     -26.378 -17.298 -15.679  1.00  0.00     0.004 C 
ENDROOT
BRANCH   1   2
ATOM      2  C   UNL     1     -26.261 -15.894 -15.053  1.00  0.00     0.004 C 
BRANCH   2   3
ATOM      3  C   UNL     1     -25.476 -14.868 -15.919  1.00  0.00    -0.009 C 
BRANCH   3   4
ATOM      4  C   UNL     1     -24.514 -14.016 -15.038  1.00  0.00     0.000 C 
ATOM      5  C   UNL     1     -24.978 -13.879 -13.590  1.00  0.00     0.004 C 
ENDBRANCH   3   4
BRANCH   3   6
ATOM      6  C   UNL     1     -24.841 -15.535 -17.199  1.00  0.00    -0.014 C 
ATOM      7  C   UNL     1     -24.162 -14.553 -18.173  1.00  0.00     0.007 C 
ATOM      8  C   UNL     1     -25.849 -16.413 -17.960  1.00  0.00     0.007 C 
ENDBRANCH   3   6
ENDBRANCH   2   3
ENDBRANCH   1   2
BRANCH   1   9
ATOM      9  C   UNL     1     -25.485 -18.377 -15.007  1.00  0.00    -0.011 C 
ATOM     10  C   UNL     1     -26.372 -19.600 -14.677  1.00  0.00     0.008 C 
BRANCH   9  11
ATOM     11  C   UNL     1     -24.661 -17.829 -13.776  1.00  0.00    -0.002 C 
ATOM     12  C   UNL     1     -24.257 -18.939 -12.804  1.00  0.00     0.005 C 
ATOM     13  C   UNL     1     -23.323 -17.058 -14.079  1.00  0.00    -0.026 C 
ATOM     14  C   UNL     1     -22.825 -19.317 -13.153  1.00  0.00     0.005 C 
ATOM     15  C   UNL     1     -22.192 -18.115 -13.888  1.00  0.00    -0.001 C 
ATOM     16  C   UNL     1     -23.141 -15.918 -13.039  1.00  0.00     0.007 C 
ATOM     17  C   UNL     1     -23.304 -16.417 -15.498  1.00  0.00     0.012 C 
ATOM     18  C   UNL     1     -20.913 -17.614 -13.122  1.00  0.00     0.000 C 
ATOM     19  C   UNL     1     -21.790 -15.190 -13.159  1.00  0.00     0.005 C 
ATOM     20  C   UNL     1     -20.576 -16.135 -13.437  1.00  0.00     0.003 C 
ATOM     21  C   UNL     1     -19.723 -18.526 -13.478  1.00  0.00     0.031 C 
ATOM     22  C   UNL     1     -19.243 -15.651 -12.734  1.00  0.00    -0.008 C 
ATOM     23  C   UNL     1     -18.395 -18.005 -13.024  1.00  0.00    -0.027 C 
ATOM     24  C   UNL     1     -18.128 -16.692 -12.889  1.00  0.00    -0.065 C 
ATOM     25  C   UNL     1     -18.782 -14.327 -13.429  1.00  0.00     0.014 C 
ATOM     26  C   UNL     1     -19.447 -15.404 -11.205  1.00  0.00     0.016 C 
ATOM     27  C   UNL     1     -16.692 -16.281 -12.617  1.00  0.00     0.063 C 
ATOM     28  C   UNL     1     -17.375 -13.875 -13.018  1.00  0.00     0.033 C 
ATOM     29  C   UNL     1     -16.344 -14.963 -13.326  1.00  0.00     0.118 C 
BRANCH  29  30
ATOM     30  O   UNL     1     -15.075 -14.516 -12.921  1.00  0.00    -0.393 OA
ATOM     31  H   UNL     1     -15.160 -13.540 -12.749  1.00  0.00     0.210 HD
ENDBRANCH  29  30
ENDBRANCH   9  11
ENDBRANCH   1   9
TORSDOF 7
ENDMDL
MODEL 2
REMARK VINA RESULT:    11.763      1.330      2.728
REMARK INTER + INTRA:          21.492
REMARK INTER:                  19.301
REMARK INTRA:                   2.191
REMARK UNBOUND:                 5.259
REMARK SMILES CC[C@H](CC[C@H](C)[C@H]1CC[C@@H]2[C@H]3CC=C4C[C@H](O)CC[C@@]4(C)[C@@H]3CC[C@@]21C)C(C)C
REMARK SMILES IDX 5 1 4 2 3 3 2 4 1 5 28 6 29 7 30 8 6 9 7 10 8 11 9 12 26 13
REMARK SMILES IDX 10 14 11 15 25 16 27 17 12 18 24 19 23 20 13 21 21 22 14 23
REMARK SMILES IDX 15 24 20 25 22 26 16 27 19 28 17 29 18 30
REMARK H PARENT 18 31
REMARK Flexibility Score: inf
ROOT
ATOM      1  C   UNL     1     -25.615 -16.117 -16.812  1.00  0.00     0.004 C 
ENDROOT
BRANCH   1   2
ATOM      2  C   UNL     1     -26.217 -16.884 -18.006  1.00  0.00     0.004 C 
BRANCH   2   3
ATOM      3  C   UNL     1     -25.545 -16.574 -19.374  1.00  0.00    -0.009 C 
BRANCH   3   4
ATOM      4  C   UNL     1     -26.602 -16.526 -20.517  1.00  0.00     0.000 C 
ATOM      5  C   UNL     1     -27.396 -17.821 -20.665  1.00  0.00     0.004 C 
ENDBRANCH   3   4
BRANCH   3   6
ATOM      6  C   UNL     1     -24.558 -15.347 -19.285  1.00  0.00    -0.014 C 
ATOM      7  C   UNL     1     -23.850 -14.987 -20.605  1.00  0.00     0.007 C 
ATOM      8  C   UNL     1     -23.519 -15.513 -18.162  1.00  0.00     0.007 C 
ENDBRANCH   3   6
ENDBRANCH   2   3
ENDBRANCH   1   2
BRANCH   1   9
ATOM      9  C   UNL     1     -26.472 -16.170 -15.517  1.00  0.00    -0.011 C 
ATOM     10  C   UNL     1     -27.621 -15.145 -15.658  1.00  0.00     0.008 C 
BRANCH   9  11
ATOM     11  C   UNL     1     -25.621 -16.005 -14.197  1.00  0.00    -0.002 C 
ATOM     12  C   UNL     1     -25.514 -17.311 -13.406  1.00  0.00     0.005 C 
ATOM     13  C   UNL     1     -24.136 -15.506 -14.343  1.00  0.00    -0.026 C 
ATOM     14  C   UNL     1     -24.177 -17.932 -13.779  1.00  0.00     0.005 C 
ATOM     15  C   UNL     1     -23.265 -16.798 -14.299  1.00  0.00    -0.001 C 
ATOM     16  C   UNL     1     -23.777 -14.602 -13.130  1.00  0.00     0.007 C 
ATOM     17  C   UNL     1     -23.904 -14.677 -15.640  1.00  0.00     0.012 C 
ATOM     18  C   UNL     1     -21.954 -16.707 -13.435  1.00  0.00     0.000 C 
ATOM     19  C   UNL     1     -22.299 -14.174 -13.103  1.00  0.00     0.005 C 
ATOM     20  C   UNL     1     -21.297 -15.306 -13.502  1.00  0.00     0.003 C 
ATOM     21  C   UNL     1     -20.964 -17.790 -13.906  1.00  0.00     0.031 C 
ATOM     22  C   UNL     1     -19.933 -15.233 -12.702  1.00  0.00    -0.008 C 
ATOM     23  C   UNL     1     -19.583 -17.643 -13.346  1.00  0.00    -0.027 C 
ATOM     24  C   UNL     1     -19.054 -16.455 -12.997  1.00  0.00    -0.065 C 
ATOM     25  C   UNL     1     -19.166 -13.950 -13.167  1.00  0.00     0.014 C 
ATOM     26  C   UNL     1     -20.165 -15.182 -11.158  1.00  0.00     0.016 C 
ATOM     27  C   UNL     1     -17.582 -16.410 -12.632  1.00  0.00     0.063 C 
ATOM     28  C   UNL     1     -17.721 -13.881 -12.659  1.00  0.00     0.033 C 
ATOM     29  C   UNL     1     -16.926 -15.107 -13.113  1.00  0.00     0.118 C 
BRANCH  29  30
ATOM     30  O   UNL     1     -15.616 -15.011 -12.615  1.00  0.00    -0.393 OA
ATOM     31  H   UNL     1     -15.384 -14.043 -12.611  1.00  0.00     0.210 HD
ENDBRANCH  29  30
ENDBRANCH   9  11
ENDBRANCH   1   9
TORSDOF 7
ENDMDL
MODEL 3
REMARK VINA RESULT:    12.546      2.649      4.569
REMARK INTER + INTRA:          22.571
REMARK INTER:                  20.863
REMARK INTRA:                   1.708
REMARK UNBOUND:                 5.259
REMARK SMILES CC[C@H](CC[C@H](C)[C@H]1CC[C@@H]2[C@H]3CC=C4C[C@H](O)CC[C@@]4(C)[C@@H]3CC[C@@]21C)C(C)C
REMARK SMILES IDX 5 1 4 2 3 3 2 4 1 5 28 6 29 7 30 8 6 9 7 10 8 11 9 12 26 13
REMARK SMILES IDX 10 14 11 15 25 16 27 17 12 18 24 19 23 20 13 21 21 22 14 23
REMARK SMILES IDX 15 24 20 25 22 26 16 27 19 28 17 29 18 30
REMARK H PARENT 18 31
REMARK Flexibility Score: inf
ROOT
ATOM      1  C   UNL     1     -26.501 -17.459 -18.674  1.00  0.00     0.004 C 
ENDROOT
BRANCH   1   2
ATOM      2  C   UNL     1     -26.326 -17.964 -20.120  1.00  0.00     0.004 C 
BRANCH   2   3
ATOM      3  C   UNL     1     -27.597 -18.623 -20.729  1.00  0.00    -0.009 C 
BRANCH   3   4
ATOM      4  C   UNL     1     -28.482 -17.565 -21.452  1.00  0.00     0.000 C 
ATOM      5  C   UNL     1     -28.389 -17.633 -22.974  1.00  0.00     0.004 C 
ENDBRANCH   3   4
BRANCH   3   6
ATOM      6  C   UNL     1     -27.254 -19.924 -21.552  1.00  0.00    -0.014 C 
ATOM      7  C   UNL     1     -26.330 -19.700 -22.764  1.00  0.00     0.007 C 
ATOM      8  C   UNL     1     -28.515 -20.687 -21.990  1.00  0.00     0.007 C 
ENDBRANCH   3   6
ENDBRANCH   2   3
ENDBRANCH   1   2
BRANCH   1   9
ATOM      9  C   UNL     1     -26.186 -15.950 -18.478  1.00  0.00    -0.011 C 
ATOM     10  C   UNL     1     -25.061 -15.561 -19.465  1.00  0.00     0.008 C 
BRANCH   9  11
ATOM     11  C   UNL     1     -25.886 -15.564 -16.977  1.00  0.00    -0.002 C 
ATOM     12  C   UNL     1     -26.338 -16.648 -15.995  1.00  0.00     0.005 C 
ATOM     13  C   UNL     1     -24.392 -15.268 -16.583  1.00  0.00    -0.026 C 
ATOM     14  C   UNL     1     -25.103 -17.473 -15.667  1.00  0.00     0.005 C 
ATOM     15  C   UNL     1     -23.865 -16.596 -15.956  1.00  0.00    -0.001 C 
ATOM     16  C   UNL     1     -24.357 -14.143 -15.511  1.00  0.00     0.007 C 
ATOM     17  C   UNL     1     -23.531 -14.800 -17.793  1.00  0.00     0.012 C 
ATOM     18  C   UNL     1     -22.990 -16.436 -14.659  1.00  0.00     0.000 C 
ATOM     19  C   UNL     1     -22.948 -13.875 -14.952  1.00  0.00     0.005 C 
ATOM     20  C   UNL     1     -22.104 -15.166 -14.695  1.00  0.00     0.003 C 
ATOM     21  C   UNL     1     -22.121 -17.696 -14.480  1.00  0.00     0.031 C 
ATOM     22  C   UNL     1     -21.160 -15.045 -13.430  1.00  0.00    -0.008 C 
ATOM     23  C   UNL     1     -21.056 -17.562 -13.436  1.00  0.00    -0.027 C 
ATOM     24  C   UNL     1     -20.484 -16.386 -13.116  1.00  0.00    -0.065 C 
ATOM     25  C   UNL     1     -20.045 -13.996 -13.756  1.00  0.00     0.014 C 
ATOM     26  C   UNL     1     -21.948 -14.605 -12.155  1.00  0.00     0.016 C 
ATOM     27  C   UNL     1     -19.282 -16.406 -12.190  1.00  0.00     0.063 C 
ATOM     28  C   UNL     1     -18.917 -13.956 -12.717  1.00  0.00     0.033 C 
ATOM     29  C   UNL     1     -18.257 -15.330 -12.579  1.00  0.00     0.118 C 
BRANCH  29  30
ATOM     30  O   UNL     1     -17.244 -15.252 -11.610  1.00  0.00    -0.393 OA
ATOM     31  H   UNL     1     -16.421 -15.624 -12.030  1.00  0.00     0.210 HD
ENDBRANCH  29  30
ENDBRANCH   9  11
ENDBRANCH   1   9
TORSDOF 7
ENDMDL
MODEL 4
REMARK VINA RESULT:    13.123      1.593      2.821
REMARK INTER + INTRA:          23.368
REMARK INTER:                  21.015
REMARK INTRA:                   2.352
REMARK UNBOUND:                 5.259
REMARK SMILES CC[C@H](CC[C@H](C)[C@H]1CC[C@@H]2[C@H]3CC=C4C[C@H](O)CC[C@@]4(C)[C@@H]3CC[C@@]21C)C(C)C
REMARK SMILES IDX 5 1 4 2 3 3 2 4 1 5 28 6 29 7 30 8 6 9 7 10 8 11 9 12 26 13
REMARK SMILES IDX 10 14 11 15 25 16 27 17 12 18 24 19 23 20 13 21 21 22 14 23
REMARK SMILES IDX 15 24 20 25 22 26 16 27 19 28 17 29 18 30
REMARK H PARENT 18 31
REMARK Flexibility Score: inf
ROOT
ATOM      1  C   UNL     1     -25.964 -16.121 -17.116  1.00  0.00     0.004 C 
ENDROOT
BRANCH   1   2
ATOM      2  C   UNL     1     -26.410 -17.017 -18.289  1.00  0.00     0.004 C 
BRANCH   2   3
ATOM      3  C   UNL     1     -26.133 -16.418 -19.697  1.00  0.00    -0.009 C 
BRANCH   3   4
ATOM      4  C   UNL     1     -24.623 -16.083 -19.874  1.00  0.00     0.000 C 
ATOM      5  C   UNL     1     -24.063 -15.199 -18.761  1.00  0.00     0.004 C 
ENDBRANCH   3   4
BRANCH   3   6
ATOM      6  C   UNL     1     -26.796 -17.272 -20.846  1.00  0.00    -0.014 C 
ATOM      7  C   UNL     1     -28.293 -16.995 -21.078  1.00  0.00     0.007 C 
ATOM      8  C   UNL     1     -26.567 -18.781 -20.658  1.00  0.00     0.007 C 
ENDBRANCH   3   6
ENDBRANCH   2   3
ENDBRANCH   1   2
BRANCH   1   9
ATOM      9  C   UNL     1     -26.792 -16.308 -15.815  1.00  0.00    -0.011 C 
ATOM     10  C   UNL     1     -28.110 -15.512 -15.963  1.00  0.00     0.008 C 
BRANCH   9  11
ATOM     11  C   UNL     1     -25.980 -15.969 -14.503  1.00  0.00    -0.002 C 
ATOM     12  C   UNL     1     -25.945 -17.142 -13.520  1.00  0.00     0.005 C 
ATOM     13  C   UNL     1     -24.474 -15.543 -14.667  1.00  0.00    -0.026 C 
ATOM     14  C   UNL     1     -24.620 -17.852 -13.744  1.00  0.00     0.005 C 
ATOM     15  C   UNL     1     -23.651 -16.840 -14.394  1.00  0.00    -0.001 C 
ATOM     16  C   UNL     1     -24.124 -14.476 -13.593  1.00  0.00     0.007 C 
ATOM     17  C   UNL     1     -24.170 -14.929 -16.065  1.00  0.00     0.012 C 
ATOM     18  C   UNL     1     -22.367 -16.657 -13.506  1.00  0.00     0.000 C 
ATOM     19  C   UNL     1     -22.632 -14.094 -13.574  1.00  0.00     0.005 C 
ATOM     20  C   UNL     1     -21.658 -15.303 -13.759  1.00  0.00     0.003 C 
ATOM     21  C   UNL     1     -21.402 -17.829 -13.768  1.00  0.00     0.031 C 
ATOM     22  C   UNL     1     -20.320 -15.150 -12.927  1.00  0.00    -0.008 C 
ATOM     23  C   UNL     1     -20.036 -17.639 -13.185  1.00  0.00    -0.027 C 
ATOM     24  C   UNL     1     -19.476 -16.429 -13.001  1.00  0.00    -0.065 C 
ATOM     25  C   UNL     1     -19.493 -13.978 -13.552  1.00  0.00     0.014 C 
ATOM     26  C   UNL     1     -20.602 -14.857 -11.419  1.00  0.00     0.016 C 
ATOM     27  C   UNL     1     -18.016 -16.373 -12.591  1.00  0.00     0.063 C 
ATOM     28  C   UNL     1     -18.064 -13.875 -13.005  1.00  0.00     0.033 C 
ATOM     29  C   UNL     1     -17.298 -15.179 -13.239  1.00  0.00     0.118 C 
BRANCH  29  30
ATOM     30  O   UNL     1     -16.004 -15.048 -12.711  1.00  0.00    -0.393 OA
ATOM     31  H   UNL     1     -15.391 -14.932 -13.487  1.00  0.00     0.210 HD
ENDBRANCH  29  30
ENDBRANCH   9  11
ENDBRANCH   1   9
TORSDOF 7
ENDMDL
MODEL 5
REMARK VINA RESULT:    13.165      1.182      1.971
REMARK INTER + INTRA:          23.426
REMARK INTER:                  20.191
REMARK INTRA:                   3.235
REMARK UNBOUND:                 5.259
REMARK SMILES CC[C@H](CC[C@H](C)[C@H]1CC[C@@H]2[C@H]3CC=C4C[C@H](O)CC[C@@]4(C)[C@@H]3CC[C@@]21C)C(C)C
REMARK SMILES IDX 5 1 4 2 3 3 2 4 1 5 28 6 29 7 30 8 6 9 7 10 8 11 9 12 26 13
REMARK SMILES IDX 10 14 11 15 25 16 27 17 12 18 24 19 23 20 13 21 21 22 14 23
REMARK SMILES IDX 15 24 20 25 22 26 16 27 19 28 17 29 18 30
REMARK H PARENT 18 31
REMARK Flexibility Score: inf
ROOT
ATOM      1  C   UNL     1     -25.536 -16.754 -16.459  1.00  0.00     0.004 C 
ENDROOT
BRANCH   1   2
ATOM      2  C   UNL     1     -26.025 -16.064 -17.748  1.00  0.00     0.004 C 
BRANCH   2   3
ATOM      3  C   UNL     1     -24.975 -15.130 -18.415  1.00  0.00    -0.009 C 
BRANCH   3   4
ATOM      4  C   UNL     1     -23.931 -14.631 -17.374  1.00  0.00     0.000 C 
ATOM      5  C   UNL     1     -22.700 -15.530 -17.268  1.00  0.00     0.004 C 
ENDBRANCH   3   4
BRANCH   3   6
ATOM      6  C   UNL     1     -24.393 -15.746 -19.745  1.00  0.00    -0.014 C 
ATOM      7  C   UNL     1     -23.603 -14.760 -20.626  1.00  0.00     0.007 C 
ATOM      8  C   UNL     1     -25.474 -16.447 -20.586  1.00  0.00     0.007 C 
ENDBRANCH   3   6
ENDBRANCH   2   3
ENDBRANCH   1   2
BRANCH   1   9
ATOM      9  C   UNL     1     -26.301 -16.332 -15.175  1.00  0.00    -0.011 C 
ATOM     10  C   UNL     1     -27.020 -14.993 -15.461  1.00  0.00     0.008 C 
BRANCH   9  11
ATOM     11  C   UNL     1     -25.391 -16.310 -13.884  1.00  0.00    -0.002 C 
ATOM     12  C   UNL     1     -25.155 -17.711 -13.315  1.00  0.00     0.005 C 
ATOM     13  C   UNL     1     -23.952 -15.687 -14.015  1.00  0.00    -0.026 C 
ATOM     14  C   UNL     1     -23.802 -18.167 -13.840  1.00  0.00     0.005 C 
ATOM     15  C   UNL     1     -22.997 -16.903 -14.214  1.00  0.00    -0.001 C 
ATOM     16  C   UNL     1     -23.587 -14.957 -12.692  1.00  0.00     0.007 C 
ATOM     17  C   UNL     1     -23.847 -14.653 -15.174  1.00  0.00     0.012 C 
ATOM     18  C   UNL     1     -21.649 -16.851 -13.406  1.00  0.00     0.000 C 
ATOM     19  C   UNL     1     -22.141 -14.431 -12.663  1.00  0.00     0.005 C 
ATOM     20  C   UNL     1     -21.090 -15.411 -13.280  1.00  0.00     0.003 C 
ATOM     21  C   UNL     1     -20.618 -17.773 -14.085  1.00  0.00     0.031 C 
ATOM     22  C   UNL     1     -19.691 -15.363 -12.539  1.00  0.00    -0.008 C 
ATOM     23  C   UNL     1     -19.221 -17.612 -13.570  1.00  0.00    -0.027 C 
ATOM     24  C   UNL     1     -18.753 -16.457 -13.062  1.00  0.00    -0.065 C 
ATOM     25  C   UNL     1     -19.037 -13.971 -12.830  1.00  0.00     0.014 C 
ATOM     26  C   UNL     1     -19.842 -15.568 -10.998  1.00  0.00     0.016 C 
ATOM     27  C   UNL     1     -17.268 -16.361 -12.760  1.00  0.00     0.063 C 
ATOM     28  C   UNL     1     -17.574 -13.876 -12.381  1.00  0.00     0.033 C 
ATOM     29  C   UNL     1     -16.726 -14.955 -13.058  1.00  0.00     0.118 C 
BRANCH  29  30
ATOM     30  O   UNL     1     -15.401 -14.841 -12.609  1.00  0.00    -0.393 OA
ATOM     31  H   UNL     1     -14.996 -15.747 -12.686  1.00  0.00     0.210 HD
ENDBRANCH  29  30
ENDBRANCH   9  11
ENDBRANCH   1   9
TORSDOF 7
ENDMDL
