MODEL 1
REMARK VINA RESULT:    -6.166      0.000      0.000
REMARK INTER + INTRA:         -10.858
REMARK INTER:                  -9.049
REMARK INTRA:                  -1.809
REMARK UNBOUND:                -1.809
REMARK SMILES O=c1c(O[C@H]2O[C@@H](CO)[C@H](O)[C@@H](O)[C@H]2O)c(-c2ccc(O)c(O)c2)oc2cc(O)cc(O)c12
REMARK SMILES IDX 4 1 3 2 16 3 25 4 2 5 26 6 1 7 33 8 27 9 31 10 28 11 30 12
REMARK SMILES IDX 17 13 18 14 19 15 20 16 24 17 22 18 21 19 23 21 32 23 29 25
REMARK SMILES IDX 5 27 14 28 6 29 12 30 7 31 10 32 15 33 13 35 8 37 9 38 11 40
REMARK H PARENT 21 20 23 22 32 24 29 26 15 34 13 36 9 39 11 41
REMARK Flexibility Score: inf
ROOT
ATOM      1  O   UNL     1      17.656  -0.731 -11.039  1.00  0.00    -0.454 OA
ENDROOT
BRANCH   1   2
ATOM      2  C   UNL     1      18.559  -0.793  -9.969  1.00  0.00     0.214 A 
ATOM      3  C   UNL     1      19.871  -0.299 -10.079  1.00  0.00     0.180 A 
ATOM      4  O   UNL     1      20.808  -0.718  -9.234  1.00  0.00    -0.452 OA
ATOM      5  C   UNL     1      18.213  -1.523  -8.826  1.00  0.00     0.239 A 
ATOM      6  C   UNL     1      20.547  -1.502  -8.193  1.00  0.00     0.146 A 
ATOM      7  O   UNL     1      17.029  -1.925  -8.684  1.00  0.00    -0.285 OA
ATOM      8  C   UNL     1      19.210  -1.860  -7.885  1.00  0.00     0.111 A 
ATOM      9  C   UNL     1      21.595  -1.975  -7.405  1.00  0.00     0.094 A 
ATOM     10  C   UNL     1      18.948  -2.604  -6.712  1.00  0.00     0.134 A 
ATOM     11  C   UNL     1      21.336  -2.791  -6.297  1.00  0.00     0.123 A 
ATOM     12  C   UNL     1      20.014  -3.066  -5.931  1.00  0.00     0.093 A 
BRANCH   3  13
ATOM     13  C   UNL     1      20.248   0.729 -11.054  1.00  0.00     0.025 A 
ATOM     14  C   UNL     1      20.142   2.074 -10.688  1.00  0.00     0.016 A 
ATOM     15  C   UNL     1      20.558   3.080 -11.565  1.00  0.00     0.051 A 
ATOM     16  C   UNL     1      21.143   2.739 -12.789  1.00  0.00     0.157 A 
ATOM     17  C   UNL     1      20.855   0.384 -12.273  1.00  0.00     0.062 A 
ATOM     18  C   UNL     1      21.314   1.394 -13.135  1.00  0.00     0.158 A 
BRANCH  16  19
ATOM     19  O   UNL     1      21.548   3.737 -13.670  1.00  0.00    -0.504 OA
ATOM     20  H   UNL     1      22.527   3.975 -13.790  1.00  0.00     0.293 HD
ENDBRANCH  16  19
BRANCH  18  21
ATOM     21  O   UNL     1      21.961   1.089 -14.330  1.00  0.00    -0.504 OA
ATOM     22  H   UNL     1      22.817   0.557 -14.365  1.00  0.00     0.293 HD
ENDBRANCH  18  21
ENDBRANCH   3  13
BRANCH  10  23
ATOM     23  O   UNL     1      17.639  -2.915  -6.338  1.00  0.00    -0.507 OA
ATOM     24  H   UNL     1      17.043  -3.492  -6.920  1.00  0.00     0.293 HD
ENDBRANCH  10  23
BRANCH  11  25
ATOM     25  O   UNL     1      22.388  -3.331  -5.559  1.00  0.00    -0.508 OA
ATOM     26  H   UNL     1      23.355  -3.189  -5.832  1.00  0.00     0.293 HD
ENDBRANCH  11  25
ENDBRANCH   1   2
BRANCH   1  27
ATOM     27  C   UNL     1      17.661  -1.564 -12.202  1.00  0.00     0.339 C 
ATOM     28  C   UNL     1      16.377  -1.265 -13.008  1.00  0.00     0.214 C 
ATOM     29  O   UNL     1      17.795  -2.933 -11.805  1.00  0.00    -0.332 OA
ATOM     30  C   UNL     1      15.130  -1.637 -12.161  1.00  0.00     0.180 C 
ATOM     31  C   UNL     1      16.588  -3.694 -11.839  1.00  0.00     0.179 C 
ATOM     32  C   UNL     1      15.402  -2.876 -11.273  1.00  0.00     0.177 C 
BRANCH  28  33
ATOM     33  O   UNL     1      16.321   0.089 -13.390  1.00  0.00    -0.384 OA
ATOM     34  H   UNL     1      15.457   0.214 -13.866  1.00  0.00     0.211 HD
ENDBRANCH  28  33
BRANCH  30  35
ATOM     35  O   UNL     1      14.753  -0.567 -11.324  1.00  0.00    -0.387 OA
ATOM     36  H   UNL     1      14.472   0.184 -11.914  1.00  0.00     0.211 HD
ENDBRANCH  30  35
BRANCH  31  37
ATOM     37  C   UNL     1      16.810  -4.991 -11.037  1.00  0.00     0.191 C 
BRANCH  37  38
ATOM     38  O   UNL     1      16.804  -4.725  -9.660  1.00  0.00    -0.394 OA
ATOM     39  H   UNL     1      16.995  -3.762  -9.554  1.00  0.00     0.210 HD
ENDBRANCH  37  38
ENDBRANCH  31  37
BRANCH  32  40
ATOM     40  O   UNL     1      14.243  -3.665 -11.204  1.00  0.00    -0.387 OA
ATOM     41  H   UNL     1      14.527  -4.615 -11.194  1.00  0.00     0.211 HD
ENDBRANCH  32  40
ENDBRANCH   1  27
TORSDOF 12
ENDMDL
MODEL 2
REMARK VINA RESULT:    -6.146      2.865      7.014
REMARK INTER + INTRA:         -10.829
REMARK INTER:                  -9.037
REMARK INTRA:                  -1.792
REMARK UNBOUND:                -1.809
REMARK SMILES O=c1c(O[C@H]2O[C@@H](CO)[C@H](O)[C@@H](O)[C@H]2O)c(-c2ccc(O)c(O)c2)oc2cc(O)cc(O)c12
REMARK SMILES IDX 4 1 3 2 16 3 25 4 2 5 26 6 1 7 33 8 27 9 31 10 28 11 30 12
REMARK SMILES IDX 17 13 18 14 19 15 20 16 24 17 22 18 21 19 23 21 32 23 29 25
REMARK SMILES IDX 5 27 14 28 6 29 12 30 7 31 10 32 15 33 13 35 8 37 9 38 11 40
REMARK H PARENT 21 20 23 22 32 24 29 26 15 34 13 36 9 39 11 41
REMARK Flexibility Score: inf
ROOT
ATOM      1  O   UNL     1      20.303  -2.915  -8.966  1.00  0.00    -0.454 OA
ENDROOT
BRANCH   1   2
ATOM      2  C   UNL     1      21.208  -2.389  -9.898  1.00  0.00     0.214 A 
ATOM      3  C   UNL     1      22.587  -2.664  -9.828  1.00  0.00     0.180 A 
ATOM      4  O   UNL     1      23.453  -1.863 -10.440  1.00  0.00    -0.452 OA
ATOM      5  C   UNL     1      20.766  -1.424 -10.811  1.00  0.00     0.239 A 
ATOM      6  C   UNL     1      23.080  -0.863 -11.233  1.00  0.00     0.146 A 
ATOM      7  O   UNL     1      19.532  -1.205 -10.928  1.00  0.00    -0.285 OA
ATOM      8  C   UNL     1      21.709  -0.662 -11.533  1.00  0.00     0.111 A 
ATOM      9  C   UNL     1      24.044  -0.009 -11.766  1.00  0.00     0.094 A 
ATOM     10  C   UNL     1      21.347   0.339 -12.463  1.00  0.00     0.134 A 
ATOM     11  C   UNL     1      23.670   1.041 -12.613  1.00  0.00     0.123 A 
ATOM     12  C   UNL     1      22.331   1.183 -12.992  1.00  0.00     0.093 A 
BRANCH   3  13
ATOM     13  C   UNL     1      23.120  -3.854  -9.158  1.00  0.00     0.025 A 
ATOM     14  C   UNL     1      23.183  -5.055  -9.870  1.00  0.00     0.016 A 
ATOM     15  C   UNL     1      23.750  -6.192  -9.288  1.00  0.00     0.051 A 
ATOM     16  C   UNL     1      24.315  -6.114  -8.011  1.00  0.00     0.157 A 
ATOM     17  C   UNL     1      23.706  -3.768  -7.884  1.00  0.00     0.062 A 
ATOM     18  C   UNL     1      24.316  -4.899  -7.317  1.00  0.00     0.158 A 
BRANCH  16  19
ATOM     19  O   UNL     1      24.870  -7.247  -7.424  1.00  0.00    -0.504 OA
ATOM     20  H   UNL     1      25.605  -7.777  -7.881  1.00  0.00     0.293 HD
ENDBRANCH  16  19
BRANCH  18  21
ATOM     21  O   UNL     1      24.946  -4.839  -6.077  1.00  0.00    -0.504 OA
ATOM     22  H   UNL     1      25.897  -4.521  -5.964  1.00  0.00     0.293 HD
ENDBRANCH  18  21
ENDBRANCH   3  13
BRANCH  10  23
ATOM     23  O   UNL     1      20.014   0.520 -12.839  1.00  0.00    -0.507 OA
ATOM     24  H   UNL     1      19.528  -0.159 -13.413  1.00  0.00     0.293 HD
ENDBRANCH  10  23
BRANCH  11  25
ATOM     25  O   UNL     1      24.624   1.944 -13.080  1.00  0.00    -0.508 OA
ATOM     26  H   UNL     1      24.962   1.911 -14.036  1.00  0.00     0.293 HD
ENDBRANCH  11  25
ENDBRANCH   1   2
BRANCH   1  27
ATOM     27  C   UNL     1      20.272  -2.636  -7.564  1.00  0.00     0.339 C 
ATOM     28  C   UNL     1      18.809  -2.768  -7.084  1.00  0.00     0.214 C 
ATOM     29  O   UNL     1      20.850  -1.348  -7.323  1.00  0.00    -0.332 OA
ATOM     30  C   UNL     1      17.926  -1.712  -7.800  1.00  0.00     0.180 C 
ATOM     31  C   UNL     1      19.913  -0.300  -7.077  1.00  0.00     0.179 C 
ATOM     32  C   UNL     1      18.708  -0.397  -8.044  1.00  0.00     0.177 C 
BRANCH  28  33
ATOM     33  O   UNL     1      18.311  -4.063  -7.325  1.00  0.00    -0.384 OA
ATOM     34  H   UNL     1      18.125  -4.466  -6.436  1.00  0.00     0.211 HD
ENDBRANCH  28  33
BRANCH  30  35
ATOM     35  O   UNL     1      17.473  -2.193  -9.045  1.00  0.00    -0.387 OA
ATOM     36  H   UNL     1      17.486  -3.188  -8.998  1.00  0.00     0.211 HD
ENDBRANCH  30  35
BRANCH  31  37
ATOM     37  C   UNL     1      20.644   1.048  -7.222  1.00  0.00     0.191 C 
BRANCH  37  38
ATOM     38  O   UNL     1      20.771   1.395  -8.575  1.00  0.00    -0.394 OA
ATOM     39  H   UNL     1      21.448   0.790  -8.964  1.00  0.00     0.210 HD
ENDBRANCH  37  38
ENDBRANCH  31  37
BRANCH  32  40
ATOM     40  O   UNL     1      17.846   0.698  -7.873  1.00  0.00    -0.387 OA
ATOM     41  H   UNL     1      16.957   0.439  -8.227  1.00  0.00     0.211 HD
ENDBRANCH  32  40
ENDBRANCH   1  27
TORSDOF 12
ENDMDL
MODEL 3
REMARK VINA RESULT:    -5.909      1.291      2.839
REMARK INTER + INTRA:         -10.482
REMARK INTER:                  -8.653
REMARK INTRA:                  -1.829
REMARK UNBOUND:                -1.809
REMARK SMILES O=c1c(O[C@H]2O[C@@H](CO)[C@H](O)[C@@H](O)[C@H]2O)c(-c2ccc(O)c(O)c2)oc2cc(O)cc(O)c12
REMARK SMILES IDX 4 1 3 2 16 3 25 4 2 5 26 6 1 7 33 8 27 9 31 10 28 11 30 12
REMARK SMILES IDX 17 13 18 14 19 15 20 16 24 17 22 18 21 19 23 21 32 23 29 25
REMARK SMILES IDX 5 27 14 28 6 29 12 30 7 31 10 32 15 33 13 35 8 37 9 38 11 40
REMARK H PARENT 21 20 23 22 32 24 29 26 15 34 13 36 9 39 11 41
REMARK Flexibility Score: inf
ROOT
ATOM      1  O   UNL     1      17.657  -0.989 -11.143  1.00  0.00    -0.454 OA
ENDROOT
BRANCH   1   2
ATOM      2  C   UNL     1      18.527  -0.974 -10.044  1.00  0.00     0.214 A 
ATOM      3  C   UNL     1      19.810  -0.404 -10.124  1.00  0.00     0.180 A 
ATOM      4  O   UNL     1      20.743  -0.748  -9.242  1.00  0.00    -0.452 OA
ATOM      5  C   UNL     1      18.189  -1.702  -8.897  1.00  0.00     0.239 A 
ATOM      6  C   UNL     1      20.496  -1.526  -8.193  1.00  0.00     0.146 A 
ATOM      7  O   UNL     1      17.028  -2.171  -8.783  1.00  0.00    -0.285 OA
ATOM      8  C   UNL     1      19.174  -1.958  -7.918  1.00  0.00     0.111 A 
ATOM      9  C   UNL     1      21.545  -1.918  -7.362  1.00  0.00     0.094 A 
ATOM     10  C   UNL     1      18.919  -2.694  -6.738  1.00  0.00     0.134 A 
ATOM     11  C   UNL     1      21.300  -2.726  -6.246  1.00  0.00     0.123 A 
ATOM     12  C   UNL     1      19.986  -3.073  -5.915  1.00  0.00     0.093 A 
BRANCH   3  13
ATOM     13  C   UNL     1      20.156   0.625 -11.110  1.00  0.00     0.025 A 
ATOM     14  C   UNL     1      20.118   1.968 -10.722  1.00  0.00     0.016 A 
ATOM     15  C   UNL     1      20.508   2.972 -11.612  1.00  0.00     0.051 A 
ATOM     16  C   UNL     1      21.000   2.630 -12.876  1.00  0.00     0.157 A 
ATOM     17  C   UNL     1      20.669   0.279 -12.371  1.00  0.00     0.062 A 
ATOM     18  C   UNL     1      21.104   1.285 -13.249  1.00  0.00     0.158 A 
BRANCH  16  19
ATOM     19  O   UNL     1      21.379   3.627 -13.770  1.00  0.00    -0.504 OA
ATOM     20  H   UNL     1      22.260   3.584 -14.271  1.00  0.00     0.293 HD
ENDBRANCH  16  19
BRANCH  18  21
ATOM     21  O   UNL     1      21.661   0.977 -14.487  1.00  0.00    -0.504 OA
ATOM     22  H   UNL     1      21.105   0.857 -15.320  1.00  0.00     0.293 HD
ENDBRANCH  18  21
ENDBRANCH   3  13
BRANCH  10  23
ATOM     23  O   UNL     1      17.620  -3.076  -6.397  1.00  0.00    -0.507 OA
ATOM     24  H   UNL     1      17.268  -2.973  -5.453  1.00  0.00     0.293 HD
ENDBRANCH  10  23
BRANCH  11  25
ATOM     25  O   UNL     1      22.358  -3.186  -5.464  1.00  0.00    -0.508 OA
ATOM     26  H   UNL     1      23.058  -2.552  -5.092  1.00  0.00     0.293 HD
ENDBRANCH  11  25
ENDBRANCH   1   2
BRANCH   1  27
ATOM     27  C   UNL     1      16.565  -0.095 -11.373  1.00  0.00     0.339 C 
ATOM     28  C   UNL     1      15.418  -0.900 -12.023  1.00  0.00     0.214 C 
ATOM     29  O   UNL     1      17.017   1.014 -12.158  1.00  0.00    -0.332 OA
ATOM     30  C   UNL     1      15.880  -1.452 -13.398  1.00  0.00     0.180 C 
ATOM     31  C   UNL     1      16.657   0.965 -13.539  1.00  0.00     0.179 C 
ATOM     32  C   UNL     1      16.838  -0.463 -14.108  1.00  0.00     0.177 C 
BRANCH  28  33
ATOM     33  O   UNL     1      15.003  -1.957 -11.189  1.00  0.00    -0.384 OA
ATOM     34  H   UNL     1      15.774  -2.173 -10.601  1.00  0.00     0.211 HD
ENDBRANCH  28  33
BRANCH  30  35
ATOM     35  O   UNL     1      16.548  -2.684 -13.249  1.00  0.00    -0.387 OA
ATOM     36  H   UNL     1      16.855  -2.964 -14.153  1.00  0.00     0.211 HD
ENDBRANCH  30  35
BRANCH  31  37
ATOM     37  C   UNL     1      17.519   1.989 -14.302  1.00  0.00     0.191 C 
BRANCH  37  38
ATOM     38  O   UNL     1      16.904   2.345 -15.511  1.00  0.00    -0.394 OA
ATOM     39  H   UNL     1      16.511   3.241 -15.380  1.00  0.00     0.210 HD
ENDBRANCH  37  38
ENDBRANCH  31  37
BRANCH  32  40
ATOM     40  O   UNL     1      16.591  -0.482 -15.489  1.00  0.00    -0.387 OA
ATOM     41  H   UNL     1      16.798  -1.393 -15.820  1.00  0.00     0.211 HD
ENDBRANCH  32  40
ENDBRANCH   1  27
TORSDOF 12
ENDMDL
MODEL 4
REMARK VINA RESULT:    -5.899      2.214      2.888
REMARK INTER + INTRA:         -10.468
REMARK INTER:                  -8.865
REMARK INTRA:                  -1.603
REMARK UNBOUND:                -1.809
REMARK SMILES O=c1c(O[C@H]2O[C@@H](CO)[C@H](O)[C@@H](O)[C@H]2O)c(-c2ccc(O)c(O)c2)oc2cc(O)cc(O)c12
REMARK SMILES IDX 4 1 3 2 16 3 25 4 2 5 26 6 1 7 33 8 27 9 31 10 28 11 30 12
REMARK SMILES IDX 17 13 18 14 19 15 20 16 24 17 22 18 21 19 23 21 32 23 29 25
REMARK SMILES IDX 5 27 14 28 6 29 12 30 7 31 10 32 15 33 13 35 8 37 9 38 11 40
REMARK H PARENT 21 20 23 22 32 24 29 26 15 34 13 36 9 39 11 41
REMARK Flexibility Score: inf
ROOT
ATOM      1  O   UNL     1      20.127  -0.985 -10.103  1.00  0.00    -0.454 OA
ENDROOT
BRANCH   1   2
ATOM      2  C   UNL     1      21.217  -1.320  -9.288  1.00  0.00     0.214 A 
ATOM      3  C   UNL     1      22.535  -1.323  -9.779  1.00  0.00     0.180 A 
ATOM      4  O   UNL     1      23.476  -2.014  -9.143  1.00  0.00    -0.452 OA
ATOM      5  C   UNL     1      20.978  -1.841  -8.011  1.00  0.00     0.239 A 
ATOM      6  C   UNL     1      23.268  -2.618  -7.977  1.00  0.00     0.146 A 
ATOM      7  O   UNL     1      19.816  -1.796  -7.532  1.00  0.00    -0.285 OA
ATOM      8  C   UNL     1      22.027  -2.472  -7.308  1.00  0.00     0.111 A 
ATOM      9  C   UNL     1      24.277  -3.400  -7.416  1.00  0.00     0.094 A 
ATOM     10  C   UNL     1      21.868  -3.035  -6.021  1.00  0.00     0.134 A 
ATOM     11  C   UNL     1      24.079  -4.033  -6.183  1.00  0.00     0.123 A 
ATOM     12  C   UNL     1      22.895  -3.812  -5.472  1.00  0.00     0.093 A 
BRANCH   3  13
ATOM     13  C   UNL     1      22.945  -0.529 -10.941  1.00  0.00     0.025 A 
ATOM     14  C   UNL     1      22.852   0.864 -10.871  1.00  0.00     0.016 A 
ATOM     15  C   UNL     1      23.299   1.656 -11.932  1.00  0.00     0.051 A 
ATOM     16  C   UNL     1      23.902   1.058 -13.043  1.00  0.00     0.157 A 
ATOM     17  C   UNL     1      23.570  -1.130 -12.046  1.00  0.00     0.062 A 
ATOM     18  C   UNL     1      24.061  -0.331 -13.092  1.00  0.00     0.158 A 
BRANCH  16  19
ATOM     19  O   UNL     1      24.339   1.843 -14.106  1.00  0.00    -0.504 OA
ATOM     20  H   UNL     1      23.893   1.800 -15.016  1.00  0.00     0.293 HD
ENDBRANCH  16  19
BRANCH  18  21
ATOM     21  O   UNL     1      24.726  -0.888 -14.181  1.00  0.00    -0.504 OA
ATOM     22  H   UNL     1      24.538  -1.821 -14.515  1.00  0.00     0.293 HD
ENDBRANCH  18  21
ENDBRANCH   3  13
BRANCH  10  23
ATOM     23  O   UNL     1      20.686  -2.852  -5.299  1.00  0.00    -0.507 OA
ATOM     24  H   UNL     1      20.071  -2.067  -5.479  1.00  0.00     0.293 HD
ENDBRANCH  10  23
BRANCH  11  25
ATOM     25  O   UNL     1      25.055  -4.880  -5.662  1.00  0.00    -0.508 OA
ATOM     26  H   UNL     1      25.814  -5.232  -6.237  1.00  0.00     0.293 HD
ENDBRANCH  11  25
ENDBRANCH   1   2
BRANCH   1  27
ATOM     27  C   UNL     1      19.570  -1.787 -11.148  1.00  0.00     0.339 C 
ATOM     28  C   UNL     1      18.693  -0.875 -12.034  1.00  0.00     0.214 C 
ATOM     29  O   UNL     1      18.865  -2.892 -10.571  1.00  0.00    -0.332 OA
ATOM     30  C   UNL     1      17.520  -0.302 -11.195  1.00  0.00     0.180 C 
ATOM     31  C   UNL     1      17.443  -2.760 -10.553  1.00  0.00     0.179 C 
ATOM     32  C   UNL     1      17.026  -1.327 -10.144  1.00  0.00     0.177 C 
BRANCH  28  33
ATOM     33  O   UNL     1      19.452   0.173 -12.590  1.00  0.00    -0.384 OA
ATOM     34  H   UNL     1      19.736  -0.130 -13.493  1.00  0.00     0.211 HD
ENDBRANCH  28  33
BRANCH  30  35
ATOM     35  O   UNL     1      17.910   0.871 -10.519  1.00  0.00    -0.387 OA
ATOM     36  H   UNL     1      18.450   0.592  -9.731  1.00  0.00     0.211 HD
ENDBRANCH  30  35
BRANCH  31  37
ATOM     37  C   UNL     1      16.871  -3.811  -9.582  1.00  0.00     0.191 C 
BRANCH  37  38
ATOM     38  O   UNL     1      17.622  -3.847  -8.398  1.00  0.00    -0.394 OA
ATOM     39  H   UNL     1      17.373  -4.677  -7.925  1.00  0.00     0.210 HD
ENDBRANCH  37  38
ENDBRANCH  31  37
BRANCH  32  40
ATOM     40  O   UNL     1      15.631  -1.233 -10.018  1.00  0.00    -0.387 OA
ATOM     41  H   UNL     1      15.399  -1.441  -9.077  1.00  0.00     0.211 HD
ENDBRANCH  32  40
ENDBRANCH   1  27
TORSDOF 12
ENDMDL
MODEL 5
REMARK VINA RESULT:    -5.813      3.089      4.814
REMARK INTER + INTRA:         -10.341
REMARK INTER:                  -8.887
REMARK INTRA:                  -1.455
REMARK UNBOUND:                -1.809
REMARK SMILES O=c1c(O[C@H]2O[C@@H](CO)[C@H](O)[C@@H](O)[C@H]2O)c(-c2ccc(O)c(O)c2)oc2cc(O)cc(O)c12
REMARK SMILES IDX 4 1 3 2 16 3 25 4 2 5 26 6 1 7 33 8 27 9 31 10 28 11 30 12
REMARK SMILES IDX 17 13 18 14 19 15 20 16 24 17 22 18 21 19 23 21 32 23 29 25
REMARK SMILES IDX 5 27 14 28 6 29 12 30 7 31 10 32 15 33 13 35 8 37 9 38 11 40
REMARK H PARENT 21 20 23 22 32 24 29 26 15 34 13 36 9 39 11 41
REMARK Flexibility Score: inf
ROOT
ATOM      1  O   UNL     1      16.095  -3.754 -12.552  1.00  0.00    -0.454 OA
ENDROOT
BRANCH   1   2
ATOM      2  C   UNL     1      16.353  -2.852 -11.511  1.00  0.00     0.214 A 
ATOM      3  C   UNL     1      16.271  -1.460 -11.701  1.00  0.00     0.180 A 
ATOM      4  O   UNL     1      16.893  -0.640 -10.860  1.00  0.00    -0.452 OA
ATOM      5  C   UNL     1      16.881  -3.332 -10.307  1.00  0.00     0.239 A 
ATOM      6  C   UNL     1      17.503  -1.061  -9.756  1.00  0.00     0.146 A 
ATOM      7  O   UNL     1      16.911  -4.572 -10.096  1.00  0.00    -0.285 OA
ATOM      8  C   UNL     1      17.436  -2.425  -9.378  1.00  0.00     0.111 A 
ATOM      9  C   UNL     1      18.213  -0.153  -8.972  1.00  0.00     0.094 A 
ATOM     10  C   UNL     1      18.001  -2.828  -8.146  1.00  0.00     0.134 A 
ATOM     11  C   UNL     1      18.850  -0.576  -7.800  1.00  0.00     0.123 A 
ATOM     12  C   UNL     1      18.705  -1.900  -7.370  1.00  0.00     0.093 A 
BRANCH   3  13
ATOM     13  C   UNL     1      15.458  -0.856 -12.761  1.00  0.00     0.025 A 
ATOM     14  C   UNL     1      14.084  -0.703 -12.551  1.00  0.00     0.016 A 
ATOM     15  C   UNL     1      13.290  -0.067 -13.509  1.00  0.00     0.051 A 
ATOM     16  C   UNL     1      13.879   0.475 -14.655  1.00  0.00     0.157 A 
ATOM     17  C   UNL     1      16.055  -0.293 -13.901  1.00  0.00     0.062 A 
ATOM     18  C   UNL     1      15.263   0.386 -14.842  1.00  0.00     0.158 A 
BRANCH  16  19
ATOM     19  O   UNL     1      13.090   1.099 -15.616  1.00  0.00    -0.504 OA
ATOM     20  H   UNL     1      12.705   2.026 -15.468  1.00  0.00     0.293 HD
ENDBRANCH  16  19
BRANCH  18  21
ATOM     21  O   UNL     1      15.826   0.996 -15.959  1.00  0.00    -0.504 OA
ATOM     22  H   UNL     1      16.714   1.474 -15.930  1.00  0.00     0.293 HD
ENDBRANCH  18  21
ENDBRANCH   3  13
BRANCH  10  23
ATOM     23  O   UNL     1      17.893  -4.149  -7.705  1.00  0.00    -0.507 OA
ATOM     24  H   UNL     1      18.675  -4.630  -7.276  1.00  0.00     0.293 HD
ENDBRANCH  10  23
BRANCH  11  25
ATOM     25  O   UNL     1      19.628   0.313  -7.060  1.00  0.00    -0.508 OA
ATOM     26  H   UNL     1      20.170   0.004  -6.260  1.00  0.00     0.293 HD
ENDBRANCH  11  25
ENDBRANCH   1   2
BRANCH   1  27
ATOM     27  C   UNL     1      16.914  -3.978 -13.703  1.00  0.00     0.339 C 
ATOM     28  C   UNL     1      16.207  -5.022 -14.597  1.00  0.00     0.214 C 
ATOM     29  O   UNL     1      18.228  -4.364 -13.284  1.00  0.00    -0.332 OA
ATOM     30  C   UNL     1      16.083  -6.366 -13.831  1.00  0.00     0.180 C 
ATOM     31  C   UNL     1      18.512  -5.759 -13.390  1.00  0.00     0.179 C 
ATOM     32  C   UNL     1      17.307  -6.607 -12.914  1.00  0.00     0.177 C 
BRANCH  28  33
ATOM     33  O   UNL     1      14.934  -4.569 -14.995  1.00  0.00    -0.384 OA
ATOM     34  H   UNL     1      14.379  -5.379 -15.148  1.00  0.00     0.211 HD
ENDBRANCH  28  33
BRANCH  30  35
ATOM     35  O   UNL     1      14.922  -6.386 -13.032  1.00  0.00    -0.387 OA
ATOM     36  H   UNL     1      14.152  -6.572 -13.636  1.00  0.00     0.211 HD
ENDBRANCH  30  35
BRANCH  31  37
ATOM     37  C   UNL     1      19.776  -6.061 -12.563  1.00  0.00     0.191 C 
BRANCH  37  38
ATOM     38  O   UNL     1      20.250  -4.893 -11.947  1.00  0.00    -0.394 OA
ATOM     39  H   UNL     1      21.224  -4.859 -12.110  1.00  0.00     0.210 HD
ENDBRANCH  37  38
ENDBRANCH  31  37
BRANCH  32  40
ATOM     40  O   UNL     1      17.631  -7.972 -12.915  1.00  0.00    -0.387 OA
ATOM     41  H   UNL     1      17.048  -8.420 -13.581  1.00  0.00     0.211 HD
ENDBRANCH  32  40
ENDBRANCH   1  27
TORSDOF 12
ENDMDL
MODEL 6
REMARK VINA RESULT:    -5.755      2.887      6.018
REMARK INTER + INTRA:         -10.256
REMARK INTER:                  -8.408
REMARK INTRA:                  -1.848
REMARK UNBOUND:                -1.809
REMARK SMILES O=c1c(O[C@H]2O[C@@H](CO)[C@H](O)[C@@H](O)[C@H]2O)c(-c2ccc(O)c(O)c2)oc2cc(O)cc(O)c12
REMARK SMILES IDX 4 1 3 2 16 3 25 4 2 5 26 6 1 7 33 8 27 9 31 10 28 11 30 12
REMARK SMILES IDX 17 13 18 14 19 15 20 16 24 17 22 18 21 19 23 21 32 23 29 25
REMARK SMILES IDX 5 27 14 28 6 29 12 30 7 31 10 32 15 33 13 35 8 37 9 38 11 40
REMARK H PARENT 21 20 23 22 32 24 29 26 15 34 13 36 9 39 11 41
REMARK Flexibility Score: inf
ROOT
ATOM      1  O   UNL     1      15.324  -1.242 -11.104  1.00  0.00    -0.454 OA
ENDROOT
BRANCH   1   2
ATOM      2  C   UNL     1      16.399  -1.774 -10.379  1.00  0.00     0.214 A 
ATOM      3  C   UNL     1      16.479  -3.145 -10.073  1.00  0.00     0.180 A 
ATOM      4  O   UNL     1      17.254  -3.554  -9.073  1.00  0.00    -0.452 OA
ATOM      5  C   UNL     1      17.320  -0.902  -9.787  1.00  0.00     0.239 A 
ATOM      6  C   UNL     1      18.069  -2.742  -8.408  1.00  0.00     0.146 A 
ATOM      7  O   UNL     1      17.300   0.319 -10.093  1.00  0.00    -0.285 OA
ATOM      8  C   UNL     1      18.211  -1.389  -8.806  1.00  0.00     0.111 A 
ATOM      9  C   UNL     1      18.782  -3.225  -7.312  1.00  0.00     0.094 A 
ATOM     10  C   UNL     1      19.163  -0.573  -8.152  1.00  0.00     0.134 A 
ATOM     11  C   UNL     1      19.654  -2.387  -6.608  1.00  0.00     0.123 A 
ATOM     12  C   UNL     1      19.873  -1.080  -7.057  1.00  0.00     0.093 A 
BRANCH   3  13
ATOM     13  C   UNL     1      15.791  -4.171 -10.862  1.00  0.00     0.025 A 
ATOM     14  C   UNL     1      16.486  -4.799 -11.899  1.00  0.00     0.016 A 
ATOM     15  C   UNL     1      15.886  -5.831 -12.627  1.00  0.00     0.051 A 
ATOM     16  C   UNL     1      14.609  -6.281 -12.277  1.00  0.00     0.157 A 
ATOM     17  C   UNL     1      14.517  -4.635 -10.494  1.00  0.00     0.062 A 
ATOM     18  C   UNL     1      13.933  -5.702 -11.197  1.00  0.00     0.158 A 
BRANCH  16  19
ATOM     19  O   UNL     1      14.005  -7.300 -13.007  1.00  0.00    -0.504 OA
ATOM     20  H   UNL     1      13.458  -7.105 -13.839  1.00  0.00     0.293 HD
ENDBRANCH  16  19
BRANCH  18  21
ATOM     21  O   UNL     1      12.693  -6.219 -10.832  1.00  0.00    -0.504 OA
ATOM     22  H   UNL     1      12.041  -5.713 -10.251  1.00  0.00     0.293 HD
ENDBRANCH  18  21
ENDBRANCH   3  13
BRANCH  10  23
ATOM     23  O   UNL     1      19.383   0.743  -8.563  1.00  0.00    -0.507 OA
ATOM     24  H   UNL     1      20.138   0.982  -9.195  1.00  0.00     0.293 HD
ENDBRANCH  10  23
BRANCH  11  25
ATOM     25  O   UNL     1      20.304  -2.846  -5.464  1.00  0.00    -0.508 OA
ATOM     26  H   UNL     1      20.662  -3.794  -5.402  1.00  0.00     0.293 HD
ENDBRANCH  11  25
ENDBRANCH   1   2
BRANCH   1  27
ATOM     27  C   UNL     1      15.104  -1.371 -12.512  1.00  0.00     0.339 C 
ATOM     28  C   UNL     1      15.409  -0.007 -13.170  1.00  0.00     0.214 C 
ATOM     29  O   UNL     1      13.772  -1.845 -12.742  1.00  0.00    -0.332 OA
ATOM     30  C   UNL     1      14.425   1.065 -12.629  1.00  0.00     0.180 C 
ATOM     31  C   UNL     1      12.839  -0.849 -13.161  1.00  0.00     0.179 C 
ATOM     32  C   UNL     1      13.027   0.459 -12.355  1.00  0.00     0.177 C 
BRANCH  28  33
ATOM     33  O   UNL     1      16.739   0.386 -12.928  1.00  0.00    -0.384 OA
ATOM     34  H   UNL     1      16.839   1.300 -13.306  1.00  0.00     0.211 HD
ENDBRANCH  28  33
BRANCH  30  35
ATOM     35  O   UNL     1      14.905   1.631 -11.430  1.00  0.00    -0.387 OA
ATOM     36  H   UNL     1      14.111   1.901 -10.894  1.00  0.00     0.211 HD
ENDBRANCH  30  35
BRANCH  31  37
ATOM     37  C   UNL     1      11.416  -1.415 -12.992  1.00  0.00     0.191 C 
BRANCH  37  38
ATOM     38  O   UNL     1      10.499  -0.674 -13.752  1.00  0.00    -0.394 OA
ATOM     39  H   UNL     1      10.869  -0.609 -14.665  1.00  0.00     0.210 HD
ENDBRANCH  37  38
ENDBRANCH  31  37
BRANCH  32  40
ATOM     40  O   UNL     1      12.037   1.396 -12.692  1.00  0.00    -0.387 OA
ATOM     41  H   UNL     1      12.480   2.143 -13.170  1.00  0.00     0.211 HD
ENDBRANCH  32  40
ENDBRANCH   1  27
TORSDOF 12
ENDMDL
MODEL 7
REMARK VINA RESULT:    -5.729      2.819      6.609
REMARK INTER + INTRA:         -10.217
REMARK INTER:                  -8.956
REMARK INTRA:                  -1.262
REMARK UNBOUND:                -1.809
REMARK SMILES O=c1c(O[C@H]2O[C@@H](CO)[C@H](O)[C@@H](O)[C@H]2O)c(-c2ccc(O)c(O)c2)oc2cc(O)cc(O)c12
REMARK SMILES IDX 4 1 3 2 16 3 25 4 2 5 26 6 1 7 33 8 27 9 31 10 28 11 30 12
REMARK SMILES IDX 17 13 18 14 19 15 20 16 24 17 22 18 21 19 23 21 32 23 29 25
REMARK SMILES IDX 5 27 14 28 6 29 12 30 7 31 10 32 15 33 13 35 8 37 9 38 11 40
REMARK H PARENT 21 20 23 22 32 24 29 26 15 34 13 36 9 39 11 41
REMARK Flexibility Score: inf
ROOT
ATOM      1  O   UNL     1      16.959  -1.711 -11.254  1.00  0.00    -0.454 OA
ENDROOT
BRANCH   1   2
ATOM      2  C   UNL     1      16.891  -2.870 -12.038  1.00  0.00     0.214 A 
ATOM      3  C   UNL     1      15.699  -3.268 -12.670  1.00  0.00     0.180 A 
ATOM      4  O   UNL     1      15.542  -4.532 -13.052  1.00  0.00    -0.452 OA
ATOM      5  C   UNL     1      17.979  -3.752 -12.048  1.00  0.00     0.239 A 
ATOM      6  C   UNL     1      16.514  -5.436 -12.980  1.00  0.00     0.146 A 
ATOM      7  O   UNL     1      19.071  -3.392 -11.538  1.00  0.00    -0.285 OA
ATOM      8  C   UNL     1      17.815  -5.056 -12.565  1.00  0.00     0.111 A 
ATOM      9  C   UNL     1      16.248  -6.763 -13.314  1.00  0.00     0.094 A 
ATOM     10  C   UNL     1      18.857  -6.010 -12.600  1.00  0.00     0.134 A 
ATOM     11  C   UNL     1      17.263  -7.725 -13.257  1.00  0.00     0.123 A 
ATOM     12  C   UNL     1      18.570  -7.337 -12.943  1.00  0.00     0.093 A 
BRANCH   3  13
ATOM     13  C   UNL     1      14.626  -2.323 -12.997  1.00  0.00     0.025 A 
ATOM     14  C   UNL     1      13.315  -2.641 -12.632  1.00  0.00     0.016 A 
ATOM     15  C   UNL     1      12.278  -1.734 -12.864  1.00  0.00     0.051 A 
ATOM     16  C   UNL     1      12.560  -0.475 -13.405  1.00  0.00     0.157 A 
ATOM     17  C   UNL     1      14.916  -1.052 -13.520  1.00  0.00     0.062 A 
ATOM     18  C   UNL     1      13.879  -0.123 -13.712  1.00  0.00     0.158 A 
BRANCH  16  19
ATOM     19  O   UNL     1      11.528   0.426 -13.648  1.00  0.00    -0.504 OA
ATOM     20  H   UNL     1      11.408   0.864 -14.556  1.00  0.00     0.293 HD
ENDBRANCH  16  19
BRANCH  18  21
ATOM     21  O   UNL     1      14.134   1.161 -14.185  1.00  0.00    -0.504 OA
ATOM     22  H   UNL     1      14.614   1.859 -13.636  1.00  0.00     0.293 HD
ENDBRANCH  18  21
ENDBRANCH   3  13
BRANCH  10  23
ATOM     23  O   UNL     1      20.166  -5.657 -12.266  1.00  0.00    -0.507 OA
ATOM     24  H   UNL     1      20.377  -4.780 -11.803  1.00  0.00     0.293 HD
ENDBRANCH  10  23
BRANCH  11  25
ATOM     25  O   UNL     1      16.978  -9.065 -13.511  1.00  0.00    -0.508 OA
ATOM     26  H   UNL     1      16.057  -9.454 -13.337  1.00  0.00     0.293 HD
ENDBRANCH  11  25
ENDBRANCH   1   2
BRANCH   1  27
ATOM     27  C   UNL     1      16.278  -1.481 -10.018  1.00  0.00     0.339 C 
ATOM     28  C   UNL     1      16.415   0.018  -9.668  1.00  0.00     0.214 C 
ATOM     29  O   UNL     1      16.801  -2.363  -9.018  1.00  0.00    -0.332 OA
ATOM     30  C   UNL     1      17.912   0.371  -9.461  1.00  0.00     0.180 C 
ATOM     31  C   UNL     1      17.705  -1.761  -8.092  1.00  0.00     0.179 C 
ATOM     32  C   UNL     1      18.684  -0.806  -8.817  1.00  0.00     0.177 C 
BRANCH  28  33
ATOM     33  O   UNL     1      15.858   0.826 -10.678  1.00  0.00    -0.384 OA
ATOM     34  H   UNL     1      16.169   0.453 -11.545  1.00  0.00     0.211 HD
ENDBRANCH  28  33
BRANCH  30  35
ATOM     35  O   UNL     1      18.530   0.687 -10.688  1.00  0.00    -0.387 OA
ATOM     36  H   UNL     1      17.827   0.640 -11.392  1.00  0.00     0.211 HD
ENDBRANCH  30  35
BRANCH  31  37
ATOM     37  C   UNL     1      18.457  -2.882  -7.349  1.00  0.00     0.191 C 
BRANCH  37  38
ATOM     38  O   UNL     1      17.920  -4.135  -7.679  1.00  0.00    -0.394 OA
ATOM     39  H   UNL     1      18.662  -4.785  -7.632  1.00  0.00     0.210 HD
ENDBRANCH  37  38
ENDBRANCH  31  37
BRANCH  32  40
ATOM     40  O   UNL     1      19.641  -0.303  -7.921  1.00  0.00    -0.387 OA
ATOM     41  H   UNL     1      19.271   0.523  -7.517  1.00  0.00     0.211 HD
ENDBRANCH  32  40
ENDBRANCH   1  27
TORSDOF 12
ENDMDL
MODEL 8
REMARK VINA RESULT:    -5.716      2.820      6.576
REMARK INTER + INTRA:         -10.199
REMARK INTER:                  -8.457
REMARK INTRA:                  -1.741
REMARK UNBOUND:                -1.809
REMARK SMILES O=c1c(O[C@H]2O[C@@H](CO)[C@H](O)[C@@H](O)[C@H]2O)c(-c2ccc(O)c(O)c2)oc2cc(O)cc(O)c12
REMARK SMILES IDX 4 1 3 2 16 3 25 4 2 5 26 6 1 7 33 8 27 9 31 10 28 11 30 12
REMARK SMILES IDX 17 13 18 14 19 15 20 16 24 17 22 18 21 19 23 21 32 23 29 25
REMARK SMILES IDX 5 27 14 28 6 29 12 30 7 31 10 32 15 33 13 35 8 37 9 38 11 40
REMARK H PARENT 21 20 23 22 32 24 29 26 15 34 13 36 9 39 11 41
REMARK Flexibility Score: inf
ROOT
ATOM      1  O   UNL     1      18.478  -3.343 -12.353  1.00  0.00    -0.454 OA
ENDROOT
BRANCH   1   2
ATOM      2  C   UNL     1      17.870  -2.086 -12.229  1.00  0.00     0.214 A 
ATOM      3  C   UNL     1      17.575  -1.527 -10.972  1.00  0.00     0.180 A 
ATOM      4  O   UNL     1      16.663  -0.565 -10.874  1.00  0.00    -0.452 OA
ATOM      5  C   UNL     1      17.379  -1.450 -13.375  1.00  0.00     0.239 A 
ATOM      6  C   UNL     1      16.087  -0.002 -11.932  1.00  0.00     0.146 A 
ATOM      7  O   UNL     1      17.679  -1.902 -14.510  1.00  0.00    -0.285 OA
ATOM      8  C   UNL     1      16.497  -0.355 -13.242  1.00  0.00     0.111 A 
ATOM      9  C   UNL     1      15.073   0.937 -11.747  1.00  0.00     0.094 A 
ATOM     10  C   UNL     1      15.947   0.334 -14.346  1.00  0.00     0.134 A 
ATOM     11  C   UNL     1      14.465   1.548 -12.849  1.00  0.00     0.123 A 
ATOM     12  C   UNL     1      14.933   1.278 -14.139  1.00  0.00     0.093 A 
BRANCH   3  13
ATOM     13  C   UNL     1      18.288  -1.913  -9.750  1.00  0.00     0.025 A 
ATOM     14  C   UNL     1      19.655  -1.635  -9.653  1.00  0.00     0.016 A 
ATOM     15  C   UNL     1      20.353  -1.924  -8.478  1.00  0.00     0.051 A 
ATOM     16  C   UNL     1      19.669  -2.435  -7.369  1.00  0.00     0.157 A 
ATOM     17  C   UNL     1      17.596  -2.405  -8.632  1.00  0.00     0.062 A 
ATOM     18  C   UNL     1      18.289  -2.653  -7.435  1.00  0.00     0.158 A 
BRANCH  16  19
ATOM     19  O   UNL     1      20.363  -2.734  -6.200  1.00  0.00    -0.504 OA
ATOM     20  H   UNL     1      19.879  -2.985  -5.345  1.00  0.00     0.293 HD
ENDBRANCH  16  19
BRANCH  18  21
ATOM     21  O   UNL     1      17.629  -3.097  -6.293  1.00  0.00    -0.504 OA
ATOM     22  H   UNL     1      17.943  -2.876  -5.360  1.00  0.00     0.293 HD
ENDBRANCH  18  21
ENDBRANCH   3  13
BRANCH  10  23
ATOM     23  O   UNL     1      16.377   0.065 -15.647  1.00  0.00    -0.507 OA
ATOM     24  H   UNL     1      16.207   0.713 -16.407  1.00  0.00     0.293 HD
ENDBRANCH  10  23
BRANCH  11  25
ATOM     25  O   UNL     1      13.396   2.424 -12.667  1.00  0.00    -0.508 OA
ATOM     26  H   UNL     1      12.827   2.736 -13.448  1.00  0.00     0.293 HD
ENDBRANCH  11  25
ENDBRANCH   1   2
BRANCH   1  27
ATOM     27  C   UNL     1      18.022  -4.566 -11.769  1.00  0.00     0.339 C 
ATOM     28  C   UNL     1      18.414  -5.722 -12.717  1.00  0.00     0.214 C 
ATOM     29  O   UNL     1      16.616  -4.475 -11.512  1.00  0.00    -0.332 OA
ATOM     30  C   UNL     1      17.694  -5.547 -14.081  1.00  0.00     0.180 C 
ATOM     31  C   UNL     1      15.783  -5.157 -12.449  1.00  0.00     0.179 C 
ATOM     32  C   UNL     1      16.283  -4.935 -13.897  1.00  0.00     0.177 C 
BRANCH  28  33
ATOM     33  O   UNL     1      19.809  -5.773 -12.905  1.00  0.00    -0.384 OA
ATOM     34  H   UNL     1      19.964  -6.287 -13.741  1.00  0.00     0.211 HD
ENDBRANCH  28  33
BRANCH  30  35
ATOM     35  O   UNL     1      18.433  -4.706 -14.936  1.00  0.00    -0.387 OA
ATOM     36  H   UNL     1      18.743  -3.932 -14.393  1.00  0.00     0.211 HD
ENDBRANCH  30  35
BRANCH  31  37
ATOM     37  C   UNL     1      14.338  -4.655 -12.269  1.00  0.00     0.191 C 
BRANCH  37  38
ATOM     38  O   UNL     1      14.104  -3.531 -13.076  1.00  0.00    -0.394 OA
ATOM     39  H   UNL     1      14.916  -2.971 -13.029  1.00  0.00     0.210 HD
ENDBRANCH  37  38
ENDBRANCH  31  37
BRANCH  32  40
ATOM     40  O   UNL     1      15.399  -5.513 -14.821  1.00  0.00    -0.387 OA
ATOM     41  H   UNL     1      14.874  -6.205 -14.343  1.00  0.00     0.211 HD
ENDBRANCH  32  40
ENDBRANCH   1  27
TORSDOF 12
ENDMDL
MODEL 9
REMARK VINA RESULT:    -5.687      2.965      5.718
REMARK INTER + INTRA:         -10.156
REMARK INTER:                  -8.568
REMARK INTRA:                  -1.588
REMARK UNBOUND:                -1.809
REMARK SMILES O=c1c(O[C@H]2O[C@@H](CO)[C@H](O)[C@@H](O)[C@H]2O)c(-c2ccc(O)c(O)c2)oc2cc(O)cc(O)c12
REMARK SMILES IDX 4 1 3 2 16 3 25 4 2 5 26 6 1 7 33 8 27 9 31 10 28 11 30 12
REMARK SMILES IDX 17 13 18 14 19 15 20 16 24 17 22 18 21 19 23 21 32 23 29 25
REMARK SMILES IDX 5 27 14 28 6 29 12 30 7 31 10 32 15 33 13 35 8 37 9 38 11 40
REMARK H PARENT 21 20 23 22 32 24 29 26 15 34 13 36 9 39 11 41
REMARK Flexibility Score: inf
ROOT
ATOM      1  O   UNL     1      16.496  -0.269 -13.705  1.00  0.00    -0.454 OA
ENDROOT
BRANCH   1   2
ATOM      2  C   UNL     1      17.041  -0.975 -12.624  1.00  0.00     0.214 A 
ATOM      3  C   UNL     1      17.040  -2.381 -12.583  1.00  0.00     0.180 A 
ATOM      4  O   UNL     1      17.177  -3.009 -11.418  1.00  0.00    -0.452 OA
ATOM      5  C   UNL     1      17.431  -0.273 -11.477  1.00  0.00     0.239 A 
ATOM      6  C   UNL     1      17.442  -2.374 -10.281  1.00  0.00     0.146 A 
ATOM      7  O   UNL     1      17.493   0.983 -11.513  1.00  0.00    -0.285 OA
ATOM      8  C   UNL     1      17.681  -0.977 -10.279  1.00  0.00     0.111 A 
ATOM      9  C   UNL     1      17.480  -3.090  -9.085  1.00  0.00     0.094 A 
ATOM     10  C   UNL     1      18.066  -0.344  -9.075  1.00  0.00     0.134 A 
ATOM     11  C   UNL     1      17.770  -2.441  -7.879  1.00  0.00     0.123 A 
ATOM     12  C   UNL     1      18.104  -1.082  -7.886  1.00  0.00     0.093 A 
BRANCH   3  13
ATOM     13  C   UNL     1      16.964  -3.206 -13.793  1.00  0.00     0.025 A 
ATOM     14  C   UNL     1      17.993  -3.115 -14.734  1.00  0.00     0.016 A 
ATOM     15  C   UNL     1      17.990  -3.936 -15.865  1.00  0.00     0.051 A 
ATOM     16  C   UNL     1      16.989  -4.899 -16.025  1.00  0.00     0.157 A 
ATOM     17  C   UNL     1      15.969  -4.187 -13.940  1.00  0.00     0.062 A 
ATOM     18  C   UNL     1      15.992  -5.042 -15.054  1.00  0.00     0.158 A 
BRANCH  16  19
ATOM     19  O   UNL     1      16.977  -5.710 -17.156  1.00  0.00    -0.504 OA
ATOM     20  H   UNL     1      17.673  -6.434 -17.297  1.00  0.00     0.293 HD
ENDBRANCH  16  19
BRANCH  18  21
ATOM     21  O   UNL     1      15.050  -6.055 -15.210  1.00  0.00    -0.504 OA
ATOM     22  H   UNL     1      14.802  -6.436 -16.111  1.00  0.00     0.293 HD
ENDBRANCH  18  21
ENDBRANCH   3  13
BRANCH  10  23
ATOM     23  O   UNL     1      18.379   1.016  -9.048  1.00  0.00    -0.507 OA
ATOM     24  H   UNL     1      18.945   1.445  -9.772  1.00  0.00     0.293 HD
ENDBRANCH  10  23
BRANCH  11  25
ATOM     25  O   UNL     1      17.727  -3.140  -6.674  1.00  0.00    -0.508 OA
ATOM     26  H   UNL     1      17.398  -4.098  -6.629  1.00  0.00     0.293 HD
ENDBRANCH  11  25
ENDBRANCH   1   2
BRANCH   1  27
ATOM     27  C   UNL     1      15.117  -0.226 -14.081  1.00  0.00     0.339 C 
ATOM     28  C   UNL     1      14.899   1.031 -14.953  1.00  0.00     0.214 C 
ATOM     29  O   UNL     1      14.303  -0.268 -12.904  1.00  0.00    -0.332 OA
ATOM     30  C   UNL     1      15.206   2.304 -14.120  1.00  0.00     0.180 C 
ATOM     31  C   UNL     1      13.749   0.987 -12.506  1.00  0.00     0.179 C 
ATOM     32  C   UNL     1      14.795   2.120 -12.638  1.00  0.00     0.177 C 
BRANCH  28  33
ATOM     33  O   UNL     1      15.708   0.996 -16.105  1.00  0.00    -0.384 OA
ATOM     34  H   UNL     1      16.645   0.890 -15.791  1.00  0.00     0.211 HD
ENDBRANCH  28  33
BRANCH  30  35
ATOM     35  O   UNL     1      16.579   2.615 -14.163  1.00  0.00    -0.387 OA
ATOM     36  H   UNL     1      16.908   2.373 -15.071  1.00  0.00     0.211 HD
ENDBRANCH  30  35
BRANCH  31  37
ATOM     37  C   UNL     1      13.242   0.855 -11.057  1.00  0.00     0.191 C 
BRANCH  37  38
ATOM     38  O   UNL     1      14.213   0.245 -10.250  1.00  0.00    -0.394 OA
ATOM     39  H   UNL     1      13.907  -0.679 -10.083  1.00  0.00     0.210 HD
ENDBRANCH  37  38
ENDBRANCH  31  37
BRANCH  32  40
ATOM     40  O   UNL     1      14.283   3.328 -12.141  1.00  0.00    -0.387 OA
ATOM     41  H   UNL     1      15.042   3.958 -12.039  1.00  0.00     0.211 HD
ENDBRANCH  32  40
ENDBRANCH   1  27
TORSDOF 12
ENDMDL
