MODEL 1
REMARK VINA RESULT:    -4.459      0.000      0.000
REMARK INTER + INTRA:         -13.696
REMARK INTER:                 -10.194
REMARK INTRA:                  -3.502
REMARK UNBOUND:                -3.502
REMARK SMILES CCCCCCCCCCCCCCCCCCCCCCCC(=O)[O-]
REMARK SMILES IDX 13 1 14 2 15 3 16 4 17 5 18 6 19 7 20 8 21 9 22 10 23 11
REMARK SMILES IDX 24 12 25 13 26 14 12 15 11 16 10 17 9 18 8 19 7 20 6 21 5 22
REMARK SMILES IDX 4 23 3 24 2 25 1 26
REMARK H PARENT
REMARK Flexibility Score: inf
ROOT
ATOM      1  C   UNL     1       9.749  13.735  22.655  1.00  0.00     0.000 C 
ENDROOT
BRANCH   1   2
ATOM      2  C   UNL     1       8.452  14.448  22.246  1.00  0.00     0.000 C 
BRANCH   2   3
ATOM      3  C   UNL     1       7.385  13.437  21.808  1.00  0.00     0.000 C 
BRANCH   3   4
ATOM      4  C   UNL     1       6.893  12.602  22.997  1.00  0.00     0.000 C 
BRANCH   4   5
ATOM      5  C   UNL     1       6.132  11.356  22.518  1.00  0.00     0.000 C 
BRANCH   5   6
ATOM      6  C   UNL     1       7.021  10.105  22.444  1.00  0.00     0.000 C 
BRANCH   6   7
ATOM      7  C   UNL     1       8.257  10.200  23.356  1.00  0.00     0.000 C 
BRANCH   7   8
ATOM      8  C   UNL     1       9.575  10.066  22.574  1.00  0.00     0.000 C 
BRANCH   8   9
ATOM      9  C   UNL     1       9.353  10.054  21.053  1.00  0.00     0.000 C 
BRANCH   9  10
ATOM     10  C   UNL     1      10.263  11.048  20.313  1.00  0.00     0.006 C 
BRANCH  10  11
ATOM     11  C   UNL     1       9.568  11.713  19.117  1.00  0.00     0.053 C 
BRANCH  11  12
ATOM     12  C   UNL     1      10.446  11.662  17.907  1.00  0.00     0.041 C 
ATOM     13  O   UNL     1      11.632  12.082  17.965  1.00  0.00    -0.550 OA
ATOM     14  O   UNL     1       9.944  11.181  16.703  1.00  0.00    -0.550 OA
ENDBRANCH  11  12
ENDBRANCH  10  11
ENDBRANCH   9  10
ENDBRANCH   8   9
ENDBRANCH   7   8
ENDBRANCH   6   7
ENDBRANCH   5   6
ENDBRANCH   4   5
ENDBRANCH   3   4
ENDBRANCH   2   3
ENDBRANCH   1   2
BRANCH   1  15
ATOM     15  C   UNL     1      10.919  14.707  22.871  1.00  0.00     0.000 C 
BRANCH  15  16
ATOM     16  C   UNL     1      10.589  16.141  22.422  1.00  0.00     0.000 C 
BRANCH  16  17
ATOM     17  C   UNL     1      11.026  17.196  23.451  1.00  0.00     0.000 C 
BRANCH  17  18
ATOM     18  C   UNL     1      11.752  16.582  24.659  1.00  0.00    -0.000 C 
BRANCH  18  19
ATOM     19  C   UNL     1      13.243  16.953  24.651  1.00  0.00    -0.000 C 
BRANCH  19  20
ATOM     20  C   UNL     1      13.477  18.470  24.557  1.00  0.00    -0.000 C 
BRANCH  20  21
ATOM     21  C   UNL     1      14.769  18.826  23.801  1.00  0.00    -0.000 C 
BRANCH  21  22
ATOM     22  C   UNL     1      14.581  19.987  22.811  1.00  0.00    -0.000 C 
BRANCH  22  23
ATOM     23  C   UNL     1      13.313  19.852  21.940  1.00  0.00    -0.000 C 
BRANCH  23  24
ATOM     24  C   UNL     1      13.624  19.255  20.557  1.00  0.00    -0.000 C 
BRANCH  24  25
ATOM     25  C   UNL     1      13.038  17.847  20.375  1.00  0.00    -0.003 C 
ATOM     26  C   UNL     1      13.977  16.747  20.870  1.00  0.00     0.004 C 
ENDBRANCH  24  25
ENDBRANCH  23  24
ENDBRANCH  22  23
ENDBRANCH  21  22
ENDBRANCH  20  21
ENDBRANCH  19  20
ENDBRANCH  18  19
ENDBRANCH  17  18
ENDBRANCH  16  17
ENDBRANCH  15  16
ENDBRANCH   1  15
TORSDOF 22
ENDMDL
MODEL 2
REMARK VINA RESULT:    -4.443      2.677      7.983
REMARK INTER + INTRA:         -13.660
REMARK INTER:                 -10.553
REMARK INTRA:                  -3.107
REMARK UNBOUND:                -3.502
REMARK SMILES CCCCCCCCCCCCCCCCCCCCCCCC(=O)[O-]
REMARK SMILES IDX 13 1 14 2 15 3 16 4 17 5 18 6 19 7 20 8 21 9 22 10 23 11
REMARK SMILES IDX 24 12 25 13 26 14 12 15 11 16 10 17 9 18 8 19 7 20 6 21 5 22
REMARK SMILES IDX 4 23 3 24 2 25 1 26
REMARK H PARENT
REMARK Flexibility Score: inf
ROOT
ATOM      1  C   UNL     1      10.175  13.603  21.846  1.00  0.00     0.000 C 
ENDROOT
BRANCH   1   2
ATOM      2  C   UNL     1      11.068  12.885  22.870  1.00  0.00     0.000 C 
BRANCH   2   3
ATOM      3  C   UNL     1      12.525  13.352  22.749  1.00  0.00     0.000 C 
BRANCH   3   4
ATOM      4  C   UNL     1      12.986  14.061  24.029  1.00  0.00     0.000 C 
BRANCH   4   5
ATOM      5  C   UNL     1      13.035  15.583  23.829  1.00  0.00     0.000 C 
BRANCH   5   6
ATOM      6  C   UNL     1      11.991  16.330  24.675  1.00  0.00     0.000 C 
BRANCH   6   7
ATOM      7  C   UNL     1      12.621  17.111  25.841  1.00  0.00     0.000 C 
BRANCH   7   8
ATOM      8  C   UNL     1      12.365  18.625  25.740  1.00  0.00     0.000 C 
BRANCH   8   9
ATOM      9  C   UNL     1      11.414  18.980  24.585  1.00  0.00     0.000 C 
BRANCH   9  10
ATOM     10  C   UNL     1      11.969  20.092  23.680  1.00  0.00     0.006 C 
BRANCH  10  11
ATOM     11  C   UNL     1      13.298  19.709  23.016  1.00  0.00     0.053 C 
BRANCH  11  12
ATOM     12  C   UNL     1      13.053  18.892  21.788  1.00  0.00     0.041 C 
ATOM     13  O   UNL     1      13.909  18.052  21.402  1.00  0.00    -0.550 OA
ATOM     14  O   UNL     1      11.891  19.079  21.047  1.00  0.00    -0.550 OA
ENDBRANCH  11  12
ENDBRANCH  10  11
ENDBRANCH   9  10
ENDBRANCH   8   9
ENDBRANCH   7   8
ENDBRANCH   6   7
ENDBRANCH   5   6
ENDBRANCH   4   5
ENDBRANCH   3   4
ENDBRANCH   2   3
ENDBRANCH   1   2
BRANCH   1  15
ATOM     15  C   UNL     1       9.062  14.430  22.505  1.00  0.00     0.000 C 
BRANCH  15  16
ATOM     16  C   UNL     1       7.654  13.944  22.117  1.00  0.00     0.000 C 
BRANCH  16  17
ATOM     17  C   UNL     1       6.863  13.408  23.322  1.00  0.00     0.000 C 
BRANCH  17  18
ATOM     18  C   UNL     1       6.161  12.074  23.025  1.00  0.00    -0.000 C 
BRANCH  18  19
ATOM     19  C   UNL     1       6.652  11.478  21.697  1.00  0.00    -0.000 C 
BRANCH  19  20
ATOM     20  C   UNL     1       7.523  10.226  21.895  1.00  0.00    -0.000 C 
BRANCH  20  21
ATOM     21  C   UNL     1       8.716  10.174  20.924  1.00  0.00    -0.000 C 
BRANCH  21  22
ATOM     22  C   UNL     1       8.566  11.144  19.741  1.00  0.00    -0.000 C 
BRANCH  22  23
ATOM     23  C   UNL     1       9.528  10.839  18.572  1.00  0.00    -0.000 C 
BRANCH  23  24
ATOM     24  C   UNL     1      10.651  11.884  18.460  1.00  0.00    -0.000 C 
BRANCH  24  25
ATOM     25  C   UNL     1      11.838  11.580  19.384  1.00  0.00    -0.003 C 
ATOM     26  C   UNL     1      13.163  12.119  18.845  1.00  0.00     0.004 C 
ENDBRANCH  24  25
ENDBRANCH  23  24
ENDBRANCH  22  23
ENDBRANCH  21  22
ENDBRANCH  20  21
ENDBRANCH  19  20
ENDBRANCH  18  19
ENDBRANCH  17  18
ENDBRANCH  16  17
ENDBRANCH  15  16
ENDBRANCH   1  15
TORSDOF 22
ENDMDL
MODEL 3
REMARK VINA RESULT:    -4.443      2.749      7.983
REMARK INTER + INTRA:         -13.660
REMARK INTER:                 -10.225
REMARK INTRA:                  -3.434
REMARK UNBOUND:                -3.502
REMARK SMILES CCCCCCCCCCCCCCCCCCCCCCCC(=O)[O-]
REMARK SMILES IDX 13 1 14 2 15 3 16 4 17 5 18 6 19 7 20 8 21 9 22 10 23 11
REMARK SMILES IDX 24 12 25 13 26 14 12 15 11 16 10 17 9 18 8 19 7 20 6 21 5 22
REMARK SMILES IDX 4 23 3 24 2 25 1 26
REMARK H PARENT
REMARK Flexibility Score: inf
ROOT
ATOM      1  C   UNL     1       9.251  13.843  21.956  1.00  0.00     0.000 C 
ENDROOT
BRANCH   1   2
ATOM      2  C   UNL     1      10.253  14.285  23.033  1.00  0.00     0.000 C 
BRANCH   2   3
ATOM      3  C   UNL     1      10.808  15.682  22.726  1.00  0.00     0.000 C 
BRANCH   3   4
ATOM      4  C   UNL     1      12.303  15.622  22.391  1.00  0.00     0.000 C 
BRANCH   4   5
ATOM      5  C   UNL     1      13.139  15.347  23.650  1.00  0.00     0.000 C 
BRANCH   5   6
ATOM      6  C   UNL     1      13.549  16.631  24.387  1.00  0.00     0.000 C 
BRANCH   6   7
ATOM      7  C   UNL     1      12.671  16.917  25.617  1.00  0.00     0.000 C 
BRANCH   7   8
ATOM      8  C   UNL     1      12.480  18.423  25.866  1.00  0.00     0.000 C 
BRANCH   8   9
ATOM      9  C   UNL     1      11.378  19.026  24.979  1.00  0.00     0.000 C 
BRANCH   9  10
ATOM     10  C   UNL     1      11.934  19.983  23.911  1.00  0.00     0.006 C 
BRANCH  10  11
ATOM     11  C   UNL     1      12.020  19.336  22.522  1.00  0.00     0.053 C 
BRANCH  11  12
ATOM     12  C   UNL     1      13.408  19.451  21.977  1.00  0.00     0.041 C 
ATOM     13  O   UNL     1      13.832  18.613  21.136  1.00  0.00    -0.550 OA
ATOM     14  O   UNL     1      14.249  20.465  22.421  1.00  0.00    -0.550 OA
ENDBRANCH  11  12
ENDBRANCH  10  11
ENDBRANCH   9  10
ENDBRANCH   8   9
ENDBRANCH   7   8
ENDBRANCH   6   7
ENDBRANCH   5   6
ENDBRANCH   4   5
ENDBRANCH   3   4
ENDBRANCH   2   3
ENDBRANCH   1   2
BRANCH   1  15
ATOM     15  C   UNL     1       7.798  14.182  22.321  1.00  0.00     0.000 C 
BRANCH  15  16
ATOM     16  C   UNL     1       7.034  12.976  22.894  1.00  0.00     0.000 C 
BRANCH  16  17
ATOM     17  C   UNL     1       7.151  11.728  22.004  1.00  0.00     0.000 C 
BRANCH  17  18
ATOM     18  C   UNL     1       7.318  10.433  22.814  1.00  0.00    -0.000 C 
BRANCH  18  19
ATOM     19  C   UNL     1       8.750  10.304  23.357  1.00  0.00    -0.000 C 
BRANCH  19  20
ATOM     20  C   UNL     1       9.774   9.979  22.257  1.00  0.00    -0.000 C 
BRANCH  20  21
ATOM     21  C   UNL     1      11.123  10.686  22.474  1.00  0.00    -0.000 C 
BRANCH  21  22
ATOM     22  C   UNL     1      12.014  10.671  21.222  1.00  0.00    -0.000 C 
BRANCH  22  23
ATOM     23  C   UNL     1      11.852  11.927  20.339  1.00  0.00    -0.000 C 
BRANCH  23  24
ATOM     24  C   UNL     1      11.235  11.595  18.969  1.00  0.00    -0.000 C 
BRANCH  24  25
ATOM     25  C   UNL     1       9.708  11.751  18.955  1.00  0.00    -0.003 C 
ATOM     26  C   UNL     1       8.977  10.414  18.836  1.00  0.00     0.004 C 
ENDBRANCH  24  25
ENDBRANCH  23  24
ENDBRANCH  22  23
ENDBRANCH  21  22
ENDBRANCH  20  21
ENDBRANCH  19  20
ENDBRANCH  18  19
ENDBRANCH  17  18
ENDBRANCH  16  17
ENDBRANCH  15  16
ENDBRANCH   1  15
TORSDOF 22
ENDMDL
MODEL 4
REMARK VINA RESULT:    -4.418      2.718      8.058
REMARK INTER + INTRA:         -13.602
REMARK INTER:                 -10.659
REMARK INTRA:                  -2.943
REMARK UNBOUND:                -3.502
REMARK SMILES CCCCCCCCCCCCCCCCCCCCCCCC(=O)[O-]
REMARK SMILES IDX 13 1 14 2 15 3 16 4 17 5 18 6 19 7 20 8 21 9 22 10 23 11
REMARK SMILES IDX 24 12 25 13 26 14 12 15 11 16 10 17 9 18 8 19 7 20 6 21 5 22
REMARK SMILES IDX 4 23 3 24 2 25 1 26
REMARK H PARENT
REMARK Flexibility Score: inf
ROOT
ATOM      1  C   UNL     1       9.295  13.992  22.605  1.00  0.00     0.000 C 
ENDROOT
BRANCH   1   2
ATOM      2  C   UNL     1      10.116  15.254  22.303  1.00  0.00     0.000 C 
BRANCH   2   3
ATOM      3  C   UNL     1      11.488  15.193  22.987  1.00  0.00     0.000 C 
BRANCH   3   4
ATOM      4  C   UNL     1      11.342  15.098  24.511  1.00  0.00     0.000 C 
BRANCH   4   5
ATOM      5  C   UNL     1      12.242  16.125  25.215  1.00  0.00     0.000 C 
BRANCH   5   6
ATOM      6  C   UNL     1      12.003  17.562  24.727  1.00  0.00     0.000 C 
BRANCH   6   7
ATOM      7  C   UNL     1      13.229  18.469  24.926  1.00  0.00     0.000 C 
BRANCH   7   8
ATOM      8  C   UNL     1      14.428  18.032  24.068  1.00  0.00     0.000 C 
BRANCH   8   9
ATOM      9  C   UNL     1      14.042  17.803  22.597  1.00  0.00     0.000 C 
BRANCH   9  10
ATOM     10  C   UNL     1      13.923  19.116  21.805  1.00  0.00     0.006 C 
BRANCH  10  11
ATOM     11  C   UNL     1      15.285  19.672  21.370  1.00  0.00     0.053 C 
BRANCH  11  12
ATOM     12  C   UNL     1      15.372  19.736  19.878  1.00  0.00     0.041 C 
ATOM     13  O   UNL     1      16.088  20.610  19.320  1.00  0.00    -0.550 OA
ATOM     14  O   UNL     1      14.636  18.850  19.100  1.00  0.00    -0.550 OA
ENDBRANCH  11  12
ENDBRANCH  10  11
ENDBRANCH   9  10
ENDBRANCH   8   9
ENDBRANCH   7   8
ENDBRANCH   6   7
ENDBRANCH   5   6
ENDBRANCH   4   5
ENDBRANCH   3   4
ENDBRANCH   2   3
ENDBRANCH   1   2
BRANCH   1  15
ATOM     15  C   UNL     1       7.811  14.147  22.243  1.00  0.00     0.000 C 
BRANCH  15  16
ATOM     16  C   UNL     1       6.877  13.484  23.272  1.00  0.00     0.000 C 
BRANCH  16  17
ATOM     17  C   UNL     1       6.564  12.020  22.925  1.00  0.00     0.000 C 
BRANCH  17  18
ATOM     18  C   UNL     1       6.861  11.681  21.456  1.00  0.00    -0.000 C 
BRANCH  18  19
ATOM     19  C   UNL     1       7.747  10.430  21.348  1.00  0.00    -0.000 C 
BRANCH  19  20
ATOM     20  C   UNL     1       8.597  10.414  20.067  1.00  0.00    -0.000 C 
BRANCH  20  21
ATOM     21  C   UNL     1       8.960  11.827  19.578  1.00  0.00    -0.000 C 
BRANCH  21  22
ATOM     22  C   UNL     1      10.129  11.832  18.579  1.00  0.00    -0.000 C 
BRANCH  22  23
ATOM     23  C   UNL     1      11.490  11.500  19.228  1.00  0.00    -0.000 C 
BRANCH  23  24
ATOM     24  C   UNL     1      11.719  12.291  20.528  1.00  0.00    -0.000 C 
BRANCH  24  25
ATOM     25  C   UNL     1      12.298  11.422  21.654  1.00  0.00    -0.003 C 
ATOM     26  C   UNL     1      11.217  10.781  22.523  1.00  0.00     0.004 C 
ENDBRANCH  24  25
ENDBRANCH  23  24
ENDBRANCH  22  23
ENDBRANCH  21  22
ENDBRANCH  20  21
ENDBRANCH  19  20
ENDBRANCH  18  19
ENDBRANCH  17  18
ENDBRANCH  16  17
ENDBRANCH  15  16
ENDBRANCH   1  15
TORSDOF 22
ENDMDL
MODEL 5
REMARK VINA RESULT:    -4.388      2.385      8.059
REMARK INTER + INTRA:         -13.534
REMARK INTER:                 -10.422
REMARK INTRA:                  -3.111
REMARK UNBOUND:                -3.502
REMARK SMILES CCCCCCCCCCCCCCCCCCCCCCCC(=O)[O-]
REMARK SMILES IDX 13 1 14 2 15 3 16 4 17 5 18 6 19 7 20 8 21 9 22 10 23 11
REMARK SMILES IDX 24 12 25 13 26 14 12 15 11 16 10 17 9 18 8 19 7 20 6 21 5 22
REMARK SMILES IDX 4 23 3 24 2 25 1 26
REMARK H PARENT
REMARK Flexibility Score: inf
ROOT
ATOM      1  C   UNL     1      11.488  13.079  22.092  1.00  0.00     0.000 C 
ENDROOT
BRANCH   1   2
ATOM      2  C   UNL     1      12.100  14.423  22.514  1.00  0.00     0.000 C 
BRANCH   2   3
ATOM      3  C   UNL     1      12.486  14.408  23.999  1.00  0.00     0.000 C 
BRANCH   3   4
ATOM      4  C   UNL     1      11.481  15.206  24.839  1.00  0.00     0.000 C 
BRANCH   4   5
ATOM      5  C   UNL     1      11.576  16.708  24.532  1.00  0.00     0.000 C 
BRANCH   5   6
ATOM      6  C   UNL     1      12.624  17.428  25.395  1.00  0.00     0.000 C 
BRANCH   6   7
ATOM      7  C   UNL     1      12.330  18.930  25.557  1.00  0.00     0.000 C 
BRANCH   7   8
ATOM      8  C   UNL     1      11.556  19.509  24.360  1.00  0.00     0.000 C 
BRANCH   8   9
ATOM      9  C   UNL     1      12.490  20.106  23.294  1.00  0.00     0.000 C 
BRANCH   9  10
ATOM     10  C   UNL     1      11.973  19.887  21.863  1.00  0.00     0.006 C 
BRANCH  10  11
ATOM     11  C   UNL     1      11.818  18.402  21.509  1.00  0.00     0.053 C 
BRANCH  11  12
ATOM     12  C   UNL     1      13.125  17.835  21.051  1.00  0.00     0.041 C 
ATOM     13  O   UNL     1      13.936  17.353  21.886  1.00  0.00    -0.550 OA
ATOM     14  O   UNL     1      13.464  17.867  19.703  1.00  0.00    -0.550 OA
ENDBRANCH  11  12
ENDBRANCH  10  11
ENDBRANCH   9  10
ENDBRANCH   8   9
ENDBRANCH   7   8
ENDBRANCH   6   7
ENDBRANCH   5   6
ENDBRANCH   4   5
ENDBRANCH   3   4
ENDBRANCH   2   3
ENDBRANCH   1   2
BRANCH   1  15
ATOM     15  C   UNL     1      10.031  12.917  22.553  1.00  0.00     0.000 C 
BRANCH  15  16
ATOM     16  C   UNL     1       9.133  14.080  22.094  1.00  0.00     0.000 C 
BRANCH  16  17
ATOM     17  C   UNL     1       7.685  13.635  21.831  1.00  0.00     0.000 C 
BRANCH  17  18
ATOM     18  C   UNL     1       6.860  13.502  23.121  1.00  0.00    -0.000 C 
BRANCH  18  19
ATOM     19  C   UNL     1       6.388  12.054  23.326  1.00  0.00    -0.000 C 
BRANCH  19  20
ATOM     20  C   UNL     1       6.309  11.265  22.008  1.00  0.00    -0.000 C 
BRANCH  20  21
ATOM     21  C   UNL     1       6.986   9.885  22.102  1.00  0.00    -0.000 C 
BRANCH  21  22
ATOM     22  C   UNL     1       8.406   9.875  21.513  1.00  0.00    -0.000 C 
BRANCH  22  23
ATOM     23  C   UNL     1       8.463  10.342  20.043  1.00  0.00    -0.000 C 
BRANCH  23  24
ATOM     24  C   UNL     1       9.898  10.670  19.596  1.00  0.00    -0.000 C 
BRANCH  24  25
ATOM     25  C   UNL     1       9.986  11.979  18.799  1.00  0.00    -0.003 C 
ATOM     26  C   UNL     1      11.115  11.971  17.769  1.00  0.00     0.004 C 
ENDBRANCH  24  25
ENDBRANCH  23  24
ENDBRANCH  22  23
ENDBRANCH  21  22
ENDBRANCH  20  21
ENDBRANCH  19  20
ENDBRANCH  18  19
ENDBRANCH  17  18
ENDBRANCH  16  17
ENDBRANCH  15  16
ENDBRANCH   1  15
TORSDOF 22
ENDMDL
MODEL 6
REMARK VINA RESULT:    -4.351      2.541      8.094
REMARK INTER + INTRA:         -13.450
REMARK INTER:                 -10.382
REMARK INTRA:                  -3.068
REMARK UNBOUND:                -3.502
REMARK SMILES CCCCCCCCCCCCCCCCCCCCCCCC(=O)[O-]
REMARK SMILES IDX 13 1 14 2 15 3 16 4 17 5 18 6 19 7 20 8 21 9 22 10 23 11
REMARK SMILES IDX 24 12 25 13 26 14 12 15 11 16 10 17 9 18 8 19 7 20 6 21 5 22
REMARK SMILES IDX 4 23 3 24 2 25 1 26
REMARK H PARENT
REMARK Flexibility Score: inf
ROOT
ATOM      1  C   UNL     1      11.429  15.249  22.522  1.00  0.00     0.000 C 
ENDROOT
BRANCH   1   2
ATOM      2  C   UNL     1      11.716  14.612  23.890  1.00  0.00     0.000 C 
BRANCH   2   3
ATOM      3  C   UNL     1      11.595  15.649  25.014  1.00  0.00     0.000 C 
BRANCH   3   4
ATOM      4  C   UNL     1      12.540  16.834  24.778  1.00  0.00     0.000 C 
BRANCH   4   5
ATOM      5  C   UNL     1      12.524  17.798  25.974  1.00  0.00     0.000 C 
BRANCH   5   6
ATOM      6  C   UNL     1      12.093  19.221  25.587  1.00  0.00     0.000 C 
BRANCH   6   7
ATOM      7  C   UNL     1      11.692  19.339  24.106  1.00  0.00     0.000 C 
BRANCH   7   8
ATOM      8  C   UNL     1      12.498  20.417  23.363  1.00  0.00     0.000 C 
BRANCH   8   9
ATOM      9  C   UNL     1      12.990  19.936  21.988  1.00  0.00     0.000 C 
BRANCH   9  10
ATOM     10  C   UNL     1      12.313  18.630  21.541  1.00  0.00     0.006 C 
BRANCH  10  11
ATOM     11  C   UNL     1      11.337  18.836  20.374  1.00  0.00     0.053 C 
BRANCH  11  12
ATOM     12  C   UNL     1      12.051  19.409  19.191  1.00  0.00     0.041 C 
ATOM     13  O   UNL     1      12.948  18.743  18.607  1.00  0.00    -0.550 OA
ATOM     14  O   UNL     1      11.751  20.693  18.751  1.00  0.00    -0.550 OA
ENDBRANCH  11  12
ENDBRANCH  10  11
ENDBRANCH   9  10
ENDBRANCH   8   9
ENDBRANCH   7   8
ENDBRANCH   6   7
ENDBRANCH   5   6
ENDBRANCH   4   5
ENDBRANCH   3   4
ENDBRANCH   2   3
ENDBRANCH   1   2
BRANCH   1  15
ATOM     15  C   UNL     1       9.928  15.421  22.249  1.00  0.00     0.000 C 
BRANCH  15  16
ATOM     16  C   UNL     1       9.144  14.104  22.397  1.00  0.00     0.000 C 
BRANCH  16  17
ATOM     17  C   UNL     1       7.623  14.311  22.310  1.00  0.00     0.000 C 
BRANCH  17  18
ATOM     18  C   UNL     1       6.846  13.439  23.309  1.00  0.00    -0.000 C 
BRANCH  18  19
ATOM     19  C   UNL     1       6.449  12.097  22.673  1.00  0.00    -0.000 C 
BRANCH  19  20
ATOM     20  C   UNL     1       7.452  10.974  22.984  1.00  0.00    -0.000 C 
BRANCH  20  21
ATOM     21  C   UNL     1       8.005  10.303  21.714  1.00  0.00    -0.000 C 
BRANCH  21  22
ATOM     22  C   UNL     1       7.913  11.206  20.473  1.00  0.00    -0.000 C 
BRANCH  22  23
ATOM     23  C   UNL     1       9.097  11.030  19.498  1.00  0.00    -0.000 C 
BRANCH  23  24
ATOM     24  C   UNL     1      10.305  11.896  19.893  1.00  0.00    -0.000 C 
BRANCH  24  25
ATOM     25  C   UNL     1      11.437  11.078  20.531  1.00  0.00    -0.003 C 
ATOM     26  C   UNL     1      11.615  11.374  22.020  1.00  0.00     0.004 C 
ENDBRANCH  24  25
ENDBRANCH  23  24
ENDBRANCH  22  23
ENDBRANCH  21  22
ENDBRANCH  20  21
ENDBRANCH  19  20
ENDBRANCH  18  19
ENDBRANCH  17  18
ENDBRANCH  16  17
ENDBRANCH  15  16
ENDBRANCH   1  15
TORSDOF 22
ENDMDL
MODEL 7
REMARK VINA RESULT:    -4.314      4.913      8.075
REMARK INTER + INTRA:         -13.363
REMARK INTER:                  -8.958
REMARK INTRA:                  -4.405
REMARK UNBOUND:                -3.502
REMARK SMILES CCCCCCCCCCCCCCCCCCCCCCCC(=O)[O-]
REMARK SMILES IDX 13 1 14 2 15 3 16 4 17 5 18 6 19 7 20 8 21 9 22 10 23 11
REMARK SMILES IDX 24 12 25 13 26 14 12 15 11 16 10 17 9 18 8 19 7 20 6 21 5 22
REMARK SMILES IDX 4 23 3 24 2 25 1 26
REMARK H PARENT
REMARK Flexibility Score: inf
ROOT
ATOM      1  C   UNL     1      11.113  15.455  22.711  1.00  0.00     0.000 C 
ENDROOT
BRANCH   1   2
ATOM      2  C   UNL     1      10.868  16.907  22.273  1.00  0.00     0.000 C 
BRANCH   2   3
ATOM      3  C   UNL     1      12.014  17.413  21.387  1.00  0.00     0.000 C 
BRANCH   3   4
ATOM      4  C   UNL     1      13.123  16.361  21.263  1.00  0.00     0.000 C 
BRANCH   4   5
ATOM      5  C   UNL     1      14.398  16.973  20.663  1.00  0.00     0.000 C 
BRANCH   5   6
ATOM      6  C   UNL     1      14.501  18.488  20.900  1.00  0.00     0.000 C 
BRANCH   6   7
ATOM      7  C   UNL     1      14.870  19.265  19.624  1.00  0.00     0.000 C 
BRANCH   7   8
ATOM      8  C   UNL     1      14.866  20.787  19.843  1.00  0.00     0.000 C 
BRANCH   8   9
ATOM      9  C   UNL     1      15.669  21.534  18.765  1.00  0.00     0.000 C 
BRANCH   9  10
ATOM     10  C   UNL     1      14.770  22.306  17.785  1.00  0.00     0.006 C 
BRANCH  10  11
ATOM     11  C   UNL     1      13.805  23.265  18.495  1.00  0.00     0.053 C 
BRANCH  11  12
ATOM     12  C   UNL     1      12.874  23.895  17.508  1.00  0.00     0.041 C 
ATOM     13  O   UNL     1      12.751  25.149  17.462  1.00  0.00    -0.550 OA
ATOM     14  O   UNL     1      12.115  23.098  16.659  1.00  0.00    -0.550 OA
ENDBRANCH  11  12
ENDBRANCH  10  11
ENDBRANCH   9  10
ENDBRANCH   8   9
ENDBRANCH   7   8
ENDBRANCH   6   7
ENDBRANCH   5   6
ENDBRANCH   4   5
ENDBRANCH   3   4
ENDBRANCH   2   3
ENDBRANCH   1   2
BRANCH   1  15
ATOM     15  C   UNL     1      11.095  15.283  24.237  1.00  0.00     0.000 C 
BRANCH  15  16
ATOM     16  C   UNL     1      12.504  15.327  24.855  1.00  0.00     0.000 C 
BRANCH  16  17
ATOM     17  C   UNL     1      12.873  16.723  25.383  1.00  0.00     0.000 C 
BRANCH  17  18
ATOM     18  C   UNL     1      13.951  17.414  24.532  1.00  0.00    -0.000 C 
BRANCH  18  19
ATOM     19  C   UNL     1      13.610  18.896  24.311  1.00  0.00    -0.000 C 
BRANCH  19  20
ATOM     20  C   UNL     1      12.223  19.274  24.858  1.00  0.00    -0.000 C 
BRANCH  20  21
ATOM     21  C   UNL     1      11.507  20.322  23.988  1.00  0.00    -0.000 C 
BRANCH  21  22
ATOM     22  C   UNL     1      12.360  20.796  22.800  1.00  0.00    -0.000 C 
BRANCH  22  23
ATOM     23  C   UNL     1      11.910  22.157  22.226  1.00  0.00    -0.000 C 
BRANCH  23  24
ATOM     24  C   UNL     1      11.240  22.010  20.849  1.00  0.00    -0.000 C 
BRANCH  24  25
ATOM     25  C   UNL     1      11.206  20.555  20.360  1.00  0.00    -0.003 C 
ATOM     26  C   UNL     1      11.360  20.436  18.844  1.00  0.00     0.004 C 
ENDBRANCH  24  25
ENDBRANCH  23  24
ENDBRANCH  22  23
ENDBRANCH  21  22
ENDBRANCH  20  21
ENDBRANCH  19  20
ENDBRANCH  18  19
ENDBRANCH  17  18
ENDBRANCH  16  17
ENDBRANCH  15  16
ENDBRANCH   1  15
TORSDOF 22
ENDMDL
MODEL 8
REMARK VINA RESULT:    -4.312      2.600      8.409
REMARK INTER + INTRA:         -13.359
REMARK INTER:                 -10.046
REMARK INTRA:                  -3.314
REMARK UNBOUND:                -3.502
REMARK SMILES CCCCCCCCCCCCCCCCCCCCCCCC(=O)[O-]
REMARK SMILES IDX 13 1 14 2 15 3 16 4 17 5 18 6 19 7 20 8 21 9 22 10 23 11
REMARK SMILES IDX 24 12 25 13 26 14 12 15 11 16 10 17 9 18 8 19 7 20 6 21 5 22
REMARK SMILES IDX 4 23 3 24 2 25 1 26
REMARK H PARENT
REMARK Flexibility Score: inf
ROOT
ATOM      1  C   UNL     1      10.914  14.968  22.270  1.00  0.00     0.000 C 
ENDROOT
BRANCH   1   2
ATOM      2  C   UNL     1      12.043  15.219  23.281  1.00  0.00     0.000 C 
BRANCH   2   3
ATOM      3  C   UNL     1      11.523  15.986  24.504  1.00  0.00     0.000 C 
BRANCH   3   4
ATOM      4  C   UNL     1      12.682  16.542  25.341  1.00  0.00     0.000 C 
BRANCH   4   5
ATOM      5  C   UNL     1      12.503  18.046  25.599  1.00  0.00     0.000 C 
BRANCH   5   6
ATOM      6  C   UNL     1      11.331  18.651  24.810  1.00  0.00     0.000 C 
BRANCH   6   7
ATOM      7  C   UNL     1      11.700  19.978  24.123  1.00  0.00     0.000 C 
BRANCH   7   8
ATOM      8  C   UNL     1      12.810  19.806  23.073  1.00  0.00     0.000 C 
BRANCH   8   9
ATOM      9  C   UNL     1      12.248  19.517  21.671  1.00  0.00     0.000 C 
BRANCH   9  10
ATOM     10  C   UNL     1      12.620  18.115  21.161  1.00  0.00     0.006 C 
BRANCH  10  11
ATOM     11  C   UNL     1      14.081  17.745  21.453  1.00  0.00     0.053 C 
BRANCH  11  12
ATOM     12  C   UNL     1      14.992  18.386  20.455  1.00  0.00     0.041 C 
ATOM     13  O   UNL     1      14.972  18.019  19.249  1.00  0.00    -0.550 OA
ATOM     14  O   UNL     1      15.889  19.367  20.860  1.00  0.00    -0.550 OA
ENDBRANCH  11  12
ENDBRANCH  10  11
ENDBRANCH   9  10
ENDBRANCH   8   9
ENDBRANCH   7   8
ENDBRANCH   6   7
ENDBRANCH   5   6
ENDBRANCH   4   5
ENDBRANCH   3   4
ENDBRANCH   2   3
ENDBRANCH   1   2
BRANCH   1  15
ATOM     15  C   UNL     1      10.402  13.520  22.297  1.00  0.00     0.000 C 
BRANCH  15  16
ATOM     16  C   UNL     1      11.496  12.513  22.691  1.00  0.00     0.000 C 
BRANCH  16  17
ATOM     17  C   UNL     1      11.566  11.314  21.731  1.00  0.00     0.000 C 
BRANCH  17  18
ATOM     18  C   UNL     1      12.200  11.673  20.378  1.00  0.00    -0.000 C 
BRANCH  18  19
ATOM     19  C   UNL     1      11.390  11.077  19.216  1.00  0.00    -0.000 C 
BRANCH  19  20
ATOM     20  C   UNL     1      10.066  11.822  18.973  1.00  0.00    -0.000 C 
BRANCH  20  21
ATOM     21  C   UNL     1       8.832  10.939  19.232  1.00  0.00    -0.000 C 
BRANCH  21  22
ATOM     22  C   UNL     1       8.012  11.401  20.448  1.00  0.00    -0.000 C 
BRANCH  22  23
ATOM     23  C   UNL     1       7.955  10.355  21.582  1.00  0.00    -0.000 C 
BRANCH  23  24
ATOM     24  C   UNL     1       7.692  11.003  22.953  1.00  0.00    -0.000 C 
BRANCH  24  25
ATOM     25  C   UNL     1       6.461  11.921  22.947  1.00  0.00    -0.003 C 
ATOM     26  C   UNL     1       6.815  13.389  23.184  1.00  0.00     0.004 C 
ENDBRANCH  24  25
ENDBRANCH  23  24
ENDBRANCH  22  23
ENDBRANCH  21  22
ENDBRANCH  20  21
ENDBRANCH  19  20
ENDBRANCH  18  19
ENDBRANCH  17  18
ENDBRANCH  16  17
ENDBRANCH  15  16
ENDBRANCH   1  15
TORSDOF 22
ENDMDL
MODEL 9
REMARK VINA RESULT:    -4.298      2.431      7.581
REMARK INTER + INTRA:         -13.328
REMARK INTER:                  -9.799
REMARK INTRA:                  -3.529
REMARK UNBOUND:                -3.502
REMARK SMILES CCCCCCCCCCCCCCCCCCCCCCCC(=O)[O-]
REMARK SMILES IDX 13 1 14 2 15 3 16 4 17 5 18 6 19 7 20 8 21 9 22 10 23 11
REMARK SMILES IDX 24 12 25 13 26 14 12 15 11 16 10 17 9 18 8 19 7 20 6 21 5 22
REMARK SMILES IDX 4 23 3 24 2 25 1 26
REMARK H PARENT
REMARK Flexibility Score: inf
ROOT
ATOM      1  C   UNL     1       7.828  13.934  21.910  1.00  0.00     0.000 C 
ENDROOT
BRANCH   1   2
ATOM      2  C   UNL     1       9.129  14.673  22.255  1.00  0.00     0.000 C 
BRANCH   2   3
ATOM      3  C   UNL     1      10.308  13.695  22.345  1.00  0.00     0.000 C 
BRANCH   3   4
ATOM      4  C   UNL     1      11.054  13.849  23.677  1.00  0.00     0.000 C 
BRANCH   4   5
ATOM      5  C   UNL     1      12.570  13.952  23.450  1.00  0.00     0.000 C 
BRANCH   5   6
ATOM      6  C   UNL     1      13.249  14.949  24.403  1.00  0.00     0.000 C 
BRANCH   6   7
ATOM      7  C   UNL     1      12.244  15.879  25.105  1.00  0.00     0.000 C 
BRANCH   7   8
ATOM      8  C   UNL     1      12.900  17.173  25.615  1.00  0.00     0.000 C 
BRANCH   8   9
ATOM      9  C   UNL     1      12.810  18.316  24.590  1.00  0.00     0.000 C 
BRANCH   9  10
ATOM     10  C   UNL     1      14.103  18.484  23.775  1.00  0.00     0.006 C 
BRANCH  10  11
ATOM     11  C   UNL     1      14.000  17.880  22.368  1.00  0.00     0.053 C 
BRANCH  11  12
ATOM     12  C   UNL     1      12.608  18.021  21.839  1.00  0.00     0.041 C 
ATOM     13  O   UNL     1      11.861  17.011  21.738  1.00  0.00    -0.550 OA
ATOM     14  O   UNL     1      12.142  19.264  21.426  1.00  0.00    -0.550 OA
ENDBRANCH  11  12
ENDBRANCH  10  11
ENDBRANCH   9  10
ENDBRANCH   8   9
ENDBRANCH   7   8
ENDBRANCH   6   7
ENDBRANCH   5   6
ENDBRANCH   4   5
ENDBRANCH   3   4
ENDBRANCH   2   3
ENDBRANCH   1   2
BRANCH   1  15
ATOM     15  C   UNL     1       7.023  13.534  23.155  1.00  0.00     0.000 C 
BRANCH  15  16
ATOM     16  C   UNL     1       6.412  12.126  23.039  1.00  0.00     0.000 C 
BRANCH  16  17
ATOM     17  C   UNL     1       6.732  11.455  21.693  1.00  0.00     0.000 C 
BRANCH  17  18
ATOM     18  C   UNL     1       7.629  10.217  21.846  1.00  0.00    -0.000 C 
BRANCH  18  19
ATOM     19  C   UNL     1       8.870  10.323  20.945  1.00  0.00    -0.000 C 
BRANCH  19  20
ATOM     20  C   UNL     1       8.592  11.086  19.640  1.00  0.00    -0.000 C 
BRANCH  20  21
ATOM     21  C   UNL     1       9.771  11.978  19.211  1.00  0.00    -0.000 C 
BRANCH  21  22
ATOM     22  C   UNL     1      10.716  11.282  18.219  1.00  0.00    -0.000 C 
BRANCH  22  23
ATOM     23  C   UNL     1      12.126  11.023  18.793  1.00  0.00    -0.000 C 
BRANCH  23  24
ATOM     24  C   UNL     1      12.438  11.936  19.991  1.00  0.00    -0.000 C 
BRANCH  24  25
ATOM     25  C   UNL     1      13.204  11.209  21.105  1.00  0.00    -0.003 C 
ATOM     26  C   UNL     1      12.312  10.278  21.927  1.00  0.00     0.004 C 
ENDBRANCH  24  25
ENDBRANCH  23  24
ENDBRANCH  22  23
ENDBRANCH  21  22
ENDBRANCH  20  21
ENDBRANCH  19  20
ENDBRANCH  18  19
ENDBRANCH  17  18
ENDBRANCH  16  17
ENDBRANCH  15  16
ENDBRANCH   1  15
TORSDOF 22
ENDMDL
