MODEL 1
REMARK VINA RESULT:    -3.389      0.000      0.000
REMARK INTER + INTRA:          -6.711
REMARK INTER:                  -5.766
REMARK INTRA:                  -0.944
REMARK UNBOUND:                -0.944
REMARK SMILES CCCCCCCCCCCCCC(=O)[O-]
REMARK SMILES IDX 8 1 9 2 10 3 11 4 12 5 13 6 14 7 15 8 16 9 7 10 6 11 5 12
REMARK SMILES IDX 4 13 3 14 2 15 1 16
REMARK H PARENT
REMARK Flexibility Score: inf
ROOT
ATOM      1  C   UNL     1      15.873  15.949   7.253  1.00  0.00     0.000 C 
ENDROOT
BRANCH   1   2
ATOM      2  C   UNL     1      16.585  14.652   7.666  1.00  0.00     0.000 C 
BRANCH   2   3
ATOM      3  C   UNL     1      15.813  13.388   7.250  1.00  0.00     0.000 C 
BRANCH   3   4
ATOM      4  C   UNL     1      14.429  13.220   7.911  1.00  0.00     0.000 C 
BRANCH   4   5
ATOM      5  C   UNL     1      14.432  13.245   9.452  1.00  0.00     0.006 C 
BRANCH   5   6
ATOM      6  C   UNL     1      14.010  11.921  10.108  1.00  0.00     0.053 C 
BRANCH   6   7
ATOM      7  C   UNL     1      14.111  11.978  11.602  1.00  0.00     0.041 C 
ATOM      8  O   UNL     1      15.027  11.353  12.199  1.00  0.00    -0.550 OA
ATOM      9  O   UNL     1      13.175  12.694  12.337  1.00  0.00    -0.550 OA
ENDBRANCH   6   7
ENDBRANCH   5   6
ENDBRANCH   4   5
ENDBRANCH   3   4
ENDBRANCH   2   3
ENDBRANCH   1   2
BRANCH   1  10
ATOM     10  C   UNL     1      15.545  16.809   8.482  1.00  0.00     0.000 C 
BRANCH  10  11
ATOM     11  C   UNL     1      16.435  16.478   9.692  1.00  0.00    -0.000 C 
BRANCH  11  12
ATOM     12  C   UNL     1      16.342  17.536  10.805  1.00  0.00    -0.000 C 
BRANCH  12  13
ATOM     13  C   UNL     1      15.205  18.548  10.552  1.00  0.00    -0.000 C 
BRANCH  13  14
ATOM     14  C   UNL     1      15.610  20.007  10.819  1.00  0.00    -0.000 C 
BRANCH  14  15
ATOM     15  C   UNL     1      14.677  20.715  11.810  1.00  0.00    -0.003 C 
ATOM     16  C   UNL     1      13.410  19.901  12.052  1.00  0.00     0.004 C 
ENDBRANCH  14  15
ENDBRANCH  13  14
ENDBRANCH  12  13
ENDBRANCH  11  12
ENDBRANCH  10  11
ENDBRANCH   1  10
TORSDOF 12
ENDMDL
MODEL 2
REMARK VINA RESULT:    -3.318      2.835      6.589
REMARK INTER + INTRA:          -6.589
REMARK INTER:                  -5.783
REMARK INTRA:                  -0.806
REMARK UNBOUND:                -0.944
REMARK SMILES CCCCCCCCCCCCCC(=O)[O-]
REMARK SMILES IDX 8 1 9 2 10 3 11 4 12 5 13 6 14 7 15 8 16 9 7 10 6 11 5 12
REMARK SMILES IDX 4 13 3 14 2 15 1 16
REMARK H PARENT
REMARK Flexibility Score: inf
ROOT
ATOM      1  C   UNL     1      15.736  16.129   7.491  1.00  0.00     0.000 C 
ENDROOT
BRANCH   1   2
ATOM      2  C   UNL     1      15.622  17.049   8.715  1.00  0.00     0.000 C 
BRANCH   2   3
ATOM      3  C   UNL     1      16.712  18.134   8.753  1.00  0.00     0.000 C 
BRANCH   3   4
ATOM      4  C   UNL     1      16.609  19.123   9.932  1.00  0.00     0.000 C 
BRANCH   4   5
ATOM      5  C   UNL     1      15.260  19.115  10.678  1.00  0.00     0.006 C 
BRANCH   5   6
ATOM      6  C   UNL     1      14.841  20.480  11.246  1.00  0.00     0.053 C 
BRANCH   6   7
ATOM      7  C   UNL     1      13.681  20.364  12.186  1.00  0.00     0.041 C 
ATOM      8  O   UNL     1      13.008  21.384  12.490  1.00  0.00    -0.550 OA
ATOM      9  O   UNL     1      13.363  19.136  12.752  1.00  0.00    -0.550 OA
ENDBRANCH   6   7
ENDBRANCH   5   6
ENDBRANCH   4   5
ENDBRANCH   3   4
ENDBRANCH   2   3
ENDBRANCH   1   2
BRANCH   1  10
ATOM     10  C   UNL     1      16.935  15.180   7.629  1.00  0.00     0.000 C 
BRANCH  10  11
ATOM     11  C   UNL     1      16.515  13.704   7.725  1.00  0.00    -0.000 C 
BRANCH  11  12
ATOM     12  C   UNL     1      15.116  13.445   7.137  1.00  0.00    -0.000 C 
BRANCH  12  13
ATOM     13  C   UNL     1      14.104  13.008   8.216  1.00  0.00    -0.000 C 
BRANCH  13  14
ATOM     14  C   UNL     1      14.609  13.214   9.654  1.00  0.00    -0.000 C 
BRANCH  14  15
ATOM     15  C   UNL     1      14.059  12.171  10.636  1.00  0.00    -0.003 C 
ATOM     16  C   UNL     1      15.162  11.236  11.121  1.00  0.00     0.004 C 
ENDBRANCH  14  15
ENDBRANCH  13  14
ENDBRANCH  12  13
ENDBRANCH  11  12
ENDBRANCH  10  11
ENDBRANCH   1  10
TORSDOF 12
ENDMDL
MODEL 3
REMARK VINA RESULT:    -3.306      2.971      6.456
REMARK INTER + INTRA:          -6.570
REMARK INTER:                  -5.614
REMARK INTRA:                  -0.955
REMARK UNBOUND:                -0.944
REMARK SMILES CCCCCCCCCCCCCC(=O)[O-]
REMARK SMILES IDX 8 1 9 2 10 3 11 4 12 5 13 6 14 7 15 8 16 9 7 10 6 11 5 12
REMARK SMILES IDX 4 13 3 14 2 15 1 16
REMARK H PARENT
REMARK Flexibility Score: inf
ROOT
ATOM      1  C   UNL     1      17.064  15.364   7.589  1.00  0.00     0.000 C 
ENDROOT
BRANCH   1   2
ATOM      2  C   UNL     1      17.015  16.140   8.914  1.00  0.00     0.000 C 
BRANCH   2   3
ATOM      3  C   UNL     1      15.961  17.261   8.912  1.00  0.00     0.000 C 
BRANCH   3   4
ATOM      4  C   UNL     1      16.532  18.694   8.914  1.00  0.00     0.000 C 
BRANCH   4   5
ATOM      5  C   UNL     1      16.277  19.499  10.204  1.00  0.00     0.006 C 
BRANCH   5   6
ATOM      6  C   UNL     1      15.207  18.894  11.127  1.00  0.00     0.053 C 
BRANCH   6   7
ATOM      7  C   UNL     1      14.225  19.923  11.596  1.00  0.00     0.041 C 
ATOM      8  O   UNL     1      13.106  19.568  12.052  1.00  0.00    -0.550 OA
ATOM      9  O   UNL     1      14.531  21.274  11.499  1.00  0.00    -0.550 OA
ENDBRANCH   6   7
ENDBRANCH   5   6
ENDBRANCH   4   5
ENDBRANCH   3   4
ENDBRANCH   2   3
ENDBRANCH   1   2
BRANCH   1  10
ATOM     10  C   UNL     1      15.651  14.984   7.123  1.00  0.00     0.000 C 
BRANCH  10  11
ATOM     11  C   UNL     1      15.419  13.464   7.113  1.00  0.00    -0.000 C 
BRANCH  11  12
ATOM     12  C   UNL     1      14.240  13.037   8.004  1.00  0.00    -0.000 C 
BRANCH  12  13
ATOM     13  C   UNL     1      14.482  13.376   9.490  1.00  0.00    -0.000 C 
BRANCH  13  14
ATOM     14  C   UNL     1      13.902  12.334  10.461  1.00  0.00    -0.000 C 
BRANCH  14  15
ATOM     15  C   UNL     1      14.982  11.465  11.121  1.00  0.00    -0.003 C 
ATOM     16  C   UNL     1      16.376  12.027  10.860  1.00  0.00     0.004 C 
ENDBRANCH  14  15
ENDBRANCH  13  14
ENDBRANCH  12  13
ENDBRANCH  11  12
ENDBRANCH  10  11
ENDBRANCH   1  10
TORSDOF 12
ENDMDL
MODEL 4
REMARK VINA RESULT:    -3.241      1.012      1.716
REMARK INTER + INTRA:          -6.460
REMARK INTER:                  -5.635
REMARK INTRA:                  -0.824
REMARK UNBOUND:                -0.944
REMARK SMILES CCCCCCCCCCCCCC(=O)[O-]
REMARK SMILES IDX 8 1 9 2 10 3 11 4 12 5 13 6 14 7 15 8 16 9 7 10 6 11 5 12
REMARK SMILES IDX 4 13 3 14 2 15 1 16
REMARK H PARENT
REMARK Flexibility Score: inf
ROOT
ATOM      1  C   UNL     1      15.429  16.743   8.405  1.00  0.00     0.000 C 
ENDROOT
BRANCH   1   2
ATOM      2  C   UNL     1      15.848  15.867   7.215  1.00  0.00     0.000 C 
BRANCH   2   3
ATOM      3  C   UNL     1      16.174  14.420   7.623  1.00  0.00     0.000 C 
BRANCH   3   4
ATOM      4  C   UNL     1      15.094  13.380   7.263  1.00  0.00     0.000 C 
BRANCH   4   5
ATOM      5  C   UNL     1      14.148  12.993   8.417  1.00  0.00     0.006 C 
BRANCH   5   6
ATOM      6  C   UNL     1      14.676  13.348   9.816  1.00  0.00     0.053 C 
BRANCH   6   7
ATOM      7  C   UNL     1      14.225  12.364  10.852  1.00  0.00     0.041 C 
ATOM      8  O   UNL     1      13.262  12.643  11.613  1.00  0.00    -0.550 OA
ATOM      9  O   UNL     1      14.889  11.153  10.999  1.00  0.00    -0.550 OA
ENDBRANCH   6   7
ENDBRANCH   5   6
ENDBRANCH   4   5
ENDBRANCH   3   4
ENDBRANCH   2   3
ENDBRANCH   1   2
BRANCH   1  10
ATOM     10  C   UNL     1      16.613  17.575   8.917  1.00  0.00     0.000 C 
BRANCH  10  11
ATOM     11  C   UNL     1      16.169  18.856   9.643  1.00  0.00    -0.000 C 
BRANCH  11  12
ATOM     12  C   UNL     1      16.813  19.004  11.033  1.00  0.00    -0.000 C 
BRANCH  12  13
ATOM     13  C   UNL     1      15.860  19.674  12.046  1.00  0.00    -0.000 C 
BRANCH  13  14
ATOM     14  C   UNL     1      14.694  18.772  12.483  1.00  0.00    -0.000 C 
BRANCH  14  15
ATOM     15  C   UNL     1      13.369  19.533  12.625  1.00  0.00    -0.003 C 
ATOM     16  C   UNL     1      13.377  20.811  11.791  1.00  0.00     0.004 C 
ENDBRANCH  14  15
ENDBRANCH  13  14
ENDBRANCH  12  13
ENDBRANCH  11  12
ENDBRANCH  10  11
ENDBRANCH   1  10
TORSDOF 12
ENDMDL
MODEL 5
REMARK VINA RESULT:    -3.211      2.790      5.716
REMARK INTER + INTRA:          -6.409
REMARK INTER:                  -4.718
REMARK INTRA:                  -1.690
REMARK UNBOUND:                -0.944
REMARK SMILES CCCCCCCCCCCCCC(=O)[O-]
REMARK SMILES IDX 8 1 9 2 10 3 11 4 12 5 13 6 14 7 15 8 16 9 7 10 6 11 5 12
REMARK SMILES IDX 4 13 3 14 2 15 1 16
REMARK H PARENT
REMARK Flexibility Score: inf
ROOT
ATOM      1  C   UNL     1      15.129  13.322   6.984  1.00  0.00     0.000 C 
ENDROOT
BRANCH   1   2
ATOM      2  C   UNL     1      16.498  13.407   7.677  1.00  0.00     0.000 C 
BRANCH   2   3
ATOM      3  C   UNL     1      17.074  14.833   7.690  1.00  0.00     0.000 C 
BRANCH   3   4
ATOM      4  C   UNL     1      16.092  15.939   7.253  1.00  0.00     0.000 C 
BRANCH   4   5
ATOM      5  C   UNL     1      15.566  16.835   8.393  1.00  0.00     0.006 C 
BRANCH   5   6
ATOM      6  C   UNL     1      16.171  16.527   9.772  1.00  0.00     0.053 C 
BRANCH   6   7
ATOM      7  C   UNL     1      16.134  17.718  10.679  1.00  0.00     0.041 C 
ATOM      8  O   UNL     1      16.975  17.831  11.610  1.00  0.00    -0.550 OA
ATOM      9  O   UNL     1      15.152  18.687  10.518  1.00  0.00    -0.550 OA
ENDBRANCH   6   7
ENDBRANCH   5   6
ENDBRANCH   4   5
ENDBRANCH   3   4
ENDBRANCH   2   3
ENDBRANCH   1   2
BRANCH   1  10
ATOM     10  C   UNL     1      14.059  12.789   7.947  1.00  0.00     0.000 C 
BRANCH  10  11
ATOM     11  C   UNL     1      14.091  13.491   9.315  1.00  0.00    -0.000 C 
BRANCH  11  12
ATOM     12  C   UNL     1      14.035  12.501  10.492  1.00  0.00    -0.000 C 
BRANCH  12  13
ATOM     13  C   UNL     1      14.906  12.960  11.680  1.00  0.00    -0.000 C 
BRANCH  13  14
ATOM     14  C   UNL     1      16.405  13.044  11.348  1.00  0.00    -0.000 C 
BRANCH  14  15
ATOM     15  C   UNL     1      17.007  11.688  10.953  1.00  0.00    -0.003 C 
ATOM     16  C   UNL     1      16.819  10.658  12.062  1.00  0.00     0.004 C 
ENDBRANCH  14  15
ENDBRANCH  13  14
ENDBRANCH  12  13
ENDBRANCH  11  12
ENDBRANCH  10  11
ENDBRANCH   1  10
TORSDOF 12
ENDMDL
MODEL 6
REMARK VINA RESULT:    -3.038      2.898      6.115
REMARK INTER + INTRA:          -6.113
REMARK INTER:                  -5.105
REMARK INTRA:                  -1.008
REMARK UNBOUND:                -0.944
REMARK SMILES CCCCCCCCCCCCCC(=O)[O-]
REMARK SMILES IDX 8 1 9 2 10 3 11 4 12 5 13 6 14 7 15 8 16 9 7 10 6 11 5 12
REMARK SMILES IDX 4 13 3 14 2 15 1 16
REMARK H PARENT
REMARK Flexibility Score: inf
ROOT
ATOM      1  C   UNL     1      15.804  15.411   7.119  1.00  0.00     0.000 C 
ENDROOT
BRANCH   1   2
ATOM      2  C   UNL     1      17.125  16.164   7.339  1.00  0.00     0.000 C 
BRANCH   2   3
ATOM      3  C   UNL     1      17.039  17.207   8.467  1.00  0.00     0.000 C 
BRANCH   3   4
ATOM      4  C   UNL     1      15.643  17.369   9.102  1.00  0.00     0.000 C 
BRANCH   4   5
ATOM      5  C   UNL     1      15.634  17.994  10.512  1.00  0.00     0.006 C 
BRANCH   5   6
ATOM      6  C   UNL     1      15.539  19.528  10.524  1.00  0.00     0.053 C 
BRANCH   6   7
ATOM      7  C   UNL     1      14.609  20.024  11.588  1.00  0.00     0.041 C 
ATOM      8  O   UNL     1      13.471  19.503  11.727  1.00  0.00    -0.550 OA
ATOM      9  O   UNL     1      14.985  21.083  12.404  1.00  0.00    -0.550 OA
ENDBRANCH   6   7
ENDBRANCH   5   6
ENDBRANCH   4   5
ENDBRANCH   3   4
ENDBRANCH   2   3
ENDBRANCH   1   2
BRANCH   1  10
ATOM     10  C   UNL     1      15.980  13.908   7.380  1.00  0.00     0.000 C 
BRANCH  10  11
ATOM     11  C   UNL     1      16.793  13.619   8.652  1.00  0.00    -0.000 C 
BRANCH  11  12
ATOM     12  C   UNL     1      15.904  13.393   9.887  1.00  0.00    -0.000 C 
BRANCH  12  13
ATOM     13  C   UNL     1      14.445  13.068   9.502  1.00  0.00    -0.000 C 
BRANCH  13  14
ATOM     14  C   UNL     1      13.793  12.004  10.401  1.00  0.00    -0.000 C 
BRANCH  14  15
ATOM     15  C   UNL     1      14.351  12.006  11.830  1.00  0.00    -0.003 C 
ATOM     16  C   UNL     1      13.418  12.745  12.785  1.00  0.00     0.004 C 
ENDBRANCH  14  15
ENDBRANCH  13  14
ENDBRANCH  12  13
ENDBRANCH  11  12
ENDBRANCH  10  11
ENDBRANCH   1  10
TORSDOF 12
ENDMDL
MODEL 7
REMARK VINA RESULT:    -2.986      1.573      2.047
REMARK INTER + INTRA:          -6.026
REMARK INTER:                  -5.148
REMARK INTRA:                  -0.877
REMARK UNBOUND:                -0.944
REMARK SMILES CCCCCCCCCCCCCC(=O)[O-]
REMARK SMILES IDX 8 1 9 2 10 3 11 4 12 5 13 6 14 7 15 8 16 9 7 10 6 11 5 12
REMARK SMILES IDX 4 13 3 14 2 15 1 16
REMARK H PARENT
REMARK Flexibility Score: inf
ROOT
ATOM      1  C   UNL     1      15.978  16.537   7.872  1.00  0.00     0.000 C 
ENDROOT
BRANCH   1   2
ATOM      2  C   UNL     1      15.945  15.122   8.468  1.00  0.00     0.000 C 
BRANCH   2   3
ATOM      3  C   UNL     1      16.874  14.962   9.683  1.00  0.00     0.000 C 
BRANCH   3   4
ATOM      4  C   UNL     1      16.155  14.768  11.034  1.00  0.00     0.000 C 
BRANCH   4   5
ATOM      5  C   UNL     1      16.258  13.350  11.632  1.00  0.00     0.006 C 
BRANCH   5   6
ATOM      6  C   UNL     1      15.720  12.237  10.719  1.00  0.00     0.053 C 
BRANCH   6   7
ATOM      7  C   UNL     1      14.248  12.373  10.475  1.00  0.00     0.041 C 
ATOM      8  O   UNL     1      13.802  12.403   9.298  1.00  0.00    -0.550 OA
ATOM      9  O   UNL     1      13.373  12.501  11.546  1.00  0.00    -0.550 OA
ENDBRANCH   6   7
ENDBRANCH   5   6
ENDBRANCH   4   5
ENDBRANCH   3   4
ENDBRANCH   2   3
ENDBRANCH   1   2
BRANCH   1  10
ATOM     10  C   UNL     1      15.682  17.592   8.948  1.00  0.00     0.000 C 
BRANCH  10  11
ATOM     11  C   UNL     1      16.711  18.735   8.957  1.00  0.00    -0.000 C 
BRANCH  11  12
ATOM     12  C   UNL     1      16.741  19.496  10.294  1.00  0.00    -0.000 C 
BRANCH  12  13
ATOM     13  C   UNL     1      15.366  19.494  10.996  1.00  0.00    -0.000 C 
BRANCH  13  14
ATOM     14  C   UNL     1      14.914  20.886  11.467  1.00  0.00    -0.000 C 
BRANCH  14  15
ATOM     15  C   UNL     1      13.468  20.903  11.981  1.00  0.00    -0.003 C 
ATOM     16  C   UNL     1      13.126  19.605  12.706  1.00  0.00     0.004 C 
ENDBRANCH  14  15
ENDBRANCH  13  14
ENDBRANCH  12  13
ENDBRANCH  11  12
ENDBRANCH  10  11
ENDBRANCH   1  10
TORSDOF 12
ENDMDL
MODEL 8
REMARK VINA RESULT:    -2.915      1.373      2.169
REMARK INTER + INTRA:          -5.904
REMARK INTER:                  -5.244
REMARK INTRA:                  -0.660
REMARK UNBOUND:                -0.944
REMARK SMILES CCCCCCCCCCCCCC(=O)[O-]
REMARK SMILES IDX 8 1 9 2 10 3 11 4 12 5 13 6 14 7 15 8 16 9 7 10 6 11 5 12
REMARK SMILES IDX 4 13 3 14 2 15 1 16
REMARK H PARENT
REMARK Flexibility Score: inf
ROOT
ATOM      1  C   UNL     1      15.757  14.149   7.389  1.00  0.00     0.000 C 
ENDROOT
BRANCH   1   2
ATOM      2  C   UNL     1      15.515  13.471   8.747  1.00  0.00     0.000 C 
BRANCH   2   3
ATOM      3  C   UNL     1      14.102  12.878   8.876  1.00  0.00     0.000 C 
BRANCH   3   4
ATOM      4  C   UNL     1      13.898  11.929  10.075  1.00  0.00     0.000 C 
BRANCH   4   5
ATOM      5  C   UNL     1      13.772  12.624  11.446  1.00  0.00     0.006 C 
BRANCH   5   6
ATOM      6  C   UNL     1      14.530  11.924  12.584  1.00  0.00     0.053 C 
BRANCH   6   7
ATOM      7  C   UNL     1      15.994  11.799  12.289  1.00  0.00     0.041 C 
ATOM      8  O   UNL     1      16.682  12.827  12.057  1.00  0.00    -0.550 OA
ATOM      9  O   UNL     1      16.590  10.545  12.239  1.00  0.00    -0.550 OA
ENDBRANCH   6   7
ENDBRANCH   5   6
ENDBRANCH   4   5
ENDBRANCH   3   4
ENDBRANCH   2   3
ENDBRANCH   1   2
BRANCH   1  10
ATOM     10  C   UNL     1      16.452  15.506   7.571  1.00  0.00     0.000 C 
BRANCH  10  11
ATOM     11  C   UNL     1      15.551  16.547   8.256  1.00  0.00    -0.000 C 
BRANCH  11  12
ATOM     12  C   UNL     1      16.170  17.110   9.548  1.00  0.00    -0.000 C 
BRANCH  12  13
ATOM     13  C   UNL     1      16.359  18.640   9.483  1.00  0.00    -0.000 C 
BRANCH  13  14
ATOM     14  C   UNL     1      15.433  19.415  10.435  1.00  0.00    -0.000 C 
BRANCH  14  15
ATOM     15  C   UNL     1      16.176  20.472  11.263  1.00  0.00    -0.003 C 
ATOM     16  C   UNL     1      15.204  21.483  11.865  1.00  0.00     0.004 C 
ENDBRANCH  14  15
ENDBRANCH  13  14
ENDBRANCH  12  13
ENDBRANCH  11  12
ENDBRANCH  10  11
ENDBRANCH   1  10
TORSDOF 12
ENDMDL
