MODEL 1
REMARK VINA RESULT:    -3.192      0.000      0.000
REMARK INTER + INTRA:         -10.287
REMARK INTER:                  -6.925
REMARK INTRA:                  -3.362
REMARK UNBOUND:                -3.362
REMARK SMILES CCCCCCCCCCCCCCCCCCCCCC(=O)[O-]
REMARK SMILES IDX 12 1 11 2 10 3 9 4 8 5 7 6 6 7 5 8 4 9 3 10 2 11 1 12 13 13
REMARK SMILES IDX 14 14 15 15 16 16 17 17 18 18 19 19 20 20 21 21 22 22 23 23
REMARK SMILES IDX 24 24
REMARK H PARENT
REMARK Flexibility Score: inf
ROOT
ATOM      1  C   UNL     1      -6.080  -5.721  -2.350  1.00  0.00     0.000 C 
ENDROOT
BRANCH   1   2
ATOM      2  C   UNL     1      -6.533  -5.027  -3.639  1.00  0.00     0.000 C 
BRANCH   2   3
ATOM      3  C   UNL     1      -7.189  -3.673  -3.332  1.00  0.00     0.000 C 
BRANCH   3   4
ATOM      4  C   UNL     1      -6.913  -2.623  -4.428  1.00  0.00    -0.000 C 
BRANCH   4   5
ATOM      5  C   UNL     1      -5.543  -1.935  -4.301  1.00  0.00    -0.000 C 
BRANCH   5   6
ATOM      6  C   UNL     1      -4.609  -2.244  -5.481  1.00  0.00    -0.000 C 
BRANCH   6   7
ATOM      7  C   UNL     1      -3.134  -1.917  -5.186  1.00  0.00    -0.000 C 
BRANCH   7   8
ATOM      8  C   UNL     1      -2.241  -3.128  -4.841  1.00  0.00    -0.000 C 
BRANCH   8   9
ATOM      9  C   UNL     1      -2.994  -4.424  -4.495  1.00  0.00    -0.000 C 
BRANCH   9  10
ATOM     10  C   UNL     1      -2.324  -5.216  -3.359  1.00  0.00    -0.000 C 
BRANCH  10  11
ATOM     11  C   UNL     1      -2.382  -6.735  -3.587  1.00  0.00    -0.003 C 
ATOM     12  C   UNL     1      -2.469  -7.528  -2.283  1.00  0.00     0.004 C 
ENDBRANCH  10  11
ENDBRANCH   9  10
ENDBRANCH   8   9
ENDBRANCH   7   8
ENDBRANCH   6   7
ENDBRANCH   5   6
ENDBRANCH   4   5
ENDBRANCH   3   4
ENDBRANCH   2   3
ENDBRANCH   1   2
BRANCH   1  13
ATOM     13  C   UNL     1      -6.090  -7.247  -2.508  1.00  0.00     0.000 C 
BRANCH  13  14
ATOM     14  C   UNL     1      -5.936  -7.645  -3.982  1.00  0.00     0.000 C 
BRANCH  14  15
ATOM     15  C   UNL     1      -6.979  -8.696  -4.387  1.00  0.00     0.000 C 
BRANCH  15  16
ATOM     16  C   UNL     1      -8.377  -8.417  -3.799  1.00  0.00     0.000 C 
BRANCH  16  17
ATOM     17  C   UNL     1      -9.280  -7.510  -4.655  1.00  0.00     0.000 C 
BRANCH  17  18
ATOM     18  C   UNL     1     -10.032  -6.456  -3.827  1.00  0.00     0.000 C 
BRANCH  18  19
ATOM     19  C   UNL     1      -9.738  -6.560  -2.318  1.00  0.00     0.000 C 
BRANCH  19  20
ATOM     20  C   UNL     1      -9.962  -5.265  -1.517  1.00  0.00     0.006 C 
BRANCH  20  21
ATOM     21  C   UNL     1      -9.801  -5.462  -0.005  1.00  0.00     0.053 C 
BRANCH  21  22
ATOM     22  C   UNL     1      -9.804  -4.141   0.697  1.00  0.00     0.041 C 
ATOM     23  O   UNL     1      -9.749  -3.072   0.035  1.00  0.00    -0.550 OA
ATOM     24  O   UNL     1      -9.818  -4.091   2.084  1.00  0.00    -0.550 OA
ENDBRANCH  21  22
ENDBRANCH  20  21
ENDBRANCH  19  20
ENDBRANCH  18  19
ENDBRANCH  17  18
ENDBRANCH  16  17
ENDBRANCH  15  16
ENDBRANCH  14  15
ENDBRANCH  13  14
ENDBRANCH   1  13
TORSDOF 20
ENDMDL
MODEL 2
REMARK VINA RESULT:    -3.168      3.115      6.965
REMARK INTER + INTRA:         -10.235
REMARK INTER:                  -6.659
REMARK INTRA:                  -3.576
REMARK UNBOUND:                -3.362
REMARK SMILES CCCCCCCCCCCCCCCCCCCCCC(=O)[O-]
REMARK SMILES IDX 12 1 11 2 10 3 9 4 8 5 7 6 6 7 5 8 4 9 3 10 2 11 1 12 13 13
REMARK SMILES IDX 14 14 15 15 16 16 17 17 18 18 19 19 20 20 21 21 22 22 23 23
REMARK SMILES IDX 24 24
REMARK H PARENT
REMARK Flexibility Score: inf
ROOT
ATOM      1  C   UNL     1      -7.775  -4.416  -3.844  1.00  0.00     0.000 C 
ENDROOT
BRANCH   1   2
ATOM      2  C   UNL     1      -9.041  -5.136  -4.319  1.00  0.00     0.000 C 
BRANCH   2   3
ATOM      3  C   UNL     1     -10.000  -5.392  -3.146  1.00  0.00     0.000 C 
BRANCH   3   4
ATOM      4  C   UNL     1      -9.771  -6.769  -2.489  1.00  0.00    -0.000 C 
BRANCH   4   5
ATOM      5  C   UNL     1      -8.986  -6.705  -1.167  1.00  0.00    -0.000 C 
BRANCH   5   6
ATOM      6  C   UNL     1      -8.371  -8.057  -0.774  1.00  0.00    -0.000 C 
BRANCH   6   7
ATOM      7  C   UNL     1      -6.834  -8.023  -0.699  1.00  0.00    -0.000 C 
BRANCH   7   8
ATOM      8  C   UNL     1      -6.149  -6.968  -1.594  1.00  0.00    -0.000 C 
BRANCH   8   9
ATOM      9  C   UNL     1      -5.388  -7.527  -2.808  1.00  0.00    -0.000 C 
BRANCH   9  10
ATOM     10  C   UNL     1      -6.285  -7.699  -4.046  1.00  0.00    -0.000 C 
BRANCH  10  11
ATOM     11  C   UNL     1      -6.874  -9.114  -4.154  1.00  0.00    -0.003 C 
ATOM     12  C   UNL     1      -8.224  -9.142  -4.871  1.00  0.00     0.004 C 
ENDBRANCH  10  11
ENDBRANCH   9  10
ENDBRANCH   8   9
ENDBRANCH   7   8
ENDBRANCH   6   7
ENDBRANCH   5   6
ENDBRANCH   4   5
ENDBRANCH   3   4
ENDBRANCH   2   3
ENDBRANCH   1   2
BRANCH   1  13
ATOM     13  C   UNL     1      -8.084  -3.451  -2.692  1.00  0.00     0.000 C 
BRANCH  13  14
ATOM     14  C   UNL     1      -7.203  -2.198  -2.778  1.00  0.00     0.000 C 
BRANCH  14  15
ATOM     15  C   UNL     1      -5.800  -2.539  -3.301  1.00  0.00     0.000 C 
BRANCH  15  16
ATOM     16  C   UNL     1      -4.857  -3.066  -2.201  1.00  0.00     0.000 C 
BRANCH  16  17
ATOM     17  C   UNL     1      -3.812  -4.095  -2.670  1.00  0.00     0.000 C 
BRANCH  17  18
ATOM     18  C   UNL     1      -3.634  -4.118  -4.197  1.00  0.00     0.000 C 
BRANCH  18  19
ATOM     19  C   UNL     1      -2.230  -3.667  -4.642  1.00  0.00     0.000 C 
BRANCH  19  20
ATOM     20  C   UNL     1      -2.179  -2.317  -5.378  1.00  0.00     0.006 C 
BRANCH  20  21
ATOM     21  C   UNL     1      -2.524  -1.128  -4.472  1.00  0.00     0.053 C 
BRANCH  21  22
ATOM     22  C   UNL     1      -1.433  -0.898  -3.475  1.00  0.00     0.041 C 
ATOM     23  O   UNL     1      -0.342  -0.384  -3.838  1.00  0.00    -0.550 OA
ATOM     24  O   UNL     1      -1.601  -1.296  -2.157  1.00  0.00    -0.550 OA
ENDBRANCH  21  22
ENDBRANCH  20  21
ENDBRANCH  19  20
ENDBRANCH  18  19
ENDBRANCH  17  18
ENDBRANCH  16  17
ENDBRANCH  15  16
ENDBRANCH  14  15
ENDBRANCH  13  14
ENDBRANCH   1  13
TORSDOF 20
ENDMDL
MODEL 3
REMARK VINA RESULT:    -3.115      2.887      6.562
REMARK INTER + INTRA:         -10.119
REMARK INTER:                  -7.152
REMARK INTRA:                  -2.967
REMARK UNBOUND:                -3.362
REMARK SMILES CCCCCCCCCCCCCCCCCCCCCC(=O)[O-]
REMARK SMILES IDX 12 1 11 2 10 3 9 4 8 5 7 6 6 7 5 8 4 9 3 10 2 11 1 12 13 13
REMARK SMILES IDX 14 14 15 15 16 16 17 17 18 18 19 19 20 20 21 21 22 22 23 23
REMARK SMILES IDX 24 24
REMARK H PARENT
REMARK Flexibility Score: inf
ROOT
ATOM      1  C   UNL     1      -8.626  -8.632  -4.759  1.00  0.00     0.000 C 
ENDROOT
BRANCH   1   2
ATOM      2  C   UNL     1      -9.495  -7.372  -4.841  1.00  0.00     0.000 C 
BRANCH   2   3
ATOM      3  C   UNL     1      -9.913  -6.902  -3.439  1.00  0.00     0.000 C 
BRANCH   3   4
ATOM      4  C   UNL     1      -9.681  -5.390  -3.233  1.00  0.00    -0.000 C 
BRANCH   4   5
ATOM      5  C   UNL     1      -8.229  -4.945  -3.475  1.00  0.00    -0.000 C 
BRANCH   5   6
ATOM      6  C   UNL     1      -7.596  -4.282  -2.242  1.00  0.00    -0.000 C 
BRANCH   6   7
ATOM      7  C   UNL     1      -7.322  -5.274  -1.097  1.00  0.00    -0.000 C 
BRANCH   7   8
ATOM      8  C   UNL     1      -8.243  -5.137   0.134  1.00  0.00    -0.000 C 
BRANCH   8   9
ATOM      9  C   UNL     1      -9.086  -6.380   0.468  1.00  0.00    -0.000 C 
BRANCH   9  10
ATOM     10  C   UNL     1      -8.501  -7.673  -0.124  1.00  0.00    -0.000 C 
BRANCH  10  11
ATOM     11  C   UNL     1      -8.312  -8.772   0.934  1.00  0.00    -0.003 C 
ATOM     12  C   UNL     1      -8.685  -8.310   2.343  1.00  0.00     0.004 C 
ENDBRANCH  10  11
ENDBRANCH   9  10
ENDBRANCH   8   9
ENDBRANCH   7   8
ENDBRANCH   6   7
ENDBRANCH   5   6
ENDBRANCH   4   5
ENDBRANCH   3   4
ENDBRANCH   2   3
ENDBRANCH   1   2
BRANCH   1  13
ATOM     13  C   UNL     1      -7.854  -8.689  -3.435  1.00  0.00     0.000 C 
BRANCH  13  14
ATOM     14  C   UNL     1      -6.350  -8.853  -3.686  1.00  0.00     0.000 C 
BRANCH  14  15
ATOM     15  C   UNL     1      -5.550  -7.712  -3.043  1.00  0.00     0.000 C 
BRANCH  15  16
ATOM     16  C   UNL     1      -4.839  -6.815  -4.076  1.00  0.00     0.000 C 
BRANCH  16  17
ATOM     17  C   UNL     1      -4.365  -5.450  -3.545  1.00  0.00     0.000 C 
BRANCH  17  18
ATOM     18  C   UNL     1      -2.887  -5.450  -3.121  1.00  0.00     0.000 C 
BRANCH  18  19
ATOM     19  C   UNL     1      -2.120  -4.212  -3.623  1.00  0.00     0.000 C 
BRANCH  19  20
ATOM     20  C   UNL     1      -2.567  -3.678  -4.995  1.00  0.00     0.006 C 
BRANCH  20  21
ATOM     21  C   UNL     1      -2.363  -2.165  -5.143  1.00  0.00     0.053 C 
BRANCH  21  22
ATOM     22  C   UNL     1      -3.682  -1.459  -5.156  1.00  0.00     0.041 C 
ATOM     23  O   UNL     1      -4.635  -1.910  -5.843  1.00  0.00    -0.550 OA
ATOM     24  O   UNL     1      -3.843  -0.275  -4.449  1.00  0.00    -0.550 OA
ENDBRANCH  21  22
ENDBRANCH  20  21
ENDBRANCH  19  20
ENDBRANCH  18  19
ENDBRANCH  17  18
ENDBRANCH  16  17
ENDBRANCH  15  16
ENDBRANCH  14  15
ENDBRANCH  13  14
ENDBRANCH   1  13
TORSDOF 20
ENDMDL
MODEL 4
REMARK VINA RESULT:    -3.048      2.234      3.187
REMARK INTER + INTRA:          -9.974
REMARK INTER:                  -6.885
REMARK INTRA:                  -3.089
REMARK UNBOUND:                -3.362
REMARK SMILES CCCCCCCCCCCCCCCCCCCCCC(=O)[O-]
REMARK SMILES IDX 12 1 11 2 10 3 9 4 8 5 7 6 6 7 5 8 4 9 3 10 2 11 1 12 13 13
REMARK SMILES IDX 14 14 15 15 16 16 17 17 18 18 19 19 20 20 21 21 22 22 23 23
REMARK SMILES IDX 24 24
REMARK H PARENT
REMARK Flexibility Score: inf
ROOT
ATOM      1  C   UNL     1      -5.740  -7.469  -4.022  1.00  0.00     0.000 C 
ENDROOT
BRANCH   1   2
ATOM      2  C   UNL     1      -5.005  -6.175  -3.657  1.00  0.00     0.000 C 
BRANCH   2   3
ATOM      3  C   UNL     1      -5.969  -4.979  -3.653  1.00  0.00     0.000 C 
BRANCH   3   4
ATOM      4  C   UNL     1      -5.569  -3.906  -2.618  1.00  0.00    -0.000 C 
BRANCH   4   5
ATOM      5  C   UNL     1      -5.619  -2.468  -3.162  1.00  0.00    -0.000 C 
BRANCH   5   6
ATOM      6  C   UNL     1      -6.112  -2.398  -4.616  1.00  0.00    -0.000 C 
BRANCH   6   7
ATOM      7  C   UNL     1      -5.003  -2.010  -5.612  1.00  0.00    -0.000 C 
BRANCH   7   8
ATOM      8  C   UNL     1      -3.735  -1.393  -4.986  1.00  0.00    -0.000 C 
BRANCH   8   9
ATOM      9  C   UNL     1      -2.418  -2.117  -5.316  1.00  0.00    -0.000 C 
BRANCH   9  10
ATOM     10  C   UNL     1      -2.421  -3.590  -4.874  1.00  0.00    -0.000 C 
BRANCH  10  11
ATOM     11  C   UNL     1      -1.974  -3.767  -3.413  1.00  0.00    -0.003 C 
ATOM     12  C   UNL     1      -1.501  -5.187  -3.106  1.00  0.00     0.004 C 
ENDBRANCH  10  11
ENDBRANCH   9  10
ENDBRANCH   8   9
ENDBRANCH   7   8
ENDBRANCH   6   7
ENDBRANCH   5   6
ENDBRANCH   4   5
ENDBRANCH   3   4
ENDBRANCH   2   3
ENDBRANCH   1   2
BRANCH   1  13
ATOM     13  C   UNL     1      -6.446  -8.070  -2.800  1.00  0.00     0.000 C 
BRANCH  13  14
ATOM     14  C   UNL     1      -7.863  -8.534  -3.161  1.00  0.00     0.000 C 
BRANCH  14  15
ATOM     15  C   UNL     1      -8.691  -7.384  -3.754  1.00  0.00     0.000 C 
BRANCH  15  16
ATOM     16  C   UNL     1      -9.683  -6.772  -2.745  1.00  0.00     0.000 C 
BRANCH  16  17
ATOM     17  C   UNL     1      -9.075  -5.757  -1.760  1.00  0.00     0.000 C 
BRANCH  17  18
ATOM     18  C   UNL     1      -9.855  -5.662  -0.438  1.00  0.00     0.000 C 
BRANCH  18  19
ATOM     19  C   UNL     1      -9.078  -6.245   0.758  1.00  0.00     0.000 C 
BRANCH  19  20
ATOM     20  C   UNL     1      -7.990  -7.271   0.394  1.00  0.00     0.006 C 
BRANCH  20  21
ATOM     21  C   UNL     1      -8.437  -8.721   0.618  1.00  0.00     0.053 C 
BRANCH  21  22
ATOM     22  C   UNL     1      -8.308  -9.089   2.062  1.00  0.00     0.041 C 
ATOM     23  O   UNL     1      -9.254  -9.673   2.654  1.00  0.00    -0.550 OA
ATOM     24  O   UNL     1      -7.164  -8.743   2.768  1.00  0.00    -0.550 OA
ENDBRANCH  21  22
ENDBRANCH  20  21
ENDBRANCH  19  20
ENDBRANCH  18  19
ENDBRANCH  17  18
ENDBRANCH  16  17
ENDBRANCH  15  16
ENDBRANCH  14  15
ENDBRANCH  13  14
ENDBRANCH   1  13
TORSDOF 20
ENDMDL
MODEL 5
REMARK VINA RESULT:    -3.041      4.048      8.097
REMARK INTER + INTRA:          -9.960
REMARK INTER:                  -6.871
REMARK INTRA:                  -3.089
REMARK UNBOUND:                -3.362
REMARK SMILES CCCCCCCCCCCCCCCCCCCCCC(=O)[O-]
REMARK SMILES IDX 12 1 11 2 10 3 9 4 8 5 7 6 6 7 5 8 4 9 3 10 2 11 1 12 13 13
REMARK SMILES IDX 14 14 15 15 16 16 17 17 18 18 19 19 20 20 21 21 22 22 23 23
REMARK SMILES IDX 24 24
REMARK H PARENT
REMARK Flexibility Score: inf
ROOT
ATOM      1  C   UNL     1      -5.424  -6.067  -2.455  1.00  0.00     0.000 C 
ENDROOT
BRANCH   1   2
ATOM      2  C   UNL     1      -6.064  -6.756  -3.665  1.00  0.00     0.000 C 
BRANCH   2   3
ATOM      3  C   UNL     1      -6.345  -8.237  -3.369  1.00  0.00     0.000 C 
BRANCH   3   4
ATOM      4  C   UNL     1      -7.820  -8.616  -3.619  1.00  0.00    -0.000 C 
BRANCH   4   5
ATOM      5  C   UNL     1      -8.707  -7.429  -4.030  1.00  0.00    -0.000 C 
BRANCH   5   6
ATOM      6  C   UNL     1      -9.750  -7.067  -2.962  1.00  0.00    -0.000 C 
BRANCH   6   7
ATOM      7  C   UNL     1      -9.859  -5.551  -2.714  1.00  0.00    -0.000 C 
BRANCH   7   8
ATOM      8  C   UNL     1      -9.438  -5.077  -1.307  1.00  0.00    -0.000 C 
BRANCH   8   9
ATOM      9  C   UNL     1      -9.289  -6.188  -0.254  1.00  0.00    -0.000 C 
BRANCH   9  10
ATOM     10  C   UNL     1      -7.835  -6.372   0.216  1.00  0.00    -0.000 C 
BRANCH  10  11
ATOM     11  C   UNL     1      -7.386  -7.842   0.178  1.00  0.00    -0.003 C 
ATOM     12  C   UNL     1      -8.558  -8.818   0.066  1.00  0.00     0.004 C 
ENDBRANCH  10  11
ENDBRANCH   9  10
ENDBRANCH   8   9
ENDBRANCH   7   8
ENDBRANCH   6   7
ENDBRANCH   5   6
ENDBRANCH   4   5
ENDBRANCH   3   4
ENDBRANCH   2   3
ENDBRANCH   1   2
BRANCH   1  13
ATOM     13  C   UNL     1      -5.763  -4.572  -2.423  1.00  0.00     0.000 C 
BRANCH  13  14
ATOM     14  C   UNL     1      -6.607  -4.177  -3.642  1.00  0.00     0.000 C 
BRANCH  14  15
ATOM     15  C   UNL     1      -6.040  -2.927  -4.330  1.00  0.00     0.000 C 
BRANCH  15  16
ATOM     16  C   UNL     1      -4.504  -2.950  -4.454  1.00  0.00     0.000 C 
BRANCH  16  17
ATOM     17  C   UNL     1      -3.857  -1.613  -4.859  1.00  0.00     0.000 C 
BRANCH  17  18
ATOM     18  C   UNL     1      -2.796  -1.130  -3.857  1.00  0.00     0.000 C 
BRANCH  18  19
ATOM     19  C   UNL     1      -1.365  -1.195  -4.423  1.00  0.00     0.000 C 
BRANCH  19  20
ATOM     20  C   UNL     1      -0.963  -2.549  -5.033  1.00  0.00     0.006 C 
BRANCH  20  21
ATOM     21  C   UNL     1       0.453  -2.987  -4.637  1.00  0.00     0.053 C 
BRANCH  21  22
ATOM     22  C   UNL     1       1.410  -1.846  -4.775  1.00  0.00     0.041 C 
ATOM     23  O   UNL     1       1.781  -1.465  -5.916  1.00  0.00    -0.550 OA
ATOM     24  O   UNL     1       1.932  -1.236  -3.643  1.00  0.00    -0.550 OA
ENDBRANCH  21  22
ENDBRANCH  20  21
ENDBRANCH  19  20
ENDBRANCH  18  19
ENDBRANCH  17  18
ENDBRANCH  16  17
ENDBRANCH  15  16
ENDBRANCH  14  15
ENDBRANCH  13  14
ENDBRANCH   1  13
TORSDOF 20
ENDMDL
MODEL 6
REMARK VINA RESULT:    -3.041      3.606      6.928
REMARK INTER + INTRA:          -9.959
REMARK INTER:                  -6.301
REMARK INTRA:                  -3.658
REMARK UNBOUND:                -3.362
REMARK SMILES CCCCCCCCCCCCCCCCCCCCCC(=O)[O-]
REMARK SMILES IDX 12 1 11 2 10 3 9 4 8 5 7 6 6 7 5 8 4 9 3 10 2 11 1 12 13 13
REMARK SMILES IDX 14 14 15 15 16 16 17 17 18 18 19 19 20 20 21 21 22 22 23 23
REMARK SMILES IDX 24 24
REMARK H PARENT
REMARK Flexibility Score: inf
ROOT
ATOM      1  C   UNL     1      -5.176  -8.019  -0.750  1.00  0.00     0.000 C 
ENDROOT
BRANCH   1   2
ATOM      2  C   UNL     1      -4.943  -6.577  -0.285  1.00  0.00     0.000 C 
BRANCH   2   3
ATOM      3  C   UNL     1      -6.157  -5.693  -0.606  1.00  0.00     0.000 C 
BRANCH   3   4
ATOM      4  C   UNL     1      -5.760  -4.387  -1.324  1.00  0.00    -0.000 C 
BRANCH   4   5
ATOM      5  C   UNL     1      -6.941  -3.659  -1.990  1.00  0.00    -0.000 C 
BRANCH   5   6
ATOM      6  C   UNL     1      -6.943  -3.803  -3.520  1.00  0.00    -0.000 C 
BRANCH   6   7
ATOM      7  C   UNL     1      -8.320  -4.193  -4.087  1.00  0.00    -0.000 C 
BRANCH   7   8
ATOM      8  C   UNL     1      -8.746  -5.657  -3.852  1.00  0.00    -0.000 C 
BRANCH   8   9
ATOM      9  C   UNL     1     -10.005  -5.847  -2.988  1.00  0.00    -0.000 C 
BRANCH   9  10
ATOM     10  C   UNL     1      -9.678  -6.255  -1.541  1.00  0.00    -0.000 C 
BRANCH  10  11
ATOM     11  C   UNL     1     -10.125  -5.199  -0.517  1.00  0.00    -0.003 C 
ATOM     12  C   UNL     1      -9.494  -5.404   0.860  1.00  0.00     0.004 C 
ENDBRANCH  10  11
ENDBRANCH   9  10
ENDBRANCH   8   9
ENDBRANCH   7   8
ENDBRANCH   6   7
ENDBRANCH   5   6
ENDBRANCH   4   5
ENDBRANCH   3   4
ENDBRANCH   2   3
ENDBRANCH   1   2
BRANCH   1  13
ATOM     13  C   UNL     1      -6.221  -8.078  -1.871  1.00  0.00     0.000 C 
BRANCH  13  14
ATOM     14  C   UNL     1      -5.554  -8.340  -3.227  1.00  0.00     0.000 C 
BRANCH  14  15
ATOM     15  C   UNL     1      -5.418  -7.044  -4.040  1.00  0.00     0.000 C 
BRANCH  15  16
ATOM     16  C   UNL     1      -3.960  -6.717  -4.416  1.00  0.00     0.000 C 
BRANCH  16  17
ATOM     17  C   UNL     1      -3.021  -6.442  -3.227  1.00  0.00     0.000 C 
BRANCH  17  18
ATOM     18  C   UNL     1      -2.462  -5.010  -3.222  1.00  0.00     0.000 C 
BRANCH  18  19
ATOM     19  C   UNL     1      -3.232  -4.063  -4.161  1.00  0.00     0.000 C 
BRANCH  19  20
ATOM     20  C   UNL     1      -2.354  -3.140  -5.024  1.00  0.00     0.006 C 
BRANCH  20  21
ATOM     21  C   UNL     1      -1.953  -1.848  -4.299  1.00  0.00     0.053 C 
BRANCH  21  22
ATOM     22  C   UNL     1      -0.528  -1.504  -4.598  1.00  0.00     0.041 C 
ATOM     23  O   UNL     1       0.080  -2.082  -5.536  1.00  0.00    -0.550 OA
ATOM     24  O   UNL     1       0.143  -0.580  -3.809  1.00  0.00    -0.550 OA
ENDBRANCH  21  22
ENDBRANCH  20  21
ENDBRANCH  19  20
ENDBRANCH  18  19
ENDBRANCH  17  18
ENDBRANCH  16  17
ENDBRANCH  15  16
ENDBRANCH  14  15
ENDBRANCH  13  14
ENDBRANCH   1  13
TORSDOF 20
ENDMDL
MODEL 7
REMARK VINA RESULT:    -3.033      2.666      4.017
REMARK INTER + INTRA:          -9.941
REMARK INTER:                  -6.181
REMARK INTRA:                  -3.761
REMARK UNBOUND:                -3.362
REMARK SMILES CCCCCCCCCCCCCCCCCCCCCC(=O)[O-]
REMARK SMILES IDX 12 1 11 2 10 3 9 4 8 5 7 6 6 7 5 8 4 9 3 10 2 11 1 12 13 13
REMARK SMILES IDX 14 14 15 15 16 16 17 17 18 18 19 19 20 20 21 21 22 22 23 23
REMARK SMILES IDX 24 24
REMARK H PARENT
REMARK Flexibility Score: inf
ROOT
ATOM      1  C   UNL     1      -5.231  -6.937  -0.666  1.00  0.00     0.000 C 
ENDROOT
BRANCH   1   2
ATOM      2  C   UNL     1      -5.549  -5.458  -0.911  1.00  0.00     0.000 C 
BRANCH   2   3
ATOM      3  C   UNL     1      -6.328  -5.275  -2.222  1.00  0.00     0.000 C 
BRANCH   3   4
ATOM      4  C   UNL     1      -6.712  -3.802  -2.476  1.00  0.00    -0.000 C 
BRANCH   4   5
ATOM      5  C   UNL     1      -7.018  -3.484  -3.950  1.00  0.00    -0.000 C 
BRANCH   5   6
ATOM      6  C   UNL     1      -5.939  -2.607  -4.605  1.00  0.00    -0.000 C 
BRANCH   6   7
ATOM      7  C   UNL     1      -4.725  -2.360  -3.692  1.00  0.00    -0.000 C 
BRANCH   7   8
ATOM      8  C   UNL     1      -3.400  -2.998  -4.160  1.00  0.00    -0.000 C 
BRANCH   8   9
ATOM      9  C   UNL     1      -3.405  -4.534  -4.250  1.00  0.00    -0.000 C 
BRANCH   9  10
ATOM     10  C   UNL     1      -2.355  -5.187  -3.335  1.00  0.00    -0.000 C 
BRANCH  10  11
ATOM     11  C   UNL     1      -2.224  -6.700  -3.575  1.00  0.00    -0.003 C 
ATOM     12  C   UNL     1      -2.200  -7.507  -2.277  1.00  0.00     0.004 C 
ENDBRANCH  10  11
ENDBRANCH   9  10
ENDBRANCH   8   9
ENDBRANCH   7   8
ENDBRANCH   6   7
ENDBRANCH   5   6
ENDBRANCH   4   5
ENDBRANCH   3   4
ENDBRANCH   2   3
ENDBRANCH   1   2
BRANCH   1  13
ATOM     13  C   UNL     1      -6.493  -7.720  -0.280  1.00  0.00     0.000 C 
BRANCH  13  14
ATOM     14  C   UNL     1      -7.204  -7.058   0.908  1.00  0.00     0.000 C 
BRANCH  14  15
ATOM     15  C   UNL     1      -8.724  -7.022   0.697  1.00  0.00     0.000 C 
BRANCH  15  16
ATOM     16  C   UNL     1      -9.260  -5.605   0.411  1.00  0.00     0.000 C 
BRANCH  16  17
ATOM     17  C   UNL     1      -9.844  -5.397  -0.999  1.00  0.00     0.000 C 
BRANCH  17  18
ATOM     18  C   UNL     1      -9.802  -6.669  -1.861  1.00  0.00     0.000 C 
BRANCH  18  19
ATOM     19  C   UNL     1      -9.879  -6.371  -3.371  1.00  0.00     0.000 C 
BRANCH  19  20
ATOM     20  C   UNL     1      -9.022  -7.286  -4.262  1.00  0.00     0.006 C 
BRANCH  20  21
ATOM     21  C   UNL     1      -8.151  -8.260  -3.458  1.00  0.00     0.053 C 
BRANCH  21  22
ATOM     22  C   UNL     1      -7.011  -8.752  -4.292  1.00  0.00     0.041 C 
ATOM     23  O   UNL     1      -7.232  -9.441  -5.323  1.00  0.00    -0.550 OA
ATOM     24  O   UNL     1      -5.704  -8.493  -3.905  1.00  0.00    -0.550 OA
ENDBRANCH  21  22
ENDBRANCH  20  21
ENDBRANCH  19  20
ENDBRANCH  18  19
ENDBRANCH  17  18
ENDBRANCH  16  17
ENDBRANCH  15  16
ENDBRANCH  14  15
ENDBRANCH  13  14
ENDBRANCH   1  13
TORSDOF 20
ENDMDL
MODEL 8
REMARK VINA RESULT:    -3.013      9.397     13.042
REMARK INTER + INTRA:          -9.898
REMARK INTER:                  -5.864
REMARK INTRA:                  -4.034
REMARK UNBOUND:                -3.362
REMARK SMILES CCCCCCCCCCCCCCCCCCCCCC(=O)[O-]
REMARK SMILES IDX 12 1 11 2 10 3 9 4 8 5 7 6 6 7 5 8 4 9 3 10 2 11 1 12 13 13
REMARK SMILES IDX 14 14 15 15 16 16 17 17 18 18 19 19 20 20 21 21 22 22 23 23
REMARK SMILES IDX 24 24
REMARK H PARENT
REMARK Flexibility Score: inf
ROOT
ATOM      1  C   UNL     1      -8.181   0.108   9.317  1.00  0.00     0.000 C 
ENDROOT
BRANCH   1   2
ATOM      2  C   UNL     1      -8.610   0.688  10.670  1.00  0.00     0.000 C 
BRANCH   2   3
ATOM      3  C   UNL     1      -7.418   1.334  11.392  1.00  0.00     0.000 C 
BRANCH   3   4
ATOM      4  C   UNL     1      -6.121   1.268  10.560  1.00  0.00    -0.000 C 
BRANCH   4   5
ATOM      5  C   UNL     1      -4.849   1.073  11.404  1.00  0.00    -0.000 C 
BRANCH   5   6
ATOM      6  C   UNL     1      -4.651  -0.383  11.853  1.00  0.00    -0.000 C 
BRANCH   6   7
ATOM      7  C   UNL     1      -5.218  -1.406  10.852  1.00  0.00    -0.000 C 
BRANCH   7   8
ATOM      8  C   UNL     1      -4.169  -2.267  10.117  1.00  0.00    -0.000 C 
BRANCH   8   9
ATOM      9  C   UNL     1      -3.970  -1.935   8.628  1.00  0.00    -0.000 C 
BRANCH   9  10
ATOM     10  C   UNL     1      -5.225  -1.322   7.982  1.00  0.00    -0.000 C 
BRANCH  10  11
ATOM     11  C   UNL     1      -4.942   0.035   7.317  1.00  0.00    -0.003 C 
ATOM     12  C   UNL     1      -3.633   0.666   7.791  1.00  0.00     0.004 C 
ENDBRANCH  10  11
ENDBRANCH   9  10
ENDBRANCH   8   9
ENDBRANCH   7   8
ENDBRANCH   6   7
ENDBRANCH   5   6
ENDBRANCH   4   5
ENDBRANCH   3   4
ENDBRANCH   2   3
ENDBRANCH   1   2
BRANCH   1  13
ATOM     13  C   UNL     1      -9.032  -1.111   8.941  1.00  0.00     0.000 C 
BRANCH  13  14
ATOM     14  C   UNL     1      -9.317  -1.980  10.173  1.00  0.00     0.000 C 
BRANCH  14  15
ATOM     15  C   UNL     1      -9.020  -3.460   9.891  1.00  0.00     0.000 C 
BRANCH  15  16
ATOM     16  C   UNL     1      -7.615  -3.692   9.302  1.00  0.00     0.000 C 
BRANCH  16  17
ATOM     17  C   UNL     1      -7.536  -4.754   8.190  1.00  0.00     0.000 C 
BRANCH  17  18
ATOM     18  C   UNL     1      -8.359  -4.382   6.945  1.00  0.00     0.000 C 
BRANCH  18  19
ATOM     19  C   UNL     1      -7.612  -3.420   6.000  1.00  0.00     0.000 C 
BRANCH  19  20
ATOM     20  C   UNL     1      -8.351  -2.108   5.686  1.00  0.00     0.006 C 
BRANCH  20  21
ATOM     21  C   UNL     1      -7.804  -1.397   4.441  1.00  0.00     0.053 C 
BRANCH  21  22
ATOM     22  C   UNL     1      -7.617   0.062   4.713  1.00  0.00     0.041 C 
ATOM     23  O   UNL     1      -8.245   0.616   5.653  1.00  0.00    -0.550 OA
ATOM     24  O   UNL     1      -6.789   0.820   3.897  1.00  0.00    -0.550 OA
ENDBRANCH  21  22
ENDBRANCH  20  21
ENDBRANCH  19  20
ENDBRANCH  18  19
ENDBRANCH  17  18
ENDBRANCH  16  17
ENDBRANCH  15  16
ENDBRANCH  14  15
ENDBRANCH  13  14
ENDBRANCH   1  13
TORSDOF 20
ENDMDL
MODEL 9
REMARK VINA RESULT:    -2.987      3.137      6.278
REMARK INTER + INTRA:          -9.841
REMARK INTER:                  -5.744
REMARK INTRA:                  -4.097
REMARK UNBOUND:                -3.362
REMARK SMILES CCCCCCCCCCCCCCCCCCCCCC(=O)[O-]
REMARK SMILES IDX 12 1 11 2 10 3 9 4 8 5 7 6 6 7 5 8 4 9 3 10 2 11 1 12 13 13
REMARK SMILES IDX 14 14 15 15 16 16 17 17 18 18 19 19 20 20 21 21 22 22 23 23
REMARK SMILES IDX 24 24
REMARK H PARENT
REMARK Flexibility Score: inf
ROOT
ATOM      1  C   UNL     1      -6.017  -6.269   1.116  1.00  0.00     0.000 C 
ENDROOT
BRANCH   1   2
ATOM      2  C   UNL     1      -6.555  -7.142   2.255  1.00  0.00     0.000 C 
BRANCH   2   3
ATOM      3  C   UNL     1      -7.611  -6.385   3.075  1.00  0.00     0.000 C 
BRANCH   3   4
ATOM      4  C   UNL     1      -9.051  -6.795   2.701  1.00  0.00    -0.000 C 
BRANCH   4   5
ATOM      5  C   UNL     1      -9.815  -5.725   1.902  1.00  0.00    -0.000 C 
BRANCH   5   6
ATOM      6  C   UNL     1      -9.453  -4.294   2.327  1.00  0.00    -0.000 C 
BRANCH   6   7
ATOM      7  C   UNL     1      -9.433  -3.302   1.150  1.00  0.00    -0.000 C 
BRANCH   7   8
ATOM      8  C   UNL     1      -8.228  -3.430   0.194  1.00  0.00    -0.000 C 
BRANCH   8   9
ATOM      9  C   UNL     1      -8.579  -3.509  -1.302  1.00  0.00    -0.000 C 
BRANCH   9  10
ATOM     10  C   UNL     1      -7.370  -3.877  -2.179  1.00  0.00    -0.000 C 
BRANCH  10  11
ATOM     11  C   UNL     1      -7.577  -3.502  -3.655  1.00  0.00    -0.003 C 
ATOM     12  C   UNL     1      -6.307  -2.968  -4.316  1.00  0.00     0.004 C 
ENDBRANCH  10  11
ENDBRANCH   9  10
ENDBRANCH   8   9
ENDBRANCH   7   8
ENDBRANCH   6   7
ENDBRANCH   5   6
ENDBRANCH   4   5
ENDBRANCH   3   4
ENDBRANCH   2   3
ENDBRANCH   1   2
BRANCH   1  13
ATOM     13  C   UNL     1      -6.487  -6.786  -0.249  1.00  0.00     0.000 C 
BRANCH  13  14
ATOM     14  C   UNL     1      -7.040  -8.213  -0.132  1.00  0.00     0.000 C 
BRANCH  14  15
ATOM     15  C   UNL     1      -8.476  -8.299  -0.669  1.00  0.00     0.000 C 
BRANCH  15  16
ATOM     16  C   UNL     1      -8.976  -6.971  -1.271  1.00  0.00     0.000 C 
BRANCH  16  17
ATOM     17  C   UNL     1      -9.723  -7.098  -2.612  1.00  0.00     0.000 C 
BRANCH  17  18
ATOM     18  C   UNL     1      -8.789  -7.014  -3.830  1.00  0.00     0.000 C 
BRANCH  18  19
ATOM     19  C   UNL     1      -8.235  -8.388  -4.254  1.00  0.00     0.000 C 
BRANCH  19  20
ATOM     20  C   UNL     1      -6.712  -8.553  -4.105  1.00  0.00     0.006 C 
BRANCH  20  21
ATOM     21  C   UNL     1      -5.987  -7.223  -3.862  1.00  0.00     0.053 C 
BRANCH  21  22
ATOM     22  C   UNL     1      -4.538  -7.463  -3.579  1.00  0.00     0.041 C 
ATOM     23  O   UNL     1      -3.656  -6.962  -4.326  1.00  0.00    -0.550 OA
ATOM     24  O   UNL     1      -4.162  -8.279  -2.522  1.00  0.00    -0.550 OA
ENDBRANCH  21  22
ENDBRANCH  20  21
ENDBRANCH  19  20
ENDBRANCH  18  19
ENDBRANCH  17  18
ENDBRANCH  16  17
ENDBRANCH  15  16
ENDBRANCH  14  15
ENDBRANCH  13  14
ENDBRANCH   1  13
TORSDOF 20
ENDMDL
