MODEL 1
REMARK VINA RESULT:    -1.442      0.000      0.000
REMARK INTER + INTRA:          -5.907
REMARK INTER:                  -3.802
REMARK INTRA:                  -2.104
REMARK UNBOUND:                -2.104
REMARK SMILES CCCCCCCCCCCCCCCCCCCCCCCCCCCCCC(=O)[O-]
REMARK SMILES IDX 16 1 17 2 18 3 19 4 20 5 21 6 22 7 23 8 24 9 25 10 26 11
REMARK SMILES IDX 27 12 28 13 29 14 30 15 31 16 32 17 15 18 14 19 13 20 12 21
REMARK SMILES IDX 11 22 10 23 9 24 8 25 7 26 6 27 5 28 4 29 3 30 2 31 1 32
REMARK H PARENT
REMARK Flexibility Score: inf
ROOT
ATOM      1  C   UNL     1     -11.019  -4.348  -5.821  1.00  0.00     0.000 C 
ENDROOT
BRANCH   1   2
ATOM      2  C   UNL     1     -10.975  -3.391  -7.024  1.00  0.00     0.000 C 
BRANCH   2   3
ATOM      3  C   UNL     1     -10.973  -4.125  -8.375  1.00  0.00     0.000 C 
BRANCH   3   4
ATOM      4  C   UNL     1     -10.066  -3.454  -9.421  1.00  0.00     0.000 C 
BRANCH   4   5
ATOM      5  C   UNL     1      -9.063  -4.415 -10.093  1.00  0.00     0.000 C 
BRANCH   5   6
ATOM      6  C   UNL     1      -9.579  -5.865 -10.125  1.00  0.00     0.000 C 
BRANCH   6   7
ATOM      7  C   UNL     1      -8.682  -6.834  -9.333  1.00  0.00     0.000 C 
BRANCH   7   8
ATOM      8  C   UNL     1      -9.213  -7.148  -7.919  1.00  0.00     0.000 C 
BRANCH   8   9
ATOM      9  C   UNL     1      -8.351  -6.522  -6.812  1.00  0.00     0.000 C 
BRANCH   9  10
ATOM     10  C   UNL     1      -7.974  -7.577  -5.761  1.00  0.00     0.000 C 
BRANCH  10  11
ATOM     11  C   UNL     1      -6.621  -7.293  -5.092  1.00  0.00     0.000 C 
BRANCH  11  12
ATOM     12  C   UNL     1      -6.141  -5.850  -5.314  1.00  0.00     0.000 C 
BRANCH  12  13
ATOM     13  C   UNL     1      -4.672  -5.822  -5.759  1.00  0.00     0.006 C 
BRANCH  13  14
ATOM     14  C   UNL     1      -4.271  -4.463  -6.350  1.00  0.00     0.053 C 
BRANCH  14  15
ATOM     15  C   UNL     1      -3.237  -3.776  -5.509  1.00  0.00     0.041 C 
ATOM     16  O   UNL     1      -3.331  -2.541  -5.280  1.00  0.00    -0.550 OA
ATOM     17  O   UNL     1      -2.178  -4.499  -4.975  1.00  0.00    -0.550 OA
ENDBRANCH  14  15
ENDBRANCH  13  14
ENDBRANCH  12  13
ENDBRANCH  11  12
ENDBRANCH  10  11
ENDBRANCH   9  10
ENDBRANCH   8   9
ENDBRANCH   7   8
ENDBRANCH   6   7
ENDBRANCH   5   6
ENDBRANCH   4   5
ENDBRANCH   3   4
ENDBRANCH   2   3
ENDBRANCH   1   2
BRANCH   1  18
ATOM     18  C   UNL     1     -10.698  -3.643  -4.491  1.00  0.00     0.000 C 
BRANCH  18  19
ATOM     19  C   UNL     1     -10.279  -4.626  -3.387  1.00  0.00     0.000 C 
BRANCH  19  20
ATOM     20  C   UNL     1     -11.011  -4.369  -2.061  1.00  0.00     0.000 C 
BRANCH  20  21
ATOM     21  C   UNL     1     -10.268  -3.324  -1.214  1.00  0.00     0.000 C 
BRANCH  21  22
ATOM     22  C   UNL     1      -8.852  -3.032  -1.737  1.00  0.00     0.000 C 
BRANCH  22  23
ATOM     23  C   UNL     1      -8.107  -1.995  -0.878  1.00  0.00     0.000 C 
BRANCH  23  24
ATOM     24  C   UNL     1      -7.382  -0.932  -1.723  1.00  0.00    -0.000 C 
BRANCH  24  25
ATOM     25  C   UNL     1      -7.123   0.401  -0.998  1.00  0.00    -0.000 C 
BRANCH  25  26
ATOM     26  C   UNL     1      -8.416   1.192  -0.726  1.00  0.00    -0.000 C 
BRANCH  26  27
ATOM     27  C   UNL     1      -8.196   2.353   0.260  1.00  0.00    -0.000 C 
BRANCH  27  28
ATOM     28  C   UNL     1      -8.353   3.749  -0.387  1.00  0.00    -0.000 C 
BRANCH  28  29
ATOM     29  C   UNL     1      -8.789   4.846   0.605  1.00  0.00    -0.000 C 
BRANCH  29  30
ATOM     30  C   UNL     1      -8.583   6.287   0.105  1.00  0.00    -0.000 C 
BRANCH  30  31
ATOM     31  C   UNL     1      -9.311   6.568  -1.220  1.00  0.00    -0.003 C 
ATOM     32  C   UNL     1      -9.071   8.003  -1.679  1.00  0.00     0.004 C 
ENDBRANCH  30  31
ENDBRANCH  29  30
ENDBRANCH  28  29
ENDBRANCH  27  28
ENDBRANCH  26  27
ENDBRANCH  25  26
ENDBRANCH  24  25
ENDBRANCH  23  24
ENDBRANCH  22  23
ENDBRANCH  21  22
ENDBRANCH  20  21
ENDBRANCH  19  20
ENDBRANCH  18  19
ENDBRANCH   1  18
TORSDOF 28
ENDMDL
MODEL 2
REMARK VINA RESULT:    -0.973      3.584     10.564
REMARK INTER + INTRA:          -4.670
REMARK INTER:                  -2.459
REMARK INTRA:                  -2.212
REMARK UNBOUND:                -2.104
REMARK SMILES CCCCCCCCCCCCCCCCCCCCCCCCCCCCCC(=O)[O-]
REMARK SMILES IDX 16 1 17 2 18 3 19 4 20 5 21 6 22 7 23 8 24 9 25 10 26 11
REMARK SMILES IDX 27 12 28 13 29 14 30 15 31 16 32 17 15 18 14 19 13 20 12 21
REMARK SMILES IDX 11 22 10 23 9 24 8 25 7 26 6 27 5 28 4 29 3 30 2 31 1 32
REMARK H PARENT
REMARK Flexibility Score: inf
ROOT
ATOM      1  C   UNL     1     -10.970  -3.088  -3.538  1.00  0.00     0.000 C 
ENDROOT
BRANCH   1   2
ATOM      2  C   UNL     1     -10.773  -4.338  -2.665  1.00  0.00     0.000 C 
BRANCH   2   3
ATOM      3  C   UNL     1      -9.817  -4.102  -1.485  1.00  0.00     0.000 C 
BRANCH   3   4
ATOM      4  C   UNL     1      -8.520  -3.384  -1.899  1.00  0.00     0.000 C 
BRANCH   4   5
ATOM      5  C   UNL     1      -8.390  -1.951  -1.343  1.00  0.00     0.000 C 
BRANCH   5   6
ATOM      6  C   UNL     1      -7.104  -1.254  -1.824  1.00  0.00     0.000 C 
BRANCH   6   7
ATOM      7  C   UNL     1      -6.953   0.171  -1.262  1.00  0.00     0.000 C 
BRANCH   7   8
ATOM      8  C   UNL     1      -8.256   0.736  -0.658  1.00  0.00     0.000 C 
BRANCH   8   9
ATOM      9  C   UNL     1      -8.247   2.269  -0.567  1.00  0.00     0.000 C 
BRANCH   9  10
ATOM     10  C   UNL     1      -8.114   2.722   0.895  1.00  0.00     0.000 C 
BRANCH  10  11
ATOM     11  C   UNL     1      -8.328   4.233   1.072  1.00  0.00     0.000 C 
BRANCH  11  12
ATOM     12  C   UNL     1      -8.840   4.912  -0.207  1.00  0.00     0.000 C 
BRANCH  12  13
ATOM     13  C   UNL     1      -9.465   6.279   0.109  1.00  0.00     0.006 C 
BRANCH  13  14
ATOM     14  C   UNL     1      -8.517   7.440  -0.220  1.00  0.00     0.053 C 
BRANCH  14  15
ATOM     15  C   UNL     1      -9.007   8.242  -1.388  1.00  0.00     0.041 C 
ATOM     16  O   UNL     1      -9.603   7.672  -2.339  1.00  0.00    -0.550 OA
ATOM     17  O   UNL     1      -8.811   9.617  -1.421  1.00  0.00    -0.550 OA
ENDBRANCH  14  15
ENDBRANCH  13  14
ENDBRANCH  12  13
ENDBRANCH  11  12
ENDBRANCH  10  11
ENDBRANCH   9  10
ENDBRANCH   8   9
ENDBRANCH   7   8
ENDBRANCH   6   7
ENDBRANCH   5   6
ENDBRANCH   4   5
ENDBRANCH   3   4
ENDBRANCH   2   3
ENDBRANCH   1   2
BRANCH   1  18
ATOM     18  C   UNL     1     -10.762  -3.371  -5.037  1.00  0.00     0.000 C 
BRANCH  18  19
ATOM     19  C   UNL     1     -10.395  -4.837  -5.316  1.00  0.00     0.000 C 
BRANCH  19  20
ATOM     20  C   UNL     1     -11.040  -5.370  -6.604  1.00  0.00     0.000 C 
BRANCH  20  21
ATOM     21  C   UNL     1     -10.465  -6.743  -6.982  1.00  0.00     0.000 C 
BRANCH  21  22
ATOM     22  C   UNL     1     -10.457  -6.988  -8.501  1.00  0.00     0.000 C 
BRANCH  22  23
ATOM     23  C   UNL     1      -9.204  -7.749  -8.970  1.00  0.00     0.000 C 
BRANCH  23  24
ATOM     24  C   UNL     1      -8.221  -6.854  -9.746  1.00  0.00    -0.000 C 
BRANCH  24  25
ATOM     25  C   UNL     1      -7.974  -5.471  -9.116  1.00  0.00    -0.000 C 
BRANCH  25  26
ATOM     26  C   UNL     1      -6.676  -5.415  -8.290  1.00  0.00    -0.000 C 
BRANCH  26  27
ATOM     27  C   UNL     1      -6.942  -5.473  -6.776  1.00  0.00    -0.000 C 
BRANCH  27  28
ATOM     28  C   UNL     1      -5.884  -6.287  -5.995  1.00  0.00    -0.000 C 
BRANCH  28  29
ATOM     29  C   UNL     1      -4.494  -5.622  -5.957  1.00  0.00    -0.000 C 
BRANCH  29  30
ATOM     30  C   UNL     1      -4.509  -4.112  -5.662  1.00  0.00    -0.000 C 
BRANCH  30  31
ATOM     31  C   UNL     1      -3.105  -3.540  -5.409  1.00  0.00    -0.003 C 
ATOM     32  C   UNL     1      -3.069  -2.040  -5.687  1.00  0.00     0.004 C 
ENDBRANCH  30  31
ENDBRANCH  29  30
ENDBRANCH  28  29
ENDBRANCH  27  28
ENDBRANCH  26  27
ENDBRANCH  25  26
ENDBRANCH  24  25
ENDBRANCH  23  24
ENDBRANCH  22  23
ENDBRANCH  21  22
ENDBRANCH  20  21
ENDBRANCH  19  20
ENDBRANCH  18  19
ENDBRANCH   1  18
TORSDOF 28
ENDMDL
MODEL 3
REMARK VINA RESULT:    -0.818      3.436      9.956
REMARK INTER + INTRA:          -4.261
REMARK INTER:                  -2.361
REMARK INTRA:                  -1.901
REMARK UNBOUND:                -2.104
REMARK SMILES CCCCCCCCCCCCCCCCCCCCCCCCCCCCCC(=O)[O-]
REMARK SMILES IDX 16 1 17 2 18 3 19 4 20 5 21 6 22 7 23 8 24 9 25 10 26 11
REMARK SMILES IDX 27 12 28 13 29 14 30 15 31 16 32 17 15 18 14 19 13 20 12 21
REMARK SMILES IDX 11 22 10 23 9 24 8 25 7 26 6 27 5 28 4 29 3 30 2 31 1 32
REMARK H PARENT
REMARK Flexibility Score: inf
ROOT
ATOM      1  C   UNL     1     -11.048  -4.143  -5.802  1.00  0.00     0.000 C 
ENDROOT
BRANCH   1   2
ATOM      2  C   UNL     1     -10.629  -5.196  -4.763  1.00  0.00     0.000 C 
BRANCH   2   3
ATOM      3  C   UNL     1     -10.935  -4.768  -3.318  1.00  0.00     0.000 C 
BRANCH   3   4
ATOM      4  C   UNL     1     -10.297  -3.418  -2.946  1.00  0.00     0.000 C 
BRANCH   4   5
ATOM      5  C   UNL     1      -9.656  -3.391  -1.543  1.00  0.00     0.000 C 
BRANCH   5   6
ATOM      6  C   UNL     1      -9.338  -1.959  -1.076  1.00  0.00     0.000 C 
BRANCH   6   7
ATOM      7  C   UNL     1      -7.826  -1.694  -0.952  1.00  0.00     0.000 C 
BRANCH   7   8
ATOM      8  C   UNL     1      -7.350  -0.459  -1.745  1.00  0.00     0.000 C 
BRANCH   8   9
ATOM      9  C   UNL     1      -7.182   0.783  -0.858  1.00  0.00     0.000 C 
BRANCH   9  10
ATOM     10  C   UNL     1      -8.545   1.433  -0.575  1.00  0.00     0.000 C 
BRANCH  10  11
ATOM     11  C   UNL     1      -8.511   2.964  -0.696  1.00  0.00     0.000 C 
BRANCH  11  12
ATOM     12  C   UNL     1      -8.368   3.663   0.665  1.00  0.00     0.000 C 
BRANCH  12  13
ATOM     13  C   UNL     1      -8.657   5.166   0.543  1.00  0.00     0.006 C 
BRANCH  13  14
ATOM     14  C   UNL     1      -9.021   5.572  -0.891  1.00  0.00     0.053 C 
BRANCH  14  15
ATOM     15  C   UNL     1      -9.069   7.062  -1.051  1.00  0.00     0.041 C 
ATOM     16  O   UNL     1      -9.260   7.568  -2.188  1.00  0.00    -0.550 OA
ATOM     17  O   UNL     1      -8.911   7.888   0.054  1.00  0.00    -0.550 OA
ENDBRANCH  14  15
ENDBRANCH  13  14
ENDBRANCH  12  13
ENDBRANCH  11  12
ENDBRANCH  10  11
ENDBRANCH   9  10
ENDBRANCH   8   9
ENDBRANCH   7   8
ENDBRANCH   6   7
ENDBRANCH   5   6
ENDBRANCH   4   5
ENDBRANCH   3   4
ENDBRANCH   2   3
ENDBRANCH   1   2
BRANCH   1  18
ATOM     18  C   UNL     1     -11.122  -4.715  -7.229  1.00  0.00     0.000 C 
BRANCH  18  19
ATOM     19  C   UNL     1     -10.595  -3.734  -8.288  1.00  0.00     0.000 C 
BRANCH  19  20
ATOM     20  C   UNL     1     -10.119  -4.445  -9.564  1.00  0.00     0.000 C 
BRANCH  20  21
ATOM     21  C   UNL     1     -10.239  -5.969  -9.424  1.00  0.00     0.000 C 
BRANCH  21  22
ATOM     22  C   UNL     1      -8.881  -6.656  -9.202  1.00  0.00     0.000 C 
BRANCH  22  23
ATOM     23  C   UNL     1      -8.031  -5.956  -8.127  1.00  0.00     0.000 C 
BRANCH  23  24
ATOM     24  C   UNL     1      -8.088  -6.671  -6.765  1.00  0.00    -0.000 C 
BRANCH  24  25
ATOM     25  C   UNL     1      -6.968  -6.277  -5.785  1.00  0.00    -0.000 C 
BRANCH  25  26
ATOM     26  C   UNL     1      -6.010  -5.222  -6.367  1.00  0.00    -0.000 C 
BRANCH  26  27
ATOM     27  C   UNL     1      -4.595  -5.779  -6.596  1.00  0.00    -0.000 C 
BRANCH  27  28
ATOM     28  C   UNL     1      -3.712  -5.763  -5.326  1.00  0.00    -0.000 C 
BRANCH  28  29
ATOM     29  C   UNL     1      -2.279  -5.252  -5.573  1.00  0.00    -0.000 C 
BRANCH  29  30
ATOM     30  C   UNL     1      -2.160  -3.729  -5.760  1.00  0.00    -0.000 C 
BRANCH  30  31
ATOM     31  C   UNL     1      -3.297  -2.954  -5.075  1.00  0.00    -0.003 C 
ATOM     32  C   UNL     1      -3.584  -1.647  -5.808  1.00  0.00     0.004 C 
ENDBRANCH  30  31
ENDBRANCH  29  30
ENDBRANCH  28  29
ENDBRANCH  27  28
ENDBRANCH  26  27
ENDBRANCH  25  26
ENDBRANCH  24  25
ENDBRANCH  23  24
ENDBRANCH  22  23
ENDBRANCH  21  22
ENDBRANCH  20  21
ENDBRANCH  19  20
ENDBRANCH  18  19
ENDBRANCH   1  18
TORSDOF 28
ENDMDL
MODEL 4
REMARK VINA RESULT:    -0.501      1.366      3.071
REMARK INTER + INTRA:          -3.426
REMARK INTER:                  -1.365
REMARK INTRA:                  -2.061
REMARK UNBOUND:                -2.104
REMARK SMILES CCCCCCCCCCCCCCCCCCCCCCCCCCCCCC(=O)[O-]
REMARK SMILES IDX 16 1 17 2 18 3 19 4 20 5 21 6 22 7 23 8 24 9 25 10 26 11
REMARK SMILES IDX 27 12 28 13 29 14 30 15 31 16 32 17 15 18 14 19 13 20 12 21
REMARK SMILES IDX 11 22 10 23 9 24 8 25 7 26 6 27 5 28 4 29 3 30 2 31 1 32
REMARK H PARENT
REMARK Flexibility Score: inf
ROOT
ATOM      1  C   UNL     1     -11.124  -4.360  -3.215  1.00  0.00     0.000 C 
ENDROOT
BRANCH   1   2
ATOM      2  C   UNL     1     -10.987  -3.403  -4.411  1.00  0.00     0.000 C 
BRANCH   2   3
ATOM      3  C   UNL     1     -10.642  -4.127  -5.722  1.00  0.00     0.000 C 
BRANCH   3   4
ATOM      4  C   UNL     1      -9.947  -5.481  -5.494  1.00  0.00     0.000 C 
BRANCH   4   5
ATOM      5  C   UNL     1     -10.811  -6.703  -5.868  1.00  0.00     0.000 C 
BRANCH   5   6
ATOM      6  C   UNL     1     -10.216  -7.500  -7.043  1.00  0.00     0.000 C 
BRANCH   6   7
ATOM      7  C   UNL     1     -11.124  -7.495  -8.286  1.00  0.00     0.000 C 
BRANCH   7   8
ATOM      8  C   UNL     1     -10.538  -6.705  -9.475  1.00  0.00     0.000 C 
BRANCH   8   9
ATOM      9  C   UNL     1     -10.798  -5.196  -9.365  1.00  0.00     0.000 C 
BRANCH   9  10
ATOM     10  C   UNL     1      -9.717  -4.405 -10.118  1.00  0.00     0.000 C 
BRANCH  10  11
ATOM     11  C   UNL     1      -8.292  -4.842  -9.746  1.00  0.00     0.000 C 
BRANCH  11  12
ATOM     12  C   UNL     1      -8.073  -4.918  -8.226  1.00  0.00     0.000 C 
BRANCH  12  13
ATOM     13  C   UNL     1      -6.597  -5.181  -7.897  1.00  0.00     0.006 C 
BRANCH  13  14
ATOM     14  C   UNL     1      -6.422  -5.890  -6.547  1.00  0.00     0.053 C 
BRANCH  14  15
ATOM     15  C   UNL     1      -5.093  -5.580  -5.925  1.00  0.00     0.041 C 
ATOM     16  O   UNL     1      -4.363  -6.513  -5.499  1.00  0.00    -0.550 OA
ATOM     17  O   UNL     1      -4.661  -4.264  -5.823  1.00  0.00    -0.550 OA
ENDBRANCH  14  15
ENDBRANCH  13  14
ENDBRANCH  12  13
ENDBRANCH  11  12
ENDBRANCH  10  11
ENDBRANCH   9  10
ENDBRANCH   8   9
ENDBRANCH   7   8
ENDBRANCH   6   7
ENDBRANCH   5   6
ENDBRANCH   4   5
ENDBRANCH   3   4
ENDBRANCH   2   3
ENDBRANCH   1   2
BRANCH   1  18
ATOM     18  C   UNL     1     -10.996  -3.639  -1.861  1.00  0.00     0.000 C 
BRANCH  18  19
ATOM     19  C   UNL     1      -9.880  -4.226  -0.982  1.00  0.00     0.000 C 
BRANCH  19  20
ATOM     20  C   UNL     1      -8.480  -3.972  -1.561  1.00  0.00     0.000 C 
BRANCH  20  21
ATOM     21  C   UNL     1      -7.822  -2.753  -0.898  1.00  0.00     0.000 C 
BRANCH  21  22
ATOM     22  C   UNL     1      -8.546  -1.435  -1.222  1.00  0.00     0.000 C 
BRANCH  22  23
ATOM     23  C   UNL     1      -7.669  -0.198  -0.959  1.00  0.00     0.000 C 
BRANCH  23  24
ATOM     24  C   UNL     1      -8.492   1.043  -0.571  1.00  0.00    -0.000 C 
BRANCH  24  25
ATOM     25  C   UNL     1      -7.667   2.330  -0.385  1.00  0.00    -0.000 C 
BRANCH  25  26
ATOM     26  C   UNL     1      -8.496   3.607  -0.618  1.00  0.00    -0.000 C 
BRANCH  26  27
ATOM     27  C   UNL     1      -8.998   4.226   0.698  1.00  0.00    -0.000 C 
BRANCH  27  28
ATOM     28  C   UNL     1      -8.853   5.766   0.749  1.00  0.00    -0.000 C 
BRANCH  28  29
ATOM     29  C   UNL     1      -8.337   6.384  -0.565  1.00  0.00    -0.000 C 
BRANCH  29  30
ATOM     30  C   UNL     1      -9.417   7.063  -1.426  1.00  0.00    -0.000 C 
BRANCH  30  31
ATOM     31  C   UNL     1      -9.343   8.597  -1.375  1.00  0.00    -0.003 C 
ATOM     32  C   UNL     1      -8.831   9.074  -0.018  1.00  0.00     0.004 C 
ENDBRANCH  30  31
ENDBRANCH  29  30
ENDBRANCH  28  29
ENDBRANCH  27  28
ENDBRANCH  26  27
ENDBRANCH  25  26
ENDBRANCH  24  25
ENDBRANCH  23  24
ENDBRANCH  22  23
ENDBRANCH  21  22
ENDBRANCH  20  21
ENDBRANCH  19  20
ENDBRANCH  18  19
ENDBRANCH   1  18
TORSDOF 28
ENDMDL
MODEL 5
REMARK VINA RESULT:     0.440      6.570     15.002
REMARK INTER + INTRA:          -0.944
REMARK INTER:                   0.295
REMARK INTRA:                  -1.239
REMARK UNBOUND:                -2.104
REMARK SMILES CCCCCCCCCCCCCCCCCCCCCCCCCCCCCC(=O)[O-]
REMARK SMILES IDX 16 1 17 2 18 3 19 4 20 5 21 6 22 7 23 8 24 9 25 10 26 11
REMARK SMILES IDX 27 12 28 13 29 14 30 15 31 16 32 17 15 18 14 19 13 20 12 21
REMARK SMILES IDX 11 22 10 23 9 24 8 25 7 26 6 27 5 28 4 29 3 30 2 31 1 32
REMARK H PARENT
REMARK Flexibility Score: inf
ROOT
ATOM      1  C   UNL     1      -8.706   4.029  -0.040  1.00  0.00     0.000 C 
ENDROOT
BRANCH   1   2
ATOM      2  C   UNL     1      -8.356   5.072   1.034  1.00  0.00     0.000 C 
BRANCH   2   3
ATOM      3  C   UNL     1      -9.533   6.001   1.374  1.00  0.00     0.000 C 
BRANCH   3   4
ATOM      4  C   UNL     1     -10.225   5.630   2.698  1.00  0.00     0.000 C 
BRANCH   4   5
ATOM      5  C   UNL     1      -9.778   6.485   3.902  1.00  0.00     0.000 C 
BRANCH   5   6
ATOM      6  C   UNL     1     -10.708   7.689   4.138  1.00  0.00     0.000 C 
BRANCH   6   7
ATOM      7  C   UNL     1     -10.906   8.005   5.631  1.00  0.00     0.000 C 
BRANCH   7   8
ATOM      8  C   UNL     1     -11.002   9.516   5.933  1.00  0.00     0.000 C 
BRANCH   8   9
ATOM      9  C   UNL     1     -11.124   9.810   7.436  1.00  0.00     0.000 C 
BRANCH   9  10
ATOM     10  C   UNL     1      -9.837   9.404   8.171  1.00  0.00     0.000 C 
BRANCH  10  11
ATOM     11  C   UNL     1      -9.810   7.914   8.544  1.00  0.00     0.000 C 
BRANCH  11  12
ATOM     12  C   UNL     1      -9.308   7.671   9.977  1.00  0.00     0.000 C 
BRANCH  12  13
ATOM     13  C   UNL     1      -7.996   6.874   9.971  1.00  0.00     0.006 C 
BRANCH  13  14
ATOM     14  C   UNL     1      -7.188   7.095   8.686  1.00  0.00     0.053 C 
BRANCH  14  15
ATOM     15  C   UNL     1      -6.039   8.033   8.906  1.00  0.00     0.041 C 
ATOM     16  O   UNL     1      -6.237   9.162   9.426  1.00  0.00    -0.550 OA
ATOM     17  O   UNL     1      -4.752   7.656   8.543  1.00  0.00    -0.550 OA
ENDBRANCH  14  15
ENDBRANCH  13  14
ENDBRANCH  12  13
ENDBRANCH  11  12
ENDBRANCH  10  11
ENDBRANCH   9  10
ENDBRANCH   8   9
ENDBRANCH   7   8
ENDBRANCH   6   7
ENDBRANCH   5   6
ENDBRANCH   4   5
ENDBRANCH   3   4
ENDBRANCH   2   3
ENDBRANCH   1   2
BRANCH   1  18
ATOM     18  C   UNL     1      -8.040   2.665   0.219  1.00  0.00     0.000 C 
BRANCH  18  19
ATOM     19  C   UNL     1      -8.604   1.552  -0.678  1.00  0.00     0.000 C 
BRANCH  19  20
ATOM     20  C   UNL     1      -7.640   0.363  -0.817  1.00  0.00     0.000 C 
BRANCH  20  21
ATOM     21  C   UNL     1      -8.403  -0.969  -0.810  1.00  0.00     0.000 C 
BRANCH  21  22
ATOM     22  C   UNL     1      -7.883  -1.959  -1.867  1.00  0.00     0.000 C 
BRANCH  22  23
ATOM     23  C   UNL     1      -8.546  -3.343  -1.758  1.00  0.00     0.000 C 
BRANCH  23  24
ATOM     24  C   UNL     1     -10.002  -3.269  -1.263  1.00  0.00    -0.000 C 
BRANCH  24  25
ATOM     25  C   UNL     1     -11.055  -3.725  -2.288  1.00  0.00    -0.000 C 
BRANCH  25  26
ATOM     26  C   UNL     1     -10.893  -3.035  -3.655  1.00  0.00    -0.000 C 
BRANCH  26  27
ATOM     27  C   UNL     1     -11.003  -4.026  -4.827  1.00  0.00    -0.000 C 
BRANCH  27  28
ATOM     28  C   UNL     1     -10.610  -5.474  -4.450  1.00  0.00    -0.000 C 
BRANCH  28  29
ATOM     29  C   UNL     1     -10.665  -6.460  -5.633  1.00  0.00    -0.000 C 
BRANCH  29  30
ATOM     30  C   UNL     1      -9.294  -6.961  -6.120  1.00  0.00    -0.000 C 
BRANCH  30  31
ATOM     31  C   UNL     1      -8.124  -6.138  -5.557  1.00  0.00    -0.003 C 
ATOM     32  C   UNL     1      -7.009  -7.049  -5.054  1.00  0.00     0.004 C 
ENDBRANCH  30  31
ENDBRANCH  29  30
ENDBRANCH  28  29
ENDBRANCH  27  28
ENDBRANCH  26  27
ENDBRANCH  25  26
ENDBRANCH  24  25
ENDBRANCH  23  24
ENDBRANCH  22  23
ENDBRANCH  21  22
ENDBRANCH  20  21
ENDBRANCH  19  20
ENDBRANCH  18  19
ENDBRANCH   1  18
TORSDOF 28
ENDMDL
MODEL 6
REMARK VINA RESULT:     0.523      4.751      8.566
REMARK INTER + INTRA:          -0.724
REMARK INTER:                   0.555
REMARK INTRA:                  -1.280
REMARK UNBOUND:                -2.104
REMARK SMILES CCCCCCCCCCCCCCCCCCCCCCCCCCCCCC(=O)[O-]
REMARK SMILES IDX 16 1 17 2 18 3 19 4 20 5 21 6 22 7 23 8 24 9 25 10 26 11
REMARK SMILES IDX 27 12 28 13 29 14 30 15 31 16 32 17 15 18 14 19 13 20 12 21
REMARK SMILES IDX 11 22 10 23 9 24 8 25 7 26 6 27 5 28 4 29 3 30 2 31 1 32
REMARK H PARENT
REMARK Flexibility Score: inf
ROOT
ATOM      1  C   UNL     1      -8.787   2.257  -0.650  1.00  0.00     0.000 C 
ENDROOT
BRANCH   1   2
ATOM      2  C   UNL     1      -7.676   1.200  -0.768  1.00  0.00     0.000 C 
BRANCH   2   3
ATOM      3  C   UNL     1      -8.160  -0.219  -0.427  1.00  0.00     0.000 C 
BRANCH   3   4
ATOM      4  C   UNL     1      -7.924  -1.223  -1.569  1.00  0.00     0.000 C 
BRANCH   4   5
ATOM      5  C   UNL     1      -8.500  -2.629  -1.300  1.00  0.00     0.000 C 
BRANCH   5   6
ATOM      6  C   UNL     1      -9.868  -2.836  -1.976  1.00  0.00     0.000 C 
BRANCH   6   7
ATOM      7  C   UNL     1      -9.763  -3.595  -3.311  1.00  0.00     0.000 C 
BRANCH   7   8
ATOM      8  C   UNL     1     -10.601  -4.890  -3.351  1.00  0.00     0.000 C 
BRANCH   8   9
ATOM      9  C   UNL     1     -10.597  -5.552  -4.736  1.00  0.00     0.000 C 
BRANCH   9  10
ATOM     10  C   UNL     1     -10.746  -4.494  -5.840  1.00  0.00     0.000 C 
BRANCH  10  11
ATOM     11  C   UNL     1     -10.728  -5.099  -7.252  1.00  0.00     0.000 C 
BRANCH  11  12
ATOM     12  C   UNL     1     -10.598  -4.034  -8.352  1.00  0.00     0.000 C 
BRANCH  12  13
ATOM     13  C   UNL     1      -9.394  -4.327  -9.259  1.00  0.00     0.006 C 
BRANCH  13  14
ATOM     14  C   UNL     1      -8.830  -5.736  -9.037  1.00  0.00     0.053 C 
BRANCH  14  15
ATOM     15  C   UNL     1      -7.345  -5.714  -8.832  1.00  0.00     0.041 C 
ATOM     16  O   UNL     1      -6.862  -5.966  -7.697  1.00  0.00    -0.550 OA
ATOM     17  O   UNL     1      -6.498  -5.422  -9.893  1.00  0.00    -0.550 OA
ENDBRANCH  14  15
ENDBRANCH  13  14
ENDBRANCH  12  13
ENDBRANCH  11  12
ENDBRANCH  10  11
ENDBRANCH   9  10
ENDBRANCH   8   9
ENDBRANCH   7   8
ENDBRANCH   6   7
ENDBRANCH   5   6
ENDBRANCH   4   5
ENDBRANCH   3   4
ENDBRANCH   2   3
ENDBRANCH   1   2
BRANCH   1  18
ATOM     18  C   UNL     1      -8.385   3.442   0.247  1.00  0.00     0.000 C 
BRANCH  18  19
ATOM     19  C   UNL     1      -8.797   4.799  -0.347  1.00  0.00     0.000 C 
BRANCH  19  20
ATOM     20  C   UNL     1      -8.937   5.891   0.725  1.00  0.00     0.000 C 
BRANCH  20  21
ATOM     21  C   UNL     1      -9.886   5.445   1.847  1.00  0.00     0.000 C 
BRANCH  21  22
ATOM     22  C   UNL     1      -9.461   5.967   3.230  1.00  0.00     0.000 C 
BRANCH  22  23
ATOM     23  C   UNL     1     -10.421   7.039   3.778  1.00  0.00     0.000 C 
BRANCH  23  24
ATOM     24  C   UNL     1     -10.348   7.175   5.309  1.00  0.00    -0.000 C 
BRANCH  24  25
ATOM     25  C   UNL     1     -10.983   8.459   5.873  1.00  0.00    -0.000 C 
BRANCH  25  26
ATOM     26  C   UNL     1     -10.642   8.691   7.356  1.00  0.00    -0.000 C 
BRANCH  26  27
ATOM     27  C   UNL     1      -9.472   7.813   7.831  1.00  0.00    -0.000 C 
BRANCH  27  28
ATOM     28  C   UNL     1      -9.215   7.899   9.354  1.00  0.00    -0.000 C 
BRANCH  28  29
ATOM     29  C   UNL     1      -7.764   8.271   9.718  1.00  0.00    -0.000 C 
BRANCH  29  30
ATOM     30  C   UNL     1      -6.872   8.640   8.520  1.00  0.00    -0.000 C 
BRANCH  30  31
ATOM     31  C   UNL     1      -5.854   7.541   8.173  1.00  0.00    -0.003 C 
ATOM     32  C   UNL     1      -4.676   8.116   7.393  1.00  0.00     0.004 C 
ENDBRANCH  30  31
ENDBRANCH  29  30
ENDBRANCH  28  29
ENDBRANCH  27  28
ENDBRANCH  26  27
ENDBRANCH  25  26
ENDBRANCH  24  25
ENDBRANCH  23  24
ENDBRANCH  22  23
ENDBRANCH  21  22
ENDBRANCH  20  21
ENDBRANCH  19  20
ENDBRANCH  18  19
ENDBRANCH   1  18
TORSDOF 28
ENDMDL
MODEL 7
REMARK VINA RESULT:     0.840      3.947      6.753
REMARK INTER + INTRA:           0.112
REMARK INTER:                   1.783
REMARK INTRA:                  -1.671
REMARK UNBOUND:                -2.104
REMARK SMILES CCCCCCCCCCCCCCCCCCCCCCCCCCCCCC(=O)[O-]
REMARK SMILES IDX 16 1 17 2 18 3 19 4 20 5 21 6 22 7 23 8 24 9 25 10 26 11
REMARK SMILES IDX 27 12 28 13 29 14 30 15 31 16 32 17 15 18 14 19 13 20 12 21
REMARK SMILES IDX 11 22 10 23 9 24 8 25 7 26 6 27 5 28 4 29 3 30 2 31 1 32
REMARK H PARENT
REMARK Flexibility Score: inf
ROOT
ATOM      1  C   UNL     1      -8.544  -1.449  -1.558  1.00  0.00     0.000 C 
ENDROOT
BRANCH   1   2
ATOM      2  C   UNL     1      -8.147  -2.861  -1.097  1.00  0.00     0.000 C 
BRANCH   2   3
ATOM      3  C   UNL     1      -9.155  -3.939  -1.528  1.00  0.00     0.000 C 
BRANCH   3   4
ATOM      4  C   UNL     1     -10.568  -3.377  -1.764  1.00  0.00     0.000 C 
BRANCH   4   5
ATOM      5  C   UNL     1     -10.986  -3.327  -3.248  1.00  0.00     0.000 C 
BRANCH   5   6
ATOM      6  C   UNL     1     -10.664  -4.639  -3.988  1.00  0.00     0.000 C 
BRANCH   6   7
ATOM      7  C   UNL     1     -10.813  -4.513  -5.515  1.00  0.00     0.000 C 
BRANCH   7   8
ATOM      8  C   UNL     1     -10.960  -5.871  -6.233  1.00  0.00     0.000 C 
BRANCH   8   9
ATOM      9  C   UNL     1     -10.950  -5.734  -7.762  1.00  0.00     0.000 C 
BRANCH   9  10
ATOM     10  C   UNL     1     -10.513  -7.052  -8.420  1.00  0.00     0.000 C 
BRANCH  10  11
ATOM     11  C   UNL     1      -9.027  -7.059  -8.808  1.00  0.00     0.000 C 
BRANCH  11  12
ATOM     12  C   UNL     1      -8.362  -5.684  -8.634  1.00  0.00     0.000 C 
BRANCH  12  13
ATOM     13  C   UNL     1      -6.961  -5.825  -8.023  1.00  0.00     0.006 C 
BRANCH  13  14
ATOM     14  C   UNL     1      -6.935  -5.443  -6.537  1.00  0.00     0.053 C 
BRANCH  14  15
ATOM     15  C   UNL     1      -7.296  -6.603  -5.659  1.00  0.00     0.041 C 
ATOM     16  O   UNL     1      -7.024  -7.777  -6.022  1.00  0.00    -0.550 OA
ATOM     17  O   UNL     1      -7.926  -6.385  -4.440  1.00  0.00    -0.550 OA
ENDBRANCH  14  15
ENDBRANCH  13  14
ENDBRANCH  12  13
ENDBRANCH  11  12
ENDBRANCH  10  11
ENDBRANCH   9  10
ENDBRANCH   8   9
ENDBRANCH   7   8
ENDBRANCH   6   7
ENDBRANCH   5   6
ENDBRANCH   4   5
ENDBRANCH   3   4
ENDBRANCH   2   3
ENDBRANCH   1   2
BRANCH   1  18
ATOM     18  C   UNL     1      -7.759  -0.344  -0.827  1.00  0.00     0.000 C 
BRANCH  18  19
ATOM     19  C   UNL     1      -8.555   0.965  -0.707  1.00  0.00     0.000 C 
BRANCH  19  20
ATOM     20  C   UNL     1      -7.667   2.161  -0.333  1.00  0.00     0.000 C 
BRANCH  20  21
ATOM     21  C   UNL     1      -8.447   3.189   0.500  1.00  0.00     0.000 C 
BRANCH  21  22
ATOM     22  C   UNL     1      -8.828   4.443  -0.305  1.00  0.00     0.000 C 
BRANCH  22  23
ATOM     23  C   UNL     1      -8.808   5.723   0.549  1.00  0.00     0.000 C 
BRANCH  23  24
ATOM     24  C   UNL     1      -9.570   5.565   1.876  1.00  0.00    -0.000 C 
BRANCH  24  25
ATOM     25  C   UNL     1      -9.970   6.890   2.551  1.00  0.00    -0.000 C 
BRANCH  25  26
ATOM     26  C   UNL     1     -10.383   6.707   4.023  1.00  0.00    -0.000 C 
BRANCH  26  27
ATOM     27  C   UNL     1     -10.735   8.042   4.702  1.00  0.00    -0.000 C 
BRANCH  27  28
ATOM     28  C   UNL     1     -10.890   7.931   6.237  1.00  0.00    -0.000 C 
BRANCH  28  29
ATOM     29  C   UNL     1      -9.678   7.288   6.938  1.00  0.00    -0.000 C 
BRANCH  29  30
ATOM     30  C   UNL     1      -9.152   8.064   8.159  1.00  0.00    -0.000 C 
BRANCH  30  31
ATOM     31  C   UNL     1     -10.234   8.304   9.224  1.00  0.00    -0.003 C 
ATOM     32  C   UNL     1     -10.662   6.992   9.873  1.00  0.00     0.004 C 
ENDBRANCH  30  31
ENDBRANCH  29  30
ENDBRANCH  28  29
ENDBRANCH  27  28
ENDBRANCH  26  27
ENDBRANCH  25  26
ENDBRANCH  24  25
ENDBRANCH  23  24
ENDBRANCH  22  23
ENDBRANCH  21  22
ENDBRANCH  20  21
ENDBRANCH  19  20
ENDBRANCH  18  19
ENDBRANCH   1  18
TORSDOF 28
ENDMDL
MODEL 8
REMARK VINA RESULT:     0.928      5.624     13.362
REMARK INTER + INTRA:           0.342
REMARK INTER:                   1.849
REMARK INTRA:                  -1.506
REMARK UNBOUND:                -2.104
REMARK SMILES CCCCCCCCCCCCCCCCCCCCCCCCCCCCCC(=O)[O-]
REMARK SMILES IDX 16 1 17 2 18 3 19 4 20 5 21 6 22 7 23 8 24 9 25 10 26 11
REMARK SMILES IDX 27 12 28 13 29 14 30 15 31 16 32 17 15 18 14 19 13 20 12 21
REMARK SMILES IDX 11 22 10 23 9 24 8 25 7 26 6 27 5 28 4 29 3 30 2 31 1 32
REMARK H PARENT
REMARK Flexibility Score: inf
ROOT
ATOM      1  C   UNL     1      -7.083  -0.827  -1.431  1.00  0.00     0.000 C 
ENDROOT
BRANCH   1   2
ATOM      2  C   UNL     1      -6.999   0.678  -1.126  1.00  0.00     0.000 C 
BRANCH   2   3
ATOM      3  C   UNL     1      -8.246   1.214  -0.403  1.00  0.00     0.000 C 
BRANCH   3   4
ATOM      4  C   UNL     1      -8.076   2.661   0.091  1.00  0.00     0.000 C 
BRANCH   4   5
ATOM      5  C   UNL     1      -8.705   3.721  -0.837  1.00  0.00     0.000 C 
BRANCH   5   6
ATOM      6  C   UNL     1      -8.803   5.101  -0.162  1.00  0.00     0.000 C 
BRANCH   6   7
ATOM      7  C   UNL     1      -9.026   5.006   1.358  1.00  0.00     0.000 C 
BRANCH   7   8
ATOM      8  C   UNL     1      -9.725   6.246   1.956  1.00  0.00     0.000 C 
BRANCH   8   9
ATOM      9  C   UNL     1      -9.677   6.266   3.491  1.00  0.00     0.000 C 
BRANCH   9  10
ATOM     10  C   UNL     1     -10.675   7.293   4.048  1.00  0.00     0.000 C 
BRANCH  10  11
ATOM     11  C   UNL     1     -10.626   7.399   5.580  1.00  0.00     0.000 C 
BRANCH  11  12
ATOM     12  C   UNL     1     -10.875   8.830   6.083  1.00  0.00     0.000 C 
BRANCH  12  13
ATOM     13  C   UNL     1      -9.938   9.172   7.249  1.00  0.00     0.006 C 
BRANCH  13  14
ATOM     14  C   UNL     1     -10.058   8.169   8.405  1.00  0.00     0.053 C 
BRANCH  14  15
ATOM     15  C   UNL     1      -8.714   7.733   8.904  1.00  0.00     0.041 C 
ATOM     16  O   UNL     1      -8.282   8.163  10.006  1.00  0.00    -0.550 OA
ATOM     17  O   UNL     1      -7.945   6.849   8.158  1.00  0.00    -0.550 OA
ENDBRANCH  14  15
ENDBRANCH  13  14
ENDBRANCH  12  13
ENDBRANCH  11  12
ENDBRANCH  10  11
ENDBRANCH   9  10
ENDBRANCH   8   9
ENDBRANCH   7   8
ENDBRANCH   6   7
ENDBRANCH   5   6
ENDBRANCH   4   5
ENDBRANCH   3   4
ENDBRANCH   2   3
ENDBRANCH   1   2
BRANCH   1  18
ATOM     18  C   UNL     1      -8.306  -1.497  -0.780  1.00  0.00     0.000 C 
BRANCH  18  19
ATOM     19  C   UNL     1      -8.574  -2.905  -1.334  1.00  0.00     0.000 C 
BRANCH  19  20
ATOM     20  C   UNL     1      -8.910  -2.893  -2.834  1.00  0.00     0.000 C 
BRANCH  20  21
ATOM     21  C   UNL     1      -9.675  -4.162  -3.238  1.00  0.00     0.000 C 
BRANCH  21  22
ATOM     22  C   UNL     1     -10.773  -3.889  -4.280  1.00  0.00     0.000 C 
BRANCH  22  23
ATOM     23  C   UNL     1     -11.118  -5.135  -5.115  1.00  0.00     0.000 C 
BRANCH  23  24
ATOM     24  C   UNL     1      -9.910  -6.064  -5.324  1.00  0.00    -0.000 C 
BRANCH  24  25
ATOM     25  C   UNL     1      -9.570  -6.357  -6.797  1.00  0.00    -0.000 C 
BRANCH  25  26
ATOM     26  C   UNL     1      -8.054  -6.360  -7.069  1.00  0.00    -0.000 C 
BRANCH  26  27
ATOM     27  C   UNL     1      -7.231  -6.102  -5.795  1.00  0.00    -0.000 C 
BRANCH  27  28
ATOM     28  C   UNL     1      -5.708  -6.286  -5.997  1.00  0.00    -0.000 C 
BRANCH  28  29
ATOM     29  C   UNL     1      -4.904  -4.976  -5.881  1.00  0.00    -0.000 C 
BRANCH  29  30
ATOM     30  C   UNL     1      -3.390  -5.164  -5.679  1.00  0.00    -0.000 C 
BRANCH  30  31
ATOM     31  C   UNL     1      -2.706  -3.914  -5.102  1.00  0.00    -0.003 C 
ATOM     32  C   UNL     1      -3.440  -2.646  -5.526  1.00  0.00     0.004 C 
ENDBRANCH  30  31
ENDBRANCH  29  30
ENDBRANCH  28  29
ENDBRANCH  27  28
ENDBRANCH  26  27
ENDBRANCH  25  26
ENDBRANCH  24  25
ENDBRANCH  23  24
ENDBRANCH  22  23
ENDBRANCH  21  22
ENDBRANCH  20  21
ENDBRANCH  19  20
ENDBRANCH  18  19
ENDBRANCH   1  18
TORSDOF 28
ENDMDL
MODEL 9
REMARK VINA RESULT:     1.108      5.888     14.236
REMARK INTER + INTRA:           0.818
REMARK INTER:                   2.336
REMARK INTRA:                  -1.518
REMARK UNBOUND:                -2.104
REMARK SMILES CCCCCCCCCCCCCCCCCCCCCCCCCCCCCC(=O)[O-]
REMARK SMILES IDX 16 1 17 2 18 3 19 4 20 5 21 6 22 7 23 8 24 9 25 10 26 11
REMARK SMILES IDX 27 12 28 13 29 14 30 15 31 16 32 17 15 18 14 19 13 20 12 21
REMARK SMILES IDX 11 22 10 23 9 24 8 25 7 26 6 27 5 28 4 29 3 30 2 31 1 32
REMARK H PARENT
REMARK Flexibility Score: inf
ROOT
ATOM      1  C   UNL     1      -8.250   1.539  -0.414  1.00  0.00     0.000 C 
ENDROOT
BRANCH   1   2
ATOM      2  C   UNL     1      -8.508   3.055  -0.410  1.00  0.00     0.000 C 
BRANCH   2   3
ATOM      3  C   UNL     1      -8.311   3.693   0.976  1.00  0.00     0.000 C 
BRANCH   3   4
ATOM      4  C   UNL     1      -8.892   5.115   1.068  1.00  0.00     0.000 C 
BRANCH   4   5
ATOM      5  C   UNL     1      -9.923   5.300   2.202  1.00  0.00     0.000 C 
BRANCH   5   6
ATOM      6  C   UNL     1      -9.611   6.527   3.077  1.00  0.00     0.000 C 
BRANCH   6   7
ATOM      7  C   UNL     1     -10.758   6.875   4.044  1.00  0.00     0.000 C 
BRANCH   7   8
ATOM      8  C   UNL     1     -10.304   7.707   5.262  1.00  0.00     0.000 C 
BRANCH   8   9
ATOM      9  C   UNL     1      -9.887   6.830   6.452  1.00  0.00     0.000 C 
BRANCH   9  10
ATOM     10  C   UNL     1     -10.140   7.563   7.778  1.00  0.00     0.000 C 
BRANCH  10  11
ATOM     11  C   UNL     1      -9.335   8.865   7.902  1.00  0.00     0.000 C 
BRANCH  11  12
ATOM     12  C   UNL     1      -8.365   8.850   9.094  1.00  0.00     0.000 C 
BRANCH  12  13
ATOM     13  C   UNL     1      -6.908   8.922   8.617  1.00  0.00     0.006 C 
BRANCH  13  14
ATOM     14  C   UNL     1      -6.410   7.578   8.067  1.00  0.00     0.053 C 
BRANCH  14  15
ATOM     15  C   UNL     1      -4.939   7.605   7.783  1.00  0.00     0.041 C 
ATOM     16  O   UNL     1      -4.115   7.372   8.706  1.00  0.00    -0.550 OA
ATOM     17  O   UNL     1      -4.480   7.879   6.501  1.00  0.00    -0.550 OA
ENDBRANCH  14  15
ENDBRANCH  13  14
ENDBRANCH  12  13
ENDBRANCH  11  12
ENDBRANCH  10  11
ENDBRANCH   9  10
ENDBRANCH   8   9
ENDBRANCH   7   8
ENDBRANCH   6   7
ENDBRANCH   5   6
ENDBRANCH   4   5
ENDBRANCH   3   4
ENDBRANCH   2   3
ENDBRANCH   1   2
BRANCH   1  18
ATOM     18  C   UNL     1      -6.916   1.166  -1.084  1.00  0.00     0.000 C 
BRANCH  18  19
ATOM     19  C   UNL     1      -6.925  -0.254  -1.671  1.00  0.00     0.000 C 
BRANCH  19  20
ATOM     20  C   UNL     1      -7.997  -1.148  -1.029  1.00  0.00     0.000 C 
BRANCH  20  21
ATOM     21  C   UNL     1      -8.223  -2.421  -1.858  1.00  0.00     0.000 C 
BRANCH  21  22
ATOM     22  C   UNL     1      -9.082  -3.465  -1.126  1.00  0.00     0.000 C 
BRANCH  22  23
ATOM     23  C   UNL     1     -10.567  -3.393  -1.523  1.00  0.00     0.000 C 
BRANCH  23  24
ATOM     24  C   UNL     1     -10.769  -3.124  -3.025  1.00  0.00    -0.000 C 
BRANCH  24  25
ATOM     25  C   UNL     1     -10.918  -4.388  -3.891  1.00  0.00    -0.000 C 
BRANCH  25  26
ATOM     26  C   UNL     1     -10.740  -4.104  -5.394  1.00  0.00    -0.000 C 
BRANCH  26  27
ATOM     27  C   UNL     1     -10.684  -5.394  -6.231  1.00  0.00    -0.000 C 
BRANCH  27  28
ATOM     28  C   UNL     1     -10.637  -5.138  -7.756  1.00  0.00    -0.000 C 
BRANCH  28  29
ATOM     29  C   UNL     1      -9.640  -6.043  -8.506  1.00  0.00    -0.000 C 
BRANCH  29  30
ATOM     30  C   UNL     1      -8.420  -6.484  -7.678  1.00  0.00    -0.000 C 
BRANCH  30  31
ATOM     31  C   UNL     1      -7.196  -5.579  -7.893  1.00  0.00    -0.003 C 
ATOM     32  C   UNL     1      -6.333  -5.521  -6.636  1.00  0.00     0.004 C 
ENDBRANCH  30  31
ENDBRANCH  29  30
ENDBRANCH  28  29
ENDBRANCH  27  28
ENDBRANCH  26  27
ENDBRANCH  25  26
ENDBRANCH  24  25
ENDBRANCH  23  24
ENDBRANCH  22  23
ENDBRANCH  21  22
ENDBRANCH  20  21
ENDBRANCH  19  20
ENDBRANCH  18  19
ENDBRANCH   1  18
TORSDOF 28
ENDMDL
