MODEL 1
REMARK VINA RESULT:    -6.575      0.000      0.000
REMARK INTER + INTRA:          -8.164
REMARK INTER:                  -7.921
REMARK INTRA:                  -0.243
REMARK UNBOUND:                -0.243
REMARK SMILES O=c1c(O)c(-c2ccc(O)c(O)c2)oc2cc(O)cc(O)c12
REMARK SMILES IDX 5 1 3 2 2 3 1 4 22 5 20 6 19 7 17 8 16 9 15 10 14 11 6 12
REMARK SMILES IDX 7 13 8 14 9 15 13 16 11 17 10 18 12 20 4 22 21 24 18 26
REMARK H PARENT 10 19 12 21 4 23 21 25 18 27
REMARK Flexibility Score: inf
ROOT
ATOM      1  C   UNL     1     108.177  45.175 138.625  1.00  0.00     0.180 A 
ATOM      2  C   UNL     1     109.000  44.275 139.322  1.00  0.00     0.208 A 
ATOM      3  C   UNL     1     109.342  43.056 138.715  1.00  0.00     0.238 A 
ATOM      4  O   UNL     1     110.035  42.230 139.366  1.00  0.00    -0.285 OA
ATOM      5  C   UNL     1     108.869  42.759 137.414  1.00  0.00     0.111 A 
ATOM      6  C   UNL     1     109.184  41.572 136.688  1.00  0.00     0.134 A 
ATOM      7  C   UNL     1     108.555  41.323 135.462  1.00  0.00     0.093 A 
ATOM      8  C   UNL     1     107.672  42.248 134.906  1.00  0.00     0.123 A 
ATOM      9  C   UNL     1     107.402  43.440 135.579  1.00  0.00     0.094 A 
ATOM     10  C   UNL     1     107.986  43.700 136.822  1.00  0.00     0.146 A 
ATOM     11  O   UNL     1     107.694  44.840 137.434  1.00  0.00    -0.452 OA
ENDROOT
BRANCH   1  12
ATOM     12  C   UNL     1     107.795  46.491 139.189  1.00  0.00     0.025 A 
ATOM     13  C   UNL     1     108.755  47.512 139.272  1.00  0.00     0.016 A 
ATOM     14  C   UNL     1     108.423  48.754 139.820  1.00  0.00     0.051 A 
ATOM     15  C   UNL     1     107.129  48.987 140.306  1.00  0.00     0.157 A 
ATOM     16  C   UNL     1     106.504  46.723 139.698  1.00  0.00     0.062 A 
ATOM     17  C   UNL     1     106.170  47.968 140.248  1.00  0.00     0.158 A 
BRANCH  15  18
ATOM     18  O   UNL     1     106.793  50.224 140.852  1.00  0.00    -0.504 OA
ATOM     19  H   UNL     1     107.275  50.594 141.663  1.00  0.00     0.293 HD
ENDBRANCH  15  18
BRANCH  17  20
ATOM     20  O   UNL     1     104.888  48.199 140.746  1.00  0.00    -0.504 OA
ATOM     21  H   UNL     1     104.572  49.132 140.983  1.00  0.00     0.293 HD
ENDBRANCH  17  20
ENDBRANCH   1  12
BRANCH   2  22
ATOM     22  O   UNL     1     109.439  44.578 140.614  1.00  0.00    -0.502 OA
ATOM     23  H   UNL     1     109.025  45.316 141.170  1.00  0.00     0.293 HD
ENDBRANCH   2  22
BRANCH   6  24
ATOM     24  O   UNL     1     110.123  40.625 137.111  1.00  0.00    -0.507 OA
ATOM     25  H   UNL     1     110.232  39.706 136.711  1.00  0.00     0.293 HD
ENDBRANCH   6  24
BRANCH   8  26
ATOM     26  O   UNL     1     107.075  41.976 133.677  1.00  0.00    -0.508 OA
ATOM     27  H   UNL     1     106.392  42.603 133.269  1.00  0.00     0.293 HD
ENDBRANCH   8  26
TORSDOF 6
ENDMDL
MODEL 2
REMARK VINA RESULT:    -6.183      3.961      6.172
REMARK INTER + INTRA:          -7.690
REMARK INTER:                  -7.360
REMARK INTRA:                  -0.330
REMARK UNBOUND:                -0.243
REMARK SMILES O=c1c(O)c(-c2ccc(O)c(O)c2)oc2cc(O)cc(O)c12
REMARK SMILES IDX 5 1 3 2 2 3 1 4 22 5 20 6 19 7 17 8 16 9 15 10 14 11 6 12
REMARK SMILES IDX 7 13 8 14 9 15 13 16 11 17 10 18 12 20 4 22 21 24 18 26
REMARK H PARENT 10 19 12 21 4 23 21 25 18 27
REMARK Flexibility Score: inf
ROOT
ATOM      1  C   UNL     1     105.570  42.536 135.943  1.00  0.00     0.180 A 
ATOM      2  C   UNL     1     106.450  41.986 134.996  1.00  0.00     0.208 A 
ATOM      3  C   UNL     1     107.700  41.513 135.423  1.00  0.00     0.238 A 
ATOM      4  O   UNL     1     108.506  41.071 134.562  1.00  0.00    -0.285 OA
ATOM      5  C   UNL     1     108.050  41.583 136.793  1.00  0.00     0.111 A 
ATOM      6  C   UNL     1     109.275  41.098 137.343  1.00  0.00     0.134 A 
ATOM      7  C   UNL     1     109.570  41.338 138.690  1.00  0.00     0.093 A 
ATOM      8  C   UNL     1     108.658  41.987 139.523  1.00  0.00     0.123 A 
ATOM      9  C   UNL     1     107.432  42.412 139.010  1.00  0.00     0.094 A 
ATOM     10  C   UNL     1     107.124  42.220 137.660  1.00  0.00     0.146 A 
ATOM     11  O   UNL     1     105.952  42.649 137.210  1.00  0.00    -0.452 OA
ENDROOT
BRANCH   1  12
ATOM     12  C   UNL     1     104.224  43.032 135.573  1.00  0.00     0.025 A 
ATOM     13  C   UNL     1     104.055  44.384 135.234  1.00  0.00     0.016 A 
ATOM     14  C   UNL     1     102.791  44.879 134.903  1.00  0.00     0.051 A 
ATOM     15  C   UNL     1     101.675  44.031 134.920  1.00  0.00     0.157 A 
ATOM     16  C   UNL     1     103.097  42.190 135.610  1.00  0.00     0.062 A 
ATOM     17  C   UNL     1     101.828  42.686 135.278  1.00  0.00     0.158 A 
BRANCH  15  18
ATOM     18  O   UNL     1     100.412  44.520 134.589  1.00  0.00    -0.504 OA
ATOM     19  H   UNL     1      99.800  44.019 133.955  1.00  0.00     0.293 HD
ENDBRANCH  15  18
BRANCH  17  20
ATOM     20  O   UNL     1     100.714  41.849 135.309  1.00  0.00    -0.504 OA
ATOM     21  H   UNL     1     100.167  41.724 136.153  1.00  0.00     0.293 HD
ENDBRANCH  17  20
ENDBRANCH   1  12
BRANCH   2  22
ATOM     22  O   UNL     1     106.093  41.946 133.645  1.00  0.00    -0.502 OA
ATOM     23  H   UNL     1     105.200  41.589 133.328  1.00  0.00     0.293 HD
ENDBRANCH   2  22
BRANCH   6  24
ATOM     24  O   UNL     1     110.215  40.357 136.620  1.00  0.00    -0.507 OA
ATOM     25  H   UNL     1     111.055  40.736 136.213  1.00  0.00     0.293 HD
ENDBRANCH   6  24
BRANCH   8  26
ATOM     26  O   UNL     1     108.978  42.195 140.862  1.00  0.00    -0.508 OA
ATOM     27  H   UNL     1     108.858  41.466 141.556  1.00  0.00     0.293 HD
ENDBRANCH   8  26
TORSDOF 6
ENDMDL
MODEL 3
REMARK VINA RESULT:    -5.936      5.759     10.673
REMARK INTER + INTRA:          -7.394
REMARK INTER:                  -7.230
REMARK INTRA:                  -0.164
REMARK UNBOUND:                -0.243
REMARK SMILES O=c1c(O)c(-c2ccc(O)c(O)c2)oc2cc(O)cc(O)c12
REMARK SMILES IDX 5 1 3 2 2 3 1 4 22 5 20 6 19 7 17 8 16 9 15 10 14 11 6 12
REMARK SMILES IDX 7 13 8 14 9 15 13 16 11 17 10 18 12 20 4 22 21 24 18 26
REMARK H PARENT 10 19 12 21 4 23 21 25 18 27
REMARK Flexibility Score: inf
ROOT
ATOM      1  C   UNL     1     106.442  52.947 138.566  1.00  0.00     0.180 A 
ATOM      2  C   UNL     1     107.185  53.869 137.809  1.00  0.00     0.208 A 
ATOM      3  C   UNL     1     106.563  55.050 137.374  1.00  0.00     0.238 A 
ATOM      4  O   UNL     1     107.217  55.847 136.651  1.00  0.00    -0.285 OA
ATOM      5  C   UNL     1     105.212  55.302 137.714  1.00  0.00     0.111 A 
ATOM      6  C   UNL     1     104.493  56.483 137.360  1.00  0.00     0.134 A 
ATOM      7  C   UNL     1     103.123  56.567 137.635  1.00  0.00     0.093 A 
ATOM      8  C   UNL     1     102.460  55.542 138.309  1.00  0.00     0.123 A 
ATOM      9  C   UNL     1     103.166  54.408 138.713  1.00  0.00     0.094 A 
ATOM     10  C   UNL     1     104.526  54.279 138.420  1.00  0.00     0.146 A 
ATOM     11  O   UNL     1     105.158  53.179 138.811  1.00  0.00    -0.452 OA
ENDROOT
BRANCH   1  12
ATOM     12  C   UNL     1     107.036  51.692 139.081  1.00  0.00     0.025 A 
ATOM     13  C   UNL     1     108.076  51.756 140.022  1.00  0.00     0.016 A 
ATOM     14  C   UNL     1     108.666  50.585 140.507  1.00  0.00     0.051 A 
ATOM     15  C   UNL     1     108.234  49.334 140.044  1.00  0.00     0.157 A 
ATOM     16  C   UNL     1     106.621  50.435 138.605  1.00  0.00     0.062 A 
ATOM     17  C   UNL     1     107.212  49.260 139.090  1.00  0.00     0.158 A 
BRANCH  15  18
ATOM     18  O   UNL     1     108.818  48.164 140.526  1.00  0.00    -0.504 OA
ATOM     19  H   UNL     1     109.447  48.174 141.321  1.00  0.00     0.293 HD
ENDBRANCH  15  18
BRANCH  17  20
ATOM     20  O   UNL     1     106.795  48.015 138.622  1.00  0.00    -0.504 OA
ATOM     21  H   UNL     1     106.739  47.210 139.235  1.00  0.00     0.293 HD
ENDBRANCH  17  20
ENDBRANCH   1  12
BRANCH   2  22
ATOM     22  O   UNL     1     108.511  53.592 137.467  1.00  0.00    -0.502 OA
ATOM     23  H   UNL     1     109.056  52.876 137.933  1.00  0.00     0.293 HD
ENDBRANCH   2  22
BRANCH   6  24
ATOM     24  O   UNL     1     105.080  57.605 136.766  1.00  0.00    -0.507 OA
ATOM     25  H   UNL     1     105.245  58.482 137.234  1.00  0.00     0.293 HD
ENDBRANCH   6  24
BRANCH   8  26
ATOM     26  O   UNL     1     101.100  55.665 138.581  1.00  0.00    -0.508 OA
ATOM     27  H   UNL     1     100.590  54.942 139.074  1.00  0.00     0.293 HD
ENDBRANCH   8  26
TORSDOF 6
ENDMDL
MODEL 4
REMARK VINA RESULT:    -5.920      1.512      2.981
REMARK INTER + INTRA:          -7.374
REMARK INTER:                  -7.059
REMARK INTRA:                  -0.315
REMARK UNBOUND:                -0.243
REMARK SMILES O=c1c(O)c(-c2ccc(O)c(O)c2)oc2cc(O)cc(O)c12
REMARK SMILES IDX 5 1 3 2 2 3 1 4 22 5 20 6 19 7 17 8 16 9 15 10 14 11 6 12
REMARK SMILES IDX 7 13 8 14 9 15 13 16 11 17 10 18 12 20 4 22 21 24 18 26
REMARK H PARENT 10 19 12 21 4 23 21 25 18 27
REMARK Flexibility Score: inf
ROOT
ATOM      1  C   UNL     1     108.062  44.834 137.354  1.00  0.00     0.180 A 
ATOM      2  C   UNL     1     107.913  44.787 135.958  1.00  0.00     0.208 A 
ATOM      3  C   UNL     1     107.982  43.544 135.308  1.00  0.00     0.238 A 
ATOM      4  O   UNL     1     107.902  43.514 134.052  1.00  0.00    -0.285 OA
ATOM      5  C   UNL     1     108.185  42.364 136.063  1.00  0.00     0.111 A 
ATOM      6  C   UNL     1     108.234  41.048 135.514  1.00  0.00     0.134 A 
ATOM      7  C   UNL     1     108.570  39.967 136.337  1.00  0.00     0.093 A 
ATOM      8  C   UNL     1     108.797  40.144 137.702  1.00  0.00     0.123 A 
ATOM      9  C   UNL     1     108.694  41.419 138.261  1.00  0.00     0.094 A 
ATOM     10  C   UNL     1     108.395  42.522 137.458  1.00  0.00     0.146 A 
ATOM     11  O   UNL     1     108.318  43.719 138.028  1.00  0.00    -0.452 OA
ENDROOT
BRANCH   1  12
ATOM     12  C   UNL     1     107.975  46.104 138.113  1.00  0.00     0.025 A 
ATOM     13  C   UNL     1     109.154  46.730 138.548  1.00  0.00     0.016 A 
ATOM     14  C   UNL     1     109.096  47.917 139.283  1.00  0.00     0.051 A 
ATOM     15  C   UNL     1     107.856  48.486 139.607  1.00  0.00     0.157 A 
ATOM     16  C   UNL     1     106.733  46.668 138.458  1.00  0.00     0.062 A 
ATOM     17  C   UNL     1     106.674  47.858 139.197  1.00  0.00     0.158 A 
BRANCH  15  18
ATOM     18  O   UNL     1     107.793  49.670 140.338  1.00  0.00    -0.504 OA
ATOM     19  H   UNL     1     107.012  49.874 140.951  1.00  0.00     0.293 HD
ENDBRANCH  15  18
BRANCH  17  20
ATOM     20  O   UNL     1     105.443  48.419 139.533  1.00  0.00    -0.504 OA
ATOM     21  H   UNL     1     105.162  48.541 140.499  1.00  0.00     0.293 HD
ENDBRANCH  17  20
ENDBRANCH   1  12
BRANCH   2  22
ATOM     22  O   UNL     1     107.734  45.965 135.229  1.00  0.00    -0.502 OA
ATOM     23  H   UNL     1     108.204  46.830 135.469  1.00  0.00     0.293 HD
ENDBRANCH   2  22
BRANCH   6  24
ATOM     24  O   UNL     1     107.933  40.747 134.181  1.00  0.00    -0.507 OA
ATOM     25  H   UNL     1     107.294  41.272 133.604  1.00  0.00     0.293 HD
ENDBRANCH   6  24
BRANCH   8  26
ATOM     26  O   UNL     1     109.115  39.044 138.495  1.00  0.00    -0.508 OA
ATOM     27  H   UNL     1     109.534  39.154 139.411  1.00  0.00     0.293 HD
ENDBRANCH   8  26
TORSDOF 6
ENDMDL
MODEL 5
REMARK VINA RESULT:    -5.873      8.550      9.988
REMARK INTER + INTRA:          -7.317
REMARK INTER:                  -6.989
REMARK INTRA:                  -0.328
REMARK UNBOUND:                -0.243
REMARK SMILES O=c1c(O)c(-c2ccc(O)c(O)c2)oc2cc(O)cc(O)c12
REMARK SMILES IDX 5 1 3 2 2 3 1 4 22 5 20 6 19 7 17 8 16 9 15 10 14 11 6 12
REMARK SMILES IDX 7 13 8 14 9 15 13 16 11 17 10 18 12 20 4 22 21 24 18 26
REMARK H PARENT 10 19 12 21 4 23 21 25 18 27
REMARK Flexibility Score: inf
ROOT
ATOM      1  C   UNL     1     101.285  48.474 132.622  1.00  0.00     0.180 A 
ATOM      2  C   UNL     1     100.521  47.322 132.369  1.00  0.00     0.208 A 
ATOM      3  C   UNL     1     100.837  46.134 133.045  1.00  0.00     0.238 A 
ATOM      4  O   UNL     1     100.184  45.092 132.775  1.00  0.00    -0.285 OA
ATOM      5  C   UNL     1     101.904  46.114 133.976  1.00  0.00     0.111 A 
ATOM      6  C   UNL     1     102.288  44.976 134.746  1.00  0.00     0.134 A 
ATOM      7  C   UNL     1     103.440  45.034 135.539  1.00  0.00     0.093 A 
ATOM      8  C   UNL     1     104.186  46.209 135.640  1.00  0.00     0.123 A 
ATOM      9  C   UNL     1     103.786  47.346 134.937  1.00  0.00     0.094 A 
ATOM     10  C   UNL     1     102.661  47.308 134.109  1.00  0.00     0.146 A 
ATOM     11  O   UNL     1     102.321  48.408 133.450  1.00  0.00    -0.452 OA
ENDROOT
BRANCH   1  12
ATOM     12  C   UNL     1     100.996  49.771 131.966  1.00  0.00     0.025 A 
ATOM     13  C   UNL     1     101.736  50.153 130.836  1.00  0.00     0.016 A 
ATOM     14  C   UNL     1     101.494  51.381 130.214  1.00  0.00     0.051 A 
ATOM     15  C   UNL     1     100.521  52.251 130.724  1.00  0.00     0.157 A 
ATOM     16  C   UNL     1     100.034  50.656 132.487  1.00  0.00     0.062 A 
ATOM     17  C   UNL     1      99.793  51.889 131.864  1.00  0.00     0.158 A 
BRANCH  15  18
ATOM     18  O   UNL     1     100.276  53.476 130.106  1.00  0.00    -0.504 OA
ATOM     19  H   UNL     1      99.545  53.583 129.412  1.00  0.00     0.293 HD
ENDBRANCH  15  18
BRANCH  17  20
ATOM     20  O   UNL     1      98.835  52.762 132.377  1.00  0.00    -0.504 OA
ATOM     21  H   UNL     1      98.018  53.028 131.840  1.00  0.00     0.293 HD
ENDBRANCH  17  20
ENDBRANCH   1  12
BRANCH   2  22
ATOM     22  O   UNL     1      99.486  47.357 131.431  1.00  0.00    -0.502 OA
ATOM     23  H   UNL     1      99.571  47.837 130.543  1.00  0.00     0.293 HD
ENDBRANCH   2  22
BRANCH   6  24
ATOM     24  O   UNL     1     101.560  43.782 134.789  1.00  0.00    -0.507 OA
ATOM     25  H   UNL     1     101.456  43.203 135.608  1.00  0.00     0.293 HD
ENDBRANCH   6  24
BRANCH   8  26
ATOM     26  O   UNL     1     105.318  46.237 136.450  1.00  0.00    -0.508 OA
ATOM     27  H   UNL     1     106.152  46.745 136.180  1.00  0.00     0.293 HD
ENDBRANCH   8  26
TORSDOF 6
ENDMDL
MODEL 6
REMARK VINA RESULT:    -5.760      9.032     10.597
REMARK INTER + INTRA:          -7.181
REMARK INTER:                  -6.866
REMARK INTRA:                  -0.315
REMARK UNBOUND:                -0.243
REMARK SMILES O=c1c(O)c(-c2ccc(O)c(O)c2)oc2cc(O)cc(O)c12
REMARK SMILES IDX 5 1 3 2 2 3 1 4 22 5 20 6 19 7 17 8 16 9 15 10 14 11 6 12
REMARK SMILES IDX 7 13 8 14 9 15 13 16 11 17 10 18 12 20 4 22 21 24 18 26
REMARK H PARENT 10 19 12 21 4 23 21 25 18 27
REMARK Flexibility Score: inf
ROOT
ATOM      1  C   UNL     1     100.323  48.500 132.799  1.00  0.00     0.180 A 
ATOM      2  C   UNL     1      99.904  47.571 131.831  1.00  0.00     0.208 A 
ATOM      3  C   UNL     1      99.895  46.206 132.157  1.00  0.00     0.238 A 
ATOM      4  O   UNL     1      99.570  45.375 131.269  1.00  0.00    -0.285 OA
ATOM      5  C   UNL     1     100.289  45.787 133.451  1.00  0.00     0.111 A 
ATOM      6  C   UNL     1     100.281  44.434 133.903  1.00  0.00     0.134 A 
ATOM      7  C   UNL     1     100.817  44.121 135.158  1.00  0.00     0.093 A 
ATOM      8  C   UNL     1     101.300  45.119 136.004  1.00  0.00     0.123 A 
ATOM      9  C   UNL     1     101.257  46.453 135.596  1.00  0.00     0.094 A 
ATOM     10  C   UNL     1     100.763  46.793 134.334  1.00  0.00     0.146 A 
ATOM     11  O   UNL     1     100.751  48.072 133.981  1.00  0.00    -0.452 OA
ENDROOT
BRANCH   1  12
ATOM     12  C   UNL     1     100.336  49.958 132.537  1.00  0.00     0.025 A 
ATOM     13  C   UNL     1      99.154  50.699 132.699  1.00  0.00     0.016 A 
ATOM     14  C   UNL     1      99.137  52.072 132.438  1.00  0.00     0.051 A 
ATOM     15  C   UNL     1     100.299  52.720 131.996  1.00  0.00     0.157 A 
ATOM     16  C   UNL     1     101.493  50.609 132.074  1.00  0.00     0.062 A 
ATOM     17  C   UNL     1     101.478  51.986 131.810  1.00  0.00     0.158 A 
BRANCH  15  18
ATOM     18  O   UNL     1     100.288  54.089 131.736  1.00  0.00    -0.504 OA
ATOM     19  H   UNL     1      99.739  54.730 132.297  1.00  0.00     0.293 HD
ENDBRANCH  15  18
BRANCH  17  20
ATOM     20  O   UNL     1     102.627  52.631 131.357  1.00  0.00    -0.504 OA
ATOM     21  H   UNL     1     102.698  53.642 131.345  1.00  0.00     0.293 HD
ENDBRANCH  17  20
ENDBRANCH   1  12
BRANCH   2  22
ATOM     22  O   UNL     1      99.539  48.004 130.553  1.00  0.00    -0.502 OA
ATOM     23  H   UNL     1     100.217  48.164 129.818  1.00  0.00     0.293 HD
ENDBRANCH   2  22
BRANCH   6  24
ATOM     24  O   UNL     1      99.738  43.371 133.174  1.00  0.00    -0.507 OA
ATOM     25  H   UNL     1     100.246  42.813 132.505  1.00  0.00     0.293 HD
ENDBRANCH   6  24
BRANCH   8  26
ATOM     26  O   UNL     1     101.811  44.774 137.253  1.00  0.00    -0.508 OA
ATOM     27  H   UNL     1     101.257  44.264 137.930  1.00  0.00     0.293 HD
ENDBRANCH   8  26
TORSDOF 6
ENDMDL
MODEL 7
REMARK VINA RESULT:    -5.646      4.470      7.937
REMARK INTER + INTRA:          -7.044
REMARK INTER:                  -6.821
REMARK INTRA:                  -0.223
REMARK UNBOUND:                -0.243
REMARK SMILES O=c1c(O)c(-c2ccc(O)c(O)c2)oc2cc(O)cc(O)c12
REMARK SMILES IDX 5 1 3 2 2 3 1 4 22 5 20 6 19 7 17 8 16 9 15 10 14 11 6 12
REMARK SMILES IDX 7 13 8 14 9 15 13 16 11 17 10 18 12 20 4 22 21 24 18 26
REMARK H PARENT 10 19 12 21 4 23 21 25 18 27
REMARK Flexibility Score: inf
ROOT
ATOM      1  C   UNL     1     104.770  43.758 135.361  1.00  0.00     0.180 A 
ATOM      2  C   UNL     1     103.566  43.035 135.300  1.00  0.00     0.208 A 
ATOM      3  C   UNL     1     102.362  43.734 135.124  1.00  0.00     0.238 A 
ATOM      4  O   UNL     1     101.282  43.087 135.124  1.00  0.00    -0.285 OA
ATOM      5  C   UNL     1     102.377  45.144 134.995  1.00  0.00     0.111 A 
ATOM      6  C   UNL     1     101.220  45.950 134.774  1.00  0.00     0.134 A 
ATOM      7  C   UNL     1     101.336  47.345 134.794  1.00  0.00     0.093 A 
ATOM      8  C   UNL     1     102.575  47.963 134.962  1.00  0.00     0.123 A 
ATOM      9  C   UNL     1     103.722  47.183 135.120  1.00  0.00     0.094 A 
ATOM     10  C   UNL     1     103.633  45.789 135.141  1.00  0.00     0.146 A 
ATOM     11  O   UNL     1     104.746  45.085 135.305  1.00  0.00    -0.452 OA
ENDROOT
BRANCH   1  12
ATOM     12  C   UNL     1     106.083  43.090 135.520  1.00  0.00     0.025 A 
ATOM     13  C   UNL     1     106.835  43.313 136.685  1.00  0.00     0.016 A 
ATOM     14  C   UNL     1     108.085  42.710 136.847  1.00  0.00     0.051 A 
ATOM     15  C   UNL     1     108.607  41.888 135.840  1.00  0.00     0.157 A 
ATOM     16  C   UNL     1     106.621  42.280 134.503  1.00  0.00     0.062 A 
ATOM     17  C   UNL     1     107.875  41.675 134.665  1.00  0.00     0.158 A 
BRANCH  15  18
ATOM     18  O   UNL     1     109.853  41.283 135.998  1.00  0.00    -0.504 OA
ATOM     19  H   UNL     1     109.951  40.383 136.454  1.00  0.00     0.293 HD
ENDBRANCH  15  18
BRANCH  17  20
ATOM     20  O   UNL     1     108.404  40.868 133.659  1.00  0.00    -0.504 OA
ATOM     21  H   UNL     1     108.755  41.261 132.793  1.00  0.00     0.293 HD
ENDBRANCH  17  20
ENDBRANCH   1  12
BRANCH   2  22
ATOM     22  O   UNL     1     103.572  41.646 135.450  1.00  0.00    -0.502 OA
ATOM     23  H   UNL     1     104.097  41.034 134.837  1.00  0.00     0.293 HD
ENDBRANCH   2  22
BRANCH   6  24
ATOM     24  O   UNL     1      99.949  45.433 134.504  1.00  0.00    -0.507 OA
ATOM     25  H   UNL     1      99.082  45.911 134.694  1.00  0.00     0.293 HD
ENDBRANCH   6  24
BRANCH   8  26
ATOM     26  O   UNL     1     102.657  49.353 134.961  1.00  0.00    -0.508 OA
ATOM     27  H   UNL     1     102.710  49.881 134.098  1.00  0.00     0.293 HD
ENDBRANCH   8  26
TORSDOF 6
ENDMDL
MODEL 8
REMARK VINA RESULT:    -5.557      4.438      7.680
REMARK INTER + INTRA:          -6.936
REMARK INTER:                  -6.808
REMARK INTRA:                  -0.129
REMARK UNBOUND:                -0.243
REMARK SMILES O=c1c(O)c(-c2ccc(O)c(O)c2)oc2cc(O)cc(O)c12
REMARK SMILES IDX 5 1 3 2 2 3 1 4 22 5 20 6 19 7 17 8 16 9 15 10 14 11 6 12
REMARK SMILES IDX 7 13 8 14 9 15 13 16 11 17 10 18 12 20 4 22 21 24 18 26
REMARK H PARENT 10 19 12 21 4 23 21 25 18 27
REMARK Flexibility Score: inf
ROOT
ATOM      1  C   UNL     1     105.032  43.988 135.497  1.00  0.00     0.180 A 
ATOM      2  C   UNL     1     105.024  45.393 135.507  1.00  0.00     0.208 A 
ATOM      3  C   UNL     1     103.798  46.067 135.393  1.00  0.00     0.238 A 
ATOM      4  O   UNL     1     103.802  47.326 135.349  1.00  0.00    -0.285 OA
ATOM      5  C   UNL     1     102.595  45.329 135.285  1.00  0.00     0.111 A 
ATOM      6  C   UNL     1     101.293  45.908 135.203  1.00  0.00     0.134 A 
ATOM      7  C   UNL     1     100.185  45.086 134.966  1.00  0.00     0.093 A 
ATOM      8  C   UNL     1     100.322  43.701 134.874  1.00  0.00     0.123 A 
ATOM      9  C   UNL     1     101.583  43.119 135.012  1.00  0.00     0.094 A 
ATOM     10  C   UNL     1     102.713  43.916 135.212  1.00  0.00     0.146 A 
ATOM     11  O   UNL     1     103.895  43.324 135.327  1.00  0.00    -0.452 OA
ENDROOT
BRANCH   1  12
ATOM     12  C   UNL     1     106.283  43.207 135.639  1.00  0.00     0.025 A 
ATOM     13  C   UNL     1     107.050  43.338 136.808  1.00  0.00     0.016 A 
ATOM     14  C   UNL     1     108.244  42.626 136.954  1.00  0.00     0.051 A 
ATOM     15  C   UNL     1     108.695  41.787 135.927  1.00  0.00     0.157 A 
ATOM     16  C   UNL     1     106.751  42.379 134.602  1.00  0.00     0.062 A 
ATOM     17  C   UNL     1     107.950  41.666 134.748  1.00  0.00     0.158 A 
BRANCH  15  18
ATOM     18  O   UNL     1     109.885  41.074 136.069  1.00  0.00    -0.504 OA
ATOM     19  H   UNL     1     110.383  40.707 135.266  1.00  0.00     0.293 HD
ENDBRANCH  15  18
BRANCH  17  20
ATOM     20  O   UNL     1     108.409  40.841 133.722  1.00  0.00    -0.504 OA
ATOM     21  H   UNL     1     109.399  40.707 133.553  1.00  0.00     0.293 HD
ENDBRANCH  17  20
ENDBRANCH   1  12
BRANCH   2  22
ATOM     22  O   UNL     1     106.225  46.103 135.594  1.00  0.00    -0.502 OA
ATOM     23  H   UNL     1     107.078  45.788 135.147  1.00  0.00     0.293 HD
ENDBRANCH   2  22
BRANCH   6  24
ATOM     24  O   UNL     1     101.034  47.272 135.374  1.00  0.00    -0.507 OA
ATOM     25  H   UNL     1     101.094  47.964 134.643  1.00  0.00     0.293 HD
ENDBRANCH   6  24
BRANCH   8  26
ATOM     26  O   UNL     1      99.196  42.912 134.654  1.00  0.00    -0.508 OA
ATOM     27  H   UNL     1      98.861  42.259 135.353  1.00  0.00     0.293 HD
ENDBRANCH   8  26
TORSDOF 6
ENDMDL
MODEL 9
REMARK VINA RESULT:    -5.062      3.552      5.221
REMARK INTER + INTRA:          -6.341
REMARK INTER:                  -6.024
REMARK INTRA:                  -0.317
REMARK UNBOUND:                -0.243
REMARK SMILES O=c1c(O)c(-c2ccc(O)c(O)c2)oc2cc(O)cc(O)c12
REMARK SMILES IDX 5 1 3 2 2 3 1 4 22 5 20 6 19 7 17 8 16 9 15 10 14 11 6 12
REMARK SMILES IDX 7 13 8 14 9 15 13 16 11 17 10 18 12 20 4 22 21 24 18 26
REMARK H PARENT 10 19 12 21 4 23 21 25 18 27
REMARK Flexibility Score: inf
ROOT
ATOM      1  C   UNL     1     106.293  43.433 136.178  1.00  0.00     0.180 A 
ATOM      2  C   UNL     1     107.164  42.926 135.198  1.00  0.00     0.208 A 
ATOM      3  C   UNL     1     108.237  42.113 135.597  1.00  0.00     0.238 A 
ATOM      4  O   UNL     1     109.045  41.707 134.722  1.00  0.00    -0.285 OA
ATOM      5  C   UNL     1     108.417  41.806 136.967  1.00  0.00     0.111 A 
ATOM      6  C   UNL     1     109.447  40.962 137.480  1.00  0.00     0.134 A 
ATOM      7  C   UNL     1     109.610  40.832 138.865  1.00  0.00     0.093 A 
ATOM      8  C   UNL     1     108.741  41.465 139.754  1.00  0.00     0.123 A 
ATOM      9  C   UNL     1     107.694  42.245 139.262  1.00  0.00     0.094 A 
ATOM     10  C   UNL     1     107.528  42.422 137.886  1.00  0.00     0.146 A 
ATOM     11  O   UNL     1     106.526  43.182 137.461  1.00  0.00    -0.452 OA
ENDROOT
BRANCH   1  12
ATOM     12  C   UNL     1     105.124  44.275 135.832  1.00  0.00     0.025 A 
ATOM     13  C   UNL     1     103.920  43.662 135.450  1.00  0.00     0.016 A 
ATOM     14  C   UNL     1     102.811  44.436 135.099  1.00  0.00     0.051 A 
ATOM     15  C   UNL     1     102.896  45.835 135.111  1.00  0.00     0.157 A 
ATOM     16  C   UNL     1     105.210  45.679 135.822  1.00  0.00     0.062 A 
ATOM     17  C   UNL     1     104.098  46.457 135.469  1.00  0.00     0.158 A 
BRANCH  15  18
ATOM     18  O   UNL     1     101.792  46.612 134.763  1.00  0.00    -0.504 OA
ATOM     19  H   UNL     1     101.810  47.229 133.959  1.00  0.00     0.293 HD
ENDBRANCH  15  18
BRANCH  17  20
ATOM     20  O   UNL     1     104.183  47.848 135.466  1.00  0.00    -0.504 OA
ATOM     21  H   UNL     1     103.365  48.430 135.607  1.00  0.00     0.293 HD
ENDBRANCH  17  20
ENDBRANCH   1  12
BRANCH   2  22
ATOM     22  O   UNL     1     106.980  43.259 133.854  1.00  0.00    -0.502 OA
ATOM     23  H   UNL     1     106.120  43.061 133.356  1.00  0.00     0.293 HD
ENDBRANCH   2  22
BRANCH   6  24
ATOM     24  O   UNL     1     110.312  40.211 136.678  1.00  0.00    -0.507 OA
ATOM     25  H   UNL     1     110.459  40.364 135.692  1.00  0.00     0.293 HD
ENDBRANCH   6  24
BRANCH   8  26
ATOM     26  O   UNL     1     108.922  41.302 141.125  1.00  0.00    -0.508 OA
ATOM     27  H   UNL     1     108.198  40.905 141.712  1.00  0.00     0.293 HD
ENDBRANCH   8  26
TORSDOF 6
ENDMDL
