MODEL 1
REMARK VINA RESULT:    -7.131      0.000      0.000
REMARK INTER + INTRA:         -12.453
REMARK INTER:                 -10.466
REMARK INTRA:                  -1.987
REMARK UNBOUND:                -1.987
REMARK SMILES O=c1c(O[C@H]2O[C@H](CO)[C@H](O)[C@@H](O)[C@H]2O)c(-c2ccc(O)c(O)c2)oc2cc(O)cc(O)c12
REMARK SMILES IDX 4 1 3 2 16 3 25 4 2 5 26 6 1 7 33 8 27 9 31 10 28 11 30 12
REMARK SMILES IDX 17 13 18 14 19 15 20 16 24 17 22 18 21 19 23 21 32 23 29 25
REMARK SMILES IDX 5 27 14 28 6 29 12 30 7 31 10 32 15 33 13 35 8 37 9 38 11 40
REMARK H PARENT 21 20 23 22 32 24 29 26 15 34 13 36 9 39 11 41
REMARK Flexibility Score: inf
ROOT
ATOM      1  O   UNL     1       0.057 -21.142  25.795  1.00  0.00    -0.454 OA
ENDROOT
BRANCH   1   2
ATOM      2  C   UNL     1      -0.467 -19.875  26.083  1.00  0.00     0.214 A 
ATOM      3  C   UNL     1      -0.851 -19.509  27.387  1.00  0.00     0.180 A 
ATOM      4  O   UNL     1      -1.278 -18.276  27.624  1.00  0.00    -0.452 OA
ATOM      5  C   UNL     1      -0.613 -18.947  25.046  1.00  0.00     0.239 A 
ATOM      6  C   UNL     1      -1.394 -17.348  26.681  1.00  0.00     0.146 A 
ATOM      7  O   UNL     1      -0.363 -19.321  23.871  1.00  0.00    -0.285 OA
ATOM      8  C   UNL     1      -1.046 -17.629  25.333  1.00  0.00     0.111 A 
ATOM      9  C   UNL     1      -1.882 -16.089  27.041  1.00  0.00     0.094 A 
ATOM     10  C   UNL     1      -1.171 -16.587  24.366  1.00  0.00     0.134 A 
ATOM     11  C   UNL     1      -2.048 -15.093  26.077  1.00  0.00     0.123 A 
ATOM     12  C   UNL     1      -1.700 -15.348  24.752  1.00  0.00     0.093 A 
BRANCH   3  13
ATOM     13  C   UNL     1      -0.823 -20.465  28.514  1.00  0.00     0.025 A 
ATOM     14  C   UNL     1       0.130 -20.349  29.537  1.00  0.00     0.016 A 
ATOM     15  C   UNL     1       0.149 -21.266  30.589  1.00  0.00     0.051 A 
ATOM     16  C   UNL     1      -0.768 -22.321  30.633  1.00  0.00     0.157 A 
ATOM     17  C   UNL     1      -1.727 -21.536  28.540  1.00  0.00     0.062 A 
ATOM     18  C   UNL     1      -1.715 -22.462  29.591  1.00  0.00     0.158 A 
BRANCH  16  19
ATOM     19  O   UNL     1      -0.701 -23.199  31.716  1.00  0.00    -0.504 OA
ATOM     20  H   UNL     1      -1.415 -23.880  31.937  1.00  0.00     0.293 HD
ENDBRANCH  16  19
BRANCH  18  21
ATOM     21  O   UNL     1      -2.653 -23.496  29.559  1.00  0.00    -0.504 OA
ATOM     22  H   UNL     1      -3.149 -23.783  28.728  1.00  0.00     0.293 HD
ENDBRANCH  18  21
ENDBRANCH   3  13
BRANCH  10  23
ATOM     23  O   UNL     1      -0.771 -16.703  23.031  1.00  0.00    -0.507 OA
ATOM     24  H   UNL     1      -1.396 -16.794  22.245  1.00  0.00     0.293 HD
ENDBRANCH  10  23
BRANCH  11  25
ATOM     25  O   UNL     1      -2.555 -13.844  26.426  1.00  0.00    -0.508 OA
ATOM     26  H   UNL     1      -2.035 -12.992  26.250  1.00  0.00     0.293 HD
ENDBRANCH  11  25
ENDBRANCH   1   2
BRANCH   1  27
ATOM     27  C   UNL     1       1.445 -21.465  25.944  1.00  0.00     0.339 C 
ATOM     28  C   UNL     1       2.008 -22.093  24.655  1.00  0.00     0.214 C 
ATOM     29  O   UNL     1       1.647 -22.317  27.060  1.00  0.00    -0.332 OA
ATOM     30  C   UNL     1       1.410 -23.497  24.420  1.00  0.00     0.180 C 
ATOM     31  C   UNL     1       0.966 -23.553  26.904  1.00  0.00     0.179 C 
ATOM     32  C   UNL     1       1.537 -24.341  25.701  1.00  0.00     0.177 C 
BRANCH  28  33
ATOM     33  O   UNL     1       1.748 -21.250  23.563  1.00  0.00    -0.384 OA
ATOM     34  H   UNL     1       0.821 -20.914  23.675  1.00  0.00     0.211 HD
ENDBRANCH  28  33
BRANCH  30  35
ATOM     35  O   UNL     1       0.055 -23.407  24.055  1.00  0.00    -0.387 OA
ATOM     36  H   UNL     1      -0.479 -23.558  24.878  1.00  0.00     0.211 HD
ENDBRANCH  30  35
BRANCH  31  37
ATOM     37  C   UNL     1       1.093 -24.346  28.214  1.00  0.00     0.191 C 
BRANCH  37  38
ATOM     38  O   UNL     1       1.031 -25.727  27.975  1.00  0.00    -0.394 OA
ATOM     39  H   UNL     1       0.634 -26.138  28.786  1.00  0.00     0.210 HD
ENDBRANCH  37  38
ENDBRANCH  31  37
BRANCH  32  40
ATOM     40  O   UNL     1       2.887 -24.657  25.935  1.00  0.00    -0.387 OA
ATOM     41  H   UNL     1       3.170 -25.267  25.206  1.00  0.00     0.211 HD
ENDBRANCH  32  40
ENDBRANCH   1  27
TORSDOF 12
ENDMDL
MODEL 2
REMARK VINA RESULT:    -7.119      2.322      7.772
REMARK INTER + INTRA:         -12.436
REMARK INTER:                 -10.501
REMARK INTRA:                  -1.935
REMARK UNBOUND:                -1.987
REMARK SMILES O=c1c(O[C@H]2O[C@H](CO)[C@H](O)[C@@H](O)[C@H]2O)c(-c2ccc(O)c(O)c2)oc2cc(O)cc(O)c12
REMARK SMILES IDX 4 1 3 2 16 3 25 4 2 5 26 6 1 7 33 8 27 9 31 10 28 11 30 12
REMARK SMILES IDX 17 13 18 14 19 15 20 16 24 17 22 18 21 19 23 21 32 23 29 25
REMARK SMILES IDX 5 27 14 28 6 29 12 30 7 31 10 32 15 33 13 35 8 37 9 38 11 40
REMARK H PARENT 21 20 23 22 32 24 29 26 15 34 13 36 9 39 11 41
REMARK Flexibility Score: inf
ROOT
ATOM      1  O   UNL     1      -0.946 -19.787  28.979  1.00  0.00    -0.454 OA
ENDROOT
BRANCH   1   2
ATOM      2  C   UNL     1      -1.007 -21.173  29.170  1.00  0.00     0.214 A 
ATOM      3  C   UNL     1      -0.462 -22.076  28.237  1.00  0.00     0.180 A 
ATOM      4  O   UNL     1      -0.484 -23.378  28.493  1.00  0.00    -0.452 OA
ATOM      5  C   UNL     1      -1.627 -21.675  30.319  1.00  0.00     0.239 A 
ATOM      6  C   UNL     1      -1.023 -23.898  29.590  1.00  0.00     0.146 A 
ATOM      7  O   UNL     1      -2.199 -20.863  31.092  1.00  0.00    -0.285 OA
ATOM      8  C   UNL     1      -1.611 -23.067  30.580  1.00  0.00     0.111 A 
ATOM      9  C   UNL     1      -1.014 -25.287  29.742  1.00  0.00     0.094 A 
ATOM     10  C   UNL     1      -2.157 -23.681  31.747  1.00  0.00     0.134 A 
ATOM     11  C   UNL     1      -1.596 -25.879  30.864  1.00  0.00     0.123 A 
ATOM     12  C   UNL     1      -2.166 -25.078  31.851  1.00  0.00     0.093 A 
BRANCH   3  13
ATOM     13  C   UNL     1       0.116 -21.629  26.952  1.00  0.00     0.025 A 
ATOM     14  C   UNL     1       1.498 -21.699  26.719  1.00  0.00     0.016 A 
ATOM     15  C   UNL     1       2.030 -21.264  25.504  1.00  0.00     0.051 A 
ATOM     16  C   UNL     1       1.199 -20.737  24.509  1.00  0.00     0.157 A 
ATOM     17  C   UNL     1      -0.716 -21.077  25.969  1.00  0.00     0.062 A 
ATOM     18  C   UNL     1      -0.192 -20.636  24.747  1.00  0.00     0.158 A 
BRANCH  16  19
ATOM     19  O   UNL     1       1.793 -20.326  23.314  1.00  0.00    -0.504 OA
ATOM     20  H   UNL     1       1.915 -20.925  22.509  1.00  0.00     0.293 HD
ENDBRANCH  16  19
BRANCH  18  21
ATOM     21  O   UNL     1      -1.082 -20.111  23.808  1.00  0.00    -0.504 OA
ATOM     22  H   UNL     1      -1.188 -20.467  22.870  1.00  0.00     0.293 HD
ENDBRANCH  18  21
ENDBRANCH   3  13
BRANCH  10  23
ATOM     23  O   UNL     1      -2.673 -22.973  32.837  1.00  0.00    -0.507 OA
ATOM     24  H   UNL     1      -3.429 -22.308  32.789  1.00  0.00     0.293 HD
ENDBRANCH  10  23
BRANCH  11  25
ATOM     25  O   UNL     1      -1.610 -27.264  31.009  1.00  0.00    -0.508 OA
ATOM     26  H   UNL     1      -0.750 -27.802  31.049  1.00  0.00     0.293 HD
ENDBRANCH  11  25
ENDBRANCH   1   2
BRANCH   1  27
ATOM     27  C   UNL     1       0.249 -19.022  29.185  1.00  0.00     0.339 C 
ATOM     28  C   UNL     1       0.021 -17.913  30.230  1.00  0.00     0.214 C 
ATOM     29  O   UNL     1       0.722 -18.484  27.960  1.00  0.00    -0.332 OA
ATOM     30  C   UNL     1      -0.924 -16.824  29.679  1.00  0.00     0.180 C 
ATOM     31  C   UNL     1      -0.223 -17.597  27.381  1.00  0.00     0.179 C 
ATOM     32  C   UNL     1      -0.442 -16.365  28.291  1.00  0.00     0.177 C 
BRANCH  28  33
ATOM     33  O   UNL     1      -0.493 -18.471  31.411  1.00  0.00    -0.384 OA
ATOM     34  H   UNL     1      -0.104 -17.954  32.164  1.00  0.00     0.211 HD
ENDBRANCH  28  33
BRANCH  30  35
ATOM     35  O   UNL     1      -2.239 -17.312  29.576  1.00  0.00    -0.387 OA
ATOM     36  H   UNL     1      -2.665 -16.842  28.812  1.00  0.00     0.211 HD
ENDBRANCH  30  35
BRANCH  31  37
ATOM     37  C   UNL     1       0.284 -17.191  25.988  1.00  0.00     0.191 C 
BRANCH  37  38
ATOM     38  O   UNL     1       1.685 -17.250  25.925  1.00  0.00    -0.394 OA
ATOM     39  H   UNL     1       2.011 -17.257  26.862  1.00  0.00     0.210 HD
ENDBRANCH  37  38
ENDBRANCH  31  37
BRANCH  32  40
ATOM     40  O   UNL     1       0.759 -15.644  28.416  1.00  0.00    -0.387 OA
ATOM     41  H   UNL     1       0.795 -15.013  27.651  1.00  0.00     0.211 HD
ENDBRANCH  32  40
ENDBRANCH   1  27
TORSDOF 12
ENDMDL
MODEL 3
REMARK VINA RESULT:    -7.110      2.010      6.734
REMARK INTER + INTRA:         -12.422
REMARK INTER:                 -10.488
REMARK INTRA:                  -1.934
REMARK UNBOUND:                -1.987
REMARK SMILES O=c1c(O[C@H]2O[C@H](CO)[C@H](O)[C@@H](O)[C@H]2O)c(-c2ccc(O)c(O)c2)oc2cc(O)cc(O)c12
REMARK SMILES IDX 4 1 3 2 16 3 25 4 2 5 26 6 1 7 33 8 27 9 31 10 28 11 30 12
REMARK SMILES IDX 17 13 18 14 19 15 20 16 24 17 22 18 21 19 23 21 32 23 29 25
REMARK SMILES IDX 5 27 14 28 6 29 12 30 7 31 10 32 15 33 13 35 8 37 9 38 11 40
REMARK H PARENT 21 20 23 22 32 24 29 26 15 34 13 36 9 39 11 41
REMARK Flexibility Score: inf
ROOT
ATOM      1  O   UNL     1       0.998 -21.238  26.115  1.00  0.00    -0.454 OA
ENDROOT
BRANCH   1   2
ATOM      2  C   UNL     1       1.151 -22.261  27.060  1.00  0.00     0.214 A 
ATOM      3  C   UNL     1       0.776 -22.091  28.406  1.00  0.00     0.180 A 
ATOM      4  O   UNL     1       0.877 -23.110  29.250  1.00  0.00    -0.452 OA
ATOM      5  C   UNL     1       1.693 -23.485  26.655  1.00  0.00     0.239 A 
ATOM      6  C   UNL     1       1.345 -24.303  28.903  1.00  0.00     0.146 A 
ATOM      7  O   UNL     1       2.118 -23.590  25.476  1.00  0.00    -0.285 OA
ATOM      8  C   UNL     1       1.763 -24.564  27.571  1.00  0.00     0.111 A 
ATOM      9  C   UNL     1       1.433 -25.295  29.882  1.00  0.00     0.094 A 
ATOM     10  C   UNL     1       2.238 -25.871  27.251  1.00  0.00     0.134 A 
ATOM     11  C   UNL     1       1.947 -26.554  29.569  1.00  0.00     0.123 A 
ATOM     12  C   UNL     1       2.350 -26.832  28.264  1.00  0.00     0.093 A 
BRANCH   3  13
ATOM     13  C   UNL     1       0.293 -20.796  28.932  1.00  0.00     0.025 A 
ATOM     14  C   UNL     1       1.183 -19.738  29.173  1.00  0.00     0.016 A 
ATOM     15  C   UNL     1       0.713 -18.525  29.679  1.00  0.00     0.051 A 
ATOM     16  C   UNL     1      -0.645 -18.351  29.969  1.00  0.00     0.157 A 
ATOM     17  C   UNL     1      -1.063 -20.635  29.247  1.00  0.00     0.062 A 
ATOM     18  C   UNL     1      -1.544 -19.422  29.756  1.00  0.00     0.158 A 
BRANCH  16  19
ATOM     19  O   UNL     1      -1.052 -17.110  30.466  1.00  0.00    -0.504 OA
ATOM     20  H   UNL     1      -0.491 -16.537  31.081  1.00  0.00     0.293 HD
ENDBRANCH  16  19
BRANCH  18  21
ATOM     21  O   UNL     1      -2.909 -19.327  30.033  1.00  0.00    -0.504 OA
ATOM     22  H   UNL     1      -3.341 -18.532  30.481  1.00  0.00     0.293 HD
ENDBRANCH  18  21
ENDBRANCH   3  13
BRANCH  10  23
ATOM     23  O   UNL     1       2.585 -26.286  25.961  1.00  0.00    -0.507 OA
ATOM     24  H   UNL     1       2.859 -25.671  25.210  1.00  0.00     0.293 HD
ENDBRANCH  10  23
BRANCH  11  25
ATOM     25  O   UNL     1       2.057 -27.540  30.547  1.00  0.00    -0.508 OA
ATOM     26  H   UNL     1       1.521 -28.399  30.497  1.00  0.00     0.293 HD
ENDBRANCH  11  25
ENDBRANCH   1   2
BRANCH   1  27
ATOM     27  C   UNL     1      -0.122 -21.160  25.224  1.00  0.00     0.339 C 
ATOM     28  C   UNL     1       0.336 -20.837  23.789  1.00  0.00     0.214 C 
ATOM     29  O   UNL     1      -1.070 -20.211  25.686  1.00  0.00    -0.332 OA
ATOM     30  C   UNL     1       0.877 -19.394  23.696  1.00  0.00     0.180 C 
ATOM     31  C   UNL     1      -0.516 -18.906  25.743  1.00  0.00     0.179 C 
ATOM     32  C   UNL     1      -0.129 -18.416  24.327  1.00  0.00     0.177 C 
BRANCH  28  33
ATOM     33  O   UNL     1       1.309 -21.763  23.380  1.00  0.00    -0.384 OA
ATOM     34  H   UNL     1       1.801 -21.347  22.626  1.00  0.00     0.211 HD
ENDBRANCH  28  33
BRANCH  30  35
ATOM     35  O   UNL     1       2.112 -19.282  24.358  1.00  0.00    -0.387 OA
ATOM     36  H   UNL     1       1.960 -19.545  25.303  1.00  0.00     0.211 HD
ENDBRANCH  30  35
BRANCH  31  37
ATOM     37  C   UNL     1      -1.541 -17.972  26.406  1.00  0.00     0.191 C 
BRANCH  37  38
ATOM     38  O   UNL     1      -2.664 -18.689  26.846  1.00  0.00    -0.394 OA
ATOM     39  H   UNL     1      -3.461 -18.189  26.529  1.00  0.00     0.210 HD
ENDBRANCH  37  38
ENDBRANCH  31  37
BRANCH  32  40
ATOM     40  O   UNL     1      -1.280 -18.327  23.522  1.00  0.00    -0.387 OA
ATOM     41  H   UNL     1      -1.615 -19.252  23.398  1.00  0.00     0.211 HD
ENDBRANCH  32  40
ENDBRANCH   1  27
TORSDOF 12
ENDMDL
MODEL 4
REMARK VINA RESULT:    -7.067      0.522      1.192
REMARK INTER + INTRA:         -12.359
REMARK INTER:                 -10.513
REMARK INTRA:                  -1.846
REMARK UNBOUND:                -1.987
REMARK SMILES O=c1c(O[C@H]2O[C@H](CO)[C@H](O)[C@@H](O)[C@H]2O)c(-c2ccc(O)c(O)c2)oc2cc(O)cc(O)c12
REMARK SMILES IDX 4 1 3 2 16 3 25 4 2 5 26 6 1 7 33 8 27 9 31 10 28 11 30 12
REMARK SMILES IDX 17 13 18 14 19 15 20 16 24 17 22 18 21 19 23 21 32 23 29 25
REMARK SMILES IDX 5 27 14 28 6 29 12 30 7 31 10 32 15 33 13 35 8 37 9 38 11 40
REMARK H PARENT 21 20 23 22 32 24 29 26 15 34 13 36 9 39 11 41
REMARK Flexibility Score: inf
ROOT
ATOM      1  O   UNL     1      -0.000 -20.986  25.803  1.00  0.00    -0.454 OA
ENDROOT
BRANCH   1   2
ATOM      2  C   UNL     1      -0.551 -19.743  26.141  1.00  0.00     0.214 A 
ATOM      3  C   UNL     1      -1.006 -19.462  27.444  1.00  0.00     0.180 A 
ATOM      4  O   UNL     1      -1.457 -18.248  27.734  1.00  0.00    -0.452 OA
ATOM      5  C   UNL     1      -0.652 -18.753  25.158  1.00  0.00     0.239 A 
ATOM      6  C   UNL     1      -1.532 -17.264  26.845  1.00  0.00     0.146 A 
ATOM      7  O   UNL     1      -0.337 -19.051  23.976  1.00  0.00    -0.285 OA
ATOM      8  C   UNL     1      -1.112 -17.459  25.503  1.00  0.00     0.111 A 
ATOM      9  C   UNL     1      -2.051 -16.034  27.256  1.00  0.00     0.094 A 
ATOM     10  C   UNL     1      -1.197 -16.359  24.596  1.00  0.00     0.134 A 
ATOM     11  C   UNL     1      -2.177 -14.981  26.348  1.00  0.00     0.123 A 
ATOM     12  C   UNL     1      -1.757 -15.151  25.030  1.00  0.00     0.093 A 
BRANCH   3  13
ATOM     13  C   UNL     1      -1.027 -20.486  28.509  1.00  0.00     0.025 A 
ATOM     14  C   UNL     1      -1.794 -21.653  28.373  1.00  0.00     0.016 A 
ATOM     15  C   UNL     1      -1.812 -22.606  29.393  1.00  0.00     0.051 A 
ATOM     16  C   UNL     1      -1.081 -22.407  30.569  1.00  0.00     0.157 A 
ATOM     17  C   UNL     1      -0.316 -20.270  29.697  1.00  0.00     0.062 A 
ATOM     18  C   UNL     1      -0.328 -21.220  30.726  1.00  0.00     0.158 A 
BRANCH  16  19
ATOM     19  O   UNL     1      -1.135 -23.402  31.547  1.00  0.00    -0.504 OA
ATOM     20  H   UNL     1      -1.470 -24.341  31.379  1.00  0.00     0.293 HD
ENDBRANCH  16  19
BRANCH  18  21
ATOM     21  O   UNL     1       0.416 -20.945  31.875  1.00  0.00    -0.504 OA
ATOM     22  H   UNL     1       0.015 -20.623  32.744  1.00  0.00     0.293 HD
ENDBRANCH  18  21
ENDBRANCH   3  13
BRANCH  10  23
ATOM     23  O   UNL     1      -0.726 -16.389  23.280  1.00  0.00    -0.507 OA
ATOM     24  H   UNL     1      -1.074 -15.815  22.528  1.00  0.00     0.293 HD
ENDBRANCH  10  23
BRANCH  11  25
ATOM     25  O   UNL     1      -2.714 -13.760  26.747  1.00  0.00    -0.508 OA
ATOM     26  H   UNL     1      -3.715 -13.625  26.838  1.00  0.00     0.293 HD
ENDBRANCH  11  25
ENDBRANCH   1   2
BRANCH   1  27
ATOM     27  C   UNL     1       1.399 -21.278  25.919  1.00  0.00     0.339 C 
ATOM     28  C   UNL     1       1.954 -21.852  24.601  1.00  0.00     0.214 C 
ATOM     29  O   UNL     1       1.642 -22.158  27.005  1.00  0.00    -0.332 OA
ATOM     30  C   UNL     1       1.388 -23.263  24.334  1.00  0.00     0.180 C 
ATOM     31  C   UNL     1       0.989 -23.405  26.822  1.00  0.00     0.179 C 
ATOM     32  C   UNL     1       1.558 -24.141  25.585  1.00  0.00     0.177 C 
BRANCH  28  33
ATOM     33  O   UNL     1       1.653 -20.982  23.541  1.00  0.00    -0.384 OA
ATOM     34  H   UNL     1       1.237 -21.534  22.828  1.00  0.00     0.211 HD
ENDBRANCH  28  33
BRANCH  30  35
ATOM     35  O   UNL     1       0.025 -23.196  23.995  1.00  0.00    -0.387 OA
ATOM     36  H   UNL     1      -0.061 -22.532  23.262  1.00  0.00     0.211 HD
ENDBRANCH  30  35
BRANCH  31  37
ATOM     37  C   UNL     1       1.159 -24.235  28.104  1.00  0.00     0.191 C 
BRANCH  37  38
ATOM     38  O   UNL     1       1.131 -25.609  27.823  1.00  0.00    -0.394 OA
ATOM     39  H   UNL     1       0.232 -25.805  27.453  1.00  0.00     0.210 HD
ENDBRANCH  37  38
ENDBRANCH  31  37
BRANCH  32  40
ATOM     40  O   UNL     1       2.920 -24.429  25.786  1.00  0.00    -0.387 OA
ATOM     41  H   UNL     1       3.154 -25.163  25.161  1.00  0.00     0.211 HD
ENDBRANCH  32  40
ENDBRANCH   1  27
TORSDOF 12
ENDMDL
MODEL 5
REMARK VINA RESULT:    -7.034      2.189      3.874
REMARK INTER + INTRA:         -12.312
REMARK INTER:                 -11.191
REMARK INTRA:                  -1.121
REMARK UNBOUND:                -1.987
REMARK SMILES O=c1c(O[C@H]2O[C@H](CO)[C@H](O)[C@@H](O)[C@H]2O)c(-c2ccc(O)c(O)c2)oc2cc(O)cc(O)c12
REMARK SMILES IDX 4 1 3 2 16 3 25 4 2 5 26 6 1 7 33 8 27 9 31 10 28 11 30 12
REMARK SMILES IDX 17 13 18 14 19 15 20 16 24 17 22 18 21 19 23 21 32 23 29 25
REMARK SMILES IDX 5 27 14 28 6 29 12 30 7 31 10 32 15 33 13 35 8 37 9 38 11 40
REMARK H PARENT 21 20 23 22 32 24 29 26 15 34 13 36 9 39 11 41
REMARK Flexibility Score: inf
ROOT
ATOM      1  O   UNL     1       1.055 -23.729  27.581  1.00  0.00    -0.454 OA
ENDROOT
BRANCH   1   2
ATOM      2  C   UNL     1       0.480 -22.631  26.928  1.00  0.00     0.214 A 
ATOM      3  C   UNL     1      -0.467 -21.803  27.561  1.00  0.00     0.180 A 
ATOM      4  O   UNL     1      -0.934 -20.735  26.927  1.00  0.00    -0.452 OA
ATOM      5  C   UNL     1       0.856 -22.348  25.611  1.00  0.00     0.239 A 
ATOM      6  C   UNL     1      -0.575 -20.403  25.693  1.00  0.00     0.146 A 
ATOM      7  O   UNL     1       1.624 -23.154  25.024  1.00  0.00    -0.285 OA
ATOM      8  C   UNL     1       0.363 -21.186  24.969  1.00  0.00     0.111 A 
ATOM      9  C   UNL     1      -1.152 -19.271  25.113  1.00  0.00     0.094 A 
ATOM     10  C   UNL     1       0.727 -20.769  23.653  1.00  0.00     0.134 A 
ATOM     11  C   UNL     1      -0.827 -18.901  23.807  1.00  0.00     0.123 A 
ATOM     12  C   UNL     1       0.101 -19.651  23.086  1.00  0.00     0.093 A 
BRANCH   3  13
ATOM     13  C   UNL     1      -0.992 -22.096  28.912  1.00  0.00     0.025 A 
ATOM     14  C   UNL     1      -1.353 -23.401  29.280  1.00  0.00     0.016 A 
ATOM     15  C   UNL     1      -1.855 -23.659  30.556  1.00  0.00     0.051 A 
ATOM     16  C   UNL     1      -2.022 -22.622  31.481  1.00  0.00     0.157 A 
ATOM     17  C   UNL     1      -1.182 -21.050  29.826  1.00  0.00     0.062 A 
ATOM     18  C   UNL     1      -1.687 -21.299  31.108  1.00  0.00     0.158 A 
BRANCH  16  19
ATOM     19  O   UNL     1      -2.522 -22.948  32.743  1.00  0.00    -0.504 OA
ATOM     20  H   UNL     1      -3.375 -22.567  33.128  1.00  0.00     0.293 HD
ENDBRANCH  16  19
BRANCH  18  21
ATOM     21  O   UNL     1      -1.837 -20.212  31.971  1.00  0.00    -0.504 OA
ATOM     22  H   UNL     1      -1.122 -19.894  32.610  1.00  0.00     0.293 HD
ENDBRANCH  18  21
ENDBRANCH   3  13
BRANCH  10  23
ATOM     23  O   UNL     1       1.707 -21.393  22.876  1.00  0.00    -0.507 OA
ATOM     24  H   UNL     1       2.484 -21.923  23.239  1.00  0.00     0.293 HD
ENDBRANCH  10  23
BRANCH  11  25
ATOM     25  O   UNL     1      -1.417 -17.786  23.216  1.00  0.00    -0.508 OA
ATOM     26  H   UNL     1      -0.929 -17.236  22.518  1.00  0.00     0.293 HD
ENDBRANCH  11  25
ENDBRANCH   1   2
BRANCH   1  27
ATOM     27  C   UNL     1       2.468 -23.866  27.781  1.00  0.00     0.339 C 
ATOM     28  C   UNL     1       2.924 -25.314  27.521  1.00  0.00     0.214 C 
ATOM     29  O   UNL     1       2.837 -23.437  29.082  1.00  0.00    -0.332 OA
ATOM     30  C   UNL     1       2.387 -26.265  28.613  1.00  0.00     0.180 C 
ATOM     31  C   UNL     1       2.215 -24.223  30.087  1.00  0.00     0.179 C 
ATOM     32  C   UNL     1       2.698 -25.691  30.006  1.00  0.00     0.177 C 
BRANCH  28  33
ATOM     33  O   UNL     1       2.501 -25.725  26.247  1.00  0.00    -0.384 OA
ATOM     34  H   UNL     1       1.544 -25.474  26.169  1.00  0.00     0.211 HD
ENDBRANCH  28  33
BRANCH  30  35
ATOM     35  O   UNL     1       0.998 -26.438  28.481  1.00  0.00    -0.387 OA
ATOM     36  H   UNL     1       0.854 -27.325  28.058  1.00  0.00     0.211 HD
ENDBRANCH  30  35
BRANCH  31  37
ATOM     37  C   UNL     1       2.527 -23.597  31.455  1.00  0.00     0.191 C 
BRANCH  37  38
ATOM     38  O   UNL     1       1.414 -22.909  31.960  1.00  0.00    -0.394 OA
ATOM     39  H   UNL     1       1.329 -23.167  32.914  1.00  0.00     0.210 HD
ENDBRANCH  37  38
ENDBRANCH  31  37
BRANCH  32  40
ATOM     40  O   UNL     1       4.082 -25.752  30.251  1.00  0.00    -0.387 OA
ATOM     41  H   UNL     1       4.241 -25.296  31.117  1.00  0.00     0.211 HD
ENDBRANCH  32  40
ENDBRANCH   1  27
TORSDOF 12
ENDMDL
MODEL 6
REMARK VINA RESULT:    -6.725      1.110      1.601
REMARK INTER + INTRA:         -11.857
REMARK INTER:                  -9.971
REMARK INTRA:                  -1.886
REMARK UNBOUND:                -1.987
REMARK SMILES O=c1c(O[C@H]2O[C@H](CO)[C@H](O)[C@@H](O)[C@H]2O)c(-c2ccc(O)c(O)c2)oc2cc(O)cc(O)c12
REMARK SMILES IDX 4 1 3 2 16 3 25 4 2 5 26 6 1 7 33 8 27 9 31 10 28 11 30 12
REMARK SMILES IDX 17 13 18 14 19 15 20 16 24 17 22 18 21 19 23 21 32 23 29 25
REMARK SMILES IDX 5 27 14 28 6 29 12 30 7 31 10 32 15 33 13 35 8 37 9 38 11 40
REMARK H PARENT 21 20 23 22 32 24 29 26 15 34 13 36 9 39 11 41
REMARK Flexibility Score: inf
ROOT
ATOM      1  O   UNL     1       0.380 -22.003  26.298  1.00  0.00    -0.454 OA
ENDROOT
BRANCH   1   2
ATOM      2  C   UNL     1      -0.127 -20.699  26.356  1.00  0.00     0.214 A 
ATOM      3  C   UNL     1      -0.614 -20.144  27.555  1.00  0.00     0.180 A 
ATOM      4  O   UNL     1      -1.022 -18.881  27.576  1.00  0.00    -0.452 OA
ATOM      5  C   UNL     1      -0.150 -19.926  25.190  1.00  0.00     0.239 A 
ATOM      6  C   UNL     1      -1.023 -18.096  26.505  1.00  0.00     0.146 A 
ATOM      7  O   UNL     1       0.192 -20.468  24.107  1.00  0.00    -0.285 OA
ATOM      8  C   UNL     1      -0.565 -18.573  25.248  1.00  0.00     0.111 A 
ATOM      9  C   UNL     1      -1.501 -16.790  26.638  1.00  0.00     0.094 A 
ATOM     10  C   UNL     1      -0.570 -17.676  24.137  1.00  0.00     0.134 A 
ATOM     11  C   UNL     1      -1.549 -15.939  25.533  1.00  0.00     0.123 A 
ATOM     12  C   UNL     1      -1.092 -16.386  24.294  1.00  0.00     0.093 A 
BRANCH   3  13
ATOM     13  C   UNL     1      -0.718 -20.930  28.802  1.00  0.00     0.025 A 
ATOM     14  C   UNL     1      -1.609 -22.010  28.903  1.00  0.00     0.016 A 
ATOM     15  C   UNL     1      -1.702 -22.736  30.091  1.00  0.00     0.051 A 
ATOM     16  C   UNL     1      -0.924 -22.391  31.202  1.00  0.00     0.157 A 
ATOM     17  C   UNL     1       0.043 -20.564  29.920  1.00  0.00     0.062 A 
ATOM     18  C   UNL     1      -0.044 -21.286  31.117  1.00  0.00     0.158 A 
BRANCH  16  19
ATOM     19  O   UNL     1      -1.059 -23.163  32.358  1.00  0.00    -0.504 OA
ATOM     20  H   UNL     1      -0.672 -24.090  32.466  1.00  0.00     0.293 HD
ENDBRANCH  16  19
BRANCH  18  21
ATOM     21  O   UNL     1       0.755 -20.875  32.186  1.00  0.00    -0.504 OA
ATOM     22  H   UNL     1       0.575 -21.114  33.151  1.00  0.00     0.293 HD
ENDBRANCH  18  21
ENDBRANCH   3  13
BRANCH  10  23
ATOM     23  O   UNL     1      -0.055 -17.989  22.875  1.00  0.00    -0.507 OA
ATOM     24  H   UNL     1       0.105 -17.324  22.134  1.00  0.00     0.293 HD
ENDBRANCH  10  23
BRANCH  11  25
ATOM     25  O   UNL     1      -2.046 -14.643  25.655  1.00  0.00    -0.508 OA
ATOM     26  H   UNL     1      -2.460 -14.157  24.866  1.00  0.00     0.293 HD
ENDBRANCH  11  25
ENDBRANCH   1   2
BRANCH   1  27
ATOM     27  C   UNL     1       1.728 -22.334  26.659  1.00  0.00     0.339 C 
ATOM     28  C   UNL     1       2.457 -23.027  25.492  1.00  0.00     0.214 C 
ATOM     29  O   UNL     1       1.755 -23.136  27.829  1.00  0.00    -0.332 OA
ATOM     30  C   UNL     1       1.875 -24.434  25.237  1.00  0.00     0.180 C 
ATOM     31  C   UNL     1       1.082 -24.370  27.632  1.00  0.00     0.179 C 
ATOM     32  C   UNL     1       1.805 -25.219  26.559  1.00  0.00     0.177 C 
BRANCH  28  33
ATOM     33  O   UNL     1       2.369 -22.232  24.337  1.00  0.00    -0.384 OA
ATOM     34  H   UNL     1       3.238 -22.318  23.865  1.00  0.00     0.211 HD
ENDBRANCH  28  33
BRANCH  30  35
ATOM     35  O   UNL     1       0.588 -24.346  24.679  1.00  0.00    -0.387 OA
ATOM     36  H   UNL     1       0.702 -24.242  23.698  1.00  0.00     0.211 HD
ENDBRANCH  30  35
BRANCH  31  37
ATOM     37  C   UNL     1       1.008 -25.103  28.980  1.00  0.00     0.191 C 
BRANCH  37  38
ATOM     38  O   UNL     1       1.127 -26.490  28.807  1.00  0.00    -0.394 OA
ATOM     39  H   UNL     1       0.877 -26.681  27.866  1.00  0.00     0.210 HD
ENDBRANCH  37  38
ENDBRANCH  31  37
BRANCH  32  40
ATOM     40  O   UNL     1       3.103 -25.537  26.997  1.00  0.00    -0.387 OA
ATOM     41  H   UNL     1       3.718 -25.329  26.246  1.00  0.00     0.211 HD
ENDBRANCH  32  40
ENDBRANCH   1  27
TORSDOF 12
ENDMDL
MODEL 7
REMARK VINA RESULT:    -6.675      1.668      4.672
REMARK INTER + INTRA:         -11.783
REMARK INTER:                  -9.855
REMARK INTRA:                  -1.928
REMARK UNBOUND:                -1.987
REMARK SMILES O=c1c(O[C@H]2O[C@H](CO)[C@H](O)[C@@H](O)[C@H]2O)c(-c2ccc(O)c(O)c2)oc2cc(O)cc(O)c12
REMARK SMILES IDX 4 1 3 2 16 3 25 4 2 5 26 6 1 7 33 8 27 9 31 10 28 11 30 12
REMARK SMILES IDX 17 13 18 14 19 15 20 16 24 17 22 18 21 19 23 21 32 23 29 25
REMARK SMILES IDX 5 27 14 28 6 29 12 30 7 31 10 32 15 33 13 35 8 37 9 38 11 40
REMARK H PARENT 21 20 23 22 32 24 29 26 15 34 13 36 9 39 11 41
REMARK Flexibility Score: inf
ROOT
ATOM      1  O   UNL     1      -0.681 -20.441  28.960  1.00  0.00    -0.454 OA
ENDROOT
BRANCH   1   2
ATOM      2  C   UNL     1      -0.805 -19.358  28.080  1.00  0.00     0.214 A 
ATOM      3  C   UNL     1      -0.315 -19.412  26.761  1.00  0.00     0.180 A 
ATOM      4  O   UNL     1      -0.516 -18.387  25.943  1.00  0.00    -0.452 OA
ATOM      5  C   UNL     1      -1.433 -18.189  28.524  1.00  0.00     0.239 A 
ATOM      6  C   UNL     1      -1.143 -17.274  26.306  1.00  0.00     0.146 A 
ATOM      7  O   UNL     1      -1.774 -18.117  29.733  1.00  0.00    -0.285 OA
ATOM      8  C   UNL     1      -1.658 -17.122  27.621  1.00  0.00     0.111 A 
ATOM      9  C   UNL     1      -1.273 -16.247  25.369  1.00  0.00     0.094 A 
ATOM     10  C   UNL     1      -2.341 -15.912  27.948  1.00  0.00     0.134 A 
ATOM     11  C   UNL     1      -1.898 -15.048  25.715  1.00  0.00     0.123 A 
ATOM     12  C   UNL     1      -2.420 -14.886  26.997  1.00  0.00     0.093 A 
BRANCH   3  13
ATOM     13  C   UNL     1       0.449 -20.570  26.251  1.00  0.00     0.025 A 
ATOM     14  C   UNL     1       1.761 -20.817  26.685  1.00  0.00     0.016 A 
ATOM     15  C   UNL     1       2.473 -21.909  26.187  1.00  0.00     0.051 A 
ATOM     16  C   UNL     1       1.899 -22.764  25.239  1.00  0.00     0.157 A 
ATOM     17  C   UNL     1      -0.119 -21.408  25.282  1.00  0.00     0.062 A 
ATOM     18  C   UNL     1       0.587 -22.506  24.776  1.00  0.00     0.158 A 
BRANCH  16  19
ATOM     19  O   UNL     1       2.661 -23.842  24.787  1.00  0.00    -0.504 OA
ATOM     20  H   UNL     1       2.867 -24.020  23.813  1.00  0.00     0.293 HD
ENDBRANCH  16  19
BRANCH  18  21
ATOM     21  O   UNL     1      -0.047 -23.305  23.823  1.00  0.00    -0.504 OA
ATOM     22  H   UNL     1       0.401 -23.649  22.985  1.00  0.00     0.293 HD
ENDBRANCH  18  21
ENDBRANCH   3  13
BRANCH  10  23
ATOM     23  O   UNL     1      -2.978 -15.676  29.170  1.00  0.00    -0.507 OA
ATOM     24  H   UNL     1      -2.537 -15.282  29.986  1.00  0.00     0.293 HD
ENDBRANCH  10  23
BRANCH  11  25
ATOM     25  O   UNL     1      -2.010 -14.012  24.791  1.00  0.00    -0.508 OA
ATOM     26  H   UNL     1      -1.868 -14.168  23.799  1.00  0.00     0.293 HD
ENDBRANCH  11  25
ENDBRANCH   1   2
BRANCH   1  27
ATOM     27  C   UNL     1      -1.564 -21.570  28.937  1.00  0.00     0.339 C 
ATOM     28  C   UNL     1      -2.242 -21.768  30.307  1.00  0.00     0.214 C 
ATOM     29  O   UNL     1      -0.874 -22.742  28.532  1.00  0.00    -0.332 OA
ATOM     30  C   UNL     1      -1.217 -22.226  31.367  1.00  0.00     0.180 C 
ATOM     31  C   UNL     1       0.170 -23.072  29.435  1.00  0.00     0.179 C 
ATOM     32  C   UNL     1      -0.405 -23.418  30.829  1.00  0.00     0.177 C 
BRANCH  28  33
ATOM     33  O   UNL     1      -2.872 -20.577  30.702  1.00  0.00    -0.384 OA
ATOM     34  H   UNL     1      -3.800 -20.615  30.351  1.00  0.00     0.211 HD
ENDBRANCH  28  33
BRANCH  30  35
ATOM     35  O   UNL     1      -0.341 -21.178  31.698  1.00  0.00    -0.387 OA
ATOM     36  H   UNL     1       0.065 -21.404  32.575  1.00  0.00     0.211 HD
ENDBRANCH  30  35
BRANCH  31  37
ATOM     37  C   UNL     1       0.970 -24.243  28.844  1.00  0.00     0.191 C 
BRANCH  37  38
ATOM     38  O   UNL     1       1.500 -25.054  29.859  1.00  0.00    -0.394 OA
ATOM     39  H   UNL     1       2.479 -25.101  29.703  1.00  0.00     0.210 HD
ENDBRANCH  37  38
ENDBRANCH  31  37
BRANCH  32  40
ATOM     40  O   UNL     1      -1.228 -24.555  30.737  1.00  0.00    -0.387 OA
ATOM     41  H   UNL     1      -0.630 -25.328  30.561  1.00  0.00     0.211 HD
ENDBRANCH  32  40
ENDBRANCH   1  27
TORSDOF 12
ENDMDL
MODEL 8
REMARK VINA RESULT:    -6.499      3.543      8.775
REMARK INTER + INTRA:         -11.526
REMARK INTER:                  -9.483
REMARK INTRA:                  -2.043
REMARK UNBOUND:                -1.987
REMARK SMILES O=c1c(O[C@H]2O[C@H](CO)[C@H](O)[C@@H](O)[C@H]2O)c(-c2ccc(O)c(O)c2)oc2cc(O)cc(O)c12
REMARK SMILES IDX 4 1 3 2 16 3 25 4 2 5 26 6 1 7 33 8 27 9 31 10 28 11 30 12
REMARK SMILES IDX 17 13 18 14 19 15 20 16 24 17 22 18 21 19 23 21 32 23 29 25
REMARK SMILES IDX 5 27 14 28 6 29 12 30 7 31 10 32 15 33 13 35 8 37 9 38 11 40
REMARK H PARENT 21 20 23 22 32 24 29 26 15 34 13 36 9 39 11 41
REMARK Flexibility Score: inf
ROOT
ATOM      1  O   UNL     1      -0.350 -14.238  27.445  1.00  0.00    -0.454 OA
ENDROOT
BRANCH   1   2
ATOM      2  C   UNL     1      -0.718 -15.560  27.163  1.00  0.00     0.214 A 
ATOM      3  C   UNL     1      -1.980 -16.071  27.521  1.00  0.00     0.180 A 
ATOM      4  O   UNL     1      -2.310 -17.309  27.174  1.00  0.00    -0.452 OA
ATOM      5  C   UNL     1       0.193 -16.396  26.510  1.00  0.00     0.239 A 
ATOM      6  C   UNL     1      -1.495 -18.125  26.516  1.00  0.00     0.146 A 
ATOM      7  O   UNL     1       1.352 -15.958  26.288  1.00  0.00    -0.285 OA
ATOM      8  C   UNL     1      -0.196 -17.703  26.127  1.00  0.00     0.111 A 
ATOM      9  C   UNL     1      -1.937 -19.418  26.227  1.00  0.00     0.094 A 
ATOM     10  C   UNL     1       0.629 -18.617  25.404  1.00  0.00     0.134 A 
ATOM     11  C   UNL     1      -1.103 -20.320  25.564  1.00  0.00     0.123 A 
ATOM     12  C   UNL     1       0.170 -19.918  25.164  1.00  0.00     0.093 A 
BRANCH   3  13
ATOM     13  C   UNL     1      -2.957 -15.284  28.303  1.00  0.00     0.025 A 
ATOM     14  C   UNL     1      -2.861 -15.198  29.700  1.00  0.00     0.016 A 
ATOM     15  C   UNL     1      -3.797 -14.458  30.425  1.00  0.00     0.051 A 
ATOM     16  C   UNL     1      -4.851 -13.807  29.775  1.00  0.00     0.157 A 
ATOM     17  C   UNL     1      -4.026 -14.656  27.651  1.00  0.00     0.062 A 
ATOM     18  C   UNL     1      -4.971 -13.913  28.370  1.00  0.00     0.158 A 
BRANCH  16  19
ATOM     19  O   UNL     1      -5.749 -13.078  30.558  1.00  0.00    -0.504 OA
ATOM     20  H   UNL     1      -5.521 -12.204  31.012  1.00  0.00     0.293 HD
ENDBRANCH  16  19
BRANCH  18  21
ATOM     21  O   UNL     1      -6.002 -13.302  27.653  1.00  0.00    -0.504 OA
ATOM     22  H   UNL     1      -6.855 -12.959  28.071  1.00  0.00     0.293 HD
ENDBRANCH  18  21
ENDBRANCH   3  13
BRANCH  10  23
ATOM     23  O   UNL     1       1.884 -18.294  24.879  1.00  0.00    -0.507 OA
ATOM     24  H   UNL     1       2.634 -17.861  25.396  1.00  0.00     0.293 HD
ENDBRANCH  10  23
BRANCH  11  25
ATOM     25  O   UNL     1      -1.531 -21.617  25.294  1.00  0.00    -0.508 OA
ATOM     26  H   UNL     1      -0.874 -22.357  25.072  1.00  0.00     0.293 HD
ENDBRANCH  11  25
ENDBRANCH   1   2
BRANCH   1  27
ATOM     27  C   UNL     1      -0.685 -13.136  26.591  1.00  0.00     0.339 C 
ATOM     28  C   UNL     1       0.563 -12.295  26.259  1.00  0.00     0.214 C 
ATOM     29  O   UNL     1      -1.701 -12.336  27.174  1.00  0.00    -0.332 OA
ATOM     30  C   UNL     1       1.070 -11.546  27.510  1.00  0.00     0.180 C 
ATOM     31  C   UNL     1      -1.279 -11.771  28.406  1.00  0.00     0.179 C 
ATOM     32  C   UNL     1      -0.096 -10.799  28.181  1.00  0.00     0.177 C 
BRANCH  28  33
ATOM     33  O   UNL     1       1.567 -13.123  25.731  1.00  0.00    -0.384 OA
ATOM     34  H   UNL     1       1.370 -14.045  26.041  1.00  0.00     0.211 HD
ENDBRANCH  28  33
BRANCH  30  35
ATOM     35  O   UNL     1       1.639 -12.442  28.432  1.00  0.00    -0.387 OA
ATOM     36  H   UNL     1       1.447 -12.088  29.339  1.00  0.00     0.211 HD
ENDBRANCH  30  35
BRANCH  31  37
ATOM     37  C   UNL     1      -2.480 -11.064  29.052  1.00  0.00     0.191 C 
BRANCH  37  38
ATOM     38  O   UNL     1      -3.237 -10.377  28.092  1.00  0.00    -0.394 OA
ATOM     39  H   UNL     1      -2.800 -10.540  27.216  1.00  0.00     0.210 HD
ENDBRANCH  37  38
ENDBRANCH  31  37
BRANCH  32  40
ATOM     40  O   UNL     1      -0.508  -9.726  27.370  1.00  0.00    -0.387 OA
ATOM     41  H   UNL     1      -1.038  -9.117  27.946  1.00  0.00     0.211 HD
ENDBRANCH  32  40
ENDBRANCH   1  27
TORSDOF 12
ENDMDL
MODEL 9
REMARK VINA RESULT:    -6.489      1.220      2.206
REMARK INTER + INTRA:         -11.511
REMARK INTER:                 -10.138
REMARK INTRA:                  -1.372
REMARK UNBOUND:                -1.987
REMARK SMILES O=c1c(O[C@H]2O[C@H](CO)[C@H](O)[C@@H](O)[C@H]2O)c(-c2ccc(O)c(O)c2)oc2cc(O)cc(O)c12
REMARK SMILES IDX 4 1 3 2 16 3 25 4 2 5 26 6 1 7 33 8 27 9 31 10 28 11 30 12
REMARK SMILES IDX 17 13 18 14 19 15 20 16 24 17 22 18 21 19 23 21 32 23 29 25
REMARK SMILES IDX 5 27 14 28 6 29 12 30 7 31 10 32 15 33 13 35 8 37 9 38 11 40
REMARK H PARENT 21 20 23 22 32 24 29 26 15 34 13 36 9 39 11 41
REMARK Flexibility Score: inf
ROOT
ATOM      1  O   UNL     1       0.965 -20.599  26.733  1.00  0.00    -0.454 OA
ENDROOT
BRANCH   1   2
ATOM      2  C   UNL     1       0.140 -19.476  26.879  1.00  0.00     0.214 A 
ATOM      3  C   UNL     1      -0.519 -19.191  28.090  1.00  0.00     0.180 A 
ATOM      4  O   UNL     1      -1.236 -18.080  28.201  1.00  0.00    -0.452 OA
ATOM      5  C   UNL     1      -0.033 -18.614  25.791  1.00  0.00     0.239 A 
ATOM      6  C   UNL     1      -1.395 -17.210  27.211  1.00  0.00     0.146 A 
ATOM      7  O   UNL     1       0.479 -18.934  24.687  1.00  0.00    -0.285 OA
ATOM      8  C   UNL     1      -0.780 -17.421  25.948  1.00  0.00     0.111 A 
ATOM      9  C   UNL     1      -2.195 -16.087  27.433  1.00  0.00     0.094 A 
ATOM     10  C   UNL     1      -0.970 -16.441  24.927  1.00  0.00     0.134 A 
ATOM     11  C   UNL     1      -2.414 -15.161  26.411  1.00  0.00     0.123 A 
ATOM     12  C   UNL     1      -1.809 -15.346  25.169  1.00  0.00     0.093 A 
BRANCH   3  13
ATOM     13  C   UNL     1      -0.469 -20.107  29.249  1.00  0.00     0.025 A 
ATOM     14  C   UNL     1       0.505 -19.954  30.248  1.00  0.00     0.016 A 
ATOM     15  C   UNL     1       0.545 -20.833  31.331  1.00  0.00     0.051 A 
ATOM     16  C   UNL     1      -0.371 -21.887  31.431  1.00  0.00     0.157 A 
ATOM     17  C   UNL     1      -1.371 -21.177  29.331  1.00  0.00     0.062 A 
ATOM     18  C   UNL     1      -1.338 -22.064  30.413  1.00  0.00     0.158 A 
BRANCH  16  19
ATOM     19  O   UNL     1      -0.281 -22.726  32.543  1.00  0.00    -0.504 OA
ATOM     20  H   UNL     1       0.367 -23.497  32.618  1.00  0.00     0.293 HD
ENDBRANCH  16  19
BRANCH  18  21
ATOM     21  O   UNL     1      -2.276 -23.099  30.437  1.00  0.00    -0.504 OA
ATOM     22  H   UNL     1      -2.140 -23.973  30.924  1.00  0.00     0.293 HD
ENDBRANCH  18  21
ENDBRANCH   3  13
BRANCH  10  23
ATOM     23  O   UNL     1      -0.343 -16.479  23.678  1.00  0.00    -0.507 OA
ATOM     24  H   UNL     1      -0.511 -15.829  22.926  1.00  0.00     0.293 HD
ENDBRANCH  10  23
BRANCH  11  25
ATOM     25  O   UNL     1      -3.229 -14.052  26.621  1.00  0.00    -0.508 OA
ATOM     26  H   UNL     1      -3.711 -13.595  25.854  1.00  0.00     0.293 HD
ENDBRANCH  11  25
ENDBRANCH   1   2
BRANCH   1  27
ATOM     27  C   UNL     1       0.454 -21.935  26.630  1.00  0.00     0.339 C 
ATOM     28  C   UNL     1       1.438 -22.951  27.239  1.00  0.00     0.214 C 
ATOM     29  O   UNL     1       0.154 -22.257  25.281  1.00  0.00    -0.332 OA
ATOM     30  C   UNL     1       2.715 -23.065  26.379  1.00  0.00     0.180 C 
ATOM     31  C   UNL     1       1.313 -22.210  24.463  1.00  0.00     0.179 C 
ATOM     32  C   UNL     1       2.335 -23.285  24.904  1.00  0.00     0.177 C 
BRANCH  28  33
ATOM     33  O   UNL     1       1.753 -22.577  28.555  1.00  0.00    -0.384 OA
ATOM     34  H   UNL     1       2.371 -21.803  28.492  1.00  0.00     0.211 HD
ENDBRANCH  28  33
BRANCH  30  35
ATOM     35  O   UNL     1       3.495 -21.901  26.490  1.00  0.00    -0.387 OA
ATOM     36  H   UNL     1       4.424 -22.191  26.685  1.00  0.00     0.211 HD
ENDBRANCH  30  35
BRANCH  31  37
ATOM     37  C   UNL     1       0.882 -22.403  23.000  1.00  0.00     0.191 C 
BRANCH  37  38
ATOM     38  O   UNL     1      -0.009 -23.479  22.875  1.00  0.00    -0.394 OA
ATOM     39  H   UNL     1       0.140 -24.064  23.663  1.00  0.00     0.210 HD
ENDBRANCH  37  38
ENDBRANCH  31  37
BRANCH  32  40
ATOM     40  O   UNL     1       1.780 -24.567  24.738  1.00  0.00    -0.387 OA
ATOM     41  H   UNL     1       1.024 -24.472  24.103  1.00  0.00     0.211 HD
ENDBRANCH  32  40
ENDBRANCH   1  27
TORSDOF 12
ENDMDL
