MODEL 1
REMARK VINA RESULT:     0.194      0.000      0.000
REMARK INTER + INTRA:          -1.254
REMARK INTER:                   0.444
REMARK INTRA:                  -1.698
REMARK UNBOUND:                -1.698
REMARK SMILES CCCCCCCCCCCCCCCCCCCCCCCC(=O)[O-]
REMARK SMILES IDX 13 1 14 2 15 3 16 4 17 5 18 6 19 7 20 8 21 9 22 10 23 11
REMARK SMILES IDX 24 12 25 13 26 14 12 15 11 16 10 17 9 18 8 19 7 20 6 21 5 22
REMARK SMILES IDX 4 23 3 24 2 25 1 26
REMARK H PARENT
REMARK Flexibility Score: inf
ROOT
ATOM      1  C   UNL     1       4.867  14.196  16.696  1.00  0.00     0.000 C 
ENDROOT
BRANCH   1   2
ATOM      2  C   UNL     1       5.889  13.880  17.809  1.00  0.00     0.000 C 
BRANCH   2   3
ATOM      3  C   UNL     1       5.359  12.938  18.908  1.00  0.00     0.000 C 
BRANCH   3   4
ATOM      4  C   UNL     1       5.570  13.422  20.352  1.00  0.00     0.000 C 
BRANCH   4   5
ATOM      5  C   UNL     1       5.958  14.909  20.435  1.00  0.00     0.000 C 
BRANCH   5   6
ATOM      6  C   UNL     1       7.062  15.176  21.474  1.00  0.00     0.000 C 
BRANCH   6   7
ATOM      7  C   UNL     1       8.132  16.198  21.040  1.00  0.00     0.000 C 
BRANCH   7   8
ATOM      8  C   UNL     1       7.673  17.670  21.041  1.00  0.00     0.000 C 
BRANCH   8   9
ATOM      9  C   UNL     1       6.593  18.017  20.001  1.00  0.00     0.000 C 
BRANCH   9  10
ATOM     10  C   UNL     1       5.189  18.138  20.613  1.00  0.00     0.006 C 
BRANCH  10  11
ATOM     11  C   UNL     1       5.272  18.416  22.117  1.00  0.00     0.053 C 
BRANCH  11  12
ATOM     12  C   UNL     1       4.488  17.399  22.884  1.00  0.00     0.041 C 
ATOM     13  O   UNL     1       3.667  16.651  22.290  1.00  0.00    -0.550 OA
ATOM     14  O   UNL     1       4.632  17.303  24.264  1.00  0.00    -0.550 OA
ENDBRANCH  11  12
ENDBRANCH  10  11
ENDBRANCH   9  10
ENDBRANCH   8   9
ENDBRANCH   7   8
ENDBRANCH   6   7
ENDBRANCH   5   6
ENDBRANCH   4   5
ENDBRANCH   3   4
ENDBRANCH   2   3
ENDBRANCH   1   2
BRANCH   1  15
ATOM     15  C   UNL     1       3.497  13.538  16.949  1.00  0.00     0.000 C 
BRANCH  15  16
ATOM     16  C   UNL     1       2.358  14.191  16.146  1.00  0.00     0.000 C 
BRANCH  16  17
ATOM     17  C   UNL     1       2.283  13.771  14.667  1.00  0.00     0.000 C 
BRANCH  17  18
ATOM     18  C   UNL     1       2.914  14.804  13.717  1.00  0.00    -0.000 C 
BRANCH  18  19
ATOM     19  C   UNL     1       3.759  14.150  12.611  1.00  0.00    -0.000 C 
BRANCH  19  20
ATOM     20  C   UNL     1       3.773  12.616  12.704  1.00  0.00    -0.000 C 
BRANCH  20  21
ATOM     21  C   UNL     1       3.600  11.982  11.315  1.00  0.00    -0.000 C 
BRANCH  21  22
ATOM     22  C   UNL     1       2.805  12.878  10.352  1.00  0.00    -0.000 C 
BRANCH  22  23
ATOM     23  C   UNL     1       3.671  13.435   9.209  1.00  0.00    -0.000 C 
BRANCH  23  24
ATOM     24  C   UNL     1       4.900  12.544   8.928  1.00  0.00    -0.000 C 
BRANCH  24  25
ATOM     25  C   UNL     1       6.235  13.199   9.321  1.00  0.00    -0.003 C 
ATOM     26  C   UNL     1       6.208  14.722   9.221  1.00  0.00     0.004 C 
ENDBRANCH  24  25
ENDBRANCH  23  24
ENDBRANCH  22  23
ENDBRANCH  21  22
ENDBRANCH  20  21
ENDBRANCH  19  20
ENDBRANCH  18  19
ENDBRANCH  17  18
ENDBRANCH  16  17
ENDBRANCH  15  16
ENDBRANCH   1  15
TORSDOF 22
ENDMDL
MODEL 2
REMARK VINA RESULT:     0.296      4.147     10.764
REMARK INTER + INTRA:          -1.021
REMARK INTER:                  -2.397
REMARK INTRA:                   1.376
REMARK UNBOUND:                -1.698
REMARK SMILES CCCCCCCCCCCCCCCCCCCCCCCC(=O)[O-]
REMARK SMILES IDX 13 1 14 2 15 3 16 4 17 5 18 6 19 7 20 8 21 9 22 10 23 11
REMARK SMILES IDX 24 12 25 13 26 14 12 15 11 16 10 17 9 18 8 19 7 20 6 21 5 22
REMARK SMILES IDX 4 23 3 24 2 25 1 26
REMARK H PARENT
REMARK Flexibility Score: inf
ROOT
ATOM      1  C   UNL     1       5.216  14.226  17.880  1.00  0.00     0.000 C 
ENDROOT
BRANCH   1   2
ATOM      2  C   UNL     1       4.500  14.005  16.529  1.00  0.00     0.000 C 
BRANCH   2   3
ATOM      3  C   UNL     1       2.965  14.125  16.598  1.00  0.00     0.000 C 
BRANCH   3   4
ATOM      4  C   UNL     1       2.245  14.176  15.240  1.00  0.00     0.000 C 
BRANCH   4   5
ATOM      5  C   UNL     1       1.712  12.803  14.793  1.00  0.00     0.000 C 
BRANCH   5   6
ATOM      6  C   UNL     1       2.508  12.214  13.615  1.00  0.00     0.000 C 
BRANCH   6   7
ATOM      7  C   UNL     1       3.497  13.189  12.944  1.00  0.00     0.000 C 
BRANCH   7   8
ATOM      8  C   UNL     1       3.968  12.781  11.534  1.00  0.00     0.000 C 
BRANCH   8   9
ATOM      9  C   UNL     1       3.330  13.574  10.379  1.00  0.00     0.000 C 
BRANCH   9  10
ATOM     10  C   UNL     1       3.947  13.242   9.013  1.00  0.00     0.006 C 
BRANCH  10  11
ATOM     11  C   UNL     1       5.145  12.301   9.169  1.00  0.00     0.053 C 
BRANCH  11  12
ATOM     12  C   UNL     1       6.429  13.054   9.021  1.00  0.00     0.041 C 
ATOM     13  O   UNL     1       7.515  12.434   8.875  1.00  0.00    -0.550 OA
ATOM     14  O   UNL     1       6.433  14.443   9.085  1.00  0.00    -0.550 OA
ENDBRANCH  11  12
ENDBRANCH  10  11
ENDBRANCH   9  10
ENDBRANCH   8   9
ENDBRANCH   7   8
ENDBRANCH   6   7
ENDBRANCH   5   6
ENDBRANCH   4   5
ENDBRANCH   3   4
ENDBRANCH   2   3
ENDBRANCH   1   2
BRANCH   1  15
ATOM     15  C   UNL     1       6.122  13.043  18.268  1.00  0.00     0.000 C 
BRANCH  15  16
ATOM     16  C   UNL     1       5.761  12.433  19.634  1.00  0.00     0.000 C 
BRANCH  16  17
ATOM     17  C   UNL     1       5.762  13.426  20.810  1.00  0.00     0.000 C 
BRANCH  17  18
ATOM     18  C   UNL     1       6.287  14.819  20.419  1.00  0.00    -0.000 C 
BRANCH  18  19
ATOM     19  C   UNL     1       7.242  15.407  21.471  1.00  0.00    -0.000 C 
BRANCH  19  20
ATOM     20  C   UNL     1       7.889  16.724  21.015  1.00  0.00    -0.000 C 
BRANCH  20  21
ATOM     21  C   UNL     1       7.072  17.931  21.500  1.00  0.00    -0.000 C 
BRANCH  21  22
ATOM     22  C   UNL     1       5.758  18.106  20.721  1.00  0.00    -0.000 C 
BRANCH  22  23
ATOM     23  C   UNL     1       4.835  16.881  20.837  1.00  0.00    -0.000 C 
BRANCH  23  24
ATOM     24  C   UNL     1       3.958  16.935  22.107  1.00  0.00    -0.000 C 
BRANCH  24  25
ATOM     25  C   UNL     1       4.458  17.944  23.154  1.00  0.00    -0.003 C 
ATOM     26  C   UNL     1       4.984  17.279  24.424  1.00  0.00     0.004 C 
ENDBRANCH  24  25
ENDBRANCH  23  24
ENDBRANCH  22  23
ENDBRANCH  21  22
ENDBRANCH  20  21
ENDBRANCH  19  20
ENDBRANCH  18  19
ENDBRANCH  17  18
ENDBRANCH  16  17
ENDBRANCH  15  16
ENDBRANCH   1  15
TORSDOF 22
ENDMDL
MODEL 3
REMARK VINA RESULT:     0.758      4.169     10.585
REMARK INTER + INTRA:           0.035
REMARK INTER:                   1.143
REMARK INTRA:                  -1.108
REMARK UNBOUND:                -1.698
REMARK SMILES CCCCCCCCCCCCCCCCCCCCCCCC(=O)[O-]
REMARK SMILES IDX 13 1 14 2 15 3 16 4 17 5 18 6 19 7 20 8 21 9 22 10 23 11
REMARK SMILES IDX 24 12 25 13 26 14 12 15 11 16 10 17 9 18 8 19 7 20 6 21 5 22
REMARK SMILES IDX 4 23 3 24 2 25 1 26
REMARK H PARENT
REMARK Flexibility Score: inf
ROOT
ATOM      1  C   UNL     1       5.509  14.353  17.639  1.00  0.00     0.000 C 
ENDROOT
BRANCH   1   2
ATOM      2  C   UNL     1       4.767  14.241  16.290  1.00  0.00     0.000 C 
BRANCH   2   3
ATOM      3  C   UNL     1       3.234  14.134  16.416  1.00  0.00     0.000 C 
BRANCH   3   4
ATOM      4  C   UNL     1       2.464  14.082  15.087  1.00  0.00     0.000 C 
BRANCH   4   5
ATOM      5  C   UNL     1       1.802  12.716  14.831  1.00  0.00     0.000 C 
BRANCH   5   6
ATOM      6  C   UNL     1       2.418  11.975  13.632  1.00  0.00     0.000 C 
BRANCH   6   7
ATOM      7  C   UNL     1       3.286  12.846  12.702  1.00  0.00     0.000 C 
BRANCH   7   8
ATOM      8  C   UNL     1       3.658  12.199  11.353  1.00  0.00     0.000 C 
BRANCH   8   9
ATOM      9  C   UNL     1       3.138  12.942  10.109  1.00  0.00     0.000 C 
BRANCH   9  10
ATOM     10  C   UNL     1       4.218  13.141   9.036  1.00  0.00     0.006 C 
BRANCH  10  11
ATOM     11  C   UNL     1       4.565  14.625   8.880  1.00  0.00     0.053 C 
BRANCH  11  12
ATOM     12  C   UNL     1       6.045  14.830   8.953  1.00  0.00     0.041 C 
ATOM     13  O   UNL     1       6.528  15.990   8.881  1.00  0.00    -0.550 OA
ATOM     14  O   UNL     1       6.895  13.735   9.061  1.00  0.00    -0.550 OA
ENDBRANCH  11  12
ENDBRANCH  10  11
ENDBRANCH   9  10
ENDBRANCH   8   9
ENDBRANCH   7   8
ENDBRANCH   6   7
ENDBRANCH   5   6
ENDBRANCH   4   5
ENDBRANCH   3   4
ENDBRANCH   2   3
ENDBRANCH   1   2
BRANCH   1  15
ATOM     15  C   UNL     1       5.773  12.978  18.283  1.00  0.00     0.000 C 
BRANCH  15  16
ATOM     16  C   UNL     1       5.825  13.034  19.820  1.00  0.00     0.000 C 
BRANCH  16  17
ATOM     17  C   UNL     1       6.296  14.377  20.405  1.00  0.00     0.000 C 
BRANCH  17  18
ATOM     18  C   UNL     1       5.329  14.946  21.459  1.00  0.00    -0.000 C 
BRANCH  18  19
ATOM     19  C   UNL     1       4.479  16.106  20.915  1.00  0.00    -0.000 C 
BRANCH  19  20
ATOM     20  C   UNL     1       3.699  16.838  22.018  1.00  0.00    -0.000 C 
BRANCH  20  21
ATOM     21  C   UNL     1       4.647  17.655  22.909  1.00  0.00    -0.000 C 
BRANCH  21  22
ATOM     22  C   UNL     1       5.733  18.385  22.102  1.00  0.00    -0.000 C 
BRANCH  22  23
ATOM     23  C   UNL     1       7.125  17.754  22.277  1.00  0.00    -0.000 C 
BRANCH  23  24
ATOM     24  C   UNL     1       7.783  17.421  20.921  1.00  0.00    -0.000 C 
BRANCH  24  25
ATOM     25  C   UNL     1       8.824  16.292  21.006  1.00  0.00    -0.003 C 
ATOM     26  C   UNL     1      10.087  16.577  20.196  1.00  0.00     0.004 C 
ENDBRANCH  24  25
ENDBRANCH  23  24
ENDBRANCH  22  23
ENDBRANCH  21  22
ENDBRANCH  20  21
ENDBRANCH  19  20
ENDBRANCH  18  19
ENDBRANCH  17  18
ENDBRANCH  16  17
ENDBRANCH  15  16
ENDBRANCH   1  15
TORSDOF 22
ENDMDL
MODEL 4
REMARK VINA RESULT:     0.980      1.056      1.486
REMARK INTER + INTRA:           0.541
REMARK INTER:                  -1.339
REMARK INTRA:                   1.880
REMARK UNBOUND:                -1.698
REMARK SMILES CCCCCCCCCCCCCCCCCCCCCCCC(=O)[O-]
REMARK SMILES IDX 13 1 14 2 15 3 16 4 17 5 18 6 19 7 20 8 21 9 22 10 23 11
REMARK SMILES IDX 24 12 25 13 26 14 12 15 11 16 10 17 9 18 8 19 7 20 6 21 5 22
REMARK SMILES IDX 4 23 3 24 2 25 1 26
REMARK H PARENT
REMARK Flexibility Score: inf
ROOT
ATOM      1  C   UNL     1       4.513  13.924  15.693  1.00  0.00     0.000 C 
ENDROOT
BRANCH   1   2
ATOM      2  C   UNL     1       5.708  14.163  16.642  1.00  0.00     0.000 C 
BRANCH   2   3
ATOM      3  C   UNL     1       5.338  14.168  18.139  1.00  0.00     0.000 C 
BRANCH   3   4
ATOM      4  C   UNL     1       5.897  12.996  18.961  1.00  0.00     0.000 C 
BRANCH   4   5
ATOM      5  C   UNL     1       5.954  13.295  20.470  1.00  0.00     0.000 C 
BRANCH   5   6
ATOM      6  C   UNL     1       6.070  14.799  20.772  1.00  0.00     0.000 C 
BRANCH   6   7
ATOM      7  C   UNL     1       7.441  15.251  21.316  1.00  0.00     0.000 C 
BRANCH   7   8
ATOM      8  C   UNL     1       7.796  16.729  21.057  1.00  0.00     0.000 C 
BRANCH   8   9
ATOM      9  C   UNL     1       6.590  17.680  20.955  1.00  0.00     0.000 C 
BRANCH   9  10
ATOM     10  C   UNL     1       6.131  18.213  22.321  1.00  0.00     0.006 C 
BRANCH  10  11
ATOM     11  C   UNL     1       4.702  17.758  22.631  1.00  0.00     0.053 C 
BRANCH  11  12
ATOM     12  C   UNL     1       4.232  16.766  21.615  1.00  0.00     0.041 C 
ATOM     13  O   UNL     1       3.651  15.711  21.981  1.00  0.00    -0.550 OA
ATOM     14  O   UNL     1       4.470  16.988  20.263  1.00  0.00    -0.550 OA
ENDBRANCH  11  12
ENDBRANCH  10  11
ENDBRANCH   9  10
ENDBRANCH   8   9
ENDBRANCH   7   8
ENDBRANCH   6   7
ENDBRANCH   5   6
ENDBRANCH   4   5
ENDBRANCH   3   4
ENDBRANCH   2   3
ENDBRANCH   1   2
BRANCH   1  15
ATOM     15  C   UNL     1       3.155  14.128  16.392  1.00  0.00     0.000 C 
BRANCH  15  16
ATOM     16  C   UNL     1       1.970  13.586  15.572  1.00  0.00     0.000 C 
BRANCH  16  17
ATOM     17  C   UNL     1       2.353  12.924  14.237  1.00  0.00     0.000 C 
BRANCH  17  18
ATOM     18  C   UNL     1       2.854  13.933  13.188  1.00  0.00    -0.000 C 
BRANCH  18  19
ATOM     19  C   UNL     1       4.047  13.399  12.378  1.00  0.00    -0.000 C 
BRANCH  19  20
ATOM     20  C   UNL     1       3.844  11.950  11.909  1.00  0.00    -0.000 C 
BRANCH  20  21
ATOM     21  C   UNL     1       3.607  11.893  10.392  1.00  0.00    -0.000 C 
BRANCH  21  22
ATOM     22  C   UNL     1       2.591  12.942   9.914  1.00  0.00    -0.000 C 
BRANCH  22  23
ATOM     23  C   UNL     1       3.187  13.917   8.884  1.00  0.00    -0.000 C 
BRANCH  23  24
ATOM     24  C   UNL     1       4.111  14.963   9.544  1.00  0.00    -0.000 C 
BRANCH  24  25
ATOM     25  C   UNL     1       5.496  15.062   8.884  1.00  0.00    -0.003 C 
ATOM     26  C   UNL     1       6.423  13.909   9.259  1.00  0.00     0.004 C 
ENDBRANCH  24  25
ENDBRANCH  23  24
ENDBRANCH  22  23
ENDBRANCH  21  22
ENDBRANCH  20  21
ENDBRANCH  19  20
ENDBRANCH  18  19
ENDBRANCH  17  18
ENDBRANCH  16  17
ENDBRANCH  15  16
ENDBRANCH   1  15
TORSDOF 22
ENDMDL
MODEL 5
REMARK VINA RESULT:     1.090      4.143     10.402
REMARK INTER + INTRA:           0.792
REMARK INTER:                   0.931
REMARK INTRA:                  -0.139
REMARK UNBOUND:                -1.698
REMARK SMILES CCCCCCCCCCCCCCCCCCCCCCCC(=O)[O-]
REMARK SMILES IDX 13 1 14 2 15 3 16 4 17 5 18 6 19 7 20 8 21 9 22 10 23 11
REMARK SMILES IDX 24 12 25 13 26 14 12 15 11 16 10 17 9 18 8 19 7 20 6 21 5 22
REMARK SMILES IDX 4 23 3 24 2 25 1 26
REMARK H PARENT
REMARK Flexibility Score: inf
ROOT
ATOM      1  C   UNL     1       5.753  14.252  18.101  1.00  0.00     0.000 C 
ENDROOT
BRANCH   1   2
ATOM      2  C   UNL     1       4.901  14.079  16.825  1.00  0.00     0.000 C 
BRANCH   2   3
ATOM      3  C   UNL     1       3.400  13.851  17.092  1.00  0.00     0.000 C 
BRANCH   3   4
ATOM      4  C   UNL     1       2.461  14.204  15.927  1.00  0.00     0.000 C 
BRANCH   4   5
ATOM      5  C   UNL     1       1.662  12.993  15.413  1.00  0.00     0.000 C 
BRANCH   5   6
ATOM      6  C   UNL     1       2.173  12.477  14.056  1.00  0.00     0.000 C 
BRANCH   6   7
ATOM      7  C   UNL     1       3.417  13.207  13.509  1.00  0.00     0.000 C 
BRANCH   7   8
ATOM      8  C   UNL     1       3.820  12.827  12.070  1.00  0.00     0.000 C 
BRANCH   8   9
ATOM      9  C   UNL     1       3.969  14.014  11.101  1.00  0.00     0.000 C 
BRANCH   9  10
ATOM     10  C   UNL     1       3.818  13.606   9.628  1.00  0.00     0.006 C 
BRANCH  10  11
ATOM     11  C   UNL     1       4.938  12.648   9.210  1.00  0.00     0.053 C 
BRANCH  11  12
ATOM     12  C   UNL     1       6.225  13.389   9.030  1.00  0.00     0.041 C 
ATOM     13  O   UNL     1       7.309  12.758   8.915  1.00  0.00    -0.550 OA
ATOM     14  O   UNL     1       6.235  14.779   9.030  1.00  0.00    -0.550 OA
ENDBRANCH  11  12
ENDBRANCH  10  11
ENDBRANCH   9  10
ENDBRANCH   8   9
ENDBRANCH   7   8
ENDBRANCH   6   7
ENDBRANCH   5   6
ENDBRANCH   4   5
ENDBRANCH   3   4
ENDBRANCH   2   3
ENDBRANCH   1   2
BRANCH   1  15
ATOM     15  C   UNL     1       5.746  12.994  18.990  1.00  0.00     0.000 C 
BRANCH  15  16
ATOM     16  C   UNL     1       5.726  13.320  20.494  1.00  0.00     0.000 C 
BRANCH  16  17
ATOM     17  C   UNL     1       5.632  14.819  20.832  1.00  0.00     0.000 C 
BRANCH  17  18
ATOM     18  C   UNL     1       4.359  15.180  21.617  1.00  0.00    -0.000 C 
BRANCH  18  19
ATOM     19  C   UNL     1       4.091  16.694  21.643  1.00  0.00    -0.000 C 
BRANCH  19  20
ATOM     20  C   UNL     1       4.617  17.368  22.920  1.00  0.00    -0.000 C 
BRANCH  20  21
ATOM     21  C   UNL     1       5.800  18.295  22.602  1.00  0.00    -0.000 C 
BRANCH  21  22
ATOM     22  C   UNL     1       5.953  18.561  21.095  1.00  0.00    -0.000 C 
BRANCH  22  23
ATOM     23  C   UNL     1       6.762  17.465  20.380  1.00  0.00    -0.000 C 
BRANCH  23  24
ATOM     24  C   UNL     1       7.765  16.774  21.327  1.00  0.00    -0.000 C 
BRANCH  24  25
ATOM     25  C   UNL     1       8.944  16.112  20.594  1.00  0.00    -0.003 C 
ATOM     26  C   UNL     1      10.221  16.948  20.634  1.00  0.00     0.004 C 
ENDBRANCH  24  25
ENDBRANCH  23  24
ENDBRANCH  22  23
ENDBRANCH  21  22
ENDBRANCH  20  21
ENDBRANCH  19  20
ENDBRANCH  18  19
ENDBRANCH  17  18
ENDBRANCH  16  17
ENDBRANCH  15  16
ENDBRANCH   1  15
TORSDOF 22
ENDMDL
MODEL 6
REMARK VINA RESULT:     1.993      0.958      2.700
REMARK INTER + INTRA:           2.857
REMARK INTER:                   1.653
REMARK INTRA:                   1.205
REMARK UNBOUND:                -1.698
REMARK SMILES CCCCCCCCCCCCCCCCCCCCCCCC(=O)[O-]
REMARK SMILES IDX 13 1 14 2 15 3 16 4 17 5 18 6 19 7 20 8 21 9 22 10 23 11
REMARK SMILES IDX 24 12 25 13 26 14 12 15 11 16 10 17 9 18 8 19 7 20 6 21 5 22
REMARK SMILES IDX 4 23 3 24 2 25 1 26
REMARK H PARENT
REMARK Flexibility Score: inf
ROOT
ATOM      1  C   UNL     1       2.615  14.657  15.282  1.00  0.00     0.000 C 
ENDROOT
BRANCH   1   2
ATOM      2  C   UNL     1       3.317  13.620  16.185  1.00  0.00     0.000 C 
BRANCH   2   3
ATOM      3  C   UNL     1       4.241  14.234  17.256  1.00  0.00     0.000 C 
BRANCH   3   4
ATOM      4  C   UNL     1       5.724  13.840  17.154  1.00  0.00     0.000 C 
BRANCH   4   5
ATOM      5  C   UNL     1       6.302  13.331  18.486  1.00  0.00     0.000 C 
BRANCH   5   6
ATOM      6  C   UNL     1       5.276  13.375  19.633  1.00  0.00     0.000 C 
BRANCH   6   7
ATOM      7  C   UNL     1       5.466  14.533  20.633  1.00  0.00     0.000 C 
BRANCH   7   8
ATOM      8  C   UNL     1       6.915  15.037  20.785  1.00  0.00     0.000 C 
BRANCH   8   9
ATOM      9  C   UNL     1       7.073  16.328  21.609  1.00  0.00     0.000 C 
BRANCH   9  10
ATOM     10  C   UNL     1       6.751  17.595  20.803  1.00  0.00     0.006 C 
BRANCH  10  11
ATOM     11  C   UNL     1       5.469  18.257  21.316  1.00  0.00     0.053 C 
BRANCH  11  12
ATOM     12  C   UNL     1       4.916  17.502  22.483  1.00  0.00     0.041 C 
ATOM     13  O   UNL     1       5.584  17.400  23.545  1.00  0.00    -0.550 OA
ATOM     14  O   UNL     1       3.679  16.876  22.385  1.00  0.00    -0.550 OA
ENDBRANCH  11  12
ENDBRANCH  10  11
ENDBRANCH   9  10
ENDBRANCH   8   9
ENDBRANCH   7   8
ENDBRANCH   6   7
ENDBRANCH   5   6
ENDBRANCH   4   5
ENDBRANCH   3   4
ENDBRANCH   2   3
ENDBRANCH   1   2
BRANCH   1  15
ATOM     15  C   UNL     1       3.152  14.641  13.838  1.00  0.00     0.000 C 
BRANCH  15  16
ATOM     16  C   UNL     1       3.581  13.239  13.371  1.00  0.00     0.000 C 
BRANCH  16  17
ATOM     17  C   UNL     1       2.439  12.350  12.847  1.00  0.00     0.000 C 
BRANCH  17  18
ATOM     18  C   UNL     1       2.663  11.875  11.401  1.00  0.00    -0.000 C 
BRANCH  18  19
ATOM     19  C   UNL     1       2.692  13.038  10.395  1.00  0.00    -0.000 C 
BRANCH  19  20
ATOM     20  C   UNL     1       4.072  13.228   9.748  1.00  0.00    -0.000 C 
BRANCH  20  21
ATOM     21  C   UNL     1       4.778  11.876   9.555  1.00  0.00    -0.000 C 
BRANCH  21  22
ATOM     22  C   UNL     1       6.211  12.029   9.021  1.00  0.00    -0.000 C 
BRANCH  22  23
ATOM     23  C   UNL     1       6.923  13.271   9.582  1.00  0.00    -0.000 C 
BRANCH  23  24
ATOM     24  C   UNL     1       5.938  14.428   9.860  1.00  0.00    -0.000 C 
BRANCH  24  25
ATOM     25  C   UNL     1       6.079  15.602   8.876  1.00  0.00    -0.003 C 
ATOM     26  C   UNL     1       5.343  16.859   9.333  1.00  0.00     0.004 C 
ENDBRANCH  24  25
ENDBRANCH  23  24
ENDBRANCH  22  23
ENDBRANCH  21  22
ENDBRANCH  20  21
ENDBRANCH  19  20
ENDBRANCH  18  19
ENDBRANCH  17  18
ENDBRANCH  16  17
ENDBRANCH  15  16
ENDBRANCH   1  15
TORSDOF 22
ENDMDL
MODEL 7
REMARK VINA RESULT:     2.133      1.324      2.691
REMARK INTER + INTRA:           3.177
REMARK INTER:                   3.724
REMARK INTRA:                  -0.547
REMARK UNBOUND:                -1.698
REMARK SMILES CCCCCCCCCCCCCCCCCCCCCCCC(=O)[O-]
REMARK SMILES IDX 13 1 14 2 15 3 16 4 17 5 18 6 19 7 20 8 21 9 22 10 23 11
REMARK SMILES IDX 24 12 25 13 26 14 12 15 11 16 10 17 9 18 8 19 7 20 6 21 5 22
REMARK SMILES IDX 4 23 3 24 2 25 1 26
REMARK H PARENT
REMARK Flexibility Score: inf
ROOT
ATOM      1  C   UNL     1       2.366  13.851  16.655  1.00  0.00     0.000 C 
ENDROOT
BRANCH   1   2
ATOM      2  C   UNL     1       3.388  14.341  15.606  1.00  0.00     0.000 C 
BRANCH   2   3
ATOM      3  C   UNL     1       4.856  14.031  15.957  1.00  0.00     0.000 C 
BRANCH   3   4
ATOM      4  C   UNL     1       5.146  13.813  17.452  1.00  0.00     0.000 C 
BRANCH   4   5
ATOM      5  C   UNL     1       6.491  13.109  17.705  1.00  0.00     0.000 C 
BRANCH   5   6
ATOM      6  C   UNL     1       6.781  12.908  19.203  1.00  0.00     0.000 C 
BRANCH   6   7
ATOM      7  C   UNL     1       5.582  13.162  20.139  1.00  0.00     0.000 C 
BRANCH   7   8
ATOM      8  C   UNL     1       5.762  14.324  21.136  1.00  0.00     0.000 C 
BRANCH   8   9
ATOM      9  C   UNL     1       6.413  15.590  20.551  1.00  0.00     0.000 C 
BRANCH   9  10
ATOM     10  C   UNL     1       7.520  16.164  21.448  1.00  0.00     0.006 C 
BRANCH  10  11
ATOM     11  C   UNL     1       7.046  17.440  22.150  1.00  0.00     0.053 C 
BRANCH  11  12
ATOM     12  C   UNL     1       5.617  17.727  21.813  1.00  0.00     0.041 C 
ATOM     13  O   UNL     1       5.326  18.327  20.746  1.00  0.00    -0.550 OA
ATOM     14  O   UNL     1       4.607  17.369  22.699  1.00  0.00    -0.550 OA
ENDBRANCH  11  12
ENDBRANCH  10  11
ENDBRANCH   9  10
ENDBRANCH   8   9
ENDBRANCH   7   8
ENDBRANCH   6   7
ENDBRANCH   5   6
ENDBRANCH   4   5
ENDBRANCH   3   4
ENDBRANCH   2   3
ENDBRANCH   1   2
BRANCH   1  15
ATOM     15  C   UNL     1       1.636  12.569  16.213  1.00  0.00     0.000 C 
BRANCH  15  16
ATOM     16  C   UNL     1       1.177  12.615  14.744  1.00  0.00     0.000 C 
BRANCH  16  17
ATOM     17  C   UNL     1       2.297  12.417  13.707  1.00  0.00     0.000 C 
BRANCH  17  18
ATOM     18  C   UNL     1       1.763  12.184  12.283  1.00  0.00    -0.000 C 
BRANCH  18  19
ATOM     19  C   UNL     1       2.887  11.933  11.265  1.00  0.00    -0.000 C 
BRANCH  19  20
ATOM     20  C   UNL     1       2.375  11.876   9.817  1.00  0.00    -0.000 C 
BRANCH  20  21
ATOM     21  C   UNL     1       3.309  12.651   8.875  1.00  0.00    -0.000 C 
BRANCH  21  22
ATOM     22  C   UNL     1       3.219  14.173   9.075  1.00  0.00    -0.000 C 
BRANCH  22  23
ATOM     23  C   UNL     1       4.515  14.773   9.645  1.00  0.00    -0.000 C 
BRANCH  23  24
ATOM     24  C   UNL     1       5.536  13.682  10.035  1.00  0.00    -0.000 C 
BRANCH  24  25
ATOM     25  C   UNL     1       6.816  13.709   9.184  1.00  0.00    -0.003 C 
ATOM     26  C   UNL     1       7.498  12.347   9.083  1.00  0.00     0.004 C 
ENDBRANCH  24  25
ENDBRANCH  23  24
ENDBRANCH  22  23
ENDBRANCH  21  22
ENDBRANCH  20  21
ENDBRANCH  19  20
ENDBRANCH  18  19
ENDBRANCH  17  18
ENDBRANCH  16  17
ENDBRANCH  15  16
ENDBRANCH   1  15
TORSDOF 22
ENDMDL
MODEL 8
REMARK VINA RESULT:     2.141      2.151      2.928
REMARK INTER + INTRA:           3.195
REMARK INTER:                   3.153
REMARK INTRA:                   0.042
REMARK UNBOUND:                -1.698
REMARK SMILES CCCCCCCCCCCCCCCCCCCCCCCC(=O)[O-]
REMARK SMILES IDX 13 1 14 2 15 3 16 4 17 5 18 6 19 7 20 8 21 9 22 10 23 11
REMARK SMILES IDX 24 12 25 13 26 14 12 15 11 16 10 17 9 18 8 19 7 20 6 21 5 22
REMARK SMILES IDX 4 23 3 24 2 25 1 26
REMARK H PARENT
REMARK Flexibility Score: inf
ROOT
ATOM      1  C   UNL     1       5.479  13.773  17.598  1.00  0.00     0.000 C 
ENDROOT
BRANCH   1   2
ATOM      2  C   UNL     1       5.112  12.872  18.797  1.00  0.00     0.000 C 
BRANCH   2   3
ATOM      3  C   UNL     1       5.919  13.161  20.079  1.00  0.00     0.000 C 
BRANCH   3   4
ATOM      4  C   UNL     1       5.994  14.641  20.491  1.00  0.00     0.000 C 
BRANCH   4   5
ATOM      5  C   UNL     1       4.961  15.017  21.567  1.00  0.00     0.000 C 
BRANCH   5   6
ATOM      6  C   UNL     1       4.320  16.394  21.318  1.00  0.00     0.000 C 
BRANCH   6   7
ATOM      7  C   UNL     1       4.530  17.424  22.447  1.00  0.00     0.000 C 
BRANCH   7   8
ATOM      8  C   UNL     1       5.973  17.532  22.977  1.00  0.00     0.000 C 
BRANCH   8   9
ATOM      9  C   UNL     1       6.968  18.216  22.023  1.00  0.00     0.000 C 
BRANCH   9  10
ATOM     10  C   UNL     1       7.333  17.344  20.813  1.00  0.00     0.006 C 
BRANCH  10  11
ATOM     11  C   UNL     1       8.398  16.309  21.187  1.00  0.00     0.053 C 
BRANCH  11  12
ATOM     12  C   UNL     1       9.729  16.693  20.622  1.00  0.00     0.041 C 
ATOM     13  O   UNL     1       9.822  17.661  19.822  1.00  0.00    -0.550 OA
ATOM     14  O   UNL     1      10.862  15.956  20.946  1.00  0.00    -0.550 OA
ENDBRANCH  11  12
ENDBRANCH  10  11
ENDBRANCH   9  10
ENDBRANCH   8   9
ENDBRANCH   7   8
ENDBRANCH   6   7
ENDBRANCH   5   6
ENDBRANCH   4   5
ENDBRANCH   3   4
ENDBRANCH   2   3
ENDBRANCH   1   2
BRANCH   1  15
ATOM     15  C   UNL     1       4.249  14.469  16.985  1.00  0.00     0.000 C 
BRANCH  15  16
ATOM     16  C   UNL     1       4.018  14.092  15.511  1.00  0.00     0.000 C 
BRANCH  16  17
ATOM     17  C   UNL     1       2.550  14.133  15.052  1.00  0.00     0.000 C 
BRANCH  17  18
ATOM     18  C   UNL     1       1.985  12.740  14.721  1.00  0.00    -0.000 C 
BRANCH  18  19
ATOM     19  C   UNL     1       2.722  12.068  13.550  1.00  0.00    -0.000 C 
BRANCH  19  20
ATOM     20  C   UNL     1       3.392  13.081  12.610  1.00  0.00    -0.000 C 
BRANCH  20  21
ATOM     21  C   UNL     1       3.848  12.402  11.309  1.00  0.00    -0.000 C 
BRANCH  21  22
ATOM     22  C   UNL     1       2.946  12.749  10.114  1.00  0.00    -0.000 C 
BRANCH  22  23
ATOM     23  C   UNL     1       3.743  13.230   8.890  1.00  0.00    -0.000 C 
BRANCH  23  24
ATOM     24  C   UNL     1       4.584  14.486   9.204  1.00  0.00    -0.000 C 
BRANCH  24  25
ATOM     25  C   UNL     1       6.054  14.172   9.529  1.00  0.00    -0.003 C 
ATOM     26  C   UNL     1       6.551  12.884   8.878  1.00  0.00     0.004 C 
ENDBRANCH  24  25
ENDBRANCH  23  24
ENDBRANCH  22  23
ENDBRANCH  21  22
ENDBRANCH  20  21
ENDBRANCH  19  20
ENDBRANCH  18  19
ENDBRANCH  17  18
ENDBRANCH  16  17
ENDBRANCH  15  16
ENDBRANCH   1  15
TORSDOF 22
ENDMDL
MODEL 9
REMARK VINA RESULT:     2.218      2.294      3.356
REMARK INTER + INTRA:           3.371
REMARK INTER:                   3.593
REMARK INTRA:                  -0.222
REMARK UNBOUND:                -1.698
REMARK SMILES CCCCCCCCCCCCCCCCCCCCCCCC(=O)[O-]
REMARK SMILES IDX 13 1 14 2 15 3 16 4 17 5 18 6 19 7 20 8 21 9 22 10 23 11
REMARK SMILES IDX 24 12 25 13 26 14 12 15 11 16 10 17 9 18 8 19 7 20 6 21 5 22
REMARK SMILES IDX 4 23 3 24 2 25 1 26
REMARK H PARENT
REMARK Flexibility Score: inf
ROOT
ATOM      1  C   UNL     1       5.662  13.270  17.936  1.00  0.00     0.000 C 
ENDROOT
BRANCH   1   2
ATOM      2  C   UNL     1       6.046  13.294  19.432  1.00  0.00     0.000 C 
BRANCH   2   3
ATOM      3  C   UNL     1       5.395  14.437  20.235  1.00  0.00     0.000 C 
BRANCH   3   4
ATOM      4  C   UNL     1       5.311  15.790  19.510  1.00  0.00     0.000 C 
BRANCH   4   5
ATOM      5  C   UNL     1       4.517  16.846  20.300  1.00  0.00     0.000 C 
BRANCH   5   6
ATOM      6  C   UNL     1       4.353  16.476  21.785  1.00  0.00     0.000 C 
BRANCH   6   7
ATOM      7  C   UNL     1       5.137  17.367  22.769  1.00  0.00     0.000 C 
BRANCH   7   8
ATOM      8  C   UNL     1       6.018  18.450  22.114  1.00  0.00     0.000 C 
BRANCH   8   9
ATOM      9  C   UNL     1       7.490  18.050  21.900  1.00  0.00     0.000 C 
BRANCH   9  10
ATOM     10  C   UNL     1       7.689  16.531  21.807  1.00  0.00     0.006 C 
BRANCH  10  11
ATOM     11  C   UNL     1       8.405  16.153  20.507  1.00  0.00     0.053 C 
BRANCH  11  12
ATOM     12  C   UNL     1       9.811  16.665  20.512  1.00  0.00     0.041 C 
ATOM     13  O   UNL     1      10.071  17.810  20.057  1.00  0.00    -0.550 OA
ATOM     14  O   UNL     1      10.844  15.860  20.981  1.00  0.00    -0.550 OA
ENDBRANCH  11  12
ENDBRANCH  10  11
ENDBRANCH   9  10
ENDBRANCH   8   9
ENDBRANCH   7   8
ENDBRANCH   6   7
ENDBRANCH   5   6
ENDBRANCH   4   5
ENDBRANCH   3   4
ENDBRANCH   2   3
ENDBRANCH   1   2
BRANCH   1  15
ATOM     15  C   UNL     1       4.518  14.248  17.605  1.00  0.00     0.000 C 
BRANCH  15  16
ATOM     16  C   UNL     1       3.992  14.093  16.167  1.00  0.00     0.000 C 
BRANCH  16  17
ATOM     17  C   UNL     1       2.459  14.109  16.031  1.00  0.00     0.000 C 
BRANCH  17  18
ATOM     18  C   UNL     1       1.979  13.774  14.608  1.00  0.00    -0.000 C 
BRANCH  18  19
ATOM     19  C   UNL     1       2.266  12.316  14.216  1.00  0.00    -0.000 C 
BRANCH  19  20
ATOM     20  C   UNL     1       2.680  12.167  12.744  1.00  0.00    -0.000 C 
BRANCH  20  21
ATOM     21  C   UNL     1       3.529  13.365  12.290  1.00  0.00    -0.000 C 
BRANCH  21  22
ATOM     22  C   UNL     1       4.248  13.107  10.956  1.00  0.00    -0.000 C 
BRANCH  22  23
ATOM     23  C   UNL     1       4.063  14.258   9.953  1.00  0.00    -0.000 C 
BRANCH  23  24
ATOM     24  C   UNL     1       3.001  13.929   8.882  1.00  0.00    -0.000 C 
BRANCH  24  25
ATOM     25  C   UNL     1       2.530  12.465   8.916  1.00  0.00    -0.003 C 
ATOM     26  C   UNL     1       1.034  12.322   9.182  1.00  0.00     0.004 C 
ENDBRANCH  24  25
ENDBRANCH  23  24
ENDBRANCH  22  23
ENDBRANCH  21  22
ENDBRANCH  20  21
ENDBRANCH  19  20
ENDBRANCH  18  19
ENDBRANCH  17  18
ENDBRANCH  16  17
ENDBRANCH  15  16
ENDBRANCH   1  15
TORSDOF 22
ENDMDL
