MODEL 1
REMARK VINA RESULT:    -4.266      0.000      0.000
REMARK INTER + INTRA:         -17.269
REMARK INTER:                 -11.249
REMARK INTRA:                  -6.020
REMARK UNBOUND:                -6.020
REMARK SMILES CCCCCCCCCCCCCCCCCCCCCCCCCCCCCC(=O)[O-]
REMARK SMILES IDX 16 1 17 2 18 3 19 4 20 5 21 6 22 7 23 8 24 9 25 10 26 11
REMARK SMILES IDX 27 12 28 13 29 14 30 15 31 16 32 17 15 18 14 19 13 20 12 21
REMARK SMILES IDX 11 22 10 23 9 24 8 25 7 26 6 27 5 28 4 29 3 30 2 31 1 32
REMARK H PARENT
REMARK Flexibility Score: inf
ROOT
ATOM      1  C   UNL     1     -13.732  -3.336  34.580  1.00  0.00     0.000 C 
ENDROOT
BRANCH   1   2
ATOM      2  C   UNL     1     -13.024  -2.513  35.672  1.00  0.00     0.000 C 
BRANCH   2   3
ATOM      3  C   UNL     1     -12.025  -3.361  36.487  1.00  0.00     0.000 C 
BRANCH   3   4
ATOM      4  C   UNL     1     -11.928  -4.821  36.015  1.00  0.00     0.000 C 
BRANCH   4   5
ATOM      5  C   UNL     1     -11.920  -5.826  37.179  1.00  0.00     0.000 C 
BRANCH   5   6
ATOM      6  C   UNL     1     -12.592  -5.273  38.446  1.00  0.00     0.000 C 
BRANCH   6   7
ATOM      7  C   UNL     1     -13.745  -6.167  38.937  1.00  0.00     0.000 C 
BRANCH   7   8
ATOM      8  C   UNL     1     -15.104  -5.764  38.342  1.00  0.00     0.000 C 
BRANCH   8   9
ATOM      9  C   UNL     1     -15.280  -4.238  38.240  1.00  0.00     0.000 C 
BRANCH   9  10
ATOM     10  C   UNL     1     -16.130  -3.831  37.026  1.00  0.00     0.000 C 
BRANCH  10  11
ATOM     11  C   UNL     1     -16.583  -2.361  37.096  1.00  0.00     0.000 C 
BRANCH  11  12
ATOM     12  C   UNL     1     -16.859  -1.758  35.709  1.00  0.00     0.000 C 
BRANCH  12  13
ATOM     13  C   UNL     1     -17.564  -0.395  35.781  1.00  0.00     0.006 C 
BRANCH  13  14
ATOM     14  C   UNL     1     -17.877  -0.015  37.232  1.00  0.00     0.053 C 
BRANCH  14  15
ATOM     15  C   UNL     1     -18.259   1.430  37.334  1.00  0.00     0.041 C 
ATOM     16  O   UNL     1     -18.847   1.859  38.363  1.00  0.00    -0.550 OA
ATOM     17  O   UNL     1     -17.961   2.305  36.297  1.00  0.00    -0.550 OA
ENDBRANCH  14  15
ENDBRANCH  13  14
ENDBRANCH  12  13
ENDBRANCH  11  12
ENDBRANCH  10  11
ENDBRANCH   9  10
ENDBRANCH   8   9
ENDBRANCH   7   8
ENDBRANCH   6   7
ENDBRANCH   5   6
ENDBRANCH   4   5
ENDBRANCH   3   4
ENDBRANCH   2   3
ENDBRANCH   1   2
BRANCH   1  18
ATOM     18  C   UNL     1     -13.855  -2.574  33.250  1.00  0.00     0.000 C 
BRANCH  18  19
ATOM     19  C   UNL     1     -13.488  -3.442  32.033  1.00  0.00     0.000 C 
BRANCH  19  20
ATOM     20  C   UNL     1     -12.600  -4.638  32.414  1.00  0.00     0.000 C 
BRANCH  20  21
ATOM     21  C   UNL     1     -13.316  -5.985  32.227  1.00  0.00     0.000 C 
BRANCH  21  22
ATOM     22  C   UNL     1     -12.693  -7.069  33.120  1.00  0.00     0.000 C 
BRANCH  22  23
ATOM     23  C   UNL     1     -13.723  -7.757  34.035  1.00  0.00     0.000 C 
BRANCH  23  24
ATOM     24  C   UNL     1     -14.661  -6.800  34.800  1.00  0.00    -0.000 C 
BRANCH  24  25
ATOM     25  C   UNL     1     -16.094  -7.323  35.011  1.00  0.00    -0.000 C 
BRANCH  25  26
ATOM     26  C   UNL     1     -16.431  -8.519  34.108  1.00  0.00    -0.000 C 
BRANCH  26  27
ATOM     27  C   UNL     1     -17.454  -8.122  33.032  1.00  0.00    -0.000 C 
BRANCH  27  28
ATOM     28  C   UNL     1     -16.862  -7.181  31.972  1.00  0.00    -0.000 C 
BRANCH  28  29
ATOM     29  C   UNL     1     -17.628  -5.854  31.865  1.00  0.00    -0.000 C 
BRANCH  29  30
ATOM     30  C   UNL     1     -16.787  -4.693  32.405  1.00  0.00    -0.000 C 
BRANCH  30  31
ATOM     31  C   UNL     1     -17.629  -3.419  32.545  1.00  0.00    -0.003 C 
ATOM     32  C   UNL     1     -17.182  -2.351  31.550  1.00  0.00     0.004 C 
ENDBRANCH  30  31
ENDBRANCH  29  30
ENDBRANCH  28  29
ENDBRANCH  27  28
ENDBRANCH  26  27
ENDBRANCH  25  26
ENDBRANCH  24  25
ENDBRANCH  23  24
ENDBRANCH  22  23
ENDBRANCH  21  22
ENDBRANCH  20  21
ENDBRANCH  19  20
ENDBRANCH  18  19
ENDBRANCH   1  18
TORSDOF 28
ENDMDL
MODEL 2
REMARK VINA RESULT:    -4.228     13.036     17.129
REMARK INTER + INTRA:         -17.167
REMARK INTER:                 -11.746
REMARK INTRA:                  -5.422
REMARK UNBOUND:                -6.020
REMARK SMILES CCCCCCCCCCCCCCCCCCCCCCCCCCCCCC(=O)[O-]
REMARK SMILES IDX 16 1 17 2 18 3 19 4 20 5 21 6 22 7 23 8 24 9 25 10 26 11
REMARK SMILES IDX 27 12 28 13 29 14 30 15 31 16 32 17 15 18 14 19 13 20 12 21
REMARK SMILES IDX 11 22 10 23 9 24 8 25 7 26 6 27 5 28 4 29 3 30 2 31 1 32
REMARK H PARENT
REMARK Flexibility Score: inf
ROOT
ATOM      1  C   UNL     1     -28.267  -1.571  25.657  1.00  0.00     0.000 C 
ENDROOT
BRANCH   1   2
ATOM      2  C   UNL     1     -27.982  -0.067  25.495  1.00  0.00     0.000 C 
BRANCH   2   3
ATOM      3  C   UNL     1     -29.205   0.705  24.957  1.00  0.00     0.000 C 
BRANCH   3   4
ATOM      4  C   UNL     1     -29.841   0.061  23.714  1.00  0.00     0.000 C 
BRANCH   4   5
ATOM      5  C   UNL     1     -29.804   0.980  22.480  1.00  0.00     0.000 C 
BRANCH   5   6
ATOM      6  C   UNL     1     -28.998   0.379  21.317  1.00  0.00     0.000 C 
BRANCH   6   7
ATOM      7  C   UNL     1     -28.301  -0.937  21.703  1.00  0.00     0.000 C 
BRANCH   7   8
ATOM      8  C   UNL     1     -26.771  -0.802  21.769  1.00  0.00     0.000 C 
BRANCH   8   9
ATOM      9  C   UNL     1     -26.123  -1.825  22.719  1.00  0.00     0.000 C 
BRANCH   9  10
ATOM     10  C   UNL     1     -24.674  -1.453  23.074  1.00  0.00     0.000 C 
BRANCH  10  11
ATOM     11  C   UNL     1     -24.599  -0.330  24.124  1.00  0.00     0.000 C 
BRANCH  11  12
ATOM     12  C   UNL     1     -23.277  -0.337  24.909  1.00  0.00     0.000 C 
BRANCH  12  13
ATOM     13  C   UNL     1     -22.214   0.584  24.293  1.00  0.00     0.006 C 
BRANCH  13  14
ATOM     14  C   UNL     1     -22.841   1.890  23.791  1.00  0.00     0.053 C 
BRANCH  14  15
ATOM     15  C   UNL     1     -22.601   2.068  22.324  1.00  0.00     0.041 C 
ATOM     16  O   UNL     1     -23.562   2.321  21.550  1.00  0.00    -0.550 OA
ATOM     17  O   UNL     1     -21.314   1.962  21.811  1.00  0.00    -0.550 OA
ENDBRANCH  14  15
ENDBRANCH  13  14
ENDBRANCH  12  13
ENDBRANCH  11  12
ENDBRANCH  10  11
ENDBRANCH   9  10
ENDBRANCH   8   9
ENDBRANCH   7   8
ENDBRANCH   6   7
ENDBRANCH   5   6
ENDBRANCH   4   5
ENDBRANCH   3   4
ENDBRANCH   2   3
ENDBRANCH   1   2
BRANCH   1  18
ATOM     18  C   UNL     1     -29.157  -1.878  26.872  1.00  0.00     0.000 C 
BRANCH  18  19
ATOM     19  C   UNL     1     -30.363  -2.764  26.515  1.00  0.00     0.000 C 
BRANCH  19  20
ATOM     20  C   UNL     1     -29.939  -4.144  25.987  1.00  0.00     0.000 C 
BRANCH  20  21
ATOM     21  C   UNL     1     -30.747  -4.573  24.751  1.00  0.00     0.000 C 
BRANCH  21  22
ATOM     22  C   UNL     1     -30.133  -3.998  23.466  1.00  0.00     0.000 C 
BRANCH  22  23
ATOM     23  C   UNL     1     -28.622  -4.271  23.349  1.00  0.00     0.000 C 
BRANCH  23  24
ATOM     24  C   UNL     1     -28.247  -5.576  22.614  1.00  0.00    -0.000 C 
BRANCH  24  25
ATOM     25  C   UNL     1     -28.100  -6.814  23.518  1.00  0.00    -0.000 C 
BRANCH  25  26
ATOM     26  C   UNL     1     -27.280  -6.533  24.786  1.00  0.00    -0.000 C 
BRANCH  26  27
ATOM     27  C   UNL     1     -25.773  -6.594  24.489  1.00  0.00    -0.000 C 
BRANCH  27  28
ATOM     28  C   UNL     1     -25.166  -5.206  24.230  1.00  0.00    -0.000 C 
BRANCH  28  29
ATOM     29  C   UNL     1     -24.442  -4.639  25.461  1.00  0.00    -0.000 C 
BRANCH  29  30
ATOM     30  C   UNL     1     -25.148  -3.381  25.978  1.00  0.00    -0.000 C 
BRANCH  30  31
ATOM     31  C   UNL     1     -24.471  -2.851  27.247  1.00  0.00    -0.003 C 
ATOM     32  C   UNL     1     -25.360  -1.839  27.964  1.00  0.00     0.004 C 
ENDBRANCH  30  31
ENDBRANCH  29  30
ENDBRANCH  28  29
ENDBRANCH  27  28
ENDBRANCH  26  27
ENDBRANCH  25  26
ENDBRANCH  24  25
ENDBRANCH  23  24
ENDBRANCH  22  23
ENDBRANCH  21  22
ENDBRANCH  20  21
ENDBRANCH  19  20
ENDBRANCH  18  19
ENDBRANCH   1  18
TORSDOF 28
ENDMDL
MODEL 3
REMARK VINA RESULT:    -4.015     12.701     16.185
REMARK INTER + INTRA:         -16.608
REMARK INTER:                 -10.968
REMARK INTRA:                  -5.640
REMARK UNBOUND:                -6.020
REMARK SMILES CCCCCCCCCCCCCCCCCCCCCCCCCCCCCC(=O)[O-]
REMARK SMILES IDX 16 1 17 2 18 3 19 4 20 5 21 6 22 7 23 8 24 9 25 10 26 11
REMARK SMILES IDX 27 12 28 13 29 14 30 15 31 16 32 17 15 18 14 19 13 20 12 21
REMARK SMILES IDX 11 22 10 23 9 24 8 25 7 26 6 27 5 28 4 29 3 30 2 31 1 32
REMARK H PARENT
REMARK Flexibility Score: inf
ROOT
ATOM      1  C   UNL     1     -24.025  -4.476  24.640  1.00  0.00     0.000 C 
ENDROOT
BRANCH   1   2
ATOM      2  C   UNL     1     -24.482  -4.079  26.056  1.00  0.00     0.000 C 
BRANCH   2   3
ATOM      3  C   UNL     1     -24.347  -2.563  26.310  1.00  0.00     0.000 C 
BRANCH   3   4
ATOM      4  C   UNL     1     -24.837  -2.125  27.699  1.00  0.00     0.000 C 
BRANCH   4   5
ATOM      5  C   UNL     1     -26.361  -1.918  27.758  1.00  0.00     0.000 C 
BRANCH   5   6
ATOM      6  C   UNL     1     -26.998  -1.797  26.365  1.00  0.00     0.000 C 
BRANCH   6   7
ATOM      7  C   UNL     1     -28.304  -0.984  26.385  1.00  0.00     0.000 C 
BRANCH   7   8
ATOM      8  C   UNL     1     -28.602  -0.304  25.038  1.00  0.00     0.000 C 
BRANCH   8   9
ATOM      9  C   UNL     1     -28.319  -1.221  23.834  1.00  0.00     0.000 C 
BRANCH   9  10
ATOM     10  C   UNL     1     -27.347  -0.580  22.830  1.00  0.00     0.000 C 
BRANCH  10  11
ATOM     11  C   UNL     1     -26.272  -1.569  22.346  1.00  0.00     0.000 C 
BRANCH  11  12
ATOM     12  C   UNL     1     -24.908  -1.337  23.016  1.00  0.00     0.000 C 
BRANCH  12  13
ATOM     13  C   UNL     1     -24.862  -0.045  23.845  1.00  0.00     0.006 C 
BRANCH  13  14
ATOM     14  C   UNL     1     -23.418   0.344  24.178  1.00  0.00     0.053 C 
BRANCH  14  15
ATOM     15  C   UNL     1     -23.154   1.773  23.818  1.00  0.00     0.041 C 
ATOM     16  O   UNL     1     -22.912   2.621  24.719  1.00  0.00    -0.550 OA
ATOM     17  O   UNL     1     -23.167   2.170  22.486  1.00  0.00    -0.550 OA
ENDBRANCH  14  15
ENDBRANCH  13  14
ENDBRANCH  12  13
ENDBRANCH  11  12
ENDBRANCH  10  11
ENDBRANCH   9  10
ENDBRANCH   8   9
ENDBRANCH   7   8
ENDBRANCH   6   7
ENDBRANCH   5   6
ENDBRANCH   4   5
ENDBRANCH   3   4
ENDBRANCH   2   3
ENDBRANCH   1   2
BRANCH   1  18
ATOM     18  C   UNL     1     -25.179  -5.000  23.770  1.00  0.00     0.000 C 
BRANCH  18  19
ATOM     19  C   UNL     1     -26.558  -4.775  24.415  1.00  0.00     0.000 C 
BRANCH  19  20
ATOM     20  C   UNL     1     -27.707  -4.914  23.402  1.00  0.00     0.000 C 
BRANCH  20  21
ATOM     21  C   UNL     1     -29.072  -4.551  24.008  1.00  0.00     0.000 C 
BRANCH  21  22
ATOM     22  C   UNL     1     -29.136  -4.941  25.492  1.00  0.00     0.000 C 
BRANCH  22  23
ATOM     23  C   UNL     1     -30.252  -5.957  25.797  1.00  0.00     0.000 C 
BRANCH  23  24
ATOM     24  C   UNL     1     -31.318  -6.110  24.693  1.00  0.00    -0.000 C 
BRANCH  24  25
ATOM     25  C   UNL     1     -31.247  -7.425  23.894  1.00  0.00    -0.000 C 
BRANCH  25  26
ATOM     26  C   UNL     1     -30.127  -8.357  24.379  1.00  0.00    -0.000 C 
BRANCH  26  27
ATOM     27  C   UNL     1     -28.943  -8.349  23.399  1.00  0.00    -0.000 C 
BRANCH  27  28
ATOM     28  C   UNL     1     -27.657  -8.912  24.023  1.00  0.00    -0.000 C 
BRANCH  28  29
ATOM     29  C   UNL     1     -27.266  -8.193  25.323  1.00  0.00    -0.000 C 
BRANCH  29  30
ATOM     30  C   UNL     1     -25.966  -8.767  25.895  1.00  0.00    -0.000 C 
BRANCH  30  31
ATOM     31  C   UNL     1     -24.745  -8.223  25.146  1.00  0.00    -0.003 C 
ATOM     32  C   UNL     1     -23.506  -8.221  26.037  1.00  0.00     0.004 C 
ENDBRANCH  30  31
ENDBRANCH  29  30
ENDBRANCH  28  29
ENDBRANCH  27  28
ENDBRANCH  26  27
ENDBRANCH  25  26
ENDBRANCH  24  25
ENDBRANCH  23  24
ENDBRANCH  22  23
ENDBRANCH  21  22
ENDBRANCH  20  21
ENDBRANCH  19  20
ENDBRANCH  18  19
ENDBRANCH   1  18
TORSDOF 28
ENDMDL
MODEL 4
REMARK VINA RESULT:    -4.011      2.881      6.419
REMARK INTER + INTRA:         -16.595
REMARK INTER:                 -11.198
REMARK INTRA:                  -5.398
REMARK UNBOUND:                -6.020
REMARK SMILES CCCCCCCCCCCCCCCCCCCCCCCCCCCCCC(=O)[O-]
REMARK SMILES IDX 16 1 17 2 18 3 19 4 20 5 21 6 22 7 23 8 24 9 25 10 26 11
REMARK SMILES IDX 27 12 28 13 29 14 30 15 31 16 32 17 15 18 14 19 13 20 12 21
REMARK SMILES IDX 11 22 10 23 9 24 8 25 7 26 6 27 5 28 4 29 3 30 2 31 1 32
REMARK H PARENT
REMARK Flexibility Score: inf
ROOT
ATOM      1  C   UNL     1     -17.230  -3.147  33.040  1.00  0.00     0.000 C 
ENDROOT
BRANCH   1   2
ATOM      2  C   UNL     1     -17.483  -4.214  31.960  1.00  0.00     0.000 C 
BRANCH   2   3
ATOM      3  C   UNL     1     -17.345  -5.648  32.513  1.00  0.00     0.000 C 
BRANCH   3   4
ATOM      4  C   UNL     1     -17.130  -6.710  31.422  1.00  0.00     0.000 C 
BRANCH   4   5
ATOM      5  C   UNL     1     -15.643  -7.026  31.180  1.00  0.00     0.000 C 
BRANCH   5   6
ATOM      6  C   UNL     1     -15.014  -7.836  32.325  1.00  0.00     0.000 C 
BRANCH   6   7
ATOM      7  C   UNL     1     -13.567  -8.261  32.017  1.00  0.00     0.000 C 
BRANCH   7   8
ATOM      8  C   UNL     1     -12.613  -8.014  33.197  1.00  0.00     0.000 C 
BRANCH   8   9
ATOM      9  C   UNL     1     -12.982  -8.836  34.444  1.00  0.00     0.000 C 
BRANCH   9  10
ATOM     10  C   UNL     1     -12.096  -8.491  35.652  1.00  0.00     0.000 C 
BRANCH  10  11
ATOM     11  C   UNL     1     -12.905  -8.374  36.956  1.00  0.00     0.000 C 
BRANCH  11  12
ATOM     12  C   UNL     1     -14.392  -8.714  36.765  1.00  0.00     0.000 C 
BRANCH  12  13
ATOM     13  C   UNL     1     -15.297  -8.030  37.801  1.00  0.00     0.006 C 
BRANCH  13  14
ATOM     14  C   UNL     1     -16.777  -8.222  37.450  1.00  0.00     0.053 C 
BRANCH  14  15
ATOM     15  C   UNL     1     -17.653  -7.833  38.601  1.00  0.00     0.041 C 
ATOM     16  O   UNL     1     -17.752  -8.586  39.606  1.00  0.00    -0.550 OA
ATOM     17  O   UNL     1     -18.355  -6.634  38.568  1.00  0.00    -0.550 OA
ENDBRANCH  14  15
ENDBRANCH  13  14
ENDBRANCH  12  13
ENDBRANCH  11  12
ENDBRANCH  10  11
ENDBRANCH   9  10
ENDBRANCH   8   9
ENDBRANCH   7   8
ENDBRANCH   6   7
ENDBRANCH   5   6
ENDBRANCH   4   5
ENDBRANCH   3   4
ENDBRANCH   2   3
ENDBRANCH   1   2
BRANCH   1  18
ATOM     18  C   UNL     1     -15.899  -2.405  32.840  1.00  0.00     0.000 C 
BRANCH  18  19
ATOM     19  C   UNL     1     -15.060  -2.991  31.690  1.00  0.00     0.000 C 
BRANCH  19  20
ATOM     20  C   UNL     1     -13.606  -3.264  32.108  1.00  0.00     0.000 C 
BRANCH  20  21
ATOM     21  C   UNL     1     -13.455  -4.581  32.886  1.00  0.00     0.000 C 
BRANCH  21  22
ATOM     22  C   UNL     1     -12.800  -4.340  34.254  1.00  0.00     0.000 C 
BRANCH  22  23
ATOM     23  C   UNL     1     -13.538  -5.049  35.405  1.00  0.00     0.000 C 
BRANCH  23  24
ATOM     24  C   UNL     1     -15.028  -5.353  35.139  1.00  0.00    -0.000 C 
BRANCH  24  25
ATOM     25  C   UNL     1     -16.006  -4.781  36.181  1.00  0.00    -0.000 C 
BRANCH  25  26
ATOM     26  C   UNL     1     -15.818  -3.274  36.411  1.00  0.00    -0.000 C 
BRANCH  26  27
ATOM     27  C   UNL     1     -16.551  -2.816  37.682  1.00  0.00    -0.000 C 
BRANCH  27  28
ATOM     28  C   UNL     1     -17.197  -1.431  37.524  1.00  0.00    -0.000 C 
BRANCH  28  29
ATOM     29  C   UNL     1     -17.282  -0.982  36.057  1.00  0.00    -0.000 C 
BRANCH  29  30
ATOM     30  C   UNL     1     -17.805   0.455  35.956  1.00  0.00    -0.000 C 
BRANCH  30  31
ATOM     31  C   UNL     1     -18.968   0.689  36.926  1.00  0.00    -0.003 C 
ATOM     32  C   UNL     1     -18.611   1.741  37.972  1.00  0.00     0.004 C 
ENDBRANCH  30  31
ENDBRANCH  29  30
ENDBRANCH  28  29
ENDBRANCH  27  28
ENDBRANCH  26  27
ENDBRANCH  25  26
ENDBRANCH  24  25
ENDBRANCH  23  24
ENDBRANCH  22  23
ENDBRANCH  21  22
ENDBRANCH  20  21
ENDBRANCH  19  20
ENDBRANCH  18  19
ENDBRANCH   1  18
TORSDOF 28
ENDMDL
MODEL 5
REMARK VINA RESULT:    -4.003      1.457      3.645
REMARK INTER + INTRA:         -16.575
REMARK INTER:                 -10.764
REMARK INTRA:                  -5.811
REMARK UNBOUND:                -6.020
REMARK SMILES CCCCCCCCCCCCCCCCCCCCCCCCCCCCCC(=O)[O-]
REMARK SMILES IDX 16 1 17 2 18 3 19 4 20 5 21 6 22 7 23 8 24 9 25 10 26 11
REMARK SMILES IDX 27 12 28 13 29 14 30 15 31 16 32 17 15 18 14 19 13 20 12 21
REMARK SMILES IDX 11 22 10 23 9 24 8 25 7 26 6 27 5 28 4 29 3 30 2 31 1 32
REMARK H PARENT
REMARK Flexibility Score: inf
ROOT
ATOM      1  C   UNL     1     -16.744  -6.598  37.289  1.00  0.00     0.000 C 
ENDROOT
BRANCH   1   2
ATOM      2  C   UNL     1     -17.122  -6.180  38.722  1.00  0.00     0.000 C 
BRANCH   2   3
ATOM      3  C   UNL     1     -16.639  -7.199  39.775  1.00  0.00     0.000 C 
BRANCH   3   4
ATOM      4  C   UNL     1     -15.611  -6.623  40.762  1.00  0.00     0.000 C 
BRANCH   4   5
ATOM      5  C   UNL     1     -14.591  -5.689  40.087  1.00  0.00     0.000 C 
BRANCH   5   6
ATOM      6  C   UNL     1     -13.502  -6.454  39.319  1.00  0.00     0.000 C 
BRANCH   6   7
ATOM      7  C   UNL     1     -13.086  -5.739  38.021  1.00  0.00     0.000 C 
BRANCH   7   8
ATOM      8  C   UNL     1     -13.794  -4.387  37.834  1.00  0.00     0.000 C 
BRANCH   8   9
ATOM      9  C   UNL     1     -13.754  -3.891  36.377  1.00  0.00     0.000 C 
BRANCH   9  10
ATOM     10  C   UNL     1     -14.772  -2.769  36.117  1.00  0.00     0.000 C 
BRANCH  10  11
ATOM     11  C   UNL     1     -16.169  -3.108  36.665  1.00  0.00     0.000 C 
BRANCH  11  12
ATOM     12  C   UNL     1     -16.562  -2.238  37.870  1.00  0.00     0.000 C 
BRANCH  12  13
ATOM     13  C   UNL     1     -17.784  -1.350  37.591  1.00  0.00     0.006 C 
BRANCH  13  14
ATOM     14  C   UNL     1     -17.592  -0.538  36.306  1.00  0.00     0.053 C 
BRANCH  14  15
ATOM     15  C   UNL     1     -18.293   0.782  36.399  1.00  0.00     0.041 C 
ATOM     16  O   UNL     1     -19.463   0.913  35.948  1.00  0.00    -0.550 OA
ATOM     17  O   UNL     1     -17.660   1.868  36.991  1.00  0.00    -0.550 OA
ENDBRANCH  14  15
ENDBRANCH  13  14
ENDBRANCH  12  13
ENDBRANCH  11  12
ENDBRANCH  10  11
ENDBRANCH   9  10
ENDBRANCH   8   9
ENDBRANCH   7   8
ENDBRANCH   6   7
ENDBRANCH   5   6
ENDBRANCH   4   5
ENDBRANCH   3   4
ENDBRANCH   2   3
ENDBRANCH   1   2
BRANCH   1  18
ATOM     18  C   UNL     1     -16.382  -8.088  37.183  1.00  0.00     0.000 C 
BRANCH  18  19
ATOM     19  C   UNL     1     -15.268  -8.357  36.156  1.00  0.00     0.000 C 
BRANCH  19  20
ATOM     20  C   UNL     1     -15.002  -7.142  35.251  1.00  0.00     0.000 C 
BRANCH  20  21
ATOM     21  C   UNL     1     -13.587  -7.154  34.652  1.00  0.00     0.000 C 
BRANCH  21  22
ATOM     22  C   UNL     1     -13.441  -6.079  33.564  1.00  0.00     0.000 C 
BRANCH  22  23
ATOM     23  C   UNL     1     -13.291  -6.672  32.151  1.00  0.00     0.000 C 
BRANCH  23  24
ATOM     24  C   UNL     1     -14.490  -7.511  31.662  1.00  0.00    -0.000 C 
BRANCH  24  25
ATOM     25  C   UNL     1     -15.637  -6.703  31.029  1.00  0.00    -0.000 C 
BRANCH  25  26
ATOM     26  C   UNL     1     -16.948  -6.806  31.823  1.00  0.00    -0.000 C 
BRANCH  26  27
ATOM     27  C   UNL     1     -17.524  -5.412  32.116  1.00  0.00    -0.000 C 
BRANCH  27  28
ATOM     28  C   UNL     1     -16.742  -4.669  33.211  1.00  0.00    -0.000 C 
BRANCH  28  29
ATOM     29  C   UNL     1     -16.706  -3.150  32.984  1.00  0.00    -0.000 C 
BRANCH  29  30
ATOM     30  C   UNL     1     -16.124  -2.817  31.606  1.00  0.00    -0.000 C 
BRANCH  30  31
ATOM     31  C   UNL     1     -14.630  -3.156  31.542  1.00  0.00    -0.003 C 
ATOM     32  C   UNL     1     -13.870  -2.520  32.702  1.00  0.00     0.004 C 
ENDBRANCH  30  31
ENDBRANCH  29  30
ENDBRANCH  28  29
ENDBRANCH  27  28
ENDBRANCH  26  27
ENDBRANCH  25  26
ENDBRANCH  24  25
ENDBRANCH  23  24
ENDBRANCH  22  23
ENDBRANCH  21  22
ENDBRANCH  20  21
ENDBRANCH  19  20
ENDBRANCH  18  19
ENDBRANCH   1  18
TORSDOF 28
ENDMDL
MODEL 6
REMARK VINA RESULT:    -3.994     13.569     17.785
REMARK INTER + INTRA:         -16.551
REMARK INTER:                  -9.890
REMARK INTRA:                  -6.662
REMARK UNBOUND:                -6.020
REMARK SMILES CCCCCCCCCCCCCCCCCCCCCCCCCCCCCC(=O)[O-]
REMARK SMILES IDX 16 1 17 2 18 3 19 4 20 5 21 6 22 7 23 8 24 9 25 10 26 11
REMARK SMILES IDX 27 12 28 13 29 14 30 15 31 16 32 17 15 18 14 19 13 20 12 21
REMARK SMILES IDX 11 22 10 23 9 24 8 25 7 26 6 27 5 28 4 29 3 30 2 31 1 32
REMARK H PARENT
REMARK Flexibility Score: inf
ROOT
ATOM      1  C   UNL     1     -29.869  -2.453  26.688  1.00  0.00     0.000 C 
ENDROOT
BRANCH   1   2
ATOM      2  C   UNL     1     -31.235  -2.859  26.107  1.00  0.00     0.000 C 
BRANCH   2   3
ATOM      3  C   UNL     1     -31.447  -4.388  26.126  1.00  0.00     0.000 C 
BRANCH   3   4
ATOM      4  C   UNL     1     -30.232  -5.171  26.652  1.00  0.00     0.000 C 
BRANCH   4   5
ATOM      5  C   UNL     1     -30.105  -6.569  26.022  1.00  0.00     0.000 C 
BRANCH   5   6
ATOM      6  C   UNL     1     -30.937  -6.721  24.739  1.00  0.00     0.000 C 
BRANCH   6   7
ATOM      7  C   UNL     1     -30.143  -7.381  23.598  1.00  0.00     0.000 C 
BRANCH   7   8
ATOM      8  C   UNL     1     -30.089  -6.511  22.332  1.00  0.00     0.000 C 
BRANCH   8   9
ATOM      9  C   UNL     1     -30.161  -5.005  22.641  1.00  0.00     0.000 C 
BRANCH   9  10
ATOM     10  C   UNL     1     -28.786  -4.324  22.538  1.00  0.00     0.000 C 
BRANCH  10  11
ATOM     11  C   UNL     1     -28.228  -3.924  23.915  1.00  0.00     0.000 C 
BRANCH  11  12
ATOM     12  C   UNL     1     -27.216  -4.944  24.464  1.00  0.00     0.000 C 
BRANCH  12  13
ATOM     13  C   UNL     1     -26.416  -5.646  23.357  1.00  0.00     0.006 C 
BRANCH  13  14
ATOM     14  C   UNL     1     -26.403  -7.164  23.565  1.00  0.00     0.053 C 
BRANCH  14  15
ATOM     15  C   UNL     1     -26.004  -7.507  24.967  1.00  0.00     0.041 C 
ATOM     16  O   UNL     1     -24.859  -7.200  25.394  1.00  0.00    -0.550 OA
ATOM     17  O   UNL     1     -26.898  -8.160  25.807  1.00  0.00    -0.550 OA
ENDBRANCH  14  15
ENDBRANCH  13  14
ENDBRANCH  12  13
ENDBRANCH  11  12
ENDBRANCH  10  11
ENDBRANCH   9  10
ENDBRANCH   8   9
ENDBRANCH   7   8
ENDBRANCH   6   7
ENDBRANCH   5   6
ENDBRANCH   4   5
ENDBRANCH   3   4
ENDBRANCH   2   3
ENDBRANCH   1   2
BRANCH   1  18
ATOM     18  C   UNL     1     -29.351  -1.125  26.112  1.00  0.00     0.000 C 
BRANCH  18  19
ATOM     19  C   UNL     1     -27.840  -0.932  26.331  1.00  0.00     0.000 C 
BRANCH  19  20
ATOM     20  C   UNL     1     -27.177  -2.171  26.957  1.00  0.00     0.000 C 
BRANCH  20  21
ATOM     21  C   UNL     1     -26.155  -1.804  28.044  1.00  0.00     0.000 C 
BRANCH  21  22
ATOM     22  C   UNL     1     -24.732  -2.189  27.613  1.00  0.00     0.000 C 
BRANCH  22  23
ATOM     23  C   UNL     1     -24.696  -2.952  26.276  1.00  0.00     0.000 C 
BRANCH  23  24
ATOM     24  C   UNL     1     -23.939  -2.239  25.135  1.00  0.00    -0.000 C 
BRANCH  24  25
ATOM     25  C   UNL     1     -24.603  -2.341  23.750  1.00  0.00    -0.000 C 
BRANCH  25  26
ATOM     26  C   UNL     1     -25.085  -0.983  23.218  1.00  0.00    -0.000 C 
BRANCH  26  27
ATOM     27  C   UNL     1     -26.268  -1.159  22.254  1.00  0.00    -0.000 C 
BRANCH  27  28
ATOM     28  C   UNL     1     -27.586  -0.622  22.833  1.00  0.00    -0.000 C 
BRANCH  28  29
ATOM     29  C   UNL     1     -28.721  -0.600  21.798  1.00  0.00    -0.000 C 
BRANCH  29  30
ATOM     30  C   UNL     1     -29.688   0.557  22.072  1.00  0.00    -0.000 C 
BRANCH  30  31
ATOM     31  C   UNL     1     -30.893   0.087  22.895  1.00  0.00    -0.003 C 
ATOM     32  C   UNL     1     -31.167  -1.398  22.673  1.00  0.00     0.004 C 
ENDBRANCH  30  31
ENDBRANCH  29  30
ENDBRANCH  28  29
ENDBRANCH  27  28
ENDBRANCH  26  27
ENDBRANCH  25  26
ENDBRANCH  24  25
ENDBRANCH  23  24
ENDBRANCH  22  23
ENDBRANCH  21  22
ENDBRANCH  20  21
ENDBRANCH  19  20
ENDBRANCH  18  19
ENDBRANCH   1  18
TORSDOF 28
ENDMDL
MODEL 7
REMARK VINA RESULT:    -3.985      1.444      2.685
REMARK INTER + INTRA:         -16.528
REMARK INTER:                 -11.408
REMARK INTRA:                  -5.120
REMARK UNBOUND:                -6.020
REMARK SMILES CCCCCCCCCCCCCCCCCCCCCCCCCCCCCC(=O)[O-]
REMARK SMILES IDX 16 1 17 2 18 3 19 4 20 5 21 6 22 7 23 8 24 9 25 10 26 11
REMARK SMILES IDX 27 12 28 13 29 14 30 15 31 16 32 17 15 18 14 19 13 20 12 21
REMARK SMILES IDX 11 22 10 23 9 24 8 25 7 26 6 27 5 28 4 29 3 30 2 31 1 32
REMARK H PARENT
REMARK Flexibility Score: inf
ROOT
ATOM      1  C   UNL     1     -13.055  -4.054  34.934  1.00  0.00     0.000 C 
ENDROOT
BRANCH   1   2
ATOM      2  C   UNL     1     -13.247  -4.681  36.327  1.00  0.00     0.000 C 
BRANCH   2   3
ATOM      3  C   UNL     1     -13.262  -6.223  36.276  1.00  0.00     0.000 C 
BRANCH   3   4
ATOM      4  C   UNL     1     -14.673  -6.821  36.158  1.00  0.00     0.000 C 
BRANCH   4   5
ATOM      5  C   UNL     1     -14.805  -8.185  36.858  1.00  0.00     0.000 C 
BRANCH   5   6
ATOM      6  C   UNL     1     -15.769  -8.148  38.054  1.00  0.00     0.000 C 
BRANCH   6   7
ATOM      7  C   UNL     1     -17.080  -7.411  37.729  1.00  0.00     0.000 C 
BRANCH   7   8
ATOM      8  C   UNL     1     -17.395  -6.290  38.733  1.00  0.00     0.000 C 
BRANCH   8   9
ATOM      9  C   UNL     1     -16.133  -5.724  39.409  1.00  0.00     0.000 C 
BRANCH   9  10
ATOM     10  C   UNL     1     -15.708  -4.373  38.810  1.00  0.00     0.000 C 
BRANCH  10  11
ATOM     11  C   UNL     1     -16.637  -3.921  37.669  1.00  0.00     0.000 C 
BRANCH  11  12
ATOM     12  C   UNL     1     -16.195  -2.594  37.033  1.00  0.00     0.000 C 
BRANCH  12  13
ATOM     13  C   UNL     1     -17.201  -1.456  37.266  1.00  0.00     0.006 C 
BRANCH  13  14
ATOM     14  C   UNL     1     -17.399  -0.628  35.992  1.00  0.00     0.053 C 
BRANCH  14  15
ATOM     15  C   UNL     1     -17.970   0.718  36.313  1.00  0.00     0.041 C 
ATOM     16  O   UNL     1     -17.424   1.762  35.867  1.00  0.00    -0.550 OA
ATOM     17  O   UNL     1     -19.111   0.821  37.100  1.00  0.00    -0.550 OA
ENDBRANCH  14  15
ENDBRANCH  13  14
ENDBRANCH  12  13
ENDBRANCH  11  12
ENDBRANCH  10  11
ENDBRANCH   9  10
ENDBRANCH   8   9
ENDBRANCH   7   8
ENDBRANCH   6   7
ENDBRANCH   5   6
ENDBRANCH   4   5
ENDBRANCH   3   4
ENDBRANCH   2   3
ENDBRANCH   1   2
BRANCH   1  18
ATOM     18  C   UNL     1     -12.281  -4.970  33.973  1.00  0.00     0.000 C 
BRANCH  18  19
ATOM     19  C   UNL     1     -12.619  -4.702  32.496  1.00  0.00     0.000 C 
BRANCH  19  20
ATOM     20  C   UNL     1     -13.003  -5.986  31.742  1.00  0.00     0.000 C 
BRANCH  20  21
ATOM     21  C   UNL     1     -13.145  -7.197  32.678  1.00  0.00     0.000 C 
BRANCH  21  22
ATOM     22  C   UNL     1     -14.133  -8.223  32.103  1.00  0.00     0.000 C 
BRANCH  22  23
ATOM     23  C   UNL     1     -15.172  -8.698  33.135  1.00  0.00     0.000 C 
BRANCH  23  24
ATOM     24  C   UNL     1     -16.532  -7.971  33.079  1.00  0.00    -0.000 C 
BRANCH  24  25
ATOM     25  C   UNL     1     -16.662  -6.916  31.965  1.00  0.00    -0.000 C 
BRANCH  25  26
ATOM     26  C   UNL     1     -17.361  -5.633  32.439  1.00  0.00    -0.000 C 
BRANCH  26  27
ATOM     27  C   UNL     1     -16.337  -4.605  32.946  1.00  0.00    -0.000 C 
BRANCH  27  28
ATOM     28  C   UNL     1     -15.877  -3.637  31.846  1.00  0.00    -0.000 C 
BRANCH  28  29
ATOM     29  C   UNL     1     -15.700  -2.200  32.359  1.00  0.00    -0.000 C 
BRANCH  29  30
ATOM     30  C   UNL     1     -17.024  -1.431  32.299  1.00  0.00    -0.000 C 
BRANCH  30  31
ATOM     31  C   UNL     1     -17.962  -2.027  31.243  1.00  0.00    -0.003 C 
ATOM     32  C   UNL     1     -19.422  -1.909  31.672  1.00  0.00     0.004 C 
ENDBRANCH  30  31
ENDBRANCH  29  30
ENDBRANCH  28  29
ENDBRANCH  27  28
ENDBRANCH  26  27
ENDBRANCH  25  26
ENDBRANCH  24  25
ENDBRANCH  23  24
ENDBRANCH  22  23
ENDBRANCH  21  22
ENDBRANCH  20  21
ENDBRANCH  19  20
ENDBRANCH  18  19
ENDBRANCH   1  18
TORSDOF 28
ENDMDL
MODEL 8
REMARK VINA RESULT:    -3.962     13.730     17.175
REMARK INTER + INTRA:         -16.466
REMARK INTER:                 -10.940
REMARK INTRA:                  -5.526
REMARK UNBOUND:                -6.020
REMARK SMILES CCCCCCCCCCCCCCCCCCCCCCCCCCCCCC(=O)[O-]
REMARK SMILES IDX 16 1 17 2 18 3 19 4 20 5 21 6 22 7 23 8 24 9 25 10 26 11
REMARK SMILES IDX 27 12 28 13 29 14 30 15 31 16 32 17 15 18 14 19 13 20 12 21
REMARK SMILES IDX 11 22 10 23 9 24 8 25 7 26 6 27 5 28 4 29 3 30 2 31 1 32
REMARK H PARENT
REMARK Flexibility Score: inf
ROOT
ATOM      1  C   UNL     1     -28.575  -1.938  26.285  1.00  0.00     0.000 C 
ENDROOT
BRANCH   1   2
ATOM      2  C   UNL     1     -27.918  -0.555  26.127  1.00  0.00     0.000 C 
BRANCH   2   3
ATOM      3  C   UNL     1     -27.726  -0.165  24.647  1.00  0.00     0.000 C 
BRANCH   3   4
ATOM      4  C   UNL     1     -28.579  -0.997  23.675  1.00  0.00     0.000 C 
BRANCH   4   5
ATOM      5  C   UNL     1     -27.776  -1.518  22.470  1.00  0.00     0.000 C 
BRANCH   5   6
ATOM      6  C   UNL     1     -26.608  -2.427  22.882  1.00  0.00     0.000 C 
BRANCH   6   7
ATOM      7  C   UNL     1     -27.085  -3.788  23.420  1.00  0.00     0.000 C 
BRANCH   7   8
ATOM      8  C   UNL     1     -26.315  -4.234  24.674  1.00  0.00     0.000 C 
BRANCH   8   9
ATOM      9  C   UNL     1     -24.902  -3.628  24.751  1.00  0.00     0.000 C 
BRANCH   9  10
ATOM     10  C   UNL     1     -24.629  -2.958  26.108  1.00  0.00     0.000 C 
BRANCH  10  11
ATOM     11  C   UNL     1     -24.360  -1.449  25.972  1.00  0.00     0.000 C 
BRANCH  11  12
ATOM     12  C   UNL     1     -23.508  -1.107  24.739  1.00  0.00     0.000 C 
BRANCH  12  13
ATOM     13  C   UNL     1     -24.138  -0.011  23.865  1.00  0.00     0.006 C 
BRANCH  13  14
ATOM     14  C   UNL     1     -23.374   1.310  24.005  1.00  0.00     0.053 C 
BRANCH  14  15
ATOM     15  C   UNL     1     -22.777   1.723  22.695  1.00  0.00     0.041 C 
ATOM     16  O   UNL     1     -23.449   2.409  21.879  1.00  0.00    -0.550 OA
ATOM     17  O   UNL     1     -21.475   1.358  22.376  1.00  0.00    -0.550 OA
ENDBRANCH  14  15
ENDBRANCH  13  14
ENDBRANCH  12  13
ENDBRANCH  11  12
ENDBRANCH  10  11
ENDBRANCH   9  10
ENDBRANCH   8   9
ENDBRANCH   7   8
ENDBRANCH   6   7
ENDBRANCH   5   6
ENDBRANCH   4   5
ENDBRANCH   3   4
ENDBRANCH   2   3
ENDBRANCH   1   2
BRANCH   1  18
ATOM     18  C   UNL     1     -29.993  -1.856  26.876  1.00  0.00     0.000 C 
BRANCH  18  19
ATOM     19  C   UNL     1     -30.986  -2.793  26.166  1.00  0.00     0.000 C 
BRANCH  19  20
ATOM     20  C   UNL     1     -30.285  -3.978  25.481  1.00  0.00     0.000 C 
BRANCH  20  21
ATOM     21  C   UNL     1     -30.113  -5.182  26.421  1.00  0.00     0.000 C 
BRANCH  21  22
ATOM     22  C   UNL     1     -30.607  -6.475  25.755  1.00  0.00     0.000 C 
BRANCH  22  23
ATOM     23  C   UNL     1     -31.685  -6.223  24.685  1.00  0.00     0.000 C 
BRANCH  23  24
ATOM     24  C   UNL     1     -31.550  -7.075  23.405  1.00  0.00    -0.000 C 
BRANCH  24  25
ATOM     25  C   UNL     1     -30.111  -7.489  23.046  1.00  0.00    -0.000 C 
BRANCH  25  26
ATOM     26  C   UNL     1     -29.347  -6.393  22.288  1.00  0.00    -0.000 C 
BRANCH  26  27
ATOM     27  C   UNL     1     -28.483  -6.999  21.171  1.00  0.00    -0.000 C 
BRANCH  27  28
ATOM     28  C   UNL     1     -26.998  -7.087  21.556  1.00  0.00    -0.000 C 
BRANCH  28  29
ATOM     29  C   UNL     1     -26.520  -8.535  21.740  1.00  0.00    -0.000 C 
BRANCH  29  30
ATOM     30  C   UNL     1     -26.725  -8.998  23.186  1.00  0.00    -0.000 C 
BRANCH  30  31
ATOM     31  C   UNL     1     -26.280  -7.920  24.180  1.00  0.00    -0.003 C 
ATOM     32  C   UNL     1     -27.195  -7.883  25.401  1.00  0.00     0.004 C 
ENDBRANCH  30  31
ENDBRANCH  29  30
ENDBRANCH  28  29
ENDBRANCH  27  28
ENDBRANCH  26  27
ENDBRANCH  25  26
ENDBRANCH  24  25
ENDBRANCH  23  24
ENDBRANCH  22  23
ENDBRANCH  21  22
ENDBRANCH  20  21
ENDBRANCH  19  20
ENDBRANCH  18  19
ENDBRANCH   1  18
TORSDOF 28
ENDMDL
MODEL 9
REMARK VINA RESULT:    -3.958      2.969      5.923
REMARK INTER + INTRA:         -16.457
REMARK INTER:                 -10.087
REMARK INTRA:                  -6.370
REMARK UNBOUND:                -6.020
REMARK SMILES CCCCCCCCCCCCCCCCCCCCCCCCCCCCCC(=O)[O-]
REMARK SMILES IDX 16 1 17 2 18 3 19 4 20 5 21 6 22 7 23 8 24 9 25 10 26 11
REMARK SMILES IDX 27 12 28 13 29 14 30 15 31 16 32 17 15 18 14 19 13 20 12 21
REMARK SMILES IDX 11 22 10 23 9 24 8 25 7 26 6 27 5 28 4 29 3 30 2 31 1 32
REMARK H PARENT
REMARK Flexibility Score: inf
ROOT
ATOM      1  C   UNL     1     -13.850  -3.495  34.560  1.00  0.00     0.000 C 
ENDROOT
BRANCH   1   2
ATOM      2  C   UNL     1     -14.009  -2.880  33.158  1.00  0.00     0.000 C 
BRANCH   2   3
ATOM      3  C   UNL     1     -13.170  -3.621  32.096  1.00  0.00     0.000 C 
BRANCH   3   4
ATOM      4  C   UNL     1     -12.625  -4.976  32.578  1.00  0.00     0.000 C 
BRANCH   4   5
ATOM      5  C   UNL     1     -13.151  -6.160  31.749  1.00  0.00     0.000 C 
BRANCH   5   6
ATOM      6  C   UNL     1     -12.920  -7.515  32.436  1.00  0.00     0.000 C 
BRANCH   6   7
ATOM      7  C   UNL     1     -12.435  -7.362  33.889  1.00  0.00     0.000 C 
BRANCH   7   8
ATOM      8  C   UNL     1     -12.509  -8.677  34.681  1.00  0.00     0.000 C 
BRANCH   8   9
ATOM      9  C   UNL     1     -13.594  -9.632  34.150  1.00  0.00     0.000 C 
BRANCH   9  10
ATOM     10  C   UNL     1     -14.949  -9.416  34.844  1.00  0.00     0.000 C 
BRANCH  10  11
ATOM     11  C   UNL     1     -16.041  -8.954  33.862  1.00  0.00     0.000 C 
BRANCH  11  12
ATOM     12  C   UNL     1     -16.723  -7.649  34.303  1.00  0.00     0.000 C 
BRANCH  12  13
ATOM     13  C   UNL     1     -16.068  -6.399  33.694  1.00  0.00     0.006 C 
BRANCH  13  14
ATOM     14  C   UNL     1     -17.015  -5.709  32.705  1.00  0.00     0.053 C 
BRANCH  14  15
ATOM     15  C   UNL     1     -17.333  -6.611  31.553  1.00  0.00     0.041 C 
ATOM     16  O   UNL     1     -18.519  -6.983  31.347  1.00  0.00    -0.550 OA
ATOM     17  O   UNL     1     -16.321  -7.036  30.700  1.00  0.00    -0.550 OA
ENDBRANCH  14  15
ENDBRANCH  13  14
ENDBRANCH  12  13
ENDBRANCH  11  12
ENDBRANCH  10  11
ENDBRANCH   9  10
ENDBRANCH   8   9
ENDBRANCH   7   8
ENDBRANCH   6   7
ENDBRANCH   5   6
ENDBRANCH   4   5
ENDBRANCH   3   4
ENDBRANCH   2   3
ENDBRANCH   1   2
BRANCH   1  18
ATOM     18  C   UNL     1     -13.078  -2.580  35.525  1.00  0.00     0.000 C 
BRANCH  18  19
ATOM     19  C   UNL     1     -12.341  -3.364  36.625  1.00  0.00     0.000 C 
BRANCH  19  20
ATOM     20  C   UNL     1     -12.356  -4.881  36.371  1.00  0.00     0.000 C 
BRANCH  20  21
ATOM     21  C   UNL     1     -13.050  -5.658  37.501  1.00  0.00     0.000 C 
BRANCH  21  22
ATOM     22  C   UNL     1     -14.270  -6.427  36.970  1.00  0.00     0.000 C 
BRANCH  22  23
ATOM     23  C   UNL     1     -15.592  -5.973  37.616  1.00  0.00     0.000 C 
BRANCH  23  24
ATOM     24  C   UNL     1     -16.239  -4.726  36.978  1.00  0.00    -0.000 C 
BRANCH  24  25
ATOM     25  C   UNL     1     -15.987  -3.405  37.727  1.00  0.00    -0.000 C 
BRANCH  25  26
ATOM     26  C   UNL     1     -17.014  -2.317  37.378  1.00  0.00    -0.000 C 
BRANCH  26  27
ATOM     27  C   UNL     1     -16.511  -1.439  36.221  1.00  0.00    -0.000 C 
BRANCH  27  28
ATOM     28  C   UNL     1     -17.598  -1.172  35.168  1.00  0.00    -0.000 C 
BRANCH  28  29
ATOM     29  C   UNL     1     -17.542  -2.165  33.997  1.00  0.00    -0.000 C 
BRANCH  29  30
ATOM     30  C   UNL     1     -17.178  -1.449  32.691  1.00  0.00    -0.000 C 
BRANCH  30  31
ATOM     31  C   UNL     1     -17.730  -2.203  31.476  1.00  0.00    -0.003 C 
ATOM     32  C   UNL     1     -19.255  -2.158  31.445  1.00  0.00     0.004 C 
ENDBRANCH  30  31
ENDBRANCH  29  30
ENDBRANCH  28  29
ENDBRANCH  27  28
ENDBRANCH  26  27
ENDBRANCH  25  26
ENDBRANCH  24  25
ENDBRANCH  23  24
ENDBRANCH  22  23
ENDBRANCH  21  22
ENDBRANCH  20  21
ENDBRANCH  19  20
ENDBRANCH  18  19
ENDBRANCH   1  18
TORSDOF 28
ENDMDL
