MODEL 1
REMARK VINA RESULT:    -3.731      0.000      0.000
REMARK INTER + INTRA:          -7.184
REMARK INTER:                  -5.912
REMARK INTRA:                  -1.272
REMARK UNBOUND:                -1.272
REMARK SMILES CCCCCCCCCCCC(=O)[O-]
REMARK SMILES IDX 7 1 8 2 9 3 10 4 11 5 12 6 13 7 14 8 6 9 5 10 4 11 3 12 2 13
REMARK SMILES IDX 1 14
REMARK H PARENT
REMARK Flexibility Score: inf
ROOT
ATOM      1  C   UNL     1     -10.170  -7.272   0.141  1.00  0.00     0.000 C 
ENDROOT
BRANCH   1   2
ATOM      2  C   UNL     1      -9.431  -8.593   0.422  1.00  0.00     0.000 C 
BRANCH   2   3
ATOM      3  C   UNL     1      -8.116  -8.712  -0.365  1.00  0.00     0.000 C 
BRANCH   3   4
ATOM      4  C   UNL     1      -7.058  -9.551   0.368  1.00  0.00     0.006 C 
BRANCH   4   5
ATOM      5  C   UNL     1      -6.466 -10.617  -0.558  1.00  0.00     0.053 C 
BRANCH   5   6
ATOM      6  C   UNL     1      -6.138 -11.857   0.212  1.00  0.00     0.041 C 
ATOM      7  O   UNL     1      -5.410 -12.747  -0.302  1.00  0.00    -0.550 OA
ATOM      8  O   UNL     1      -6.674 -12.052   1.477  1.00  0.00    -0.550 OA
ENDBRANCH   5   6
ENDBRANCH   4   5
ENDBRANCH   3   4
ENDBRANCH   2   3
ENDBRANCH   1   2
BRANCH   1   9
ATOM      9  C   UNL     1      -9.944  -6.224   1.242  1.00  0.00     0.000 C 
BRANCH   9  10
ATOM     10  C   UNL     1      -9.455  -6.843   2.561  1.00  0.00    -0.000 C 
BRANCH  10  11
ATOM     11  C   UNL     1      -8.052  -6.328   2.920  1.00  0.00    -0.000 C 
BRANCH  11  12
ATOM     12  C   UNL     1      -7.407  -5.523   1.781  1.00  0.00    -0.000 C 
BRANCH  12  13
ATOM     13  C   UNL     1      -6.075  -6.125   1.311  1.00  0.00    -0.003 C 
ATOM     14  C   UNL     1      -5.780  -5.744  -0.137  1.00  0.00     0.004 C 
ENDBRANCH  12  13
ENDBRANCH  11  12
ENDBRANCH  10  11
ENDBRANCH   9  10
ENDBRANCH   1   9
TORSDOF 10
ENDMDL
MODEL 2
REMARK VINA RESULT:    -3.688      3.608      6.767
REMARK INTER + INTRA:          -7.115
REMARK INTER:                  -6.484
REMARK INTRA:                  -0.631
REMARK UNBOUND:                -1.272
REMARK SMILES CCCCCCCCCCCC(=O)[O-]
REMARK SMILES IDX 7 1 8 2 9 3 10 4 11 5 12 6 13 7 14 8 6 9 5 10 4 11 3 12 2 13
REMARK SMILES IDX 1 14
REMARK H PARENT
REMARK Flexibility Score: inf
ROOT
ATOM      1  C   UNL     1      -6.579 -10.705   0.984  1.00  0.00     0.000 C 
ENDROOT
BRANCH   1   2
ATOM      2  C   UNL     1      -7.177  -9.290   1.086  1.00  0.00     0.000 C 
BRANCH   2   3
ATOM      3  C   UNL     1      -7.926  -8.872  -0.190  1.00  0.00     0.000 C 
BRANCH   3   4
ATOM      4  C   UNL     1      -9.366  -8.414   0.088  1.00  0.00     0.006 C 
BRANCH   4   5
ATOM      5  C   UNL     1      -9.389  -6.989   0.649  1.00  0.00     0.053 C 
BRANCH   5   6
ATOM      6  C   UNL     1     -10.798  -6.520   0.832  1.00  0.00     0.041 C 
ATOM      7  O   UNL     1     -11.494  -6.203  -0.168  1.00  0.00    -0.550 OA
ATOM      8  O   UNL     1     -11.325  -6.387   2.110  1.00  0.00    -0.550 OA
ENDBRANCH   5   6
ENDBRANCH   4   5
ENDBRANCH   3   4
ENDBRANCH   2   3
ENDBRANCH   1   2
BRANCH   1   9
ATOM      9  C   UNL     1      -6.072 -11.030  -0.430  1.00  0.00     0.000 C 
BRANCH   9  10
ATOM     10  C   UNL     1      -5.139 -12.250  -0.461  1.00  0.00    -0.000 C 
BRANCH  10  11
ATOM     11  C   UNL     1      -5.321 -13.111   0.799  1.00  0.00    -0.000 C 
BRANCH  11  12
ATOM     12  C   UNL     1      -5.944 -14.482   0.494  1.00  0.00    -0.000 C 
BRANCH  12  13
ATOM     13  C   UNL     1      -6.962 -14.919   1.558  1.00  0.00    -0.003 C 
ATOM     14  C   UNL     1      -6.975 -13.949   2.737  1.00  0.00     0.004 C 
ENDBRANCH  12  13
ENDBRANCH  11  12
ENDBRANCH  10  11
ENDBRANCH   9  10
ENDBRANCH   1   9
TORSDOF 10
ENDMDL
MODEL 3
REMARK VINA RESULT:    -3.626      1.425      2.400
REMARK INTER + INTRA:          -7.018
REMARK INTER:                  -5.979
REMARK INTRA:                  -1.039
REMARK UNBOUND:                -1.272
REMARK SMILES CCCCCCCCCCCC(=O)[O-]
REMARK SMILES IDX 7 1 8 2 9 3 10 4 11 5 12 6 13 7 14 8 6 9 5 10 4 11 3 12 2 13
REMARK SMILES IDX 1 14
REMARK H PARENT
REMARK Flexibility Score: inf
ROOT
ATOM      1  C   UNL     1      -8.677  -8.783  -0.195  1.00  0.00     0.000 C 
ENDROOT
BRANCH   1   2
ATOM      2  C   UNL     1      -7.256  -8.195  -0.152  1.00  0.00     0.000 C 
BRANCH   2   3
ATOM      3  C   UNL     1      -6.602  -8.330   1.233  1.00  0.00     0.000 C 
BRANCH   3   4
ATOM      4  C   UNL     1      -5.615  -9.505   1.313  1.00  0.00     0.006 C 
BRANCH   4   5
ATOM      5  C   UNL     1      -6.352 -10.822   1.573  1.00  0.00     0.053 C 
BRANCH   5   6
ATOM      6  C   UNL     1      -6.103 -11.791   0.461  1.00  0.00     0.041 C 
ATOM      7  O   UNL     1      -5.730 -11.377  -0.668  1.00  0.00    -0.550 OA
ATOM      8  O   UNL     1      -6.332 -13.147   0.656  1.00  0.00    -0.550 OA
ENDBRANCH   5   6
ENDBRANCH   4   5
ENDBRANCH   3   4
ENDBRANCH   2   3
ENDBRANCH   1   2
BRANCH   1   9
ATOM      9  C   UNL     1      -9.647  -8.051   0.745  1.00  0.00     0.000 C 
BRANCH   9  10
ATOM     10  C   UNL     1     -10.590  -7.094  -0.002  1.00  0.00    -0.000 C 
BRANCH  10  11
ATOM     11  C   UNL     1     -10.822  -5.810   0.809  1.00  0.00    -0.000 C 
BRANCH  11  12
ATOM     12  C   UNL     1     -10.101  -5.828   2.166  1.00  0.00    -0.000 C 
BRANCH  12  13
ATOM     13  C   UNL     1      -9.193  -4.606   2.370  1.00  0.00    -0.003 C 
ATOM     14  C   UNL     1      -7.732  -4.957   2.100  1.00  0.00     0.004 C 
ENDBRANCH  12  13
ENDBRANCH  11  12
ENDBRANCH  10  11
ENDBRANCH   9  10
ENDBRANCH   1   9
TORSDOF 10
ENDMDL
MODEL 4
REMARK VINA RESULT:    -3.603      3.244      6.188
REMARK INTER + INTRA:          -6.980
REMARK INTER:                  -6.208
REMARK INTRA:                  -0.772
REMARK UNBOUND:                -1.272
REMARK SMILES CCCCCCCCCCCC(=O)[O-]
REMARK SMILES IDX 7 1 8 2 9 3 10 4 11 5 12 6 13 7 14 8 6 9 5 10 4 11 3 12 2 13
REMARK SMILES IDX 1 14
REMARK H PARENT
REMARK Flexibility Score: inf
ROOT
ATOM      1  C   UNL     1      -7.936  -8.697  -0.248  1.00  0.00     0.000 C 
ENDROOT
BRANCH   1   2
ATOM      2  C   UNL     1      -7.314  -7.300  -0.075  1.00  0.00     0.000 C 
BRANCH   2   3
ATOM      3  C   UNL     1      -7.860  -6.559   1.156  1.00  0.00     0.000 C 
BRANCH   3   4
ATOM      4  C   UNL     1      -9.221  -7.099   1.621  1.00  0.00     0.006 C 
BRANCH   4   5
ATOM      5  C   UNL     1     -10.287  -6.000   1.584  1.00  0.00     0.053 C 
BRANCH   5   6
ATOM      6  C   UNL     1     -11.077  -6.078   0.316  1.00  0.00     0.041 C 
ATOM      7  O   UNL     1     -11.219  -7.181  -0.275  1.00  0.00    -0.550 OA
ATOM      8  O   UNL     1     -11.616  -4.925  -0.240  1.00  0.00    -0.550 OA
ENDBRANCH   5   6
ENDBRANCH   4   5
ENDBRANCH   3   4
ENDBRANCH   2   3
ENDBRANCH   1   2
BRANCH   1   9
ATOM      9  C   UNL     1      -6.877  -9.803  -0.378  1.00  0.00     0.000 C 
BRANCH   9  10
ATOM     10  C   UNL     1      -5.918  -9.851   0.821  1.00  0.00    -0.000 C 
BRANCH  10  11
ATOM     11  C   UNL     1      -5.041 -11.111   0.770  1.00  0.00    -0.000 C 
BRANCH  11  12
ATOM     12  C   UNL     1      -5.553 -12.149  -0.241  1.00  0.00    -0.000 C 
BRANCH  12  13
ATOM     13  C   UNL     1      -5.468 -13.587   0.293  1.00  0.00    -0.003 C 
ATOM     14  C   UNL     1      -6.371 -13.776   1.508  1.00  0.00     0.004 C 
ENDBRANCH  12  13
ENDBRANCH  11  12
ENDBRANCH  10  11
ENDBRANCH   9  10
ENDBRANCH   1   9
TORSDOF 10
ENDMDL
MODEL 5
REMARK VINA RESULT:    -3.577      1.318      3.004
REMARK INTER + INTRA:          -6.939
REMARK INTER:                  -6.096
REMARK INTRA:                  -0.843
REMARK UNBOUND:                -1.272
REMARK SMILES CCCCCCCCCCCC(=O)[O-]
REMARK SMILES IDX 7 1 8 2 9 3 10 4 11 5 12 6 13 7 14 8 6 9 5 10 4 11 3 12 2 13
REMARK SMILES IDX 1 14
REMARK H PARENT
REMARK Flexibility Score: inf
ROOT
ATOM      1  C   UNL     1      -7.844  -8.722  -0.230  1.00  0.00     0.000 C 
ENDROOT
BRANCH   1   2
ATOM      2  C   UNL     1      -7.116 -10.074  -0.129  1.00  0.00     0.000 C 
BRANCH   2   3
ATOM      3  C   UNL     1      -5.820  -9.987   0.694  1.00  0.00     0.000 C 
BRANCH   3   4
ATOM      4  C   UNL     1      -4.978 -11.270   0.616  1.00  0.00     0.006 C 
BRANCH   4   5
ATOM      5  C   UNL     1      -5.751 -12.391  -0.085  1.00  0.00     0.053 C 
BRANCH   5   6
ATOM      6  C   UNL     1      -6.099 -13.475   0.886  1.00  0.00     0.041 C 
ATOM      7  O   UNL     1      -5.883 -14.680   0.593  1.00  0.00    -0.550 OA
ATOM      8  O   UNL     1      -6.707 -13.157   2.093  1.00  0.00    -0.550 OA
ENDBRANCH   5   6
ENDBRANCH   4   5
ENDBRANCH   3   4
ENDBRANCH   2   3
ENDBRANCH   1   2
BRANCH   1   9
ATOM      9  C   UNL     1      -6.873  -7.535  -0.317  1.00  0.00     0.000 C 
BRANCH   9  10
ATOM     10  C   UNL     1      -7.178  -6.439   0.716  1.00  0.00    -0.000 C 
BRANCH  10  11
ATOM     11  C   UNL     1      -8.333  -6.862   1.636  1.00  0.00    -0.000 C 
BRANCH  11  12
ATOM     12  C   UNL     1      -9.456  -5.814   1.698  1.00  0.00    -0.000 C 
BRANCH  12  13
ATOM     13  C   UNL     1     -10.853  -6.434   1.550  1.00  0.00    -0.003 C 
ATOM     14  C   UNL     1     -11.243  -6.565   0.080  1.00  0.00     0.004 C 
ENDBRANCH  12  13
ENDBRANCH  11  12
ENDBRANCH  10  11
ENDBRANCH   9  10
ENDBRANCH   1   9
TORSDOF 10
ENDMDL
MODEL 6
REMARK VINA RESULT:    -3.563      1.472      2.683
REMARK INTER + INTRA:          -6.917
REMARK INTER:                  -6.070
REMARK INTRA:                  -0.848
REMARK UNBOUND:                -1.272
REMARK SMILES CCCCCCCCCCCC(=O)[O-]
REMARK SMILES IDX 7 1 8 2 9 3 10 4 11 5 12 6 13 7 14 8 6 9 5 10 4 11 3 12 2 13
REMARK SMILES IDX 1 14
REMARK H PARENT
REMARK Flexibility Score: inf
ROOT
ATOM      1  C   UNL     1      -7.989  -8.576  -0.320  1.00  0.00     0.000 C 
ENDROOT
BRANCH   1   2
ATOM      2  C   UNL     1      -7.142  -9.605   0.450  1.00  0.00     0.000 C 
BRANCH   2   3
ATOM      3  C   UNL     1      -6.460 -10.622  -0.480  1.00  0.00     0.000 C 
BRANCH   3   4
ATOM      4  C   UNL     1      -5.508 -11.568   0.269  1.00  0.00     0.006 C 
BRANCH   4   5
ATOM      5  C   UNL     1      -6.095 -12.979   0.357  1.00  0.00     0.053 C 
BRANCH   5   6
ATOM      6  C   UNL     1      -6.429 -13.321   1.774  1.00  0.00     0.041 C 
ATOM      7  O   UNL     1      -6.877 -12.436   2.550  1.00  0.00    -0.550 OA
ATOM      8  O   UNL     1      -6.200 -14.604   2.253  1.00  0.00    -0.550 OA
ENDBRANCH   5   6
ENDBRANCH   4   5
ENDBRANCH   3   4
ENDBRANCH   2   3
ENDBRANCH   1   2
BRANCH   1   9
ATOM      9  C   UNL     1      -9.479  -8.645   0.050  1.00  0.00     0.000 C 
BRANCH   9  10
ATOM     10  C   UNL     1     -10.147  -7.262   0.088  1.00  0.00    -0.000 C 
BRANCH  10  11
ATOM     11  C   UNL     1     -10.371  -6.802   1.537  1.00  0.00    -0.000 C 
BRANCH  11  12
ATOM     12  C   UNL     1      -9.646  -5.486   1.860  1.00  0.00    -0.000 C 
BRANCH  12  13
ATOM     13  C   UNL     1      -8.122  -5.655   1.942  1.00  0.00    -0.003 C 
ATOM     14  C   UNL     1      -7.743  -6.726   2.962  1.00  0.00     0.004 C 
ENDBRANCH  12  13
ENDBRANCH  11  12
ENDBRANCH  10  11
ENDBRANCH   9  10
ENDBRANCH   1   9
TORSDOF 10
ENDMDL
MODEL 7
REMARK VINA RESULT:    -3.538      3.316      4.823
REMARK INTER + INTRA:          -6.878
REMARK INTER:                  -5.537
REMARK INTRA:                  -1.341
REMARK UNBOUND:                -1.272
REMARK SMILES CCCCCCCCCCCC(=O)[O-]
REMARK SMILES IDX 7 1 8 2 9 3 10 4 11 5 12 6 13 7 14 8 6 9 5 10 4 11 3 12 2 13
REMARK SMILES IDX 1 14
REMARK H PARENT
REMARK Flexibility Score: inf
ROOT
ATOM      1  C   UNL     1      -6.737 -10.296  -0.204  1.00  0.00     0.000 C 
ENDROOT
BRANCH   1   2
ATOM      2  C   UNL     1      -7.459  -8.976  -0.527  1.00  0.00     0.000 C 
BRANCH   2   3
ATOM      3  C   UNL     1      -8.959  -9.026  -0.193  1.00  0.00     0.000 C 
BRANCH   3   4
ATOM      4  C   UNL     1      -9.328  -8.150   1.015  1.00  0.00     0.006 C 
BRANCH   4   5
ATOM      5  C   UNL     1      -9.989  -6.845   0.563  1.00  0.00     0.053 C 
BRANCH   5   6
ATOM      6  C   UNL     1     -10.342  -5.999   1.746  1.00  0.00     0.041 C 
ATOM      7  O   UNL     1      -9.686  -4.954   1.996  1.00  0.00    -0.550 OA
ATOM      8  O   UNL     1     -11.363  -6.392   2.601  1.00  0.00    -0.550 OA
ENDBRANCH   5   6
ENDBRANCH   4   5
ENDBRANCH   3   4
ENDBRANCH   2   3
ENDBRANCH   1   2
BRANCH   1   9
ATOM      9  C   UNL     1      -5.611 -10.116   0.826  1.00  0.00     0.000 C 
BRANCH   9  10
ATOM     10  C   UNL     1      -6.120  -9.597   2.179  1.00  0.00    -0.000 C 
BRANCH  10  11
ATOM     11  C   UNL     1      -5.473  -8.247   2.526  1.00  0.00    -0.000 C 
BRANCH  11  12
ATOM     12  C   UNL     1      -6.509  -7.154   2.830  1.00  0.00    -0.000 C 
BRANCH  12  13
ATOM     13  C   UNL     1      -6.194  -5.827   2.122  1.00  0.00    -0.003 C 
ATOM     14  C   UNL     1      -6.177  -6.004   0.606  1.00  0.00     0.004 C 
ENDBRANCH  12  13
ENDBRANCH  11  12
ENDBRANCH  10  11
ENDBRANCH   9  10
ENDBRANCH   1   9
TORSDOF 10
ENDMDL
MODEL 8
REMARK VINA RESULT:    -3.537     19.189     21.046
REMARK INTER + INTRA:          -6.877
REMARK INTER:                  -5.607
REMARK INTRA:                  -1.270
REMARK UNBOUND:                -1.272
REMARK SMILES CCCCCCCCCCCC(=O)[O-]
REMARK SMILES IDX 7 1 8 2 9 3 10 4 11 5 12 6 13 7 14 8 6 9 5 10 4 11 3 12 2 13
REMARK SMILES IDX 1 14
REMARK H PARENT
REMARK Flexibility Score: inf
ROOT
ATOM      1  C   UNL     1     -23.207  -5.941 -15.545  1.00  0.00     0.000 C 
ENDROOT
BRANCH   1   2
ATOM      2  C   UNL     1     -22.856  -4.559 -14.966  1.00  0.00     0.000 C 
BRANCH   2   3
ATOM      3  C   UNL     1     -23.682  -4.215 -13.716  1.00  0.00     0.000 C 
BRANCH   3   4
ATOM      4  C   UNL     1     -22.843  -4.213 -12.430  1.00  0.00     0.006 C 
BRANCH   4   5
ATOM      5  C   UNL     1     -21.532  -3.448 -12.633  1.00  0.00     0.053 C 
BRANCH   5   6
ATOM      6  C   UNL     1     -21.622  -2.082 -12.029  1.00  0.00     0.041 C 
ATOM      7  O   UNL     1     -22.521  -1.283 -12.401  1.00  0.00    -0.550 OA
ATOM      8  O   UNL     1     -20.684  -1.674 -11.089  1.00  0.00    -0.550 OA
ENDBRANCH   5   6
ENDBRANCH   4   5
ENDBRANCH   3   4
ENDBRANCH   2   3
ENDBRANCH   1   2
BRANCH   1   9
ATOM      9  C   UNL     1     -21.963  -6.805 -15.805  1.00  0.00     0.000 C 
BRANCH   9  10
ATOM     10  C   UNL     1     -20.653  -6.086 -15.444  1.00  0.00    -0.000 C 
BRANCH  10  11
ATOM     11  C   UNL     1     -19.811  -6.934 -14.479  1.00  0.00    -0.000 C 
BRANCH  11  12
ATOM     12  C   UNL     1     -20.337  -6.886 -13.035  1.00  0.00    -0.000 C 
BRANCH  12  13
ATOM     13  C   UNL     1     -20.756  -8.268 -12.512  1.00  0.00    -0.003 C 
ATOM     14  C   UNL     1     -20.253  -9.379 -13.431  1.00  0.00     0.004 C 
ENDBRANCH  12  13
ENDBRANCH  11  12
ENDBRANCH  10  11
ENDBRANCH   9  10
ENDBRANCH   1   9
TORSDOF 10
ENDMDL
MODEL 9
REMARK VINA RESULT:    -3.529     20.020     21.717
REMARK INTER + INTRA:          -6.863
REMARK INTER:                  -5.660
REMARK INTRA:                  -1.204
REMARK UNBOUND:                -1.272
REMARK SMILES CCCCCCCCCCCC(=O)[O-]
REMARK SMILES IDX 7 1 8 2 9 3 10 4 11 5 12 6 13 7 14 8 6 9 5 10 4 11 3 12 2 13
REMARK SMILES IDX 1 14
REMARK H PARENT
REMARK Flexibility Score: inf
ROOT
ATOM      1  C   UNL     1     -23.016  -5.549 -15.285  1.00  0.00     0.000 C 
ENDROOT
BRANCH   1   2
ATOM      2  C   UNL     1     -22.009  -5.812 -16.418  1.00  0.00     0.000 C 
BRANCH   2   3
ATOM      3  C   UNL     1     -22.135  -7.229 -17.003  1.00  0.00     0.000 C 
BRANCH   3   4
ATOM      4  C   UNL     1     -23.071  -8.130 -16.183  1.00  0.00     0.006 C 
BRANCH   4   5
ATOM      5  C   UNL     1     -23.377  -9.429 -16.933  1.00  0.00     0.053 C 
BRANCH   5   6
ATOM      6  C   UNL     1     -23.739 -10.517 -15.972  1.00  0.00     0.041 C 
ATOM      7  O   UNL     1     -24.939 -10.690 -15.633  1.00  0.00    -0.550 OA
ATOM      8  O   UNL     1     -22.744 -11.309 -15.413  1.00  0.00    -0.550 OA
ENDBRANCH   5   6
ENDBRANCH   4   5
ENDBRANCH   3   4
ENDBRANCH   2   3
ENDBRANCH   1   2
BRANCH   1   9
ATOM      9  C   UNL     1     -22.543  -4.451 -14.319  1.00  0.00     0.000 C 
BRANCH   9  10
ATOM     10  C   UNL     1     -22.130  -5.005 -12.946  1.00  0.00    -0.000 C 
BRANCH  10  11
ATOM     11  C   UNL     1     -20.691  -5.541 -12.982  1.00  0.00    -0.000 C 
BRANCH  11  12
ATOM     12  C   UNL     1     -20.608  -7.038 -12.646  1.00  0.00    -0.000 C 
BRANCH  12  13
ATOM     13  C   UNL     1     -20.092  -7.881 -13.822  1.00  0.00    -0.003 C 
ATOM     14  C   UNL     1     -20.448  -9.354 -13.639  1.00  0.00     0.004 C 
ENDBRANCH  12  13
ENDBRANCH  11  12
ENDBRANCH  10  11
ENDBRANCH   9  10
ENDBRANCH   1   9
TORSDOF 10
ENDMDL
