MODEL 1
REMARK VINA RESULT:     2.690      0.000      0.000
REMARK INTER + INTRA:           5.082
REMARK INTER:                   7.092
REMARK INTRA:                  -2.010
REMARK UNBOUND:                -2.010
REMARK SMILES CCCCCCCCCCCCCCCCCCCCCCCCCCCCCC(=O)[O-]
REMARK SMILES IDX 16 1 17 2 18 3 19 4 20 5 21 6 22 7 23 8 24 9 25 10 26 11
REMARK SMILES IDX 27 12 28 13 29 14 30 15 31 16 32 17 15 18 14 19 13 20 12 21
REMARK SMILES IDX 11 22 10 23 9 24 8 25 7 26 6 27 5 28 4 29 3 30 2 31 1 32
REMARK H PARENT
REMARK Flexibility Score: inf
ROOT
ATOM      1  C   UNL     1       0.368  -7.248  -8.331  1.00  0.00     0.000 C 
ENDROOT
BRANCH   1   2
ATOM      2  C   UNL     1       1.843  -6.849  -8.552  1.00  0.00     0.000 C 
BRANCH   2   3
ATOM      3  C   UNL     1       2.060  -5.911  -9.753  1.00  0.00     0.000 C 
BRANCH   3   4
ATOM      4  C   UNL     1       2.744  -4.588  -9.366  1.00  0.00     0.000 C 
BRANCH   4   5
ATOM      5  C   UNL     1       4.077  -4.359 -10.107  1.00  0.00     0.000 C 
BRANCH   5   6
ATOM      6  C   UNL     1       5.135  -3.594  -9.286  1.00  0.00     0.000 C 
BRANCH   6   7
ATOM      7  C   UNL     1       6.590  -3.819  -9.723  1.00  0.00     0.000 C 
BRANCH   7   8
ATOM      8  C   UNL     1       7.271  -4.968  -8.957  1.00  0.00     0.000 C 
BRANCH   8   9
ATOM      9  C   UNL     1       8.781  -5.050  -9.227  1.00  0.00     0.000 C 
BRANCH   9  10
ATOM     10  C   UNL     1       9.283  -6.496  -9.355  1.00  0.00     0.000 C 
BRANCH  10  11
ATOM     11  C   UNL     1      10.815  -6.544  -9.360  1.00  0.00     0.000 C 
BRANCH  11  12
ATOM     12  C   UNL     1      11.403  -5.529  -8.369  1.00  0.00     0.000 C 
BRANCH  12  13
ATOM     13  C   UNL     1      11.884  -6.182  -7.060  1.00  0.00     0.006 C 
BRANCH  13  14
ATOM     14  C   UNL     1      10.986  -5.907  -5.842  1.00  0.00     0.053 C 
BRANCH  14  15
ATOM     15  C   UNL     1       9.915  -6.941  -5.688  1.00  0.00     0.041 C 
ATOM     16  O   UNL     1      10.215  -8.123  -5.374  1.00  0.00    -0.550 OA
ATOM     17  O   UNL     1       8.581  -6.589  -5.839  1.00  0.00    -0.550 OA
ENDBRANCH  14  15
ENDBRANCH  13  14
ENDBRANCH  12  13
ENDBRANCH  11  12
ENDBRANCH  10  11
ENDBRANCH   9  10
ENDBRANCH   8   9
ENDBRANCH   7   8
ENDBRANCH   6   7
ENDBRANCH   5   6
ENDBRANCH   4   5
ENDBRANCH   3   4
ENDBRANCH   2   3
ENDBRANCH   1   2
BRANCH   1  18
ATOM     18  C   UNL     1      -0.399  -6.190  -7.518  1.00  0.00     0.000 C 
BRANCH  18  19
ATOM     19  C   UNL     1      -1.653  -6.751  -6.825  1.00  0.00     0.000 C 
BRANCH  19  20
ATOM     20  C   UNL     1      -2.674  -5.695  -6.367  1.00  0.00     0.000 C 
BRANCH  20  21
ATOM     21  C   UNL     1      -3.834  -6.296  -5.555  1.00  0.00     0.000 C 
BRANCH  21  22
ATOM     22  C   UNL     1      -5.015  -6.740  -6.438  1.00  0.00     0.000 C 
BRANCH  22  23
ATOM     23  C   UNL     1      -5.100  -6.055  -7.819  1.00  0.00     0.000 C 
BRANCH  23  24
ATOM     24  C   UNL     1      -6.523  -5.708  -8.294  1.00  0.00    -0.000 C 
BRANCH  24  25
ATOM     25  C   UNL     1      -6.532  -4.785  -9.526  1.00  0.00    -0.000 C 
BRANCH  25  26
ATOM     26  C   UNL     1      -5.623  -3.558  -9.350  1.00  0.00    -0.000 C 
BRANCH  26  27
ATOM     27  C   UNL     1      -6.370  -2.232  -9.578  1.00  0.00    -0.000 C 
BRANCH  27  28
ATOM     28  C   UNL     1      -7.844  -2.293  -9.136  1.00  0.00    -0.000 C 
BRANCH  28  29
ATOM     29  C   UNL     1      -8.109  -1.786  -7.707  1.00  0.00    -0.000 C 
BRANCH  29  30
ATOM     30  C   UNL     1      -7.310  -2.559  -6.643  1.00  0.00    -0.000 C 
BRANCH  30  31
ATOM     31  C   UNL     1      -8.094  -2.741  -5.335  1.00  0.00    -0.003 C 
ATOM     32  C   UNL     1      -7.822  -4.088  -4.667  1.00  0.00     0.004 C 
ENDBRANCH  30  31
ENDBRANCH  29  30
ENDBRANCH  28  29
ENDBRANCH  27  28
ENDBRANCH  26  27
ENDBRANCH  25  26
ENDBRANCH  24  25
ENDBRANCH  23  24
ENDBRANCH  22  23
ENDBRANCH  21  22
ENDBRANCH  20  21
ENDBRANCH  19  20
ENDBRANCH  18  19
ENDBRANCH   1  18
TORSDOF 28
ENDMDL
MODEL 2
REMARK VINA RESULT:     3.013      1.814      2.527
REMARK INTER + INTRA:           5.934
REMARK INTER:                   7.749
REMARK INTRA:                  -1.816
REMARK UNBOUND:                -2.010
REMARK SMILES CCCCCCCCCCCCCCCCCCCCCCCCCCCCCC(=O)[O-]
REMARK SMILES IDX 16 1 17 2 18 3 19 4 20 5 21 6 22 7 23 8 24 9 25 10 26 11
REMARK SMILES IDX 27 12 28 13 29 14 30 15 31 16 32 17 15 18 14 19 13 20 12 21
REMARK SMILES IDX 11 22 10 23 9 24 8 25 7 26 6 27 5 28 4 29 3 30 2 31 1 32
REMARK H PARENT
REMARK Flexibility Score: inf
ROOT
ATOM      1  C   UNL     1      -0.162  -6.874  -8.178  1.00  0.00     0.000 C 
ENDROOT
BRANCH   1   2
ATOM      2  C   UNL     1       1.351  -7.150  -8.321  1.00  0.00     0.000 C 
BRANCH   2   3
ATOM      3  C   UNL     1       1.955  -6.635  -9.640  1.00  0.00     0.000 C 
BRANCH   3   4
ATOM      4  C   UNL     1       2.319  -5.141  -9.591  1.00  0.00     0.000 C 
BRANCH   4   5
ATOM      5  C   UNL     1       3.736  -4.848 -10.124  1.00  0.00     0.000 C 
BRANCH   5   6
ATOM      6  C   UNL     1       4.496  -3.760  -9.339  1.00  0.00     0.000 C 
BRANCH   6   7
ATOM      7  C   UNL     1       6.016  -3.736  -9.560  1.00  0.00     0.000 C 
BRANCH   7   8
ATOM      8  C   UNL     1       6.795  -4.413  -8.417  1.00  0.00     0.000 C 
BRANCH   8   9
ATOM      9  C   UNL     1       8.035  -5.172  -8.911  1.00  0.00     0.000 C 
BRANCH   9  10
ATOM     10  C   UNL     1       8.321  -6.438  -8.091  1.00  0.00     0.000 C 
BRANCH  10  11
ATOM     11  C   UNL     1       9.828  -6.620  -7.874  1.00  0.00     0.000 C 
BRANCH  11  12
ATOM     12  C   UNL     1      10.431  -5.411  -7.144  1.00  0.00     0.000 C 
BRANCH  12  13
ATOM     13  C   UNL     1      11.805  -5.717  -6.517  1.00  0.00     0.006 C 
BRANCH  13  14
ATOM     14  C   UNL     1      11.768  -5.995  -5.005  1.00  0.00     0.053 C 
BRANCH  14  15
ATOM     15  C   UNL     1      11.254  -4.822  -4.230  1.00  0.00     0.041 C 
ATOM     16  O   UNL     1      10.930  -4.953  -3.020  1.00  0.00    -0.550 OA
ATOM     17  O   UNL     1      11.184  -3.570  -4.827  1.00  0.00    -0.550 OA
ENDBRANCH  14  15
ENDBRANCH  13  14
ENDBRANCH  12  13
ENDBRANCH  11  12
ENDBRANCH  10  11
ENDBRANCH   9  10
ENDBRANCH   8   9
ENDBRANCH   7   8
ENDBRANCH   6   7
ENDBRANCH   5   6
ENDBRANCH   4   5
ENDBRANCH   3   4
ENDBRANCH   2   3
ENDBRANCH   1   2
BRANCH   1  18
ATOM     18  C   UNL     1      -0.466  -5.934  -6.998  1.00  0.00     0.000 C 
BRANCH  18  19
ATOM     19  C   UNL     1      -1.574  -6.466  -6.071  1.00  0.00     0.000 C 
BRANCH  19  20
ATOM     20  C   UNL     1      -2.986  -6.476  -6.682  1.00  0.00     0.000 C 
BRANCH  20  21
ATOM     21  C   UNL     1      -3.984  -5.610  -5.896  1.00  0.00     0.000 C 
BRANCH  21  22
ATOM     22  C   UNL     1      -4.974  -6.443  -5.063  1.00  0.00     0.000 C 
BRANCH  22  23
ATOM     23  C   UNL     1      -5.589  -7.658  -5.790  1.00  0.00     0.000 C 
BRANCH  23  24
ATOM     24  C   UNL     1      -6.983  -7.422  -6.400  1.00  0.00    -0.000 C 
BRANCH  24  25
ATOM     25  C   UNL     1      -7.069  -7.850  -7.876  1.00  0.00    -0.000 C 
BRANCH  25  26
ATOM     26  C   UNL     1      -5.855  -7.387  -8.696  1.00  0.00    -0.000 C 
BRANCH  26  27
ATOM     27  C   UNL     1      -6.214  -6.295  -9.718  1.00  0.00    -0.000 C 
BRANCH  27  28
ATOM     28  C   UNL     1      -7.729  -6.031  -9.804  1.00  0.00    -0.000 C 
BRANCH  28  29
ATOM     29  C   UNL     1      -8.125  -4.543  -9.779  1.00  0.00    -0.000 C 
BRANCH  29  30
ATOM     30  C   UNL     1      -7.265  -3.714  -8.810  1.00  0.00    -0.000 C 
BRANCH  30  31
ATOM     31  C   UNL     1      -6.501  -2.586  -9.520  1.00  0.00    -0.003 C 
ATOM     32  C   UNL     1      -4.997  -2.848  -9.593  1.00  0.00     0.004 C 
ENDBRANCH  30  31
ENDBRANCH  29  30
ENDBRANCH  28  29
ENDBRANCH  27  28
ENDBRANCH  26  27
ENDBRANCH  25  26
ENDBRANCH  24  25
ENDBRANCH  23  24
ENDBRANCH  22  23
ENDBRANCH  21  22
ENDBRANCH  20  21
ENDBRANCH  19  20
ENDBRANCH  18  19
ENDBRANCH   1  18
TORSDOF 28
ENDMDL
MODEL 3
REMARK VINA RESULT:     3.344      4.535     14.702
REMARK INTER + INTRA:           6.808
REMARK INTER:                   6.968
REMARK INTRA:                  -0.161
REMARK UNBOUND:                -2.010
REMARK SMILES CCCCCCCCCCCCCCCCCCCCCCCCCCCCCC(=O)[O-]
REMARK SMILES IDX 16 1 17 2 18 3 19 4 20 5 21 6 22 7 23 8 24 9 25 10 26 11
REMARK SMILES IDX 27 12 28 13 29 14 30 15 31 16 32 17 15 18 14 19 13 20 12 21
REMARK SMILES IDX 11 22 10 23 9 24 8 25 7 26 6 27 5 28 4 29 3 30 2 31 1 32
REMARK H PARENT
REMARK Flexibility Score: inf
ROOT
ATOM      1  C   UNL     1       2.002  -5.878  -9.992  1.00  0.00     0.000 C 
ENDROOT
BRANCH   1   2
ATOM      2  C   UNL     1       1.937  -7.169  -9.148  1.00  0.00     0.000 C 
BRANCH   2   3
ATOM      3  C   UNL     1       0.517  -7.536  -8.682  1.00  0.00     0.000 C 
BRANCH   3   4
ATOM      4  C   UNL     1      -0.053  -6.544  -7.652  1.00  0.00     0.000 C 
BRANCH   4   5
ATOM      5  C   UNL     1      -1.425  -6.975  -7.096  1.00  0.00     0.000 C 
BRANCH   5   6
ATOM      6  C   UNL     1      -2.244  -5.827  -6.472  1.00  0.00     0.000 C 
BRANCH   6   7
ATOM      7  C   UNL     1      -3.554  -6.253  -5.792  1.00  0.00     0.000 C 
BRANCH   7   8
ATOM      8  C   UNL     1      -4.543  -6.916  -6.767  1.00  0.00     0.000 C 
BRANCH   8   9
ATOM      9  C   UNL     1      -5.620  -7.744  -6.051  1.00  0.00     0.000 C 
BRANCH   9  10
ATOM     10  C   UNL     1      -7.043  -7.388  -6.507  1.00  0.00     0.000 C 
BRANCH  10  11
ATOM     11  C   UNL     1      -7.632  -6.269  -5.640  1.00  0.00     0.000 C 
BRANCH  11  12
ATOM     12  C   UNL     1      -6.548  -5.262  -5.227  1.00  0.00     0.000 C 
BRANCH  12  13
ATOM     13  C   UNL     1      -7.133  -3.925  -4.734  1.00  0.00     0.006 C 
BRANCH  13  14
ATOM     14  C   UNL     1      -8.124  -3.265  -5.707  1.00  0.00     0.053 C 
BRANCH  14  15
ATOM     15  C   UNL     1      -7.494  -2.956  -7.029  1.00  0.00     0.041 C 
ATOM     16  O   UNL     1      -7.692  -3.709  -8.018  1.00  0.00    -0.550 OA
ATOM     17  O   UNL     1      -6.730  -1.807  -7.184  1.00  0.00    -0.550 OA
ENDBRANCH  14  15
ENDBRANCH  13  14
ENDBRANCH  12  13
ENDBRANCH  11  12
ENDBRANCH  10  11
ENDBRANCH   9  10
ENDBRANCH   8   9
ENDBRANCH   7   8
ENDBRANCH   6   7
ENDBRANCH   5   6
ENDBRANCH   4   5
ENDBRANCH   3   4
ENDBRANCH   2   3
ENDBRANCH   1   2
BRANCH   1  18
ATOM     18  C   UNL     1       2.731  -4.742  -9.253  1.00  0.00     0.000 C 
BRANCH  18  19
ATOM     19  C   UNL     1       3.777  -4.026 -10.125  1.00  0.00     0.000 C 
BRANCH  19  20
ATOM     20  C   UNL     1       5.181  -4.655 -10.110  1.00  0.00     0.000 C 
BRANCH  20  21
ATOM     21  C   UNL     1       6.079  -4.090  -8.997  1.00  0.00     0.000 C 
BRANCH  21  22
ATOM     22  C   UNL     1       7.478  -3.692  -9.500  1.00  0.00     0.000 C 
BRANCH  22  23
ATOM     23  C   UNL     1       8.459  -4.864  -9.718  1.00  0.00     0.000 C 
BRANCH  23  24
ATOM     24  C   UNL     1       8.768  -5.704  -8.466  1.00  0.00    -0.000 C 
BRANCH  24  25
ATOM     25  C   UNL     1       9.180  -4.845  -7.257  1.00  0.00    -0.000 C 
BRANCH  25  26
ATOM     26  C   UNL     1      10.271  -5.512  -6.405  1.00  0.00    -0.000 C 
BRANCH  26  27
ATOM     27  C   UNL     1       9.930  -6.968  -6.043  1.00  0.00    -0.000 C 
BRANCH  27  28
ATOM     28  C   UNL     1      11.142  -7.750  -5.505  1.00  0.00    -0.000 C 
BRANCH  28  29
ATOM     29  C   UNL     1      11.946  -7.021  -4.414  1.00  0.00    -0.000 C 
BRANCH  29  30
ATOM     30  C   UNL     1      11.060  -6.500  -3.268  1.00  0.00    -0.000 C 
BRANCH  30  31
ATOM     31  C   UNL     1      11.218  -4.989  -3.043  1.00  0.00    -0.003 C 
ATOM     32  C   UNL     1      11.755  -4.263  -4.275  1.00  0.00     0.004 C 
ENDBRANCH  30  31
ENDBRANCH  29  30
ENDBRANCH  28  29
ENDBRANCH  27  28
ENDBRANCH  26  27
ENDBRANCH  25  26
ENDBRANCH  24  25
ENDBRANCH  23  24
ENDBRANCH  22  23
ENDBRANCH  21  22
ENDBRANCH  20  21
ENDBRANCH  19  20
ENDBRANCH  18  19
ENDBRANCH   1  18
TORSDOF 28
ENDMDL
MODEL 4
REMARK VINA RESULT:     3.572      4.478     14.754
REMARK INTER + INTRA:           7.408
REMARK INTER:                   8.400
REMARK INTRA:                  -0.992
REMARK UNBOUND:                -2.010
REMARK SMILES CCCCCCCCCCCCCCCCCCCCCCCCCCCCCC(=O)[O-]
REMARK SMILES IDX 16 1 17 2 18 3 19 4 20 5 21 6 22 7 23 8 24 9 25 10 26 11
REMARK SMILES IDX 27 12 28 13 29 14 30 15 31 16 32 17 15 18 14 19 13 20 12 21
REMARK SMILES IDX 11 22 10 23 9 24 8 25 7 26 6 27 5 28 4 29 3 30 2 31 1 32
REMARK H PARENT
REMARK Flexibility Score: inf
ROOT
ATOM      1  C   UNL     1       3.019  -4.858  -9.230  1.00  0.00     0.000 C 
ENDROOT
BRANCH   1   2
ATOM      2  C   UNL     1       2.544  -6.050 -10.090  1.00  0.00     0.000 C 
BRANCH   2   3
ATOM      3  C   UNL     1       1.645  -7.044  -9.333  1.00  0.00     0.000 C 
BRANCH   3   4
ATOM      4  C   UNL     1       0.435  -6.370  -8.662  1.00  0.00     0.000 C 
BRANCH   4   5
ATOM      5  C   UNL     1       0.377  -6.613  -7.140  1.00  0.00     0.000 C 
BRANCH   5   6
ATOM      6  C   UNL     1      -0.804  -5.918  -6.433  1.00  0.00     0.000 C 
BRANCH   6   7
ATOM      7  C   UNL     1      -2.188  -6.515  -6.731  1.00  0.00     0.000 C 
BRANCH   7   8
ATOM      8  C   UNL     1      -3.305  -5.882  -5.882  1.00  0.00     0.000 C 
BRANCH   8   9
ATOM      9  C   UNL     1      -4.702  -6.096  -6.481  1.00  0.00     0.000 C 
BRANCH   9  10
ATOM     10  C   UNL     1      -5.825  -5.918  -5.449  1.00  0.00     0.000 C 
BRANCH  10  11
ATOM     11  C   UNL     1      -7.168  -6.396  -6.013  1.00  0.00     0.000 C 
BRANCH  11  12
ATOM     12  C   UNL     1      -6.994  -7.005  -7.412  1.00  0.00     0.000 C 
BRANCH  12  13
ATOM     13  C   UNL     1      -7.264  -5.994  -8.542  1.00  0.00     0.006 C 
BRANCH  13  14
ATOM     14  C   UNL     1      -7.830  -4.645  -8.068  1.00  0.00     0.053 C 
BRANCH  14  15
ATOM     15  C   UNL     1      -7.044  -3.488  -8.602  1.00  0.00     0.041 C 
ATOM     16  O   UNL     1      -6.823  -2.482  -7.876  1.00  0.00    -0.550 OA
ATOM     17  O   UNL     1      -6.509  -3.541  -9.882  1.00  0.00    -0.550 OA
ENDBRANCH  14  15
ENDBRANCH  13  14
ENDBRANCH  12  13
ENDBRANCH  11  12
ENDBRANCH  10  11
ENDBRANCH   9  10
ENDBRANCH   8   9
ENDBRANCH   7   8
ENDBRANCH   6   7
ENDBRANCH   5   6
ENDBRANCH   4   5
ENDBRANCH   3   4
ENDBRANCH   2   3
ENDBRANCH   1   2
BRANCH   1  18
ATOM     18  C   UNL     1       3.603  -3.724 -10.091  1.00  0.00     0.000 C 
BRANCH  18  19
ATOM     19  C   UNL     1       5.142  -3.714 -10.114  1.00  0.00     0.000 C 
BRANCH  19  20
ATOM     20  C   UNL     1       5.817  -4.226  -8.830  1.00  0.00     0.000 C 
BRANCH  20  21
ATOM     21  C   UNL     1       7.303  -4.571  -9.032  1.00  0.00     0.000 C 
BRANCH  21  22
ATOM     22  C   UNL     1       8.027  -4.894  -7.713  1.00  0.00     0.000 C 
BRANCH  22  23
ATOM     23  C   UNL     1       8.235  -6.397  -7.425  1.00  0.00     0.000 C 
BRANCH  23  24
ATOM     24  C   UNL     1       9.523  -7.006  -8.007  1.00  0.00    -0.000 C 
BRANCH  24  25
ATOM     25  C   UNL     1      10.721  -6.900  -7.047  1.00  0.00    -0.000 C 
BRANCH  25  26
ATOM     26  C   UNL     1      10.475  -7.627  -5.716  1.00  0.00    -0.000 C 
BRANCH  26  27
ATOM     27  C   UNL     1      11.674  -7.525  -4.757  1.00  0.00    -0.000 C 
BRANCH  27  28
ATOM     28  C   UNL     1      11.255  -7.484  -3.276  1.00  0.00    -0.000 C 
BRANCH  28  29
ATOM     29  C   UNL     1      12.066  -6.508  -2.404  1.00  0.00    -0.000 C 
BRANCH  29  30
ATOM     30  C   UNL     1      11.676  -5.038  -2.636  1.00  0.00    -0.000 C 
BRANCH  30  31
ATOM     31  C   UNL     1      11.960  -4.574  -4.073  1.00  0.00    -0.003 C 
ATOM     32  C   UNL     1      10.687  -4.215  -4.838  1.00  0.00     0.004 C 
ENDBRANCH  30  31
ENDBRANCH  29  30
ENDBRANCH  28  29
ENDBRANCH  27  28
ENDBRANCH  26  27
ENDBRANCH  25  26
ENDBRANCH  24  25
ENDBRANCH  23  24
ENDBRANCH  22  23
ENDBRANCH  21  22
ENDBRANCH  20  21
ENDBRANCH  19  20
ENDBRANCH  18  19
ENDBRANCH   1  18
TORSDOF 28
ENDMDL
MODEL 5
REMARK VINA RESULT:     3.665      1.835      4.277
REMARK INTER + INTRA:           7.655
REMARK INTER:                   9.650
REMARK INTRA:                  -1.995
REMARK UNBOUND:                -2.010
REMARK SMILES CCCCCCCCCCCCCCCCCCCCCCCCCCCCCC(=O)[O-]
REMARK SMILES IDX 16 1 17 2 18 3 19 4 20 5 21 6 22 7 23 8 24 9 25 10 26 11
REMARK SMILES IDX 27 12 28 13 29 14 30 15 31 16 32 17 15 18 14 19 13 20 12 21
REMARK SMILES IDX 11 22 10 23 9 24 8 25 7 26 6 27 5 28 4 29 3 30 2 31 1 32
REMARK H PARENT
REMARK Flexibility Score: inf
ROOT
ATOM      1  C   UNL     1       4.215  -3.280  -9.086  1.00  0.00     0.000 C 
ENDROOT
BRANCH   1   2
ATOM      2  C   UNL     1       5.149  -2.589 -10.102  1.00  0.00     0.000 C 
BRANCH   2   3
ATOM      3  C   UNL     1       6.640  -2.914  -9.896  1.00  0.00     0.000 C 
BRANCH   3   4
ATOM      4  C   UNL     1       6.964  -4.404 -10.103  1.00  0.00     0.000 C 
BRANCH   4   5
ATOM      5  C   UNL     1       6.932  -5.216  -8.793  1.00  0.00     0.000 C 
BRANCH   5   6
ATOM      6  C   UNL     1       7.744  -4.591  -7.641  1.00  0.00     0.000 C 
BRANCH   6   7
ATOM      7  C   UNL     1       9.033  -5.341  -7.268  1.00  0.00     0.000 C 
BRANCH   7   8
ATOM      8  C   UNL     1      10.052  -5.383  -8.421  1.00  0.00     0.000 C 
BRANCH   8   9
ATOM      9  C   UNL     1      10.401  -6.814  -8.855  1.00  0.00     0.000 C 
BRANCH   9  10
ATOM     10  C   UNL     1      10.673  -7.745  -7.665  1.00  0.00     0.000 C 
BRANCH  10  11
ATOM     11  C   UNL     1      11.893  -7.270  -6.866  1.00  0.00     0.000 C 
BRANCH  11  12
ATOM     12  C   UNL     1      11.698  -7.514  -5.363  1.00  0.00     0.000 C 
BRANCH  12  13
ATOM     13  C   UNL     1      12.125  -6.310  -4.502  1.00  0.00     0.006 C 
BRANCH  13  14
ATOM     14  C   UNL     1      11.829  -4.939  -5.132  1.00  0.00     0.053 C 
BRANCH  14  15
ATOM     15  C   UNL     1      11.658  -3.870  -4.098  1.00  0.00     0.041 C 
ATOM     16  O   UNL     1      11.162  -4.148  -2.974  1.00  0.00    -0.550 OA
ATOM     17  O   UNL     1      12.095  -2.578  -4.354  1.00  0.00    -0.550 OA
ENDBRANCH  14  15
ENDBRANCH  13  14
ENDBRANCH  12  13
ENDBRANCH  11  12
ENDBRANCH  10  11
ENDBRANCH   9  10
ENDBRANCH   8   9
ENDBRANCH   7   8
ENDBRANCH   6   7
ENDBRANCH   5   6
ENDBRANCH   4   5
ENDBRANCH   3   4
ENDBRANCH   2   3
ENDBRANCH   1   2
BRANCH   1  18
ATOM     18  C   UNL     1       3.065  -4.032  -9.780  1.00  0.00     0.000 C 
BRANCH  18  19
ATOM     19  C   UNL     1       3.079  -5.546  -9.503  1.00  0.00     0.000 C 
BRANCH  19  20
ATOM     20  C   UNL     1       1.691  -6.197  -9.368  1.00  0.00     0.000 C 
BRANCH  20  21
ATOM     21  C   UNL     1       1.329  -6.534  -7.911  1.00  0.00     0.000 C 
BRANCH  21  22
ATOM     22  C   UNL     1      -0.181  -6.752  -7.705  1.00  0.00     0.000 C 
BRANCH  22  23
ATOM     23  C   UNL     1      -0.901  -5.656  -6.890  1.00  0.00     0.000 C 
BRANCH  23  24
ATOM     24  C   UNL     1      -1.932  -6.168  -5.868  1.00  0.00    -0.000 C 
BRANCH  24  25
ATOM     25  C   UNL     1      -3.054  -6.998  -6.517  1.00  0.00    -0.000 C 
BRANCH  25  26
ATOM     26  C   UNL     1      -4.446  -6.628  -5.981  1.00  0.00    -0.000 C 
BRANCH  26  27
ATOM     27  C   UNL     1      -4.767  -5.134  -6.153  1.00  0.00    -0.000 C 
BRANCH  27  28
ATOM     28  C   UNL     1      -6.259  -4.815  -5.944  1.00  0.00    -0.000 C 
BRANCH  28  29
ATOM     29  C   UNL     1      -7.160  -5.129  -7.153  1.00  0.00    -0.000 C 
BRANCH  29  30
ATOM     30  C   UNL     1      -7.951  -3.902  -7.641  1.00  0.00    -0.000 C 
BRANCH  30  31
ATOM     31  C   UNL     1      -7.095  -2.627  -7.675  1.00  0.00    -0.003 C 
ATOM     32  C   UNL     1      -6.878  -2.102  -9.094  1.00  0.00     0.004 C 
ENDBRANCH  30  31
ENDBRANCH  29  30
ENDBRANCH  28  29
ENDBRANCH  27  28
ENDBRANCH  26  27
ENDBRANCH  25  26
ENDBRANCH  24  25
ENDBRANCH  23  24
ENDBRANCH  22  23
ENDBRANCH  21  22
ENDBRANCH  20  21
ENDBRANCH  19  20
ENDBRANCH  18  19
ENDBRANCH   1  18
TORSDOF 28
ENDMDL
MODEL 6
REMARK VINA RESULT:     3.914      1.253      2.469
REMARK INTER + INTRA:           8.309
REMARK INTER:                  10.690
REMARK INTRA:                  -2.381
REMARK UNBOUND:                -2.010
REMARK SMILES CCCCCCCCCCCCCCCCCCCCCCCCCCCCCC(=O)[O-]
REMARK SMILES IDX 16 1 17 2 18 3 19 4 20 5 21 6 22 7 23 8 24 9 25 10 26 11
REMARK SMILES IDX 27 12 28 13 29 14 30 15 31 16 32 17 15 18 14 19 13 20 12 21
REMARK SMILES IDX 11 22 10 23 9 24 8 25 7 26 6 27 5 28 4 29 3 30 2 31 1 32
REMARK H PARENT
REMARK Flexibility Score: inf
ROOT
ATOM      1  C   UNL     1      -1.668  -7.023  -7.007  1.00  0.00     0.000 C 
ENDROOT
BRANCH   1   2
ATOM      2  C   UNL     1      -0.279  -6.827  -7.653  1.00  0.00     0.000 C 
BRANCH   2   3
ATOM      3  C   UNL     1      -0.055  -7.679  -8.916  1.00  0.00     0.000 C 
BRANCH   3   4
ATOM      4  C   UNL     1       1.103  -7.166  -9.789  1.00  0.00     0.000 C 
BRANCH   4   5
ATOM      5  C   UNL     1       2.149  -6.361  -8.991  1.00  0.00     0.000 C 
BRANCH   5   6
ATOM      6  C   UNL     1       2.412  -4.944  -9.540  1.00  0.00     0.000 C 
BRANCH   6   7
ATOM      7  C   UNL     1       3.864  -4.663  -9.956  1.00  0.00     0.000 C 
BRANCH   7   8
ATOM      8  C   UNL     1       4.632  -3.833  -8.911  1.00  0.00     0.000 C 
BRANCH   8   9
ATOM      9  C   UNL     1       6.108  -3.629  -9.282  1.00  0.00     0.000 C 
BRANCH   9  10
ATOM     10  C   UNL     1       6.789  -4.927  -9.741  1.00  0.00     0.000 C 
BRANCH  10  11
ATOM     11  C   UNL     1       8.235  -4.995  -9.234  1.00  0.00     0.000 C 
BRANCH  11  12
ATOM     12  C   UNL     1       8.684  -6.450  -9.039  1.00  0.00     0.000 C 
BRANCH  12  13
ATOM     13  C   UNL     1       9.491  -6.657  -7.744  1.00  0.00     0.006 C 
BRANCH  13  14
ATOM     14  C   UNL     1       9.270  -5.575  -6.674  1.00  0.00     0.053 C 
BRANCH  14  15
ATOM     15  C   UNL     1      10.556  -5.122  -6.057  1.00  0.00     0.041 C 
ATOM     16  O   UNL     1      11.621  -5.759  -6.271  1.00  0.00    -0.550 OA
ATOM     17  O   UNL     1      10.591  -3.966  -5.289  1.00  0.00    -0.550 OA
ENDBRANCH  14  15
ENDBRANCH  13  14
ENDBRANCH  12  13
ENDBRANCH  11  12
ENDBRANCH  10  11
ENDBRANCH   9  10
ENDBRANCH   8   9
ENDBRANCH   7   8
ENDBRANCH   6   7
ENDBRANCH   5   6
ENDBRANCH   4   5
ENDBRANCH   3   4
ENDBRANCH   2   3
ENDBRANCH   1   2
BRANCH   1  18
ATOM     18  C   UNL     1      -2.410  -5.687  -6.821  1.00  0.00     0.000 C 
BRANCH  18  19
ATOM     19  C   UNL     1      -3.844  -5.861  -6.292  1.00  0.00     0.000 C 
BRANCH  19  20
ATOM     20  C   UNL     1      -4.513  -7.201  -6.646  1.00  0.00     0.000 C 
BRANCH  20  21
ATOM     21  C   UNL     1      -5.093  -7.222  -8.070  1.00  0.00     0.000 C 
BRANCH  21  22
ATOM     22  C   UNL     1      -6.203  -6.176  -8.280  1.00  0.00     0.000 C 
BRANCH  22  23
ATOM     23  C   UNL     1      -5.980  -5.205  -9.460  1.00  0.00     0.000 C 
BRANCH  23  24
ATOM     24  C   UNL     1      -5.143  -3.956  -9.133  1.00  0.00    -0.000 C 
BRANCH  24  25
ATOM     25  C   UNL     1      -5.583  -2.716  -9.931  1.00  0.00    -0.000 C 
BRANCH  25  26
ATOM     26  C   UNL     1      -7.108  -2.526  -9.932  1.00  0.00    -0.000 C 
BRANCH  26  27
ATOM     27  C   UNL     1      -7.548  -1.279  -9.145  1.00  0.00    -0.000 C 
BRANCH  27  28
ATOM     28  C   UNL     1      -8.125  -1.619  -7.759  1.00  0.00    -0.000 C 
BRANCH  28  29
ATOM     29  C   UNL     1      -7.173  -2.409  -6.842  1.00  0.00    -0.000 C 
BRANCH  29  30
ATOM     30  C   UNL     1      -7.781  -3.738  -6.357  1.00  0.00    -0.000 C 
BRANCH  30  31
ATOM     31  C   UNL     1      -7.426  -4.047  -4.895  1.00  0.00    -0.003 C 
ATOM     32  C   UNL     1      -7.985  -5.389  -4.424  1.00  0.00     0.004 C 
ENDBRANCH  30  31
ENDBRANCH  29  30
ENDBRANCH  28  29
ENDBRANCH  27  28
ENDBRANCH  26  27
ENDBRANCH  25  26
ENDBRANCH  24  25
ENDBRANCH  23  24
ENDBRANCH  22  23
ENDBRANCH  21  22
ENDBRANCH  20  21
ENDBRANCH  19  20
ENDBRANCH  18  19
ENDBRANCH   1  18
TORSDOF 28
ENDMDL
MODEL 7
REMARK VINA RESULT:     4.407      4.127     14.588
REMARK INTER + INTRA:           9.609
REMARK INTER:                  10.864
REMARK INTRA:                  -1.255
REMARK UNBOUND:                -2.010
REMARK SMILES CCCCCCCCCCCCCCCCCCCCCCCCCCCCCC(=O)[O-]
REMARK SMILES IDX 16 1 17 2 18 3 19 4 20 5 21 6 22 7 23 8 24 9 25 10 26 11
REMARK SMILES IDX 27 12 28 13 29 14 30 15 31 16 32 17 15 18 14 19 13 20 12 21
REMARK SMILES IDX 11 22 10 23 9 24 8 25 7 26 6 27 5 28 4 29 3 30 2 31 1 32
REMARK H PARENT
REMARK Flexibility Score: inf
ROOT
ATOM      1  C   UNL     1       3.869  -5.582  -9.592  1.00  0.00     0.000 C 
ENDROOT
BRANCH   1   2
ATOM      2  C   UNL     1       2.428  -5.228 -10.021  1.00  0.00     0.000 C 
BRANCH   2   3
ATOM      3  C   UNL     1       1.408  -6.351  -9.763  1.00  0.00     0.000 C 
BRANCH   3   4
ATOM      4  C   UNL     1       1.200  -6.642  -8.266  1.00  0.00     0.000 C 
BRANCH   4   5
ATOM      5  C   UNL     1       0.029  -5.847  -7.655  1.00  0.00     0.000 C 
BRANCH   5   6
ATOM      6  C   UNL     1      -0.901  -6.683  -6.753  1.00  0.00     0.000 C 
BRANCH   6   7
ATOM      7  C   UNL     1      -1.954  -5.879  -5.975  1.00  0.00     0.000 C 
BRANCH   7   8
ATOM      8  C   UNL     1      -3.368  -6.019  -6.567  1.00  0.00     0.000 C 
BRANCH   8   9
ATOM      9  C   UNL     1      -4.451  -6.171  -5.490  1.00  0.00     0.000 C 
BRANCH   9  10
ATOM     10  C   UNL     1      -5.868  -5.943  -6.038  1.00  0.00     0.000 C 
BRANCH  10  11
ATOM     11  C   UNL     1      -6.566  -4.800  -5.291  1.00  0.00     0.000 C 
BRANCH  11  12
ATOM     12  C   UNL     1      -7.408  -3.947  -6.251  1.00  0.00     0.000 C 
BRANCH  12  13
ATOM     13  C   UNL     1      -8.065  -4.779  -7.369  1.00  0.00     0.006 C 
BRANCH  13  14
ATOM     14  C   UNL     1      -7.918  -4.181  -8.779  1.00  0.00     0.053 C 
BRANCH  14  15
ATOM     15  C   UNL     1      -6.599  -3.500  -8.965  1.00  0.00     0.041 C 
ATOM     16  O   UNL     1      -5.554  -4.178  -9.149  1.00  0.00    -0.550 OA
ATOM     17  O   UNL     1      -6.529  -2.113  -8.991  1.00  0.00    -0.550 OA
ENDBRANCH  14  15
ENDBRANCH  13  14
ENDBRANCH  12  13
ENDBRANCH  11  12
ENDBRANCH  10  11
ENDBRANCH   9  10
ENDBRANCH   8   9
ENDBRANCH   7   8
ENDBRANCH   6   7
ENDBRANCH   5   6
ENDBRANCH   4   5
ENDBRANCH   3   4
ENDBRANCH   2   3
ENDBRANCH   1   2
BRANCH   1  18
ATOM     18  C   UNL     1       4.570  -4.399  -8.901  1.00  0.00     0.000 C 
BRANCH  18  19
ATOM     19  C   UNL     1       4.758  -3.183  -9.825  1.00  0.00     0.000 C 
BRANCH  19  20
ATOM     20  C   UNL     1       6.221  -2.811 -10.125  1.00  0.00     0.000 C 
BRANCH  20  21
ATOM     21  C   UNL     1       7.160  -4.029 -10.125  1.00  0.00     0.000 C 
BRANCH  21  22
ATOM     22  C   UNL     1       8.451  -3.790  -9.321  1.00  0.00     0.000 C 
BRANCH  22  23
ATOM     23  C   UNL     1       8.680  -4.756  -8.139  1.00  0.00     0.000 C 
BRANCH  23  24
ATOM     24  C   UNL     1       8.328  -6.229  -8.416  1.00  0.00    -0.000 C 
BRANCH  24  25
ATOM     25  C   UNL     1       9.497  -7.017  -9.032  1.00  0.00    -0.000 C 
BRANCH  25  26
ATOM     26  C   UNL     1      10.764  -6.968  -8.164  1.00  0.00    -0.000 C 
BRANCH  26  27
ATOM     27  C   UNL     1      11.425  -5.578  -8.163  1.00  0.00    -0.000 C 
BRANCH  27  28
ATOM     28  C   UNL     1      11.962  -5.172  -6.778  1.00  0.00    -0.000 C 
BRANCH  28  29
ATOM     29  C   UNL     1      10.985  -5.414  -5.613  1.00  0.00    -0.000 C 
BRANCH  29  30
ATOM     30  C   UNL     1      11.463  -4.780  -4.295  1.00  0.00    -0.000 C 
BRANCH  30  31
ATOM     31  C   UNL     1      11.676  -5.821  -3.186  1.00  0.00    -0.003 C 
ATOM     32  C   UNL     1      11.812  -5.188  -1.802  1.00  0.00     0.004 C 
ENDBRANCH  30  31
ENDBRANCH  29  30
ENDBRANCH  28  29
ENDBRANCH  27  28
ENDBRANCH  26  27
ENDBRANCH  25  26
ENDBRANCH  24  25
ENDBRANCH  23  24
ENDBRANCH  22  23
ENDBRANCH  21  22
ENDBRANCH  20  21
ENDBRANCH  19  20
ENDBRANCH  18  19
ENDBRANCH   1  18
TORSDOF 28
ENDMDL
