MODEL 1
REMARK VINA RESULT:    -5.574      0.000      0.000
REMARK INTER + INTRA:         -12.538
REMARK INTER:                 -10.787
REMARK INTRA:                  -1.751
REMARK UNBOUND:                -1.751
REMARK SMILES CCCCCCCCCCCCCCCCCC(=O)[O-]
REMARK SMILES IDX 10 1 11 2 12 3 13 4 14 5 15 6 16 7 17 8 18 9 19 10 20 11
REMARK SMILES IDX 9 12 8 13 7 14 6 15 5 16 4 17 3 18 2 19 1 20
REMARK H PARENT
REMARK Flexibility Score: inf
ROOT
ATOM      1  C   UNL     1      10.269   3.072  20.148  1.00  0.00     0.000 C 
ENDROOT
BRANCH   1   2
ATOM      2  C   UNL     1      10.241   1.789  21.003  1.00  0.00     0.000 C 
BRANCH   2   3
ATOM      3  C   UNL     1      10.688   1.967  22.465  1.00  0.00     0.000 C 
BRANCH   3   4
ATOM      4  C   UNL     1      10.985   0.633  23.165  1.00  0.00     0.000 C 
BRANCH   4   5
ATOM      5  C   UNL     1      11.744   0.861  24.482  1.00  0.00     0.000 C 
BRANCH   5   6
ATOM      6  C   UNL     1      10.972   0.345  25.706  1.00  0.00     0.000 C 
BRANCH   6   7
ATOM      7  C   UNL     1      11.896  -0.256  26.781  1.00  0.00     0.006 C 
BRANCH   7   8
ATOM      8  C   UNL     1      12.861  -1.296  26.198  1.00  0.00     0.053 C 
BRANCH   8   9
ATOM      9  C   UNL     1      14.279  -1.028  26.602  1.00  0.00     0.041 C 
ATOM     10  O   UNL     1      14.882  -1.825  27.367  1.00  0.00    -0.550 OA
ATOM     11  O   UNL     1      14.945   0.085  26.104  1.00  0.00    -0.550 OA
ENDBRANCH   8   9
ENDBRANCH   7   8
ENDBRANCH   6   7
ENDBRANCH   5   6
ENDBRANCH   4   5
ENDBRANCH   3   4
ENDBRANCH   2   3
ENDBRANCH   1   2
BRANCH   1  12
ATOM     12  C   UNL     1       9.039   3.293  19.249  1.00  0.00     0.000 C 
BRANCH  12  13
ATOM     13  C   UNL     1       8.476   4.720  19.345  1.00  0.00    -0.000 C 
BRANCH  13  14
ATOM     14  C   UNL     1       8.501   5.275  20.780  1.00  0.00    -0.000 C 
BRANCH  14  15
ATOM     15  C   UNL     1       9.243   6.623  20.910  1.00  0.00    -0.000 C 
BRANCH  15  16
ATOM     16  C   UNL     1      10.608   6.466  21.603  1.00  0.00    -0.000 C 
BRANCH  16  17
ATOM     17  C   UNL     1      11.782   6.452  20.610  1.00  0.00    -0.000 C 
BRANCH  17  18
ATOM     18  C   UNL     1      11.499   7.238  19.312  1.00  0.00    -0.000 C 
BRANCH  18  19
ATOM     19  C   UNL     1      11.574   6.343  18.067  1.00  0.00    -0.003 C 
ATOM     20  C   UNL     1      12.444   5.115  18.321  1.00  0.00     0.004 C 
ENDBRANCH  18  19
ENDBRANCH  17  18
ENDBRANCH  16  17
ENDBRANCH  15  16
ENDBRANCH  14  15
ENDBRANCH  13  14
ENDBRANCH  12  13
ENDBRANCH   1  12
TORSDOF 16
ENDMDL
MODEL 2
REMARK VINA RESULT:    -5.524      4.094      8.786
REMARK INTER + INTRA:         -12.442
REMARK INTER:                 -11.108
REMARK INTRA:                  -1.334
REMARK UNBOUND:                -1.751
REMARK SMILES CCCCCCCCCCCCCCCCCC(=O)[O-]
REMARK SMILES IDX 10 1 11 2 12 3 13 4 14 5 15 6 16 7 17 8 18 9 19 10 20 11
REMARK SMILES IDX 9 12 8 13 7 14 6 15 5 16 4 17 3 18 2 19 1 20
REMARK H PARENT
REMARK Flexibility Score: inf
ROOT
ATOM      1  C   UNL     1      10.753   2.100  22.347  1.00  0.00     0.000 C 
ENDROOT
BRANCH   1   2
ATOM      2  C   UNL     1      10.276   2.122  20.881  1.00  0.00     0.000 C 
BRANCH   2   3
ATOM      3  C   UNL     1      10.462   3.466  20.152  1.00  0.00     0.000 C 
BRANCH   3   4
ATOM      4  C   UNL     1      10.218   4.678  21.064  1.00  0.00     0.000 C 
BRANCH   4   5
ATOM      5  C   UNL     1      11.507   5.494  21.247  1.00  0.00     0.000 C 
BRANCH   5   6
ATOM      6  C   UNL     1      11.327   6.973  20.870  1.00  0.00     0.000 C 
BRANCH   6   7
ATOM      7  C   UNL     1      12.210   7.395  19.682  1.00  0.00     0.006 C 
BRANCH   7   8
ATOM      8  C   UNL     1      12.032   6.468  18.472  1.00  0.00     0.053 C 
BRANCH   8   9
ATOM      9  C   UNL     1      10.744   6.731  17.754  1.00  0.00     0.041 C 
ATOM     10  O   UNL     1      10.426   7.906  17.432  1.00  0.00    -0.550 OA
ATOM     11  O   UNL     1       9.912   5.674  17.409  1.00  0.00    -0.550 OA
ENDBRANCH   8   9
ENDBRANCH   7   8
ENDBRANCH   6   7
ENDBRANCH   5   6
ENDBRANCH   4   5
ENDBRANCH   3   4
ENDBRANCH   2   3
ENDBRANCH   1   2
BRANCH   1  12
ATOM     12  C   UNL     1      10.836   0.705  22.993  1.00  0.00     0.000 C 
BRANCH  12  13
ATOM     13  C   UNL     1      11.594   0.708  24.330  1.00  0.00    -0.000 C 
BRANCH  13  14
ATOM     14  C   UNL     1      10.701   0.328  25.523  1.00  0.00    -0.000 C 
BRANCH  14  15
ATOM     15  C   UNL     1      11.437  -0.472  26.619  1.00  0.00    -0.000 C 
BRANCH  15  16
ATOM     16  C   UNL     1      12.681  -1.192  26.072  1.00  0.00    -0.000 C 
BRANCH  16  17
ATOM     17  C   UNL     1      13.916  -1.014  26.971  1.00  0.00    -0.000 C 
BRANCH  17  18
ATOM     18  C   UNL     1      15.075  -0.263  26.281  1.00  0.00    -0.000 C 
BRANCH  18  19
ATOM     19  C   UNL     1      14.871   1.258  26.301  1.00  0.00    -0.003 C 
ATOM     20  C   UNL     1      15.315   1.893  24.986  1.00  0.00     0.004 C 
ENDBRANCH  18  19
ENDBRANCH  17  18
ENDBRANCH  16  17
ENDBRANCH  15  16
ENDBRANCH  14  15
ENDBRANCH  13  14
ENDBRANCH  12  13
ENDBRANCH   1  12
TORSDOF 16
ENDMDL
MODEL 3
REMARK VINA RESULT:    -5.514      3.235      8.198
REMARK INTER + INTRA:         -12.422
REMARK INTER:                 -11.066
REMARK INTRA:                  -1.356
REMARK UNBOUND:                -1.751
REMARK SMILES CCCCCCCCCCCCCCCCCC(=O)[O-]
REMARK SMILES IDX 10 1 11 2 12 3 13 4 14 5 15 6 16 7 17 8 18 9 19 10 20 11
REMARK SMILES IDX 9 12 8 13 7 14 6 15 5 16 4 17 3 18 2 19 1 20
REMARK H PARENT
REMARK Flexibility Score: inf
ROOT
ATOM      1  C   UNL     1      10.619   2.405  21.992  1.00  0.00     0.000 C 
ENDROOT
BRANCH   1   2
ATOM      2  C   UNL     1      10.238   2.560  20.505  1.00  0.00     0.000 C 
BRANCH   2   3
ATOM      3  C   UNL     1       9.511   3.869  20.149  1.00  0.00     0.000 C 
BRANCH   3   4
ATOM      4  C   UNL     1      10.016   4.495  18.840  1.00  0.00     0.000 C 
BRANCH   4   5
ATOM      5  C   UNL     1      11.477   4.103  18.573  1.00  0.00     0.000 C 
BRANCH   5   6
ATOM      6  C   UNL     1      12.377   5.321  18.312  1.00  0.00     0.000 C 
BRANCH   6   7
ATOM      7  C   UNL     1      11.643   6.658  18.521  1.00  0.00     0.006 C 
BRANCH   7   8
ATOM      8  C   UNL     1      12.222   7.458  19.695  1.00  0.00     0.053 C 
BRANCH   8   9
ATOM      9  C   UNL     1      11.479   7.194  20.969  1.00  0.00     0.041 C 
ATOM     10  O   UNL     1      10.563   7.973  21.342  1.00  0.00    -0.550 OA
ATOM     11  O   UNL     1      11.775   6.067  21.725  1.00  0.00    -0.550 OA
ENDBRANCH   8   9
ENDBRANCH   7   8
ENDBRANCH   6   7
ENDBRANCH   5   6
ENDBRANCH   4   5
ENDBRANCH   3   4
ENDBRANCH   2   3
ENDBRANCH   1   2
BRANCH   1  12
ATOM     12  C   UNL     1      10.644   0.958  22.519  1.00  0.00     0.000 C 
BRANCH  12  13
ATOM     13  C   UNL     1      11.320   0.834  23.893  1.00  0.00    -0.000 C 
BRANCH  13  14
ATOM     14  C   UNL     1      10.335   0.443  25.009  1.00  0.00    -0.000 C 
BRANCH  14  15
ATOM     15  C   UNL     1      11.016   0.154  26.364  1.00  0.00    -0.000 C 
BRANCH  15  16
ATOM     16  C   UNL     1      12.504  -0.198  26.200  1.00  0.00    -0.000 C 
BRANCH  16  17
ATOM     17  C   UNL     1      13.321   0.056  27.478  1.00  0.00    -0.000 C 
BRANCH  17  18
ATOM     18  C   UNL     1      14.266   1.271  27.371  1.00  0.00    -0.000 C 
BRANCH  18  19
ATOM     19  C   UNL     1      14.255   1.890  25.966  1.00  0.00    -0.003 C 
ATOM     20  C   UNL     1      15.605   1.716  25.275  1.00  0.00     0.004 C 
ENDBRANCH  18  19
ENDBRANCH  17  18
ENDBRANCH  16  17
ENDBRANCH  15  16
ENDBRANCH  14  15
ENDBRANCH  13  14
ENDBRANCH  12  13
ENDBRANCH   1  12
TORSDOF 16
ENDMDL
MODEL 4
REMARK VINA RESULT:    -5.463      3.743      8.997
REMARK INTER + INTRA:         -12.324
REMARK INTER:                 -11.085
REMARK INTRA:                  -1.239
REMARK UNBOUND:                -1.751
REMARK SMILES CCCCCCCCCCCCCCCCCC(=O)[O-]
REMARK SMILES IDX 10 1 11 2 12 3 13 4 14 5 15 6 16 7 17 8 18 9 19 10 20 11
REMARK SMILES IDX 9 12 8 13 7 14 6 15 5 16 4 17 3 18 2 19 1 20
REMARK H PARENT
REMARK Flexibility Score: inf
ROOT
ATOM      1  C   UNL     1      10.686   0.804  22.833  1.00  0.00     0.000 C 
ENDROOT
BRANCH   1   2
ATOM      2  C   UNL     1      10.685   2.197  22.170  1.00  0.00     0.000 C 
BRANCH   2   3
ATOM      3  C   UNL     1      10.306   2.210  20.677  1.00  0.00     0.000 C 
BRANCH   3   4
ATOM      4  C   UNL     1      10.340   3.618  20.065  1.00  0.00     0.000 C 
BRANCH   4   5
ATOM      5  C   UNL     1      10.996   3.597  18.677  1.00  0.00     0.000 C 
BRANCH   5   6
ATOM      6  C   UNL     1      12.128   4.628  18.542  1.00  0.00     0.000 C 
BRANCH   6   7
ATOM      7  C   UNL     1      11.604   6.064  18.365  1.00  0.00     0.006 C 
BRANCH   7   8
ATOM      8  C   UNL     1      12.003   6.974  19.534  1.00  0.00     0.053 C 
BRANCH   8   9
ATOM      9  C   UNL     1      10.807   7.462  20.292  1.00  0.00     0.041 C 
ATOM     10  O   UNL     1       9.647   7.156  19.911  1.00  0.00    -0.550 OA
ATOM     11  O   UNL     1      10.975   8.224  21.442  1.00  0.00    -0.550 OA
ENDBRANCH   8   9
ENDBRANCH   7   8
ENDBRANCH   6   7
ENDBRANCH   5   6
ENDBRANCH   4   5
ENDBRANCH   3   4
ENDBRANCH   2   3
ENDBRANCH   1   2
BRANCH   1  12
ATOM     12  C   UNL     1      11.533   0.685  24.113  1.00  0.00     0.000 C 
BRANCH  12  13
ATOM     13  C   UNL     1      10.682   0.496  25.379  1.00  0.00    -0.000 C 
BRANCH  13  14
ATOM     14  C   UNL     1      11.385  -0.357  26.449  1.00  0.00    -0.000 C 
BRANCH  14  15
ATOM     15  C   UNL     1      12.544  -1.214  25.896  1.00  0.00    -0.000 C 
BRANCH  15  16
ATOM     16  C   UNL     1      13.857  -0.973  26.660  1.00  0.00    -0.000 C 
BRANCH  16  17
ATOM     17  C   UNL     1      14.436   0.431  26.422  1.00  0.00    -0.000 C 
BRANCH  17  18
ATOM     18  C   UNL     1      14.461   1.308  27.692  1.00  0.00    -0.000 C 
BRANCH  18  19
ATOM     19  C   UNL     1      14.193   0.491  28.964  1.00  0.00    -0.003 C 
ATOM     20  C   UNL     1      12.917   0.956  29.661  1.00  0.00     0.004 C 
ENDBRANCH  18  19
ENDBRANCH  17  18
ENDBRANCH  16  17
ENDBRANCH  15  16
ENDBRANCH  14  15
ENDBRANCH  13  14
ENDBRANCH  12  13
ENDBRANCH   1  12
TORSDOF 16
ENDMDL
MODEL 5
REMARK VINA RESULT:    -5.459      1.517      2.687
REMARK INTER + INTRA:         -12.316
REMARK INTER:                 -10.889
REMARK INTRA:                  -1.427
REMARK UNBOUND:                -1.751
REMARK SMILES CCCCCCCCCCCCCCCCCC(=O)[O-]
REMARK SMILES IDX 10 1 11 2 12 3 13 4 14 5 15 6 16 7 17 8 18 9 19 10 20 11
REMARK SMILES IDX 9 12 8 13 7 14 6 15 5 16 4 17 3 18 2 19 1 20
REMARK H PARENT
REMARK Flexibility Score: inf
ROOT
ATOM      1  C   UNL     1      10.616   2.195  22.123  1.00  0.00     0.000 C 
ENDROOT
BRANCH   1   2
ATOM      2  C   UNL     1      10.681   0.799  22.777  1.00  0.00     0.000 C 
BRANCH   2   3
ATOM      3  C   UNL     1      11.535   0.714  24.054  1.00  0.00     0.000 C 
BRANCH   3   4
ATOM      4  C   UNL     1      10.712   0.356  25.300  1.00  0.00     0.000 C 
BRANCH   4   5
ATOM      5  C   UNL     1      11.628   0.093  26.506  1.00  0.00     0.000 C 
BRANCH   5   6
ATOM      6  C   UNL     1      12.740  -0.920  26.193  1.00  0.00     0.000 C 
BRANCH   6   7
ATOM      7  C   UNL     1      14.148  -0.360  26.466  1.00  0.00     0.006 C 
BRANCH   7   8
ATOM      8  C   UNL     1      14.117   1.129  26.830  1.00  0.00     0.053 C 
BRANCH   8   9
ATOM      9  C   UNL     1      14.693   1.981  25.740  1.00  0.00     0.041 C 
ATOM     10  O   UNL     1      13.954   2.771  25.096  1.00  0.00    -0.550 OA
ATOM     11  O   UNL     1      16.053   1.928  25.462  1.00  0.00    -0.550 OA
ENDBRANCH   8   9
ENDBRANCH   7   8
ENDBRANCH   6   7
ENDBRANCH   5   6
ENDBRANCH   4   5
ENDBRANCH   3   4
ENDBRANCH   2   3
ENDBRANCH   1   2
BRANCH   1  12
ATOM     12  C   UNL     1      10.227   2.208  20.634  1.00  0.00     0.000 C 
BRANCH  12  13
ATOM     13  C   UNL     1      10.156   3.627  20.046  1.00  0.00    -0.000 C 
BRANCH  13  14
ATOM     14  C   UNL     1       9.716   4.679  21.079  1.00  0.00    -0.000 C 
BRANCH  14  15
ATOM     15  C   UNL     1       8.496   5.513  20.633  1.00  0.00    -0.000 C 
BRANCH  15  16
ATOM     16  C   UNL     1       7.872   4.977  19.333  1.00  0.00    -0.000 C 
BRANCH  16  17
ATOM     17  C   UNL     1       8.021   5.953  18.154  1.00  0.00    -0.000 C 
BRANCH  17  18
ATOM     18  C   UNL     1       9.021   7.096  18.425  1.00  0.00    -0.000 C 
BRANCH  18  19
ATOM     19  C   UNL     1      10.311   6.942  17.606  1.00  0.00    -0.003 C 
ATOM     20  C   UNL     1      11.531   6.819  18.514  1.00  0.00     0.004 C 
ENDBRANCH  18  19
ENDBRANCH  17  18
ENDBRANCH  16  17
ENDBRANCH  15  16
ENDBRANCH  14  15
ENDBRANCH  13  14
ENDBRANCH  12  13
ENDBRANCH   1  12
TORSDOF 16
ENDMDL
MODEL 6
REMARK VINA RESULT:    -5.447      3.519      8.093
REMARK INTER + INTRA:         -12.293
REMARK INTER:                 -10.647
REMARK INTRA:                  -1.646
REMARK UNBOUND:                -1.751
REMARK SMILES CCCCCCCCCCCCCCCCCC(=O)[O-]
REMARK SMILES IDX 10 1 11 2 12 3 13 4 14 5 15 6 16 7 17 8 18 9 19 10 20 11
REMARK SMILES IDX 9 12 8 13 7 14 6 15 5 16 4 17 3 18 2 19 1 20
REMARK H PARENT
REMARK Flexibility Score: inf
ROOT
ATOM      1  C   UNL     1       8.103   5.383  20.547  1.00  0.00     0.000 C 
ENDROOT
BRANCH   1   2
ATOM      2  C   UNL     1       7.776   5.055  19.075  1.00  0.00     0.000 C 
BRANCH   2   3
ATOM      3  C   UNL     1       8.142   6.155  18.063  1.00  0.00     0.000 C 
BRANCH   3   4
ATOM      4  C   UNL     1       9.350   5.785  17.190  1.00  0.00     0.000 C 
BRANCH   4   5
ATOM      5  C   UNL     1      10.458   6.842  17.311  1.00  0.00     0.000 C 
BRANCH   5   6
ATOM      6  C   UNL     1      10.533   7.461  18.715  1.00  0.00     0.000 C 
BRANCH   6   7
ATOM      7  C   UNL     1      11.748   6.963  19.519  1.00  0.00     0.006 C 
BRANCH   7   8
ATOM      8  C   UNL     1      11.804   7.577  20.924  1.00  0.00     0.053 C 
BRANCH   8   9
ATOM      9  C   UNL     1      13.085   8.318  21.157  1.00  0.00     0.041 C 
ATOM     10  O   UNL     1      13.539   8.447  22.324  1.00  0.00    -0.550 OA
ATOM     11  O   UNL     1      13.795   8.835  20.081  1.00  0.00    -0.550 OA
ENDBRANCH   8   9
ENDBRANCH   7   8
ENDBRANCH   6   7
ENDBRANCH   5   6
ENDBRANCH   4   5
ENDBRANCH   3   4
ENDBRANCH   2   3
ENDBRANCH   1   2
BRANCH   1  12
ATOM     12  C   UNL     1       9.278   4.594  21.153  1.00  0.00     0.000 C 
BRANCH  12  13
ATOM     13  C   UNL     1      10.038   3.757  20.111  1.00  0.00    -0.000 C 
BRANCH  13  14
ATOM     14  C   UNL     1      10.350   2.333  20.603  1.00  0.00    -0.000 C 
BRANCH  14  15
ATOM     15  C   UNL     1      10.640   2.249  22.117  1.00  0.00    -0.000 C 
BRANCH  15  16
ATOM     16  C   UNL     1      10.664   0.796  22.621  1.00  0.00    -0.000 C 
BRANCH  16  17
ATOM     17  C   UNL     1      11.351   0.652  23.989  1.00  0.00    -0.000 C 
BRANCH  17  18
ATOM     18  C   UNL     1      10.361   0.444  25.155  1.00  0.00    -0.000 C 
BRANCH  18  19
ATOM     19  C   UNL     1      11.055  -0.099  26.412  1.00  0.00    -0.003 C 
ATOM     20  C   UNL     1      12.538   0.264  26.425  1.00  0.00     0.004 C 
ENDBRANCH  18  19
ENDBRANCH  17  18
ENDBRANCH  16  17
ENDBRANCH  15  16
ENDBRANCH  14  15
ENDBRANCH  13  14
ENDBRANCH  12  13
ENDBRANCH   1  12
TORSDOF 16
ENDMDL
MODEL 7
REMARK VINA RESULT:    -5.436      1.077      2.720
REMARK INTER + INTRA:         -12.271
REMARK INTER:                 -10.687
REMARK INTRA:                  -1.585
REMARK UNBOUND:                -1.751
REMARK SMILES CCCCCCCCCCCCCCCCCC(=O)[O-]
REMARK SMILES IDX 10 1 11 2 12 3 13 4 14 5 15 6 16 7 17 8 18 9 19 10 20 11
REMARK SMILES IDX 9 12 8 13 7 14 6 15 5 16 4 17 3 18 2 19 1 20
REMARK H PARENT
REMARK Flexibility Score: inf
ROOT
ATOM      1  C   UNL     1      10.226   2.583  20.580  1.00  0.00     0.000 C 
ENDROOT
BRANCH   1   2
ATOM      2  C   UNL     1      10.635   2.386  22.055  1.00  0.00     0.000 C 
BRANCH   2   3
ATOM      3  C   UNL     1      10.705   0.922  22.525  1.00  0.00     0.000 C 
BRANCH   3   4
ATOM      4  C   UNL     1      11.339   0.772  23.916  1.00  0.00     0.000 C 
BRANCH   4   5
ATOM      5  C   UNL     1      10.277   0.405  24.965  1.00  0.00     0.000 C 
BRANCH   5   6
ATOM      6  C   UNL     1      10.893  -0.142  26.262  1.00  0.00     0.000 C 
BRANCH   6   7
ATOM      7  C   UNL     1      12.336   0.347  26.486  1.00  0.00     0.006 C 
BRANCH   7   8
ATOM      8  C   UNL     1      13.253  -0.771  26.998  1.00  0.00     0.053 C 
BRANCH   8   9
ATOM      9  C   UNL     1      14.611  -0.708  26.370  1.00  0.00     0.041 C 
ATOM     10  O   UNL     1      15.078   0.393  25.978  1.00  0.00    -0.550 OA
ATOM     11  O   UNL     1      15.376  -1.862  26.250  1.00  0.00    -0.550 OA
ENDBRANCH   8   9
ENDBRANCH   7   8
ENDBRANCH   6   7
ENDBRANCH   5   6
ENDBRANCH   4   5
ENDBRANCH   3   4
ENDBRANCH   2   3
ENDBRANCH   1   2
BRANCH   1  12
ATOM     12  C   UNL     1      10.982   3.693  19.828  1.00  0.00     0.000 C 
BRANCH  12  13
ATOM     13  C   UNL     1      11.316   4.899  20.720  1.00  0.00    -0.000 C 
BRANCH  13  14
ATOM     14  C   UNL     1      11.695   6.152  19.911  1.00  0.00    -0.000 C 
BRANCH  14  15
ATOM     15  C   UNL     1      11.735   5.917  18.386  1.00  0.00    -0.000 C 
BRANCH  15  16
ATOM     16  C   UNL     1      10.718   6.796  17.638  1.00  0.00    -0.000 C 
BRANCH  16  17
ATOM     17  C   UNL     1       9.418   6.047  17.301  1.00  0.00    -0.000 C 
BRANCH  17  18
ATOM     18  C   UNL     1       8.260   6.357  18.273  1.00  0.00    -0.000 C 
BRANCH  18  19
ATOM     19  C   UNL     1       7.872   5.136  19.118  1.00  0.00    -0.003 C 
ATOM     20  C   UNL     1       7.693   5.514  20.586  1.00  0.00     0.004 C 
ENDBRANCH  18  19
ENDBRANCH  17  18
ENDBRANCH  16  17
ENDBRANCH  15  16
ENDBRANCH  14  15
ENDBRANCH  13  14
ENDBRANCH  12  13
ENDBRANCH   1  12
TORSDOF 16
ENDMDL
MODEL 8
REMARK VINA RESULT:    -5.418      3.098      7.995
REMARK INTER + INTRA:         -12.237
REMARK INTER:                 -10.645
REMARK INTRA:                  -1.592
REMARK UNBOUND:                -1.751
REMARK SMILES CCCCCCCCCCCCCCCCCC(=O)[O-]
REMARK SMILES IDX 10 1 11 2 12 3 13 4 14 5 15 6 16 7 17 8 18 9 19 10 20 11
REMARK SMILES IDX 9 12 8 13 7 14 6 15 5 16 4 17 3 18 2 19 1 20
REMARK H PARENT
REMARK Flexibility Score: inf
ROOT
ATOM      1  C   UNL     1      10.599   2.531  21.606  1.00  0.00     0.000 C 
ENDROOT
BRANCH   1   2
ATOM      2  C   UNL     1      10.006   2.446  20.185  1.00  0.00     0.000 C 
BRANCH   2   3
ATOM      3  C   UNL     1      10.663   3.373  19.146  1.00  0.00     0.000 C 
BRANCH   3   4
ATOM      4  C   UNL     1       9.677   4.382  18.539  1.00  0.00     0.000 C 
BRANCH   4   5
ATOM      5  C   UNL     1       8.312   4.305  19.240  1.00  0.00     0.000 C 
BRANCH   5   6
ATOM      6  C   UNL     1       7.963   5.597  19.996  1.00  0.00     0.000 C 
BRANCH   6   7
ATOM      7  C   UNL     1       8.871   5.835  21.216  1.00  0.00     0.006 C 
BRANCH   7   8
ATOM      8  C   UNL     1       9.696   7.122  21.080  1.00  0.00     0.053 C 
BRANCH   8   9
ATOM      9  C   UNL     1      11.166   6.854  21.186  1.00  0.00     0.041 C 
ATOM     10  O   UNL     1      11.582   5.827  21.784  1.00  0.00    -0.550 OA
ATOM     11  O   UNL     1      12.076   7.720  20.593  1.00  0.00    -0.550 OA
ENDBRANCH   8   9
ENDBRANCH   7   8
ENDBRANCH   6   7
ENDBRANCH   5   6
ENDBRANCH   4   5
ENDBRANCH   3   4
ENDBRANCH   2   3
ENDBRANCH   1   2
BRANCH   1  12
ATOM     12  C   UNL     1      10.631   1.205  22.388  1.00  0.00     0.000 C 
BRANCH  12  13
ATOM     13  C   UNL     1      11.434   1.299  23.695  1.00  0.00    -0.000 C 
BRANCH  13  14
ATOM     14  C   UNL     1      11.260   0.061  24.592  1.00  0.00    -0.000 C 
BRANCH  14  15
ATOM     15  C   UNL     1      10.958   0.403  26.067  1.00  0.00    -0.000 C 
BRANCH  15  16
ATOM     16  C   UNL     1      12.137   0.061  26.993  1.00  0.00    -0.000 C 
BRANCH  16  17
ATOM     17  C   UNL     1      13.266  -0.690  26.268  1.00  0.00    -0.000 C 
BRANCH  17  18
ATOM     18  C   UNL     1      14.677  -0.185  26.639  1.00  0.00    -0.000 C 
BRANCH  18  19
ATOM     19  C   UNL     1      14.775   1.346  26.584  1.00  0.00    -0.003 C 
ATOM     20  C   UNL     1      14.906   1.840  25.146  1.00  0.00     0.004 C 
ENDBRANCH  18  19
ENDBRANCH  17  18
ENDBRANCH  16  17
ENDBRANCH  15  16
ENDBRANCH  14  15
ENDBRANCH  13  14
ENDBRANCH  12  13
ENDBRANCH   1  12
TORSDOF 16
ENDMDL
MODEL 9
REMARK VINA RESULT:    -5.324      1.690      2.428
REMARK INTER + INTRA:         -12.054
REMARK INTER:                 -10.725
REMARK INTRA:                  -1.329
REMARK UNBOUND:                -1.751
REMARK SMILES CCCCCCCCCCCCCCCCCC(=O)[O-]
REMARK SMILES IDX 10 1 11 2 12 3 13 4 14 5 15 6 16 7 17 8 18 9 19 10 20 11
REMARK SMILES IDX 9 12 8 13 7 14 6 15 5 16 4 17 3 18 2 19 1 20
REMARK H PARENT
REMARK Flexibility Score: inf
ROOT
ATOM      1  C   UNL     1      10.944   2.870  22.158  1.00  0.00     0.000 C 
ENDROOT
BRANCH   1   2
ATOM      2  C   UNL     1      10.626   1.373  22.353  1.00  0.00     0.000 C 
BRANCH   2   3
ATOM      3  C   UNL     1      11.191   0.747  23.642  1.00  0.00     0.000 C 
BRANCH   3   4
ATOM      4  C   UNL     1      10.096   0.351  24.643  1.00  0.00     0.000 C 
BRANCH   4   5
ATOM      5  C   UNL     1      10.639   0.354  26.080  1.00  0.00     0.000 C 
BRANCH   5   6
ATOM      6  C   UNL     1      11.964  -0.414  26.211  1.00  0.00     0.000 C 
BRANCH   6   7
ATOM      7  C   UNL     1      13.117   0.474  26.714  1.00  0.00     0.006 C 
BRANCH   7   8
ATOM      8  C   UNL     1      14.056  -0.280  27.664  1.00  0.00     0.053 C 
BRANCH   8   9
ATOM      9  C   UNL     1      13.774   0.046  29.099  1.00  0.00     0.041 C 
ATOM     10  O   UNL     1      14.298  -0.635  30.019  1.00  0.00    -0.550 OA
ATOM     11  O   UNL     1      12.961   1.126  29.420  1.00  0.00    -0.550 OA
ENDBRANCH   8   9
ENDBRANCH   7   8
ENDBRANCH   6   7
ENDBRANCH   5   6
ENDBRANCH   4   5
ENDBRANCH   3   4
ENDBRANCH   2   3
ENDBRANCH   1   2
BRANCH   1  12
ATOM     12  C   UNL     1      10.198   3.556  20.999  1.00  0.00     0.000 C 
BRANCH  12  13
ATOM     13  C   UNL     1       9.865   2.594  19.848  1.00  0.00    -0.000 C 
BRANCH  13  14
ATOM     14  C   UNL     1       9.100   3.277  18.702  1.00  0.00    -0.000 C 
BRANCH  14  15
ATOM     15  C   UNL     1       8.134   4.385  19.174  1.00  0.00    -0.000 C 
BRANCH  15  16
ATOM     16  C   UNL     1       8.217   5.640  18.290  1.00  0.00    -0.000 C 
BRANCH  16  17
ATOM     17  C   UNL     1       9.292   6.632  18.764  1.00  0.00    -0.000 C 
BRANCH  17  18
ATOM     18  C   UNL     1      10.447   6.814  17.757  1.00  0.00    -0.000 C 
BRANCH  18  19
ATOM     19  C   UNL     1      11.822   6.621  18.413  1.00  0.00    -0.003 C 
ATOM     20  C   UNL     1      12.252   5.157  18.375  1.00  0.00     0.004 C 
ENDBRANCH  18  19
ENDBRANCH  17  18
ENDBRANCH  16  17
ENDBRANCH  15  16
ENDBRANCH  14  15
ENDBRANCH  13  14
ENDBRANCH  12  13
ENDBRANCH   1  12
TORSDOF 16
ENDMDL
