MODEL 1
REMARK VINA RESULT:    -2.936      0.000      0.000
REMARK INTER + INTRA:         -13.978
REMARK INTER:                  -7.741
REMARK INTRA:                  -6.237
REMARK UNBOUND:                -6.237
REMARK SMILES CCCCCCCCCCCCCCCCCCCCCCCCCCCCCC(=O)[O-]
REMARK SMILES IDX 16 1 17 2 18 3 19 4 20 5 21 6 22 7 23 8 24 9 25 10 26 11
REMARK SMILES IDX 27 12 28 13 29 14 30 15 31 16 32 17 15 18 14 19 13 20 12 21
REMARK SMILES IDX 11 22 10 23 9 24 8 25 7 26 6 27 5 28 4 29 3 30 2 31 1 32
REMARK H PARENT
REMARK Flexibility Score: inf
ROOT
ATOM      1  C   UNL     1      57.845  26.895  51.354  1.00  0.00     0.000 C 
ENDROOT
BRANCH   1   2
ATOM      2  C   UNL     1      57.448  28.253  50.754  1.00  0.00     0.000 C 
BRANCH   2   3
ATOM      3  C   UNL     1      58.614  28.941  50.027  1.00  0.00     0.000 C 
BRANCH   3   4
ATOM      4  C   UNL     1      59.728  27.940  49.702  1.00  0.00     0.000 C 
BRANCH   4   5
ATOM      5  C   UNL     1      61.027  28.302  50.439  1.00  0.00     0.000 C 
BRANCH   5   6
ATOM      6  C   UNL     1      61.040  29.750  50.960  1.00  0.00     0.000 C 
BRANCH   6   7
ATOM      7  C   UNL     1      61.293  29.895  52.471  1.00  0.00     0.000 C 
BRANCH   7   8
ATOM      8  C   UNL     1      60.281  30.821  53.164  1.00  0.00     0.000 C 
BRANCH   8   9
ATOM      9  C   UNL     1      59.018  30.045  53.571  1.00  0.00     0.000 C 
BRANCH   9  10
ATOM     10  C   UNL     1      59.339  28.690  54.222  1.00  0.00     0.000 C 
BRANCH  10  11
ATOM     11  C   UNL     1      59.752  28.821  55.695  1.00  0.00     0.000 C 
BRANCH  11  12
ATOM     12  C   UNL     1      58.539  28.652  56.622  1.00  0.00     0.000 C 
BRANCH  12  13
ATOM     13  C   UNL     1      58.479  29.719  57.729  1.00  0.00     0.006 C 
BRANCH  13  14
ATOM     14  C   UNL     1      57.458  30.839  57.475  1.00  0.00     0.053 C 
BRANCH  14  15
ATOM     15  C   UNL     1      58.120  32.166  57.263  1.00  0.00     0.041 C 
ATOM     16  O   UNL     1      57.804  33.154  57.979  1.00  0.00    -0.550 OA
ATOM     17  O   UNL     1      59.069  32.319  56.260  1.00  0.00    -0.550 OA
ENDBRANCH  14  15
ENDBRANCH  13  14
ENDBRANCH  12  13
ENDBRANCH  11  12
ENDBRANCH  10  11
ENDBRANCH   9  10
ENDBRANCH   8   9
ENDBRANCH   7   8
ENDBRANCH   6   7
ENDBRANCH   5   6
ENDBRANCH   4   5
ENDBRANCH   3   4
ENDBRANCH   2   3
ENDBRANCH   1   2
BRANCH   1  18
ATOM     18  C   UNL     1      57.117  25.719  50.678  1.00  0.00     0.000 C 
BRANCH  18  19
ATOM     19  C   UNL     1      55.611  25.697  50.989  1.00  0.00     0.000 C 
BRANCH  19  20
ATOM     20  C   UNL     1      54.741  25.690  49.722  1.00  0.00     0.000 C 
BRANCH  20  21
ATOM     21  C   UNL     1      53.488  26.555  49.915  1.00  0.00     0.000 C 
BRANCH  21  22
ATOM     22  C   UNL     1      53.693  27.687  50.937  1.00  0.00     0.000 C 
BRANCH  22  23
ATOM     23  C   UNL     1      53.668  29.112  50.350  1.00  0.00     0.000 C 
BRANCH  23  24
ATOM     24  C   UNL     1      54.066  30.228  51.332  1.00  0.00    -0.000 C 
BRANCH  24  25
ATOM     25  C   UNL     1      55.232  31.087  50.813  1.00  0.00    -0.000 C 
BRANCH  25  26
ATOM     26  C   UNL     1      56.153  31.573  51.943  1.00  0.00    -0.000 C 
BRANCH  26  27
ATOM     27  C   UNL     1      55.369  32.080  53.165  1.00  0.00    -0.000 C 
BRANCH  27  28
ATOM     28  C   UNL     1      55.705  31.300  54.446  1.00  0.00    -0.000 C 
BRANCH  28  29
ATOM     29  C   UNL     1      54.466  30.660  55.090  1.00  0.00    -0.000 C 
BRANCH  29  30
ATOM     30  C   UNL     1      54.657  29.145  55.261  1.00  0.00    -0.000 C 
BRANCH  30  31
ATOM     31  C   UNL     1      55.602  28.546  54.209  1.00  0.00    -0.003 C 
ATOM     32  C   UNL     1      55.932  27.078  54.477  1.00  0.00     0.004 C 
ENDBRANCH  30  31
ENDBRANCH  29  30
ENDBRANCH  28  29
ENDBRANCH  27  28
ENDBRANCH  26  27
ENDBRANCH  25  26
ENDBRANCH  24  25
ENDBRANCH  23  24
ENDBRANCH  22  23
ENDBRANCH  21  22
ENDBRANCH  20  21
ENDBRANCH  19  20
ENDBRANCH  18  19
ENDBRANCH   1  18
TORSDOF 28
ENDMDL
MODEL 2
REMARK VINA RESULT:    -2.887      2.657      4.549
REMARK INTER + INTRA:         -13.850
REMARK INTER:                  -8.707
REMARK INTRA:                  -5.143
REMARK UNBOUND:                -6.237
REMARK SMILES CCCCCCCCCCCCCCCCCCCCCCCCCCCCCC(=O)[O-]
REMARK SMILES IDX 16 1 17 2 18 3 19 4 20 5 21 6 22 7 23 8 24 9 25 10 26 11
REMARK SMILES IDX 27 12 28 13 29 14 30 15 31 16 32 17 15 18 14 19 13 20 12 21
REMARK SMILES IDX 11 22 10 23 9 24 8 25 7 26 6 27 5 28 4 29 3 30 2 31 1 32
REMARK H PARENT
REMARK Flexibility Score: inf
ROOT
ATOM      1  C   UNL     1      56.853  25.679  51.941  1.00  0.00     0.000 C 
ENDROOT
BRANCH   1   2
ATOM      2  C   UNL     1      58.233  25.001  51.953  1.00  0.00     0.000 C 
BRANCH   2   3
ATOM      3  C   UNL     1      59.095  25.396  50.745  1.00  0.00     0.000 C 
BRANCH   3   4
ATOM      4  C   UNL     1      60.407  26.050  51.195  1.00  0.00     0.000 C 
BRANCH   4   5
ATOM      5  C   UNL     1      60.763  27.245  50.296  1.00  0.00     0.000 C 
BRANCH   5   6
ATOM      6  C   UNL     1      59.581  27.723  49.435  1.00  0.00     0.000 C 
BRANCH   6   7
ATOM      7  C   UNL     1      59.023  29.108  49.809  1.00  0.00     0.000 C 
BRANCH   7   8
ATOM      8  C   UNL     1      57.886  29.039  50.841  1.00  0.00     0.000 C 
BRANCH   8   9
ATOM      9  C   UNL     1      58.243  29.838  52.104  1.00  0.00     0.000 C 
BRANCH   9  10
ATOM     10  C   UNL     1      59.020  29.003  53.134  1.00  0.00     0.000 C 
BRANCH  10  11
ATOM     11  C   UNL     1      60.497  29.412  53.239  1.00  0.00     0.000 C 
BRANCH  11  12
ATOM     12  C   UNL     1      60.660  30.928  53.052  1.00  0.00     0.000 C 
BRANCH  12  13
ATOM     13  C   UNL     1      61.946  31.302  52.293  1.00  0.00     0.006 C 
BRANCH  13  14
ATOM     14  C   UNL     1      62.036  30.719  50.874  1.00  0.00     0.053 C 
BRANCH  14  15
ATOM     15  C   UNL     1      63.020  31.461  50.023  1.00  0.00     0.041 C 
ATOM     16  O   UNL     1      62.698  32.557  49.491  1.00  0.00    -0.550 OA
ATOM     17  O   UNL     1      64.284  30.931  49.796  1.00  0.00    -0.550 OA
ENDBRANCH  14  15
ENDBRANCH  13  14
ENDBRANCH  12  13
ENDBRANCH  11  12
ENDBRANCH  10  11
ENDBRANCH   9  10
ENDBRANCH   8   9
ENDBRANCH   7   8
ENDBRANCH   6   7
ENDBRANCH   5   6
ENDBRANCH   4   5
ENDBRANCH   3   4
ENDBRANCH   2   3
ENDBRANCH   1   2
BRANCH   1  18
ATOM     18  C   UNL     1      56.321  25.903  50.515  1.00  0.00     0.000 C 
BRANCH  18  19
ATOM     19  C   UNL     1      54.810  25.642  50.397  1.00  0.00     0.000 C 
BRANCH  19  20
ATOM     20  C   UNL     1      54.017  26.899  50.008  1.00  0.00     0.000 C 
BRANCH  20  21
ATOM     21  C   UNL     1      54.066  27.946  51.131  1.00  0.00     0.000 C 
BRANCH  21  22
ATOM     22  C   UNL     1      54.271  29.377  50.605  1.00  0.00     0.000 C 
BRANCH  22  23
ATOM     23  C   UNL     1      54.305  30.475  51.688  1.00  0.00     0.000 C 
BRANCH  23  24
ATOM     24  C   UNL     1      55.290  31.625  51.418  1.00  0.00    -0.000 C 
BRANCH  24  25
ATOM     25  C   UNL     1      55.476  32.546  52.636  1.00  0.00    -0.000 C 
BRANCH  25  26
ATOM     26  C   UNL     1      55.603  31.762  53.952  1.00  0.00    -0.000 C 
BRANCH  26  27
ATOM     27  C   UNL     1      56.968  31.968  54.630  1.00  0.00    -0.000 C 
BRANCH  27  28
ATOM     28  C   UNL     1      57.234  30.944  55.745  1.00  0.00    -0.000 C 
BRANCH  28  29
ATOM     29  C   UNL     1      58.670  31.020  56.286  1.00  0.00    -0.000 C 
BRANCH  29  30
ATOM     30  C   UNL     1      59.060  32.471  56.605  1.00  0.00    -0.000 C 
BRANCH  30  31
ATOM     31  C   UNL     1      59.451  32.667  58.078  1.00  0.00    -0.003 C 
ATOM     32  C   UNL     1      60.941  32.437  58.330  1.00  0.00     0.004 C 
ENDBRANCH  30  31
ENDBRANCH  29  30
ENDBRANCH  28  29
ENDBRANCH  27  28
ENDBRANCH  26  27
ENDBRANCH  25  26
ENDBRANCH  24  25
ENDBRANCH  23  24
ENDBRANCH  22  23
ENDBRANCH  21  22
ENDBRANCH  20  21
ENDBRANCH  19  20
ENDBRANCH  18  19
ENDBRANCH   1  18
TORSDOF 28
ENDMDL
MODEL 3
REMARK VINA RESULT:    -2.884      2.866      4.475
REMARK INTER + INTRA:         -13.841
REMARK INTER:                  -8.078
REMARK INTRA:                  -5.763
REMARK UNBOUND:                -6.237
REMARK SMILES CCCCCCCCCCCCCCCCCCCCCCCCCCCCCC(=O)[O-]
REMARK SMILES IDX 16 1 17 2 18 3 19 4 20 5 21 6 22 7 23 8 24 9 25 10 26 11
REMARK SMILES IDX 27 12 28 13 29 14 30 15 31 16 32 17 15 18 14 19 13 20 12 21
REMARK SMILES IDX 11 22 10 23 9 24 8 25 7 26 6 27 5 28 4 29 3 30 2 31 1 32
REMARK H PARENT
REMARK Flexibility Score: inf
ROOT
ATOM      1  C   UNL     1      60.109  25.030  52.753  1.00  0.00     0.000 C 
ENDROOT
BRANCH   1   2
ATOM      2  C   UNL     1      60.400  25.446  51.302  1.00  0.00     0.000 C 
BRANCH   2   3
ATOM      3  C   UNL     1      61.528  26.483  51.200  1.00  0.00     0.000 C 
BRANCH   3   4
ATOM      4  C   UNL     1      61.251  27.490  50.077  1.00  0.00     0.000 C 
BRANCH   4   5
ATOM      5  C   UNL     1      59.777  27.443  49.646  1.00  0.00     0.000 C 
BRANCH   5   6
ATOM      6  C   UNL     1      59.101  28.825  49.660  1.00  0.00     0.000 C 
BRANCH   6   7
ATOM      7  C   UNL     1      58.097  29.047  50.805  1.00  0.00     0.000 C 
BRANCH   7   8
ATOM      8  C   UNL     1      58.657  29.925  51.935  1.00  0.00     0.000 C 
BRANCH   8   9
ATOM      9  C   UNL     1      59.045  29.071  53.152  1.00  0.00     0.000 C 
BRANCH   9  10
ATOM     10  C   UNL     1      60.555  29.094  53.436  1.00  0.00     0.000 C 
BRANCH  10  11
ATOM     11  C   UNL     1      61.029  30.430  54.026  1.00  0.00     0.000 C 
BRANCH  11  12
ATOM     12  C   UNL     1      61.867  31.214  53.005  1.00  0.00     0.000 C 
BRANCH  12  13
ATOM     13  C   UNL     1      62.388  30.334  51.856  1.00  0.00     0.006 C 
BRANCH  13  14
ATOM     14  C   UNL     1      62.254  30.967  50.462  1.00  0.00     0.053 C 
BRANCH  14  15
ATOM     15  C   UNL     1      63.575  31.073  49.764  1.00  0.00     0.041 C 
ATOM     16  O   UNL     1      64.062  30.071  49.175  1.00  0.00    -0.550 OA
ATOM     17  O   UNL     1      64.280  32.270  49.783  1.00  0.00    -0.550 OA
ENDBRANCH  14  15
ENDBRANCH  13  14
ENDBRANCH  12  13
ENDBRANCH  11  12
ENDBRANCH  10  11
ENDBRANCH   9  10
ENDBRANCH   8   9
ENDBRANCH   7   8
ENDBRANCH   6   7
ENDBRANCH   5   6
ENDBRANCH   4   5
ENDBRANCH   3   4
ENDBRANCH   2   3
ENDBRANCH   1   2
BRANCH   1  18
ATOM     18  C   UNL     1      58.623  24.706  52.985  1.00  0.00     0.000 C 
BRANCH  18  19
ATOM     19  C   UNL     1      57.844  25.889  53.583  1.00  0.00     0.000 C 
BRANCH  19  20
ATOM     20  C   UNL     1      56.593  26.252  52.768  1.00  0.00     0.000 C 
BRANCH  20  21
ATOM     21  C   UNL     1      56.682  25.681  51.345  1.00  0.00     0.000 C 
BRANCH  21  22
ATOM     22  C   UNL     1      55.650  26.300  50.386  1.00  0.00     0.000 C 
BRANCH  22  23
ATOM     23  C   UNL     1      54.599  27.210  51.053  1.00  0.00     0.000 C 
BRANCH  23  24
ATOM     24  C   UNL     1      53.666  27.950  50.078  1.00  0.00    -0.000 C 
BRANCH  24  25
ATOM     25  C   UNL     1      53.520  29.444  50.416  1.00  0.00    -0.000 C 
BRANCH  25  26
ATOM     26  C   UNL     1      54.480  29.893  51.529  1.00  0.00    -0.000 C 
BRANCH  26  27
ATOM     27  C   UNL     1      55.189  31.217  51.195  1.00  0.00    -0.000 C 
BRANCH  27  28
ATOM     28  C   UNL     1      55.183  32.203  52.373  1.00  0.00    -0.000 C 
BRANCH  28  29
ATOM     29  C   UNL     1      56.464  32.124  53.216  1.00  0.00    -0.000 C 
BRANCH  29  30
ATOM     30  C   UNL     1      56.137  32.159  54.717  1.00  0.00    -0.000 C 
BRANCH  30  31
ATOM     31  C   UNL     1      55.247  30.985  55.155  1.00  0.00    -0.003 C 
ATOM     32  C   UNL     1      55.898  29.625  54.906  1.00  0.00     0.004 C 
ENDBRANCH  30  31
ENDBRANCH  29  30
ENDBRANCH  28  29
ENDBRANCH  27  28
ENDBRANCH  26  27
ENDBRANCH  25  26
ENDBRANCH  24  25
ENDBRANCH  23  24
ENDBRANCH  22  23
ENDBRANCH  21  22
ENDBRANCH  20  21
ENDBRANCH  19  20
ENDBRANCH  18  19
ENDBRANCH   1  18
TORSDOF 28
ENDMDL
MODEL 4
REMARK VINA RESULT:    -2.864      1.505      5.800
REMARK INTER + INTRA:         -13.790
REMARK INTER:                  -7.364
REMARK INTRA:                  -6.426
REMARK UNBOUND:                -6.237
REMARK SMILES CCCCCCCCCCCCCCCCCCCCCCCCCCCCCC(=O)[O-]
REMARK SMILES IDX 16 1 17 2 18 3 19 4 20 5 21 6 22 7 23 8 24 9 25 10 26 11
REMARK SMILES IDX 27 12 28 13 29 14 30 15 31 16 32 17 15 18 14 19 13 20 12 21
REMARK SMILES IDX 11 22 10 23 9 24 8 25 7 26 6 27 5 28 4 29 3 30 2 31 1 32
REMARK H PARENT
REMARK Flexibility Score: inf
ROOT
ATOM      1  C   UNL     1      56.100  29.901  51.033  1.00  0.00     0.000 C 
ENDROOT
BRANCH   1   2
ATOM      2  C   UNL     1      54.569  29.880  50.897  1.00  0.00     0.000 C 
BRANCH   2   3
ATOM      3  C   UNL     1      54.038  28.524  50.409  1.00  0.00     0.000 C 
BRANCH   3   4
ATOM      4  C   UNL     1      55.158  27.476  50.370  1.00  0.00     0.000 C 
BRANCH   4   5
ATOM      5  C   UNL     1      54.587  26.070  50.127  1.00  0.00     0.000 C 
BRANCH   5   6
ATOM      6  C   UNL     1      54.602  25.189  51.388  1.00  0.00     0.000 C 
BRANCH   6   7
ATOM      7  C   UNL     1      55.411  25.755  52.568  1.00  0.00     0.000 C 
BRANCH   7   8
ATOM      8  C   UNL     1      54.554  26.013  53.817  1.00  0.00     0.000 C 
BRANCH   8   9
ATOM      9  C   UNL     1      54.308  27.517  54.011  1.00  0.00     0.000 C 
BRANCH   9  10
ATOM     10  C   UNL     1      54.756  28.018  55.394  1.00  0.00     0.000 C 
BRANCH  10  11
ATOM     11  C   UNL     1      54.976  29.537  55.433  1.00  0.00     0.000 C 
BRANCH  11  12
ATOM     12  C   UNL     1      55.013  30.048  56.881  1.00  0.00     0.000 C 
BRANCH  12  13
ATOM     13  C   UNL     1      56.334  29.720  57.598  1.00  0.00     0.006 C 
BRANCH  13  14
ATOM     14  C   UNL     1      57.595  30.032  56.776  1.00  0.00     0.053 C 
BRANCH  14  15
ATOM     15  C   UNL     1      58.328  31.227  57.304  1.00  0.00     0.041 C 
ATOM     16  O   UNL     1      57.689  32.234  57.710  1.00  0.00    -0.550 OA
ATOM     17  O   UNL     1      59.717  31.239  57.324  1.00  0.00    -0.550 OA
ENDBRANCH  14  15
ENDBRANCH  13  14
ENDBRANCH  12  13
ENDBRANCH  11  12
ENDBRANCH  10  11
ENDBRANCH   9  10
ENDBRANCH   8   9
ENDBRANCH   7   8
ENDBRANCH   6   7
ENDBRANCH   5   6
ENDBRANCH   4   5
ENDBRANCH   3   4
ENDBRANCH   2   3
ENDBRANCH   1   2
BRANCH   1  18
ATOM     18  C   UNL     1      56.572  30.752  52.226  1.00  0.00     0.000 C 
BRANCH  18  19
ATOM     19  C   UNL     1      57.764  30.126  52.968  1.00  0.00     0.000 C 
BRANCH  19  20
ATOM     20  C   UNL     1      57.629  28.604  53.135  1.00  0.00     0.000 C 
BRANCH  20  21
ATOM     21  C   UNL     1      58.911  28.003  53.728  1.00  0.00     0.000 C 
BRANCH  21  22
ATOM     22  C   UNL     1      58.643  26.761  54.596  1.00  0.00     0.000 C 
BRANCH  22  23
ATOM     23  C   UNL     1      58.679  25.416  53.843  1.00  0.00     0.000 C 
BRANCH  23  24
ATOM     24  C   UNL     1      59.659  25.359  52.658  1.00  0.00    -0.000 C 
BRANCH  24  25
ATOM     25  C   UNL     1      59.012  24.799  51.379  1.00  0.00    -0.000 C 
BRANCH  25  26
ATOM     26  C   UNL     1      58.520  25.908  50.434  1.00  0.00    -0.000 C 
BRANCH  26  27
ATOM     27  C   UNL     1      59.647  26.871  50.021  1.00  0.00    -0.000 C 
BRANCH  27  28
ATOM     28  C   UNL     1      59.132  28.290  49.732  1.00  0.00    -0.000 C 
BRANCH  28  29
ATOM     29  C   UNL     1      60.008  29.377  50.372  1.00  0.00    -0.000 C 
BRANCH  29  30
ATOM     30  C   UNL     1      61.275  28.767  50.992  1.00  0.00    -0.000 C 
BRANCH  30  31
ATOM     31  C   UNL     1      61.842  29.619  52.137  1.00  0.00    -0.003 C 
ATOM     32  C   UNL     1      62.211  31.035  51.693  1.00  0.00     0.004 C 
ENDBRANCH  30  31
ENDBRANCH  29  30
ENDBRANCH  28  29
ENDBRANCH  27  28
ENDBRANCH  26  27
ENDBRANCH  25  26
ENDBRANCH  24  25
ENDBRANCH  23  24
ENDBRANCH  22  23
ENDBRANCH  21  22
ENDBRANCH  20  21
ENDBRANCH  19  20
ENDBRANCH  18  19
ENDBRANCH   1  18
TORSDOF 28
ENDMDL
MODEL 5
REMARK VINA RESULT:    -2.858      1.930      5.150
REMARK INTER + INTRA:         -13.772
REMARK INTER:                  -7.570
REMARK INTRA:                  -6.202
REMARK UNBOUND:                -6.237
REMARK SMILES CCCCCCCCCCCCCCCCCCCCCCCCCCCCCC(=O)[O-]
REMARK SMILES IDX 16 1 17 2 18 3 19 4 20 5 21 6 22 7 23 8 24 9 25 10 26 11
REMARK SMILES IDX 27 12 28 13 29 14 30 15 31 16 32 17 15 18 14 19 13 20 12 21
REMARK SMILES IDX 11 22 10 23 9 24 8 25 7 26 6 27 5 28 4 29 3 30 2 31 1 32
REMARK H PARENT
REMARK Flexibility Score: inf
ROOT
ATOM      1  C   UNL     1      54.373  28.538  50.382  1.00  0.00     0.000 C 
ENDROOT
BRANCH   1   2
ATOM      2  C   UNL     1      54.106  30.004  50.758  1.00  0.00     0.000 C 
BRANCH   2   3
ATOM      3  C   UNL     1      55.386  30.852  50.779  1.00  0.00     0.000 C 
BRANCH   3   4
ATOM      4  C   UNL     1      56.612  29.990  51.106  1.00  0.00     0.000 C 
BRANCH   4   5
ATOM      5  C   UNL     1      57.383  30.562  52.306  1.00  0.00     0.000 C 
BRANCH   5   6
ATOM      6  C   UNL     1      57.257  29.696  53.571  1.00  0.00     0.000 C 
BRANCH   6   7
ATOM      7  C   UNL     1      56.525  28.357  53.373  1.00  0.00     0.000 C 
BRANCH   7   8
ATOM      8  C   UNL     1      55.174  28.296  54.104  1.00  0.00     0.000 C 
BRANCH   8   9
ATOM      9  C   UNL     1      55.236  29.062  55.434  1.00  0.00     0.000 C 
BRANCH   9  10
ATOM     10  C   UNL     1      54.158  30.153  55.541  1.00  0.00     0.000 C 
BRANCH  10  11
ATOM     11  C   UNL     1      53.570  30.543  54.178  1.00  0.00     0.000 C 
BRANCH  11  12
ATOM     12  C   UNL     1      53.742  32.047  53.917  1.00  0.00     0.000 C 
BRANCH  12  13
ATOM     13  C   UNL     1      55.101  32.586  54.396  1.00  0.00     0.006 C 
BRANCH  13  14
ATOM     14  C   UNL     1      55.688  33.699  53.513  1.00  0.00     0.053 C 
BRANCH  14  15
ATOM     15  C   UNL     1      56.244  34.827  54.325  1.00  0.00     0.041 C 
ATOM     16  O   UNL     1      56.359  34.713  55.575  1.00  0.00    -0.550 OA
ATOM     17  O   UNL     1      56.613  36.016  53.707  1.00  0.00    -0.550 OA
ENDBRANCH  14  15
ENDBRANCH  13  14
ENDBRANCH  12  13
ENDBRANCH  11  12
ENDBRANCH  10  11
ENDBRANCH   9  10
ENDBRANCH   8   9
ENDBRANCH   7   8
ENDBRANCH   6   7
ENDBRANCH   5   6
ENDBRANCH   4   5
ENDBRANCH   3   4
ENDBRANCH   2   3
ENDBRANCH   1   2
BRANCH   1  18
ATOM     18  C   UNL     1      53.084  27.783  50.009  1.00  0.00     0.000 C 
BRANCH  18  19
ATOM     19  C   UNL     1      53.306  26.269  49.861  1.00  0.00     0.000 C 
BRANCH  19  20
ATOM     20  C   UNL     1      54.792  25.880  49.870  1.00  0.00     0.000 C 
BRANCH  20  21
ATOM     21  C   UNL     1      55.187  25.263  51.220  1.00  0.00     0.000 C 
BRANCH  21  22
ATOM     22  C   UNL     1      56.682  25.439  51.543  1.00  0.00     0.000 C 
BRANCH  22  23
ATOM     23  C   UNL     1      57.503  26.176  50.466  1.00  0.00     0.000 C 
BRANCH  23  24
ATOM     24  C   UNL     1      58.844  26.752  50.953  1.00  0.00    -0.000 C 
BRANCH  24  25
ATOM     25  C   UNL     1      59.410  27.822  50.002  1.00  0.00    -0.000 C 
BRANCH  25  26
ATOM     26  C   UNL     1      60.233  28.889  50.740  1.00  0.00    -0.000 C 
BRANCH  26  27
ATOM     27  C   UNL     1      60.539  28.494  52.195  1.00  0.00    -0.000 C 
BRANCH  27  28
ATOM     28  C   UNL     1      61.003  29.687  53.046  1.00  0.00    -0.000 C 
BRANCH  28  29
ATOM     29  C   UNL     1      61.266  30.944  52.205  1.00  0.00    -0.000 C 
BRANCH  29  30
ATOM     30  C   UNL     1      61.237  32.206  53.081  1.00  0.00    -0.000 C 
BRANCH  30  31
ATOM     31  C   UNL     1      59.985  32.282  53.967  1.00  0.00    -0.003 C 
ATOM     32  C   UNL     1      59.807  33.651  54.624  1.00  0.00     0.004 C 
ENDBRANCH  30  31
ENDBRANCH  29  30
ENDBRANCH  28  29
ENDBRANCH  27  28
ENDBRANCH  26  27
ENDBRANCH  25  26
ENDBRANCH  24  25
ENDBRANCH  23  24
ENDBRANCH  22  23
ENDBRANCH  21  22
ENDBRANCH  20  21
ENDBRANCH  19  20
ENDBRANCH  18  19
ENDBRANCH   1  18
TORSDOF 28
ENDMDL
MODEL 6
REMARK VINA RESULT:    -2.817      2.429      4.103
REMARK INTER + INTRA:         -13.666
REMARK INTER:                  -6.616
REMARK INTRA:                  -7.050
REMARK UNBOUND:                -6.237
REMARK SMILES CCCCCCCCCCCCCCCCCCCCCCCCCCCCCC(=O)[O-]
REMARK SMILES IDX 16 1 17 2 18 3 19 4 20 5 21 6 22 7 23 8 24 9 25 10 26 11
REMARK SMILES IDX 27 12 28 13 29 14 30 15 31 16 32 17 15 18 14 19 13 20 12 21
REMARK SMILES IDX 11 22 10 23 9 24 8 25 7 26 6 27 5 28 4 29 3 30 2 31 1 32
REMARK H PARENT
REMARK Flexibility Score: inf
ROOT
ATOM      1  C   UNL     1      56.956  25.999  52.416  1.00  0.00     0.000 C 
ENDROOT
BRANCH   1   2
ATOM      2  C   UNL     1      58.380  25.497  52.704  1.00  0.00     0.000 C 
BRANCH   2   3
ATOM      3  C   UNL     1      59.412  26.634  52.736  1.00  0.00     0.000 C 
BRANCH   3   4
ATOM      4  C   UNL     1      60.522  26.400  51.704  1.00  0.00     0.000 C 
BRANCH   4   5
ATOM      5  C   UNL     1      60.624  27.582  50.727  1.00  0.00     0.000 C 
BRANCH   5   6
ATOM      6  C   UNL     1      59.302  27.873  49.995  1.00  0.00     0.000 C 
BRANCH   6   7
ATOM      7  C   UNL     1      58.949  29.365  49.859  1.00  0.00     0.000 C 
BRANCH   7   8
ATOM      8  C   UNL     1      57.541  29.699  50.378  1.00  0.00     0.000 C 
BRANCH   8   9
ATOM      9  C   UNL     1      57.482  29.595  51.910  1.00  0.00     0.000 C 
BRANCH   9  10
ATOM     10  C   UNL     1      57.241  30.954  52.587  1.00  0.00     0.000 C 
BRANCH  10  11
ATOM     11  C   UNL     1      58.327  31.308  53.613  1.00  0.00     0.000 C 
BRANCH  11  12
ATOM     12  C   UNL     1      59.534  30.367  53.481  1.00  0.00     0.000 C 
BRANCH  12  13
ATOM     13  C   UNL     1      60.774  31.064  52.892  1.00  0.00     0.006 C 
BRANCH  13  14
ATOM     14  C   UNL     1      62.016  30.165  52.789  1.00  0.00     0.053 C 
BRANCH  14  15
ATOM     15  C   UNL     1      62.860  30.508  51.600  1.00  0.00     0.041 C 
ATOM     16  O   UNL     1      64.112  30.591  51.715  1.00  0.00    -0.550 OA
ATOM     17  O   UNL     1      62.264  30.761  50.371  1.00  0.00    -0.550 OA
ENDBRANCH  14  15
ENDBRANCH  13  14
ENDBRANCH  12  13
ENDBRANCH  11  12
ENDBRANCH  10  11
ENDBRANCH   9  10
ENDBRANCH   8   9
ENDBRANCH   7   8
ENDBRANCH   6   7
ENDBRANCH   5   6
ENDBRANCH   4   5
ENDBRANCH   3   4
ENDBRANCH   2   3
ENDBRANCH   1   2
BRANCH   1  18
ATOM     18  C   UNL     1      56.476  25.628  51.002  1.00  0.00     0.000 C 
BRANCH  18  19
ATOM     19  C   UNL     1      55.636  26.738  50.349  1.00  0.00     0.000 C 
BRANCH  19  20
ATOM     20  C   UNL     1      54.184  26.310  50.086  1.00  0.00     0.000 C 
BRANCH  20  21
ATOM     21  C   UNL     1      53.242  27.522  50.120  1.00  0.00     0.000 C 
BRANCH  21  22
ATOM     22  C   UNL     1      53.984  28.850  50.357  1.00  0.00     0.000 C 
BRANCH  22  23
ATOM     23  C   UNL     1      53.567  29.615  51.630  1.00  0.00     0.000 C 
BRANCH  23  24
ATOM     24  C   UNL     1      53.981  28.949  52.954  1.00  0.00    -0.000 C 
BRANCH  24  25
ATOM     25  C   UNL     1      53.991  29.935  54.136  1.00  0.00    -0.000 C 
BRANCH  25  26
ATOM     26  C   UNL     1      55.056  29.583  55.186  1.00  0.00    -0.000 C 
BRANCH  26  27
ATOM     27  C   UNL     1      55.671  28.192  54.957  1.00  0.00    -0.000 C 
BRANCH  27  28
ATOM     28  C   UNL     1      57.149  28.124  55.374  1.00  0.00    -0.000 C 
BRANCH  28  29
ATOM     29  C   UNL     1      57.498  29.133  56.479  1.00  0.00    -0.000 C 
BRANCH  29  30
ATOM     30  C   UNL     1      58.975  29.013  56.884  1.00  0.00    -0.000 C 
BRANCH  30  31
ATOM     31  C   UNL     1      59.653  27.771  56.287  1.00  0.00    -0.003 C 
ATOM     32  C   UNL     1      61.097  28.035  55.858  1.00  0.00     0.004 C 
ENDBRANCH  30  31
ENDBRANCH  29  30
ENDBRANCH  28  29
ENDBRANCH  27  28
ENDBRANCH  26  27
ENDBRANCH  25  26
ENDBRANCH  24  25
ENDBRANCH  23  24
ENDBRANCH  22  23
ENDBRANCH  21  22
ENDBRANCH  20  21
ENDBRANCH  19  20
ENDBRANCH  18  19
ENDBRANCH   1  18
TORSDOF 28
ENDMDL
MODEL 7
REMARK VINA RESULT:    -2.813      3.965      6.025
REMARK INTER + INTRA:         -13.655
REMARK INTER:                  -7.629
REMARK INTRA:                  -6.026
REMARK UNBOUND:                -6.237
REMARK SMILES CCCCCCCCCCCCCCCCCCCCCCCCCCCCCC(=O)[O-]
REMARK SMILES IDX 16 1 17 2 18 3 19 4 20 5 21 6 22 7 23 8 24 9 25 10 26 11
REMARK SMILES IDX 27 12 28 13 29 14 30 15 31 16 32 17 15 18 14 19 13 20 12 21
REMARK SMILES IDX 11 22 10 23 9 24 8 25 7 26 6 27 5 28 4 29 3 30 2 31 1 32
REMARK H PARENT
REMARK Flexibility Score: inf
ROOT
ATOM      1  C   UNL     1      57.544  25.374  51.711  1.00  0.00     0.000 C 
ENDROOT
BRANCH   1   2
ATOM      2  C   UNL     1      58.124  25.871  50.377  1.00  0.00     0.000 C 
BRANCH   2   3
ATOM      3  C   UNL     1      59.467  26.597  50.551  1.00  0.00     0.000 C 
BRANCH   3   4
ATOM      4  C   UNL     1      59.537  27.846  49.664  1.00  0.00     0.000 C 
BRANCH   4   5
ATOM      5  C   UNL     1      60.083  29.048  50.448  1.00  0.00     0.000 C 
BRANCH   5   6
ATOM      6  C   UNL     1      60.389  28.719  51.920  1.00  0.00     0.000 C 
BRANCH   6   7
ATOM      7  C   UNL     1      61.883  28.722  52.290  1.00  0.00     0.000 C 
BRANCH   7   8
ATOM      8  C   UNL     1      62.153  28.194  53.708  1.00  0.00     0.000 C 
BRANCH   8   9
ATOM      9  C   UNL     1      62.304  26.665  53.704  1.00  0.00     0.000 C 
BRANCH   9  10
ATOM     10  C   UNL     1      63.126  26.153  52.510  1.00  0.00     0.000 C 
BRANCH  10  11
ATOM     11  C   UNL     1      62.473  24.953  51.809  1.00  0.00     0.000 C 
BRANCH  11  12
ATOM     12  C   UNL     1      61.275  24.432  52.616  1.00  0.00     0.000 C 
BRANCH  12  13
ATOM     13  C   UNL     1      61.075  22.912  52.476  1.00  0.00     0.006 C 
BRANCH  13  14
ATOM     14  C   UNL     1      59.605  22.473  52.387  1.00  0.00     0.053 C 
BRANCH  14  15
ATOM     15  C   UNL     1      59.459  20.983  52.440  1.00  0.00     0.041 C 
ATOM     16  O   UNL     1      59.132  20.416  53.517  1.00  0.00    -0.550 OA
ATOM     17  O   UNL     1      59.708  20.218  51.308  1.00  0.00    -0.550 OA
ENDBRANCH  14  15
ENDBRANCH  13  14
ENDBRANCH  12  13
ENDBRANCH  11  12
ENDBRANCH  10  11
ENDBRANCH   9  10
ENDBRANCH   8   9
ENDBRANCH   7   8
ENDBRANCH   6   7
ENDBRANCH   5   6
ENDBRANCH   4   5
ENDBRANCH   3   4
ENDBRANCH   2   3
ENDBRANCH   1   2
BRANCH   1  18
ATOM     18  C   UNL     1      57.725  26.395  52.848  1.00  0.00     0.000 C 
BRANCH  18  19
ATOM     19  C   UNL     1      56.436  26.620  53.654  1.00  0.00     0.000 C 
BRANCH  19  20
ATOM     20  C   UNL     1      56.366  28.019  54.288  1.00  0.00     0.000 C 
BRANCH  20  21
ATOM     21  C   UNL     1      57.756  28.668  54.335  1.00  0.00     0.000 C 
BRANCH  21  22
ATOM     22  C   UNL     1      57.696  30.200  54.474  1.00  0.00     0.000 C 
BRANCH  22  23
ATOM     23  C   UNL     1      57.747  30.981  53.146  1.00  0.00     0.000 C 
BRANCH  23  24
ATOM     24  C   UNL     1      56.436  31.686  52.756  1.00  0.00    -0.000 C 
BRANCH  24  25
ATOM     25  C   UNL     1      55.721  30.999  51.579  1.00  0.00    -0.000 C 
BRANCH  25  26
ATOM     26  C   UNL     1      56.593  29.929  50.903  1.00  0.00    -0.000 C 
BRANCH  26  27
ATOM     27  C   UNL     1      55.835  28.610  50.676  1.00  0.00    -0.000 C 
BRANCH  27  28
ATOM     28  C   UNL     1      54.311  28.782  50.768  1.00  0.00    -0.000 C 
BRANCH  28  29
ATOM     29  C   UNL     1      53.546  27.555  50.248  1.00  0.00    -0.000 C 
BRANCH  29  30
ATOM     30  C   UNL     1      54.514  26.415  49.894  1.00  0.00    -0.000 C 
BRANCH  30  31
ATOM     31  C   UNL     1      54.034  25.050  50.412  1.00  0.00    -0.003 C 
ATOM     32  C   UNL     1      53.537  25.107  51.856  1.00  0.00     0.004 C 
ENDBRANCH  30  31
ENDBRANCH  29  30
ENDBRANCH  28  29
ENDBRANCH  27  28
ENDBRANCH  26  27
ENDBRANCH  25  26
ENDBRANCH  24  25
ENDBRANCH  23  24
ENDBRANCH  22  23
ENDBRANCH  21  22
ENDBRANCH  20  21
ENDBRANCH  19  20
ENDBRANCH  18  19
ENDBRANCH   1  18
TORSDOF 28
ENDMDL
MODEL 8
REMARK VINA RESULT:    -2.776      2.670      5.129
REMARK INTER + INTRA:         -13.557
REMARK INTER:                  -7.531
REMARK INTRA:                  -6.027
REMARK UNBOUND:                -6.237
REMARK SMILES CCCCCCCCCCCCCCCCCCCCCCCCCCCCCC(=O)[O-]
REMARK SMILES IDX 16 1 17 2 18 3 19 4 20 5 21 6 22 7 23 8 24 9 25 10 26 11
REMARK SMILES IDX 27 12 28 13 29 14 30 15 31 16 32 17 15 18 14 19 13 20 12 21
REMARK SMILES IDX 11 22 10 23 9 24 8 25 7 26 6 27 5 28 4 29 3 30 2 31 1 32
REMARK H PARENT
REMARK Flexibility Score: inf
ROOT
ATOM      1  C   UNL     1      57.450  28.014  53.047  1.00  0.00     0.000 C 
ENDROOT
BRANCH   1   2
ATOM      2  C   UNL     1      58.059  29.114  52.162  1.00  0.00     0.000 C 
BRANCH   2   3
ATOM      3  C   UNL     1      58.012  28.764  50.667  1.00  0.00     0.000 C 
BRANCH   3   4
ATOM      4  C   UNL     1      59.389  28.939  50.016  1.00  0.00     0.000 C 
BRANCH   4   5
ATOM      5  C   UNL     1      59.995  27.580  49.634  1.00  0.00     0.000 C 
BRANCH   5   6
ATOM      6  C   UNL     1      59.164  26.387  50.139  1.00  0.00     0.000 C 
BRANCH   6   7
ATOM      7  C   UNL     1      59.865  25.505  51.188  1.00  0.00     0.000 C 
BRANCH   7   8
ATOM      8  C   UNL     1      61.182  26.109  51.699  1.00  0.00     0.000 C 
BRANCH   8   9
ATOM      9  C   UNL     1      60.957  26.891  53.003  1.00  0.00     0.000 C 
BRANCH   9  10
ATOM     10  C   UNL     1      61.719  28.226  53.032  1.00  0.00     0.000 C 
BRANCH  10  11
ATOM     11  C   UNL     1      63.221  28.060  52.764  1.00  0.00     0.000 C 
BRANCH  11  12
ATOM     12  C   UNL     1      63.768  29.242  51.950  1.00  0.00     0.000 C 
BRANCH  12  13
ATOM     13  C   UNL     1      62.914  29.559  50.709  1.00  0.00     0.006 C 
BRANCH  13  14
ATOM     14  C   UNL     1      62.307  30.971  50.702  1.00  0.00     0.053 C 
BRANCH  14  15
ATOM     15  C   UNL     1      63.345  32.028  50.487  1.00  0.00     0.041 C 
ATOM     16  O   UNL     1      64.237  31.872  49.611  1.00  0.00    -0.550 OA
ATOM     17  O   UNL     1      63.344  33.176  51.271  1.00  0.00    -0.550 OA
ENDBRANCH  14  15
ENDBRANCH  13  14
ENDBRANCH  12  13
ENDBRANCH  11  12
ENDBRANCH  10  11
ENDBRANCH   9  10
ENDBRANCH   8   9
ENDBRANCH   7   8
ENDBRANCH   6   7
ENDBRANCH   5   6
ENDBRANCH   4   5
ENDBRANCH   3   4
ENDBRANCH   2   3
ENDBRANCH   1   2
BRANCH   1  18
ATOM     18  C   UNL     1      57.042  28.537  54.436  1.00  0.00     0.000 C 
BRANCH  18  19
ATOM     19  C   UNL     1      55.938  27.689  55.087  1.00  0.00     0.000 C 
BRANCH  19  20
ATOM     20  C   UNL     1      54.551  27.947  54.479  1.00  0.00     0.000 C 
BRANCH  20  21
ATOM     21  C   UNL     1      53.767  26.636  54.326  1.00  0.00     0.000 C 
BRANCH  21  22
ATOM     22  C   UNL     1      54.613  25.501  53.722  1.00  0.00     0.000 C 
BRANCH  22  23
ATOM     23  C   UNL     1      54.376  25.235  52.221  1.00  0.00     0.000 C 
BRANCH  23  24
ATOM     24  C   UNL     1      55.557  25.593  51.303  1.00  0.00    -0.000 C 
BRANCH  24  25
ATOM     25  C   UNL     1      55.199  26.678  50.271  1.00  0.00    -0.000 C 
BRANCH  25  26
ATOM     26  C   UNL     1      53.719  27.086  50.336  1.00  0.00    -0.000 C 
BRANCH  26  27
ATOM     27  C   UNL     1      53.528  28.612  50.290  1.00  0.00    -0.000 C 
BRANCH  27  28
ATOM     28  C   UNL     1      54.481  29.355  51.239  1.00  0.00    -0.000 C 
BRANCH  28  29
ATOM     29  C   UNL     1      54.943  30.706  50.673  1.00  0.00    -0.000 C 
BRANCH  29  30
ATOM     30  C   UNL     1      55.449  31.627  51.795  1.00  0.00    -0.000 C 
BRANCH  30  31
ATOM     31  C   UNL     1      54.735  31.376  53.132  1.00  0.00    -0.003 C 
ATOM     32  C   UNL     1      55.517  31.914  54.330  1.00  0.00     0.004 C 
ENDBRANCH  30  31
ENDBRANCH  29  30
ENDBRANCH  28  29
ENDBRANCH  27  28
ENDBRANCH  26  27
ENDBRANCH  25  26
ENDBRANCH  24  25
ENDBRANCH  23  24
ENDBRANCH  22  23
ENDBRANCH  21  22
ENDBRANCH  20  21
ENDBRANCH  19  20
ENDBRANCH  18  19
ENDBRANCH   1  18
TORSDOF 28
ENDMDL
MODEL 9
REMARK VINA RESULT:    -2.772      2.177      5.368
REMARK INTER + INTRA:         -13.546
REMARK INTER:                  -6.989
REMARK INTRA:                  -6.557
REMARK UNBOUND:                -6.237
REMARK SMILES CCCCCCCCCCCCCCCCCCCCCCCCCCCCCC(=O)[O-]
REMARK SMILES IDX 16 1 17 2 18 3 19 4 20 5 21 6 22 7 23 8 24 9 25 10 26 11
REMARK SMILES IDX 27 12 28 13 29 14 30 15 31 16 32 17 15 18 14 19 13 20 12 21
REMARK SMILES IDX 11 22 10 23 9 24 8 25 7 26 6 27 5 28 4 29 3 30 2 31 1 32
REMARK H PARENT
REMARK Flexibility Score: inf
ROOT
ATOM      1  C   UNL     1      56.162  26.084  50.670  1.00  0.00     0.000 C 
ENDROOT
BRANCH   1   2
ATOM      2  C   UNL     1      54.783  25.572  50.224  1.00  0.00     0.000 C 
BRANCH   2   3
ATOM      3  C   UNL     1      53.765  26.706  50.032  1.00  0.00     0.000 C 
BRANCH   3   4
ATOM      4  C   UNL     1      54.394  28.070  50.343  1.00  0.00     0.000 C 
BRANCH   4   5
ATOM      5  C   UNL     1      53.319  29.163  50.438  1.00  0.00     0.000 C 
BRANCH   5   6
ATOM      6  C   UNL     1      53.838  30.464  51.075  1.00  0.00     0.000 C 
BRANCH   6   7
ATOM      7  C   UNL     1      53.121  30.886  52.369  1.00  0.00     0.000 C 
BRANCH   7   8
ATOM      8  C   UNL     1      53.980  30.680  53.627  1.00  0.00     0.000 C 
BRANCH   8   9
ATOM      9  C   UNL     1      53.700  29.310  54.264  1.00  0.00     0.000 C 
BRANCH   9  10
ATOM     10  C   UNL     1      54.810  28.286  53.978  1.00  0.00     0.000 C 
BRANCH  10  11
ATOM     11  C   UNL     1      55.247  27.517  55.233  1.00  0.00     0.000 C 
BRANCH  11  12
ATOM     12  C   UNL     1      54.857  28.281  56.507  1.00  0.00     0.000 C 
BRANCH  12  13
ATOM     13  C   UNL     1      56.016  28.398  57.513  1.00  0.00     0.006 C 
BRANCH  13  14
ATOM     14  C   UNL     1      57.391  28.019  56.941  1.00  0.00     0.053 C 
BRANCH  14  15
ATOM     15  C   UNL     1      57.965  26.809  57.612  1.00  0.00     0.041 C 
ATOM     16  O   UNL     1      57.336  26.244  58.546  1.00  0.00    -0.550 OA
ATOM     17  O   UNL     1      59.205  26.319  57.222  1.00  0.00    -0.550 OA
ENDBRANCH  14  15
ENDBRANCH  13  14
ENDBRANCH  12  13
ENDBRANCH  11  12
ENDBRANCH  10  11
ENDBRANCH   9  10
ENDBRANCH   8   9
ENDBRANCH   7   8
ENDBRANCH   6   7
ENDBRANCH   5   6
ENDBRANCH   4   5
ENDBRANCH   3   4
ENDBRANCH   2   3
ENDBRANCH   1   2
BRANCH   1  18
ATOM     18  C   UNL     1      56.623  25.453  51.995  1.00  0.00     0.000 C 
BRANCH  18  19
ATOM     19  C   UNL     1      58.099  25.747  52.310  1.00  0.00     0.000 C 
BRANCH  19  20
ATOM     20  C   UNL     1      58.275  26.707  53.497  1.00  0.00     0.000 C 
BRANCH  20  21
ATOM     21  C   UNL     1      59.739  27.152  53.627  1.00  0.00     0.000 C 
BRANCH  21  22
ATOM     22  C   UNL     1      60.645  26.557  52.535  1.00  0.00     0.000 C 
BRANCH  22  23
ATOM     23  C   UNL     1      61.195  27.574  51.515  1.00  0.00     0.000 C 
BRANCH  23  24
ATOM     24  C   UNL     1      60.838  27.282  50.047  1.00  0.00    -0.000 C 
BRANCH  24  25
ATOM     25  C   UNL     1      59.554  27.999  49.594  1.00  0.00    -0.000 C 
BRANCH  25  26
ATOM     26  C   UNL     1      59.196  29.190  50.497  1.00  0.00    -0.000 C 
BRANCH  26  27
ATOM     27  C   UNL     1      57.676  29.379  50.645  1.00  0.00    -0.000 C 
BRANCH  27  28
ATOM     28  C   UNL     1      57.292  30.055  51.971  1.00  0.00    -0.000 C 
BRANCH  28  29
ATOM     29  C   UNL     1      58.517  30.453  52.807  1.00  0.00    -0.000 C 
BRANCH  29  30
ATOM     30  C   UNL     1      58.159  30.538  54.299  1.00  0.00    -0.000 C 
BRANCH  30  31
ATOM     31  C   UNL     1      57.281  31.755  54.628  1.00  0.00    -0.003 C 
ATOM     32  C   UNL     1      56.655  31.674  56.020  1.00  0.00     0.004 C 
ENDBRANCH  30  31
ENDBRANCH  29  30
ENDBRANCH  28  29
ENDBRANCH  27  28
ENDBRANCH  26  27
ENDBRANCH  25  26
ENDBRANCH  24  25
ENDBRANCH  23  24
ENDBRANCH  22  23
ENDBRANCH  21  22
ENDBRANCH  20  21
ENDBRANCH  19  20
ENDBRANCH  18  19
ENDBRANCH   1  18
TORSDOF 28
ENDMDL
