MODEL 1
REMARK VINA RESULT:    -4.556      0.000      0.000
REMARK INTER + INTRA:         -10.115
REMARK INTER:                  -8.817
REMARK INTRA:                  -1.298
REMARK UNBOUND:                -1.298
REMARK SMILES CCCCCCCCCCCCCCCCCC(=O)[O-]
REMARK SMILES IDX 10 1 11 2 12 3 13 4 14 5 15 6 16 7 17 8 18 9 19 10 20 11
REMARK SMILES IDX 9 12 8 13 7 14 6 15 5 16 4 17 3 18 2 19 1 20
REMARK H PARENT
REMARK Flexibility Score: inf
ROOT
ATOM      1  C   UNL     1      44.406  28.296   3.006  1.00  0.00     0.000 C 
ENDROOT
BRANCH   1   2
ATOM      2  C   UNL     1      45.257  28.882   1.860  1.00  0.00     0.000 C 
BRANCH   2   3
ATOM      3  C   UNL     1      45.770  27.824   0.865  1.00  0.00     0.000 C 
BRANCH   3   4
ATOM      4  C   UNL     1      46.089  28.360  -0.543  1.00  0.00     0.000 C 
BRANCH   4   5
ATOM      5  C   UNL     1      45.225  29.552  -1.002  1.00  0.00     0.000 C 
BRANCH   5   6
ATOM      6  C   UNL     1      44.601  29.409  -2.402  1.00  0.00     0.000 C 
BRANCH   6   7
ATOM      7  C   UNL     1      45.073  28.144  -3.141  1.00  0.00     0.006 C 
BRANCH   7   8
ATOM      8  C   UNL     1      43.919  27.173  -3.423  1.00  0.00     0.053 C 
BRANCH   8   9
ATOM      9  C   UNL     1      43.002  27.690  -4.488  1.00  0.00     0.041 C 
ATOM     10  O   UNL     1      41.828  28.040  -4.198  1.00  0.00    -0.550 OA
ATOM     11  O   UNL     1      43.435  27.760  -5.807  1.00  0.00    -0.550 OA
ENDBRANCH   8   9
ENDBRANCH   7   8
ENDBRANCH   6   7
ENDBRANCH   5   6
ENDBRANCH   4   5
ENDBRANCH   3   4
ENDBRANCH   2   3
ENDBRANCH   1   2
BRANCH   1  12
ATOM     12  C   UNL     1      44.231  26.774   2.890  1.00  0.00     0.000 C 
BRANCH  12  13
ATOM     13  C   UNL     1      44.808  26.059   4.117  1.00  0.00    -0.000 C 
BRANCH  13  14
ATOM     14  C   UNL     1      46.344  26.048   4.075  1.00  0.00    -0.000 C 
BRANCH  14  15
ATOM     15  C   UNL     1      46.974  26.755   5.286  1.00  0.00    -0.000 C 
BRANCH  15  16
ATOM     16  C   UNL     1      45.938  27.119   6.364  1.00  0.00    -0.000 C 
BRANCH  16  17
ATOM     17  C   UNL     1      46.351  26.636   7.764  1.00  0.00    -0.000 C 
BRANCH  17  18
ATOM     18  C   UNL     1      45.360  27.076   8.855  1.00  0.00    -0.000 C 
BRANCH  18  19
ATOM     19  C   UNL     1      45.227  28.604   8.948  1.00  0.00    -0.003 C 
ATOM     20  C   UNL     1      44.492  29.057  10.210  1.00  0.00     0.004 C 
ENDBRANCH  18  19
ENDBRANCH  17  18
ENDBRANCH  16  17
ENDBRANCH  15  16
ENDBRANCH  14  15
ENDBRANCH  13  14
ENDBRANCH  12  13
ENDBRANCH   1  12
TORSDOF 16
ENDMDL
MODEL 2
REMARK VINA RESULT:    -4.386      1.021      1.387
REMARK INTER + INTRA:          -9.787
REMARK INTER:                  -8.217
REMARK INTRA:                  -1.570
REMARK UNBOUND:                -1.298
REMARK SMILES CCCCCCCCCCCCCCCCCC(=O)[O-]
REMARK SMILES IDX 10 1 11 2 12 3 13 4 14 5 15 6 16 7 17 8 18 9 19 10 20 11
REMARK SMILES IDX 9 12 8 13 7 14 6 15 5 16 4 17 3 18 2 19 1 20
REMARK H PARENT
REMARK Flexibility Score: inf
ROOT
ATOM      1  C   UNL     1      44.067  28.368   3.012  1.00  0.00     0.000 C 
ENDROOT
BRANCH   1   2
ATOM      2  C   UNL     1      45.113  29.491   2.846  1.00  0.00     0.000 C 
BRANCH   2   3
ATOM      3  C   UNL     1      46.246  29.141   1.864  1.00  0.00     0.000 C 
BRANCH   3   4
ATOM      4  C   UNL     1      45.934  29.437   0.384  1.00  0.00     0.000 C 
BRANCH   4   5
ATOM      5  C   UNL     1      46.382  28.345  -0.610  1.00  0.00     0.000 C 
BRANCH   5   6
ATOM      6  C   UNL     1      45.238  27.594  -1.316  1.00  0.00     0.000 C 
BRANCH   6   7
ATOM      7  C   UNL     1      45.343  27.648  -2.850  1.00  0.00     0.006 C 
BRANCH   7   8
ATOM      8  C   UNL     1      44.211  28.470  -3.480  1.00  0.00     0.053 C 
BRANCH   8   9
ATOM      9  C   UNL     1      43.028  27.619  -3.823  1.00  0.00     0.041 C 
ATOM     10  O   UNL     1      43.122  26.363  -3.796  1.00  0.00    -0.550 OA
ATOM     11  O   UNL     1      41.828  28.211  -4.197  1.00  0.00    -0.550 OA
ENDBRANCH   8   9
ENDBRANCH   7   8
ENDBRANCH   6   7
ENDBRANCH   5   6
ENDBRANCH   4   5
ENDBRANCH   3   4
ENDBRANCH   2   3
ENDBRANCH   1   2
BRANCH   1  12
ATOM     12  C   UNL     1      44.627  26.984   2.652  1.00  0.00     0.000 C 
BRANCH  12  13
ATOM     13  C   UNL     1      44.802  26.118   3.904  1.00  0.00    -0.000 C 
BRANCH  13  14
ATOM     14  C   UNL     1      46.261  25.662   4.058  1.00  0.00    -0.000 C 
BRANCH  14  15
ATOM     15  C   UNL     1      46.974  26.350   5.233  1.00  0.00    -0.000 C 
BRANCH  15  16
ATOM     16  C   UNL     1      45.992  26.976   6.238  1.00  0.00    -0.000 C 
BRANCH  16  17
ATOM     17  C   UNL     1      46.271  28.468   6.484  1.00  0.00    -0.000 C 
BRANCH  17  18
ATOM     18  C   UNL     1      45.411  29.049   7.620  1.00  0.00    -0.000 C 
BRANCH  18  19
ATOM     19  C   UNL     1      45.296  28.095   8.818  1.00  0.00    -0.003 C 
ATOM     20  C   UNL     1      44.685  28.765  10.049  1.00  0.00     0.004 C 
ENDBRANCH  18  19
ENDBRANCH  17  18
ENDBRANCH  16  17
ENDBRANCH  15  16
ENDBRANCH  14  15
ENDBRANCH  13  14
ENDBRANCH  12  13
ENDBRANCH   1  12
TORSDOF 16
ENDMDL
MODEL 3
REMARK VINA RESULT:    -4.331      5.196     10.271
REMARK INTER + INTRA:          -9.680
REMARK INTER:                  -8.553
REMARK INTRA:                  -1.128
REMARK UNBOUND:                -1.298
REMARK SMILES CCCCCCCCCCCCCCCCCC(=O)[O-]
REMARK SMILES IDX 10 1 11 2 12 3 13 4 14 5 15 6 16 7 17 8 18 9 19 10 20 11
REMARK SMILES IDX 9 12 8 13 7 14 6 15 5 16 4 17 3 18 2 19 1 20
REMARK H PARENT
REMARK Flexibility Score: inf
ROOT
ATOM      1  C   UNL     1      44.222  26.777   2.753  1.00  0.00     0.000 C 
ENDROOT
BRANCH   1   2
ATOM      2  C   UNL     1      44.838  26.028   3.953  1.00  0.00     0.000 C 
BRANCH   2   3
ATOM      3  C   UNL     1      46.376  25.971   3.925  1.00  0.00     0.000 C 
BRANCH   3   4
ATOM      4  C   UNL     1      47.067  26.496   5.198  1.00  0.00     0.000 C 
BRANCH   4   5
ATOM      5  C   UNL     1      46.138  26.690   6.414  1.00  0.00     0.000 C 
BRANCH   5   6
ATOM      6  C   UNL     1      45.887  28.154   6.819  1.00  0.00     0.000 C 
BRANCH   6   7
ATOM      7  C   UNL     1      45.564  28.316   8.314  1.00  0.00     0.006 C 
BRANCH   7   8
ATOM      8  C   UNL     1      45.257  26.972   8.990  1.00  0.00     0.053 C 
BRANCH   8   9
ATOM      9  C   UNL     1      46.085  26.764  10.220  1.00  0.00     0.041 C 
ATOM     10  O   UNL     1      46.395  25.599  10.585  1.00  0.00    -0.550 OA
ATOM     11  O   UNL     1      46.494  27.854  10.979  1.00  0.00    -0.550 OA
ENDBRANCH   8   9
ENDBRANCH   7   8
ENDBRANCH   6   7
ENDBRANCH   5   6
ENDBRANCH   4   5
ENDBRANCH   3   4
ENDBRANCH   2   3
ENDBRANCH   1   2
BRANCH   1  12
ATOM     12  C   UNL     1      44.232  28.302   2.943  1.00  0.00     0.000 C 
BRANCH  12  13
ATOM     13  C   UNL     1      45.294  28.960   2.053  1.00  0.00    -0.000 C 
BRANCH  13  14
ATOM     14  C   UNL     1      45.683  28.038   0.888  1.00  0.00    -0.000 C 
BRANCH  14  15
ATOM     15  C   UNL     1      45.623  28.748  -0.474  1.00  0.00    -0.000 C 
BRANCH  15  16
ATOM     16  C   UNL     1      45.301  27.786  -1.631  1.00  0.00    -0.000 C 
BRANCH  16  17
ATOM     17  C   UNL     1      44.911  28.526  -2.921  1.00  0.00    -0.000 C 
BRANCH  17  18
ATOM     18  C   UNL     1      43.963  27.701  -3.809  1.00  0.00    -0.000 C 
BRANCH  18  19
ATOM     19  C   UNL     1      42.593  28.373  -3.990  1.00  0.00    -0.003 C 
ATOM     20  C   UNL     1      42.223  28.570  -5.460  1.00  0.00     0.004 C 
ENDBRANCH  18  19
ENDBRANCH  17  18
ENDBRANCH  16  17
ENDBRANCH  15  16
ENDBRANCH  14  15
ENDBRANCH  13  14
ENDBRANCH  12  13
ENDBRANCH   1  12
TORSDOF 16
ENDMDL
MODEL 4
REMARK VINA RESULT:    -4.244      1.255      2.373
REMARK INTER + INTRA:          -9.512
REMARK INTER:                  -7.766
REMARK INTRA:                  -1.746
REMARK UNBOUND:                -1.298
REMARK SMILES CCCCCCCCCCCCCCCCCC(=O)[O-]
REMARK SMILES IDX 10 1 11 2 12 3 13 4 14 5 15 6 16 7 17 8 18 9 19 10 20 11
REMARK SMILES IDX 9 12 8 13 7 14 6 15 5 16 4 17 3 18 2 19 1 20
REMARK H PARENT
REMARK Flexibility Score: inf
ROOT
ATOM      1  C   UNL     1      44.822  26.233   3.873  1.00  0.00     0.000 C 
ENDROOT
BRANCH   1   2
ATOM      2  C   UNL     1      44.286  27.112   2.724  1.00  0.00     0.000 C 
BRANCH   2   3
ATOM      3  C   UNL     1      44.406  28.624   2.993  1.00  0.00     0.000 C 
BRANCH   3   4
ATOM      4  C   UNL     1      45.601  29.311   2.306  1.00  0.00     0.000 C 
BRANCH   4   5
ATOM      5  C   UNL     1      46.146  28.584   1.059  1.00  0.00     0.000 C 
BRANCH   5   6
ATOM      6  C   UNL     1      45.607  29.099  -0.287  1.00  0.00     0.000 C 
BRANCH   6   7
ATOM      7  C   UNL     1      45.301  27.967  -1.283  1.00  0.00     0.006 C 
BRANCH   7   8
ATOM      8  C   UNL     1      45.089  28.490  -2.709  1.00  0.00     0.053 C 
BRANCH   8   9
ATOM      9  C   UNL     1      44.788  27.383  -3.671  1.00  0.00     0.041 C 
ATOM     10  O   UNL     1      43.729  26.712  -3.553  1.00  0.00    -0.550 OA
ATOM     11  O   UNL     1      45.689  27.073  -4.683  1.00  0.00    -0.550 OA
ENDBRANCH   8   9
ENDBRANCH   7   8
ENDBRANCH   6   7
ENDBRANCH   5   6
ENDBRANCH   4   5
ENDBRANCH   3   4
ENDBRANCH   2   3
ENDBRANCH   1   2
BRANCH   1  12
ATOM     12  C   UNL     1      46.337  25.997   3.777  1.00  0.00     0.000 C 
BRANCH  12  13
ATOM     13  C   UNL     1      47.039  26.394   5.081  1.00  0.00    -0.000 C 
BRANCH  13  14
ATOM     14  C   UNL     1      46.082  27.156   6.011  1.00  0.00    -0.000 C 
BRANCH  14  15
ATOM     15  C   UNL     1      46.639  28.522   6.441  1.00  0.00    -0.000 C 
BRANCH  15  16
ATOM     16  C   UNL     1      45.530  29.535   6.777  1.00  0.00    -0.000 C 
BRANCH  16  17
ATOM     17  C   UNL     1      45.137  29.507   8.262  1.00  0.00    -0.000 C 
BRANCH  17  18
ATOM     18  C   UNL     1      46.282  29.019   9.166  1.00  0.00    -0.000 C 
BRANCH  18  19
ATOM     19  C   UNL     1      45.832  27.928  10.149  1.00  0.00    -0.003 C 
ATOM     20  C   UNL     1      45.164  26.744   9.450  1.00  0.00     0.004 C 
ENDBRANCH  18  19
ENDBRANCH  17  18
ENDBRANCH  16  17
ENDBRANCH  15  16
ENDBRANCH  14  15
ENDBRANCH  13  14
ENDBRANCH  12  13
ENDBRANCH   1  12
TORSDOF 16
ENDMDL
MODEL 5
REMARK VINA RESULT:    -3.904      1.193      1.681
REMARK INTER + INTRA:          -8.854
REMARK INTER:                  -8.146
REMARK INTRA:                  -0.708
REMARK UNBOUND:                -1.298
REMARK SMILES CCCCCCCCCCCCCCCCCC(=O)[O-]
REMARK SMILES IDX 10 1 11 2 12 3 13 4 14 5 15 6 16 7 17 8 18 9 19 10 20 11
REMARK SMILES IDX 9 12 8 13 7 14 6 15 5 16 4 17 3 18 2 19 1 20
REMARK H PARENT
REMARK Flexibility Score: inf
ROOT
ATOM      1  C   UNL     1      46.839  27.341   2.215  1.00  0.00     0.000 C 
ENDROOT
BRANCH   1   2
ATOM      2  C   UNL     1      46.928  27.947   0.799  1.00  0.00     0.000 C 
BRANCH   2   3
ATOM      3  C   UNL     1      45.557  28.293   0.186  1.00  0.00     0.000 C 
BRANCH   3   4
ATOM      4  C   UNL     1      45.572  28.544  -1.333  1.00  0.00     0.000 C 
BRANCH   4   5
ATOM      5  C   UNL     1      45.034  27.382  -2.194  1.00  0.00     0.000 C 
BRANCH   5   6
ATOM      6  C   UNL     1      45.062  27.626  -3.714  1.00  0.00     0.000 C 
BRANCH   6   7
ATOM      7  C   UNL     1      44.481  28.994  -4.112  1.00  0.00     0.006 C 
BRANCH   7   8
ATOM      8  C   UNL     1      43.661  28.922  -5.406  1.00  0.00     0.053 C 
BRANCH   8   9
ATOM      9  C   UNL     1      42.198  28.756  -5.132  1.00  0.00     0.041 C 
ATOM     10  O   UNL     1      41.348  29.345  -5.852  1.00  0.00    -0.550 OA
ATOM     11  O   UNL     1      41.772  27.973  -4.067  1.00  0.00    -0.550 OA
ENDBRANCH   8   9
ENDBRANCH   7   8
ENDBRANCH   6   7
ENDBRANCH   5   6
ENDBRANCH   4   5
ENDBRANCH   3   4
ENDBRANCH   2   3
ENDBRANCH   1   2
BRANCH   1  12
ATOM     12  C   UNL     1      45.478  27.595   2.880  1.00  0.00     0.000 C 
BRANCH  12  13
ATOM     13  C   UNL     1      45.078  26.421   3.782  1.00  0.00    -0.000 C 
BRANCH  13  14
ATOM     14  C   UNL     1      45.934  26.393   5.058  1.00  0.00    -0.000 C 
BRANCH  14  15
ATOM     15  C   UNL     1      46.258  27.801   5.583  1.00  0.00    -0.000 C 
BRANCH  15  16
ATOM     16  C   UNL     1      45.712  28.045   7.001  1.00  0.00    -0.000 C 
BRANCH  16  17
ATOM     17  C   UNL     1      45.780  26.789   7.883  1.00  0.00    -0.000 C 
BRANCH  17  18
ATOM     18  C   UNL     1      45.728  27.119   9.385  1.00  0.00    -0.000 C 
BRANCH  18  19
ATOM     19  C   UNL     1      44.840  28.335   9.690  1.00  0.00    -0.003 C 
ATOM     20  C   UNL     1      45.382  29.190  10.835  1.00  0.00     0.004 C 
ENDBRANCH  18  19
ENDBRANCH  17  18
ENDBRANCH  16  17
ENDBRANCH  15  16
ENDBRANCH  14  15
ENDBRANCH  13  14
ENDBRANCH  12  13
ENDBRANCH   1  12
TORSDOF 16
ENDMDL
MODEL 6
REMARK VINA RESULT:    -3.679      4.942     10.356
REMARK INTER + INTRA:          -8.419
REMARK INTER:                  -7.381
REMARK INTRA:                  -1.037
REMARK UNBOUND:                -1.298
REMARK SMILES CCCCCCCCCCCCCCCCCC(=O)[O-]
REMARK SMILES IDX 10 1 11 2 12 3 13 4 14 5 15 6 16 7 17 8 18 9 19 10 20 11
REMARK SMILES IDX 9 12 8 13 7 14 6 15 5 16 4 17 3 18 2 19 1 20
REMARK H PARENT
REMARK Flexibility Score: inf
ROOT
ATOM      1  C   UNL     1      45.528  27.937   1.239  1.00  0.00     0.000 C 
ENDROOT
BRANCH   1   2
ATOM      2  C   UNL     1      44.909  28.075   2.646  1.00  0.00     0.000 C 
BRANCH   2   3
ATOM      3  C   UNL     1      44.348  26.755   3.208  1.00  0.00     0.000 C 
BRANCH   3   4
ATOM      4  C   UNL     1      45.301  25.996   4.151  1.00  0.00     0.000 C 
BRANCH   4   5
ATOM      5  C   UNL     1      46.491  26.821   4.682  1.00  0.00     0.000 C 
BRANCH   5   6
ATOM      6  C   UNL     1      46.886  26.535   6.142  1.00  0.00     0.000 C 
BRANCH   6   7
ATOM      7  C   UNL     1      45.733  26.773   7.132  1.00  0.00     0.006 C 
BRANCH   7   8
ATOM      8  C   UNL     1      46.131  27.722   8.269  1.00  0.00     0.053 C 
BRANCH   8   9
ATOM      9  C   UNL     1      45.481  27.346   9.565  1.00  0.00     0.041 C 
ATOM     10  O   UNL     1      45.765  26.252  10.121  1.00  0.00    -0.550 OA
ATOM     11  O   UNL     1      44.543  28.189  10.146  1.00  0.00    -0.550 OA
ENDBRANCH   8   9
ENDBRANCH   7   8
ENDBRANCH   6   7
ENDBRANCH   5   6
ENDBRANCH   4   5
ENDBRANCH   3   4
ENDBRANCH   2   3
ENDBRANCH   1   2
BRANCH   1  12
ATOM     12  C   UNL     1      45.446  29.240   0.430  1.00  0.00     0.000 C 
BRANCH  12  13
ATOM     13  C   UNL     1      45.662  28.975  -1.065  1.00  0.00    -0.000 C 
BRANCH  13  14
ATOM     14  C   UNL     1      44.775  29.894  -1.919  1.00  0.00    -0.000 C 
BRANCH  14  15
ATOM     15  C   UNL     1      45.348  30.125  -3.327  1.00  0.00    -0.000 C 
BRANCH  15  16
ATOM     16  C   UNL     1      44.261  30.125  -4.416  1.00  0.00    -0.000 C 
BRANCH  16  17
ATOM     17  C   UNL     1      42.862  29.827  -3.853  1.00  0.00    -0.000 C 
BRANCH  17  18
ATOM     18  C   UNL     1      42.303  28.480  -4.344  1.00  0.00    -0.000 C 
BRANCH  18  19
ATOM     19  C   UNL     1      43.397  27.413  -4.505  1.00  0.00    -0.003 C 
ATOM     20  C   UNL     1      43.364  26.362  -3.396  1.00  0.00     0.004 C 
ENDBRANCH  18  19
ENDBRANCH  17  18
ENDBRANCH  16  17
ENDBRANCH  15  16
ENDBRANCH  14  15
ENDBRANCH  13  14
ENDBRANCH  12  13
ENDBRANCH   1  12
TORSDOF 16
ENDMDL
MODEL 7
REMARK VINA RESULT:    -3.589      5.230     10.745
REMARK INTER + INTRA:          -8.243
REMARK INTER:                  -7.514
REMARK INTRA:                  -0.729
REMARK UNBOUND:                -1.298
REMARK SMILES CCCCCCCCCCCCCCCCCC(=O)[O-]
REMARK SMILES IDX 10 1 11 2 12 3 13 4 14 5 15 6 16 7 17 8 18 9 19 10 20 11
REMARK SMILES IDX 9 12 8 13 7 14 6 15 5 16 4 17 3 18 2 19 1 20
REMARK H PARENT
REMARK Flexibility Score: inf
ROOT
ATOM      1  C   UNL     1      44.531  28.309   3.085  1.00  0.00     0.000 C 
ENDROOT
BRANCH   1   2
ATOM      2  C   UNL     1      45.621  28.146   4.165  1.00  0.00     0.000 C 
BRANCH   2   3
ATOM      3  C   UNL     1      45.845  26.687   4.604  1.00  0.00     0.000 C 
BRANCH   3   4
ATOM      4  C   UNL     1      46.507  26.521   5.985  1.00  0.00     0.000 C 
BRANCH   4   5
ATOM      5  C   UNL     1      45.831  27.298   7.133  1.00  0.00     0.000 C 
BRANCH   5   6
ATOM      6  C   UNL     1      45.568  26.481   8.411  1.00  0.00     0.000 C 
BRANCH   6   7
ATOM      7  C   UNL     1      45.198  27.360   9.618  1.00  0.00     0.006 C 
BRANCH   7   8
ATOM      8  C   UNL     1      45.086  28.844   9.243  1.00  0.00     0.053 C 
BRANCH   8   9
ATOM      9  C   UNL     1      45.116  29.729  10.451  1.00  0.00     0.041 C 
ATOM     10  O   UNL     1      46.216  30.124  10.920  1.00  0.00    -0.550 OA
ATOM     11  O   UNL     1      43.930  30.097  11.075  1.00  0.00    -0.550 OA
ENDBRANCH   8   9
ENDBRANCH   7   8
ENDBRANCH   6   7
ENDBRANCH   5   6
ENDBRANCH   4   5
ENDBRANCH   3   4
ENDBRANCH   2   3
ENDBRANCH   1   2
BRANCH   1  12
ATOM     12  C   UNL     1      44.947  27.711   1.733  1.00  0.00     0.000 C 
BRANCH  12  13
ATOM     13  C   UNL     1      45.688  28.746   0.878  1.00  0.00    -0.000 C 
BRANCH  13  14
ATOM     14  C   UNL     1      45.662  28.352  -0.607  1.00  0.00    -0.000 C 
BRANCH  14  15
ATOM     15  C   UNL     1      45.738  29.569  -1.542  1.00  0.00    -0.000 C 
BRANCH  15  16
ATOM     16  C   UNL     1      45.033  29.327  -2.888  1.00  0.00    -0.000 C 
BRANCH  16  17
ATOM     17  C   UNL     1      44.440  27.913  -2.997  1.00  0.00    -0.000 C 
BRANCH  17  18
ATOM     18  C   UNL     1      43.879  27.616  -4.399  1.00  0.00    -0.000 C 
BRANCH  18  19
ATOM     19  C   UNL     1      42.418  28.065  -4.555  1.00  0.00    -0.003 C 
ATOM     20  C   UNL     1      42.248  29.168  -5.599  1.00  0.00     0.004 C 
ENDBRANCH  18  19
ENDBRANCH  17  18
ENDBRANCH  16  17
ENDBRANCH  15  16
ENDBRANCH  14  15
ENDBRANCH  13  14
ENDBRANCH  12  13
ENDBRANCH   1  12
TORSDOF 16
ENDMDL
MODEL 8
REMARK VINA RESULT:    -3.576      1.401      2.520
REMARK INTER + INTRA:          -8.219
REMARK INTER:                  -7.521
REMARK INTRA:                  -0.698
REMARK UNBOUND:                -1.298
REMARK SMILES CCCCCCCCCCCCCCCCCC(=O)[O-]
REMARK SMILES IDX 10 1 11 2 12 3 13 4 14 5 15 6 16 7 17 8 18 9 19 10 20 11
REMARK SMILES IDX 9 12 8 13 7 14 6 15 5 16 4 17 3 18 2 19 1 20
REMARK H PARENT
REMARK Flexibility Score: inf
ROOT
ATOM      1  C   UNL     1      46.072  28.083  -0.003  1.00  0.00     0.000 C 
ENDROOT
BRANCH   1   2
ATOM      2  C   UNL     1      45.329  28.607  -1.250  1.00  0.00     0.000 C 
BRANCH   2   3
ATOM      3  C   UNL     1      45.678  27.847  -2.543  1.00  0.00     0.000 C 
BRANCH   3   4
ATOM      4  C   UNL     1      46.624  28.597  -3.500  1.00  0.00     0.000 C 
BRANCH   4   5
ATOM      5  C   UNL     1      46.796  27.952  -4.890  1.00  0.00     0.000 C 
BRANCH   5   6
ATOM      6  C   UNL     1      45.488  27.521  -5.578  1.00  0.00     0.000 C 
BRANCH   6   7
ATOM      7  C   UNL     1      44.612  28.714  -6.000  1.00  0.00     0.006 C 
BRANCH   7   8
ATOM      8  C   UNL     1      43.114  28.412  -5.861  1.00  0.00     0.053 C 
BRANCH   8   9
ATOM      9  C   UNL     1      42.707  28.256  -4.428  1.00  0.00     0.041 C 
ATOM     10  O   UNL     1      42.680  27.114  -3.898  1.00  0.00    -0.550 OA
ATOM     11  O   UNL     1      42.332  29.368  -3.685  1.00  0.00    -0.550 OA
ENDBRANCH   8   9
ENDBRANCH   7   8
ENDBRANCH   6   7
ENDBRANCH   5   6
ENDBRANCH   4   5
ENDBRANCH   3   4
ENDBRANCH   2   3
ENDBRANCH   1   2
BRANCH   1  12
ATOM     12  C   UNL     1      45.284  28.319   1.295  1.00  0.00     0.000 C 
BRANCH  12  13
ATOM     13  C   UNL     1      45.955  27.619   2.482  1.00  0.00    -0.000 C 
BRANCH  13  14
ATOM     14  C   UNL     1      44.906  27.009   3.424  1.00  0.00    -0.000 C 
BRANCH  14  15
ATOM     15  C   UNL     1      45.538  26.310   4.639  1.00  0.00    -0.000 C 
BRANCH  15  16
ATOM     16  C   UNL     1      45.974  27.301   5.732  1.00  0.00    -0.000 C 
BRANCH  16  17
ATOM     17  C   UNL     1      45.897  26.693   7.142  1.00  0.00    -0.000 C 
BRANCH  17  18
ATOM     18  C   UNL     1      46.103  27.743   8.248  1.00  0.00    -0.000 C 
BRANCH  18  19
ATOM     19  C   UNL     1      45.183  28.962   8.081  1.00  0.00    -0.003 C 
ATOM     20  C   UNL     1      44.816  29.612   9.415  1.00  0.00     0.004 C 
ENDBRANCH  18  19
ENDBRANCH  17  18
ENDBRANCH  16  17
ENDBRANCH  15  16
ENDBRANCH  14  15
ENDBRANCH  13  14
ENDBRANCH  12  13
ENDBRANCH   1  12
TORSDOF 16
ENDMDL
MODEL 9
REMARK VINA RESULT:    -3.445      2.173      4.067
REMARK INTER + INTRA:          -7.964
REMARK INTER:                  -6.432
REMARK INTRA:                  -1.532
REMARK UNBOUND:                -1.298
REMARK SMILES CCCCCCCCCCCCCCCCCC(=O)[O-]
REMARK SMILES IDX 10 1 11 2 12 3 13 4 14 5 15 6 16 7 17 8 18 9 19 10 20 11
REMARK SMILES IDX 9 12 8 13 7 14 6 15 5 16 4 17 3 18 2 19 1 20
REMARK H PARENT
REMARK Flexibility Score: inf
ROOT
ATOM      1  C   UNL     1      45.250  28.172  -1.139  1.00  0.00     0.000 C 
ENDROOT
BRANCH   1   2
ATOM      2  C   UNL     1      45.290  27.457  -2.506  1.00  0.00     0.000 C 
BRANCH   2   3
ATOM      3  C   UNL     1      46.669  27.505  -3.190  1.00  0.00     0.000 C 
BRANCH   3   4
ATOM      4  C   UNL     1      46.761  28.462  -4.394  1.00  0.00     0.000 C 
BRANCH   4   5
ATOM      5  C   UNL     1      46.308  27.863  -5.742  1.00  0.00     0.000 C 
BRANCH   5   6
ATOM      6  C   UNL     1      44.784  27.806  -5.953  1.00  0.00     0.000 C 
BRANCH   6   7
ATOM      7  C   UNL     1      44.210  29.109  -6.535  1.00  0.00     0.006 C 
BRANCH   7   8
ATOM      8  C   UNL     1      43.626  30.022  -5.449  1.00  0.00     0.053 C 
BRANCH   8   9
ATOM      9  C   UNL     1      42.451  29.395  -4.765  1.00  0.00     0.041 C 
ATOM     10  O   UNL     1      42.383  29.383  -3.507  1.00  0.00    -0.550 OA
ATOM     11  O   UNL     1      41.444  28.800  -5.514  1.00  0.00    -0.550 OA
ENDBRANCH   8   9
ENDBRANCH   7   8
ENDBRANCH   6   7
ENDBRANCH   5   6
ENDBRANCH   4   5
ENDBRANCH   3   4
ENDBRANCH   2   3
ENDBRANCH   1   2
BRANCH   1  12
ATOM     12  C   UNL     1      46.653  28.451  -0.579  1.00  0.00     0.000 C 
BRANCH  12  13
ATOM     13  C   UNL     1      46.721  28.134   0.920  1.00  0.00    -0.000 C 
BRANCH  13  14
ATOM     14  C   UNL     1      45.339  28.281   1.575  1.00  0.00    -0.000 C 
BRANCH  14  15
ATOM     15  C   UNL     1      45.321  29.340   2.688  1.00  0.00    -0.000 C 
BRANCH  15  16
ATOM     16  C   UNL     1      46.441  29.131   3.723  1.00  0.00    -0.000 C 
BRANCH  16  17
ATOM     17  C   UNL     1      45.929  28.497   5.025  1.00  0.00    -0.000 C 
BRANCH  17  18
ATOM     18  C   UNL     1      46.692  27.212   5.394  1.00  0.00    -0.000 C 
BRANCH  18  19
ATOM     19  C   UNL     1      46.528  26.107   4.339  1.00  0.00    -0.003 C 
ATOM     20  C   UNL     1      45.074  25.668   4.166  1.00  0.00     0.004 C 
ENDBRANCH  18  19
ENDBRANCH  17  18
ENDBRANCH  16  17
ENDBRANCH  15  16
ENDBRANCH  14  15
ENDBRANCH  13  14
ENDBRANCH  12  13
ENDBRANCH   1  12
TORSDOF 16
ENDMDL
