MODEL 1
REMARK VINA RESULT:    -5.219      0.000      0.000
REMARK INTER + INTRA:          -7.577
REMARK INTER:                  -7.660
REMARK INTRA:                   0.083
REMARK UNBOUND:                 0.083
REMARK SMILES O=c1c(O[C@@H]2O[C@H](CO)[C@H](O)[C@@H](O)[C@H]2O)c(-c2ccc(O)c(O)c2)oc2cc(O)cc(O)c12
REMARK SMILES IDX 4 1 3 2 16 3 25 4 2 5 26 6 1 7 33 8 27 9 31 10 28 11 30 12
REMARK SMILES IDX 17 13 18 14 19 15 20 16 24 17 22 18 21 19 23 21 32 23 29 25
REMARK SMILES IDX 5 27 14 28 6 29 12 30 7 31 10 32 15 33 13 35 8 37 9 38 11 40
REMARK H PARENT 21 20 23 22 32 24 29 26 15 34 13 36 9 39 11 41
REMARK Flexibility Score: inf
ROOT
ATOM      1  O   UNL     1       3.704 -17.772   6.800  1.00  0.00    -0.454 OA
ENDROOT
BRANCH   1   2
ATOM      2  C   UNL     1       3.965 -16.391   6.781  1.00  0.00     0.214 A 
ATOM      3  C   UNL     1       4.455 -15.680   7.898  1.00  0.00     0.180 A 
ATOM      4  O   UNL     1       4.740 -14.387   7.784  1.00  0.00    -0.452 OA
ATOM      5  C   UNL     1       3.721 -15.688   5.596  1.00  0.00     0.239 A 
ATOM      6  C   UNL     1       4.545 -13.689   6.671  1.00  0.00     0.146 A 
ATOM      7  O   UNL     1       3.257 -16.310   4.600  1.00  0.00    -0.285 OA
ATOM      8  C   UNL     1       4.009 -14.310   5.519  1.00  0.00     0.111 A 
ATOM      9  C   UNL     1       4.848 -12.323   6.661  1.00  0.00     0.094 A 
ATOM     10  C   UNL     1       3.762 -13.526   4.366  1.00  0.00     0.134 A 
ATOM     11  C   UNL     1       4.609 -11.555   5.518  1.00  0.00     0.123 A 
ATOM     12  C   UNL     1       4.070 -12.157   4.374  1.00  0.00     0.093 A 
BRANCH   3  13
ATOM     13  C   UNL     1       4.636 -16.295   9.224  1.00  0.00     0.025 A 
ATOM     14  C   UNL     1       5.424 -15.643  10.183  1.00  0.00     0.016 A 
ATOM     15  C   UNL     1       5.539 -16.164  11.476  1.00  0.00     0.051 A 
ATOM     16  C   UNL     1       4.850 -17.330  11.827  1.00  0.00     0.157 A 
ATOM     17  C   UNL     1       3.931 -17.456   9.582  1.00  0.00     0.062 A 
ATOM     18  C   UNL     1       4.045 -17.978  10.879  1.00  0.00     0.158 A 
BRANCH  16  19
ATOM     19  O   UNL     1       4.954 -17.844  13.118  1.00  0.00    -0.504 OA
ATOM     20  H   UNL     1       5.429 -18.720  13.304  1.00  0.00     0.293 HD
ENDBRANCH  16  19
BRANCH  18  21
ATOM     21  O   UNL     1       3.353 -19.132  11.238  1.00  0.00    -0.504 OA
ATOM     22  H   UNL     1       3.821 -20.029  11.320  1.00  0.00     0.293 HD
ENDBRANCH  18  21
ENDBRANCH   3  13
BRANCH  10  23
ATOM     23  O   UNL     1       3.199 -14.094   3.225  1.00  0.00    -0.507 OA
ATOM     24  H   UNL     1       2.757 -13.537   2.507  1.00  0.00     0.293 HD
ENDBRANCH  10  23
BRANCH  11  25
ATOM     25  O   UNL     1       4.905 -10.193   5.532  1.00  0.00    -0.508 OA
ATOM     26  H   UNL     1       4.585  -9.590   6.282  1.00  0.00     0.293 HD
ENDBRANCH  11  25
ENDBRANCH   1   2
BRANCH   1  27
ATOM     27  C   UNL     1       4.493 -18.800   6.181  1.00  0.00     0.339 C 
ATOM     28  C   UNL     1       4.828 -19.967   7.144  1.00  0.00     0.214 C 
ATOM     29  O   UNL     1       3.825 -19.270   5.024  1.00  0.00    -0.332 OA
ATOM     30  C   UNL     1       5.644 -21.049   6.410  1.00  0.00     0.180 C 
ATOM     31  C   UNL     1       4.672 -20.121   4.271  1.00  0.00     0.179 C 
ATOM     32  C   UNL     1       4.970 -21.416   5.064  1.00  0.00     0.177 C 
BRANCH  28  33
ATOM     33  O   UNL     1       5.547 -19.473   8.247  1.00  0.00    -0.384 OA
ATOM     34  H   UNL     1       6.367 -20.029   8.330  1.00  0.00     0.211 HD
ENDBRANCH  28  33
BRANCH  30  35
ATOM     35  O   UNL     1       6.959 -20.597   6.188  1.00  0.00    -0.387 OA
ATOM     36  H   UNL     1       7.137 -20.729   5.215  1.00  0.00     0.211 HD
ENDBRANCH  30  35
BRANCH  31  37
ATOM     37  C   UNL     1       3.996 -20.416   2.924  1.00  0.00     0.191 C 
BRANCH  37  38
ATOM     38  O   UNL     1       3.577 -21.749   2.875  1.00  0.00    -0.394 OA
ATOM     39  H   UNL     1       3.702 -22.112   3.792  1.00  0.00     0.210 HD
ENDBRANCH  37  38
ENDBRANCH  31  37
BRANCH  32  40
ATOM     40  O   UNL     1       3.779 -22.125   5.298  1.00  0.00    -0.387 OA
ATOM     41  H   UNL     1       3.036 -21.477   5.178  1.00  0.00     0.211 HD
ENDBRANCH  32  40
ENDBRANCH   1  27
TORSDOF 12
ENDMDL
MODEL 2
REMARK VINA RESULT:    -4.633      1.586      5.642
REMARK INTER + INTRA:          -6.717
REMARK INTER:                  -6.336
REMARK INTRA:                  -0.381
REMARK UNBOUND:                 0.083
REMARK SMILES O=c1c(O[C@@H]2O[C@H](CO)[C@H](O)[C@@H](O)[C@H]2O)c(-c2ccc(O)c(O)c2)oc2cc(O)cc(O)c12
REMARK SMILES IDX 4 1 3 2 16 3 25 4 2 5 26 6 1 7 33 8 27 9 31 10 28 11 30 12
REMARK SMILES IDX 17 13 18 14 19 15 20 16 24 17 22 18 21 19 23 21 32 23 29 25
REMARK SMILES IDX 5 27 14 28 6 29 12 30 7 31 10 32 15 33 13 35 8 37 9 38 11 40
REMARK H PARENT 21 20 23 22 32 24 29 26 15 34 13 36 9 39 11 41
REMARK Flexibility Score: inf
ROOT
ATOM      1  O   UNL     1       5.003 -17.586   7.345  1.00  0.00    -0.454 OA
ENDROOT
BRANCH   1   2
ATOM      2  C   UNL     1       4.572 -16.591   6.451  1.00  0.00     0.214 A 
ATOM      3  C   UNL     1       3.990 -16.876   5.197  1.00  0.00     0.180 A 
ATOM      4  O   UNL     1       3.546 -15.882   4.434  1.00  0.00    -0.452 OA
ATOM      5  C   UNL     1       4.734 -15.251   6.824  1.00  0.00     0.239 A 
ATOM      6  C   UNL     1       3.660 -14.599   4.762  1.00  0.00     0.146 A 
ATOM      7  O   UNL     1       5.279 -14.986   7.932  1.00  0.00    -0.285 OA
ATOM      8  C   UNL     1       4.277 -14.222   5.977  1.00  0.00     0.111 A 
ATOM      9  C   UNL     1       3.190 -13.626   3.875  1.00  0.00     0.094 A 
ATOM     10  C   UNL     1       4.433 -12.846   6.270  1.00  0.00     0.134 A 
ATOM     11  C   UNL     1       3.339 -12.269   4.173  1.00  0.00     0.123 A 
ATOM     12  C   UNL     1       3.956 -11.882   5.369  1.00  0.00     0.093 A 
BRANCH   3  13
ATOM     13  C   UNL     1       3.877 -18.242   4.657  1.00  0.00     0.025 A 
ATOM     14  C   UNL     1       3.022 -18.485   3.573  1.00  0.00     0.016 A 
ATOM     15  C   UNL     1       2.964 -19.753   2.988  1.00  0.00     0.051 A 
ATOM     16  C   UNL     1       3.778 -20.786   3.468  1.00  0.00     0.157 A 
ATOM     17  C   UNL     1       4.707 -19.273   5.127  1.00  0.00     0.062 A 
ATOM     18  C   UNL     1       4.651 -20.545   4.540  1.00  0.00     0.158 A 
BRANCH  16  19
ATOM     19  O   UNL     1       3.731 -22.047   2.879  1.00  0.00    -0.504 OA
ATOM     20  H   UNL     1       2.889 -22.610   2.896  1.00  0.00     0.293 HD
ENDBRANCH  16  19
BRANCH  18  21
ATOM     21  O   UNL     1       5.467 -21.574   5.006  1.00  0.00    -0.504 OA
ATOM     22  H   UNL     1       6.440 -21.645   4.731  1.00  0.00     0.293 HD
ENDBRANCH  18  21
ENDBRANCH   3  13
BRANCH  10  23
ATOM     23  O   UNL     1       5.070 -12.434   7.440  1.00  0.00    -0.507 OA
ATOM     24  H   UNL     1       5.868 -11.813   7.429  1.00  0.00     0.293 HD
ENDBRANCH  10  23
BRANCH  11  25
ATOM     25  O   UNL     1       2.875 -11.312   3.271  1.00  0.00    -0.508 OA
ATOM     26  H   UNL     1       2.752 -11.529   2.288  1.00  0.00     0.293 HD
ENDBRANCH  11  25
ENDBRANCH   1   2
BRANCH   1  27
ATOM     27  C   UNL     1       4.259 -18.122   8.452  1.00  0.00     0.339 C 
ATOM     28  C   UNL     1       4.903 -19.398   9.050  1.00  0.00     0.214 C 
ATOM     29  O   UNL     1       4.101 -17.119   9.439  1.00  0.00    -0.332 OA
ATOM     30  C   UNL     1       4.078 -19.900  10.251  1.00  0.00     0.180 C 
ATOM     31  C   UNL     1       3.190 -17.543  10.438  1.00  0.00     0.179 C 
ATOM     32  C   UNL     1       3.779 -18.735  11.228  1.00  0.00     0.177 C 
BRANCH  28  33
ATOM     33  O   UNL     1       4.983 -20.392   8.060  1.00  0.00    -0.384 OA
ATOM     34  H   UNL     1       5.496 -20.006   7.302  1.00  0.00     0.211 HD
ENDBRANCH  28  33
BRANCH  30  35
ATOM     35  O   UNL     1       2.875 -20.481   9.805  1.00  0.00    -0.387 OA
ATOM     36  H   UNL     1       2.765 -20.195   8.855  1.00  0.00     0.211 HD
ENDBRANCH  30  35
BRANCH  31  37
ATOM     37  C   UNL     1       2.875 -16.348  11.351  1.00  0.00     0.191 C 
BRANCH  37  38
ATOM     38  O   UNL     1       4.057 -15.823  11.884  1.00  0.00    -0.394 OA
ATOM     39  H   UNL     1       3.782 -15.098  12.505  1.00  0.00     0.210 HD
ENDBRANCH  37  38
ENDBRANCH  31  37
BRANCH  32  40
ATOM     40  O   UNL     1       4.958 -18.344  11.888  1.00  0.00    -0.387 OA
ATOM     41  H   UNL     1       5.154 -19.051  12.558  1.00  0.00     0.211 HD
ENDBRANCH  32  40
ENDBRANCH   1  27
TORSDOF 12
ENDMDL
MODEL 3
REMARK VINA RESULT:    -4.231      1.355      5.968
REMARK INTER + INTRA:          -6.126
REMARK INTER:                  -7.141
REMARK INTRA:                   1.015
REMARK UNBOUND:                 0.083
REMARK SMILES O=c1c(O[C@@H]2O[C@H](CO)[C@H](O)[C@@H](O)[C@H]2O)c(-c2ccc(O)c(O)c2)oc2cc(O)cc(O)c12
REMARK SMILES IDX 4 1 3 2 16 3 25 4 2 5 26 6 1 7 33 8 27 9 31 10 28 11 30 12
REMARK SMILES IDX 17 13 18 14 19 15 20 16 24 17 22 18 21 19 23 21 32 23 29 25
REMARK SMILES IDX 5 27 14 28 6 29 12 30 7 31 10 32 15 33 13 35 8 37 9 38 11 40
REMARK H PARENT 21 20 23 22 32 24 29 26 15 34 13 36 9 39 11 41
REMARK Flexibility Score: inf
ROOT
ATOM      1  O   UNL     1       2.966 -18.242   5.848  1.00  0.00    -0.454 OA
ENDROOT
BRANCH   1   2
ATOM      2  C   UNL     1       3.442 -17.719   7.063  1.00  0.00     0.214 A 
ATOM      3  C   UNL     1       3.889 -16.388   7.211  1.00  0.00     0.180 A 
ATOM      4  O   UNL     1       4.263 -15.947   8.407  1.00  0.00    -0.452 OA
ATOM      5  C   UNL     1       3.478 -18.564   8.179  1.00  0.00     0.239 A 
ATOM      6  C   UNL     1       4.290 -16.710   9.495  1.00  0.00     0.146 A 
ATOM      7  O   UNL     1       3.105 -19.764   8.049  1.00  0.00    -0.285 OA
ATOM      8  C   UNL     1       3.907 -18.070   9.426  1.00  0.00     0.111 A 
ATOM      9  C   UNL     1       4.730 -16.159  10.703  1.00  0.00     0.094 A 
ATOM     10  C   UNL     1       3.999 -18.870  10.591  1.00  0.00     0.134 A 
ATOM     11  C   UNL     1       4.812 -16.951  11.851  1.00  0.00     0.123 A 
ATOM     12  C   UNL     1       4.445 -18.301  11.794  1.00  0.00     0.093 A 
BRANCH   3  13
ATOM     13  C   UNL     1       4.003 -15.450   6.081  1.00  0.00     0.025 A 
ATOM     14  C   UNL     1       3.605 -15.861   4.802  1.00  0.00     0.016 A 
ATOM     15  C   UNL     1       3.622 -14.961   3.732  1.00  0.00     0.051 A 
ATOM     16  C   UNL     1       4.017 -13.634   3.937  1.00  0.00     0.157 A 
ATOM     17  C   UNL     1       4.383 -14.114   6.291  1.00  0.00     0.062 A 
ATOM     18  C   UNL     1       4.399 -13.210   5.219  1.00  0.00     0.158 A 
BRANCH  16  19
ATOM     19  O   UNL     1       4.024 -12.732   2.875  1.00  0.00    -0.504 OA
ATOM     20  H   UNL     1       4.872 -12.522   2.362  1.00  0.00     0.293 HD
ENDBRANCH  16  19
BRANCH  18  21
ATOM     21  O   UNL     1       4.780 -11.885   5.418  1.00  0.00    -0.504 OA
ATOM     22  H   UNL     1       4.830 -11.481   6.347  1.00  0.00     0.293 HD
ENDBRANCH  18  21
ENDBRANCH   3  13
BRANCH  10  23
ATOM     23  O   UNL     1       3.668 -20.223  10.554  1.00  0.00    -0.507 OA
ATOM     24  H   UNL     1       3.671 -20.755   9.695  1.00  0.00     0.293 HD
ENDBRANCH  10  23
BRANCH  11  25
ATOM     25  O   UNL     1       5.266 -16.388  13.043  1.00  0.00    -0.508 OA
ATOM     26  H   UNL     1       5.463 -16.960  13.857  1.00  0.00     0.293 HD
ENDBRANCH  11  25
ENDBRANCH   1   2
BRANCH   1  27
ATOM     27  C   UNL     1       3.379 -19.468   5.224  1.00  0.00     0.339 C 
ATOM     28  C   UNL     1       3.895 -19.265   3.777  1.00  0.00     0.214 C 
ATOM     29  O   UNL     1       4.359 -20.096   6.031  1.00  0.00    -0.332 OA
ATOM     30  C   UNL     1       4.354 -20.610   3.180  1.00  0.00     0.180 C 
ATOM     31  C   UNL     1       4.626 -21.406   5.562  1.00  0.00     0.179 C 
ATOM     32  C   UNL     1       5.293 -21.348   4.167  1.00  0.00     0.177 C 
BRANCH  28  33
ATOM     33  O   UNL     1       2.875 -18.702   2.991  1.00  0.00    -0.384 OA
ATOM     34  H   UNL     1       2.011 -18.997   3.383  1.00  0.00     0.211 HD
ENDBRANCH  28  33
BRANCH  30  35
ATOM     35  O   UNL     1       3.238 -21.413   2.877  1.00  0.00    -0.387 OA
ATOM     36  H   UNL     1       3.227 -22.142   3.559  1.00  0.00     0.211 HD
ENDBRANCH  30  35
BRANCH  31  37
ATOM     37  C   UNL     1       5.511 -22.124   6.592  1.00  0.00     0.191 C 
BRANCH  37  38
ATOM     38  O   UNL     1       5.489 -21.437   7.810  1.00  0.00    -0.394 OA
ATOM     39  H   UNL     1       5.707 -20.491   7.598  1.00  0.00     0.210 HD
ENDBRANCH  37  38
ENDBRANCH  31  37
BRANCH  32  40
ATOM     40  O   UNL     1       6.529 -20.682   4.248  1.00  0.00    -0.387 OA
ATOM     41  H   UNL     1       7.186 -21.247   3.762  1.00  0.00     0.211 HD
ENDBRANCH  32  40
ENDBRANCH   1  27
TORSDOF 12
ENDMDL
MODEL 4
REMARK VINA RESULT:    -3.805      1.107      2.489
REMARK INTER + INTRA:          -5.502
REMARK INTER:                  -6.449
REMARK INTRA:                   0.947
REMARK UNBOUND:                 0.083
REMARK SMILES O=c1c(O[C@@H]2O[C@H](CO)[C@H](O)[C@@H](O)[C@H]2O)c(-c2ccc(O)c(O)c2)oc2cc(O)cc(O)c12
REMARK SMILES IDX 4 1 3 2 16 3 25 4 2 5 26 6 1 7 33 8 27 9 31 10 28 11 30 12
REMARK SMILES IDX 17 13 18 14 19 15 20 16 24 17 22 18 21 19 23 21 32 23 29 25
REMARK SMILES IDX 5 27 14 28 6 29 12 30 7 31 10 32 15 33 13 35 8 37 9 38 11 40
REMARK H PARENT 21 20 23 22 32 24 29 26 15 34 13 36 9 39 11 41
REMARK Flexibility Score: inf
ROOT
ATOM      1  O   UNL     1       2.875 -18.218   6.219  1.00  0.00    -0.454 OA
ENDROOT
BRANCH   1   2
ATOM      2  C   UNL     1       3.374 -16.908   6.324  1.00  0.00     0.214 A 
ATOM      3  C   UNL     1       3.885 -16.368   7.524  1.00  0.00     0.180 A 
ATOM      4  O   UNL     1       4.401 -15.143   7.529  1.00  0.00    -0.452 OA
ATOM      5  C   UNL     1       3.356 -16.099   5.181  1.00  0.00     0.239 A 
ATOM      6  C   UNL     1       4.423 -14.352   6.461  1.00  0.00     0.146 A 
ATOM      7  O   UNL     1       2.875 -16.564   4.110  1.00  0.00    -0.285 OA
ATOM      8  C   UNL     1       3.885 -14.794   5.230  1.00  0.00     0.111 A 
ATOM      9  C   UNL     1       4.960 -13.066   6.577  1.00  0.00     0.094 A 
ATOM     10  C   UNL     1       3.875 -13.908   4.126  1.00  0.00     0.134 A 
ATOM     11  C   UNL     1       4.955 -12.198   5.482  1.00  0.00     0.123 A 
ATOM     12  C   UNL     1       4.416 -12.620   4.261  1.00  0.00     0.093 A 
BRANCH   3  13
ATOM     13  C   UNL     1       3.846 -17.087   8.808  1.00  0.00     0.025 A 
ATOM     14  C   UNL     1       3.167 -18.311   8.892  1.00  0.00     0.016 A 
ATOM     15  C   UNL     1       3.190 -19.053  10.076  1.00  0.00     0.051 A 
ATOM     16  C   UNL     1       3.911 -18.589  11.182  1.00  0.00     0.157 A 
ATOM     17  C   UNL     1       4.584 -16.630   9.913  1.00  0.00     0.062 A 
ATOM     18  C   UNL     1       4.608 -17.374  11.101  1.00  0.00     0.158 A 
BRANCH  16  19
ATOM     19  O   UNL     1       3.944 -19.333  12.360  1.00  0.00    -0.504 OA
ATOM     20  H   UNL     1       3.377 -19.084  13.162  1.00  0.00     0.293 HD
ENDBRANCH  16  19
BRANCH  18  21
ATOM     21  O   UNL     1       5.332 -16.923  12.202  1.00  0.00    -0.504 OA
ATOM     22  H   UNL     1       5.064 -16.086  12.708  1.00  0.00     0.293 HD
ENDBRANCH  18  21
ENDBRANCH   3  13
BRANCH  10  23
ATOM     23  O   UNL     1       3.319 -14.293   2.908  1.00  0.00    -0.507 OA
ATOM     24  H   UNL     1       3.282 -15.259   2.613  1.00  0.00     0.293 HD
ENDBRANCH  10  23
BRANCH  11  25
ATOM     25  O   UNL     1       5.482 -10.914   5.621  1.00  0.00    -0.508 OA
ATOM     26  H   UNL     1       6.326 -10.744   6.156  1.00  0.00     0.293 HD
ENDBRANCH  11  25
ENDBRANCH   1   2
BRANCH   1  27
ATOM     27  C   UNL     1       3.621 -19.390   5.855  1.00  0.00     0.339 C 
ATOM     28  C   UNL     1       4.721 -19.103   4.802  1.00  0.00     0.214 C 
ATOM     29  O   UNL     1       4.173 -19.975   7.021  1.00  0.00    -0.332 OA
ATOM     30  C   UNL     1       5.505 -20.391   4.483  1.00  0.00     0.180 C 
ATOM     31  C   UNL     1       4.726 -21.246   6.728  1.00  0.00     0.179 C 
ATOM     32  C   UNL     1       5.947 -21.094   5.790  1.00  0.00     0.177 C 
BRANCH  28  33
ATOM     33  O   UNL     1       4.129 -18.586   3.636  1.00  0.00    -0.384 OA
ATOM     34  H   UNL     1       4.870 -18.301   3.037  1.00  0.00     0.211 HD
ENDBRANCH  28  33
BRANCH  30  35
ATOM     35  O   UNL     1       4.715 -21.260   3.705  1.00  0.00    -0.387 OA
ATOM     36  H   UNL     1       5.350 -21.769   3.127  1.00  0.00     0.211 HD
ENDBRANCH  30  35
BRANCH  31  37
ATOM     37  C   UNL     1       5.099 -21.934   8.049  1.00  0.00     0.191 C 
BRANCH  37  38
ATOM     38  O   UNL     1       5.638 -21.003   8.943  1.00  0.00    -0.394 OA
ATOM     39  H   UNL     1       6.538 -21.346   9.189  1.00  0.00     0.210 HD
ENDBRANCH  37  38
ENDBRANCH  31  37
BRANCH  32  40
ATOM     40  O   UNL     1       6.954 -20.346   6.424  1.00  0.00    -0.387 OA
ATOM     41  H   UNL     1       6.959 -20.629   7.376  1.00  0.00     0.211 HD
ENDBRANCH  32  40
ENDBRANCH   1  27
TORSDOF 12
ENDMDL
MODEL 5
REMARK VINA RESULT:    -3.612      7.025     13.441
REMARK INTER + INTRA:          -5.218
REMARK INTER:                  -5.109
REMARK INTRA:                  -0.109
REMARK UNBOUND:                 0.083
REMARK SMILES O=c1c(O[C@@H]2O[C@H](CO)[C@H](O)[C@@H](O)[C@H]2O)c(-c2ccc(O)c(O)c2)oc2cc(O)cc(O)c12
REMARK SMILES IDX 4 1 3 2 16 3 25 4 2 5 26 6 1 7 33 8 27 9 31 10 28 11 30 12
REMARK SMILES IDX 17 13 18 14 19 15 20 16 24 17 22 18 21 19 23 21 32 23 29 25
REMARK SMILES IDX 5 27 14 28 6 29 12 30 7 31 10 32 15 33 13 35 8 37 9 38 11 40
REMARK H PARENT 21 20 23 22 32 24 29 26 15 34 13 36 9 39 11 41
REMARK Flexibility Score: inf
ROOT
ATOM      1  O   UNL     1       6.086  -5.275   3.764  1.00  0.00    -0.454 OA
ENDROOT
BRANCH   1   2
ATOM      2  C   UNL     1       6.114  -6.483   4.484  1.00  0.00     0.214 A 
ATOM      3  C   UNL     1       7.183  -6.857   5.326  1.00  0.00     0.180 A 
ATOM      4  O   UNL     1       7.108  -7.985   6.025  1.00  0.00    -0.452 OA
ATOM      5  C   UNL     1       5.028  -7.357   4.352  1.00  0.00     0.239 A 
ATOM      6  C   UNL     1       6.086  -8.830   5.946  1.00  0.00     0.146 A 
ATOM      7  O   UNL     1       4.080  -7.043   3.580  1.00  0.00    -0.285 OA
ATOM      8  C   UNL     1       4.995  -8.558   5.088  1.00  0.00     0.111 A 
ATOM      9  C   UNL     1       6.116 -10.007   6.700  1.00  0.00     0.094 A 
ATOM     10  C   UNL     1       3.948  -9.505   4.986  1.00  0.00     0.134 A 
ATOM     11  C   UNL     1       5.076 -10.935   6.602  1.00  0.00     0.123 A 
ATOM     12  C   UNL     1       3.995 -10.682   5.748  1.00  0.00     0.093 A 
BRANCH   3  13
ATOM     13  C   UNL     1       8.422  -6.070   5.447  1.00  0.00     0.025 A 
ATOM     14  C   UNL     1       9.661  -6.713   5.317  1.00  0.00     0.016 A 
ATOM     15  C   UNL     1      10.847  -5.974   5.342  1.00  0.00     0.051 A 
ATOM     16  C   UNL     1      10.804  -4.581   5.475  1.00  0.00     0.157 A 
ATOM     17  C   UNL     1       8.378  -4.671   5.564  1.00  0.00     0.062 A 
ATOM     18  C   UNL     1       9.567  -3.928   5.588  1.00  0.00     0.158 A 
BRANCH  16  19
ATOM     19  O   UNL     1      11.985  -3.841   5.488  1.00  0.00    -0.504 OA
ATOM     20  H   UNL     1      12.879  -4.271   5.695  1.00  0.00     0.293 HD
ENDBRANCH  16  19
BRANCH  18  21
ATOM     21  O   UNL     1       9.531  -2.541   5.709  1.00  0.00    -0.504 OA
ATOM     22  H   UNL     1      10.354  -2.009   5.968  1.00  0.00     0.293 HD
ENDBRANCH  18  21
ENDBRANCH   3  13
BRANCH  10  23
ATOM     23  O   UNL     1       2.875  -9.291   4.122  1.00  0.00    -0.507 OA
ATOM     24  H   UNL     1       2.223 -10.024   3.881  1.00  0.00     0.293 HD
ENDBRANCH  10  23
BRANCH  11  25
ATOM     25  O   UNL     1       5.130 -12.110   7.351  1.00  0.00    -0.508 OA
ATOM     26  H   UNL     1       4.697 -12.174   8.266  1.00  0.00     0.293 HD
ENDBRANCH  11  25
ENDBRANCH   1   2
BRANCH   1  27
ATOM     27  C   UNL     1       5.432  -4.059   4.160  1.00  0.00     0.339 C 
ATOM     28  C   UNL     1       3.887  -4.179   4.168  1.00  0.00     0.214 C 
ATOM     29  O   UNL     1       5.918  -3.658   5.429  1.00  0.00    -0.332 OA
ATOM     30  C   UNL     1       3.250  -2.855   4.634  1.00  0.00     0.180 C 
ATOM     31  C   UNL     1       5.461  -2.355   5.748  1.00  0.00     0.179 C 
ATOM     32  C   UNL     1       3.925  -2.358   5.937  1.00  0.00     0.177 C 
BRANCH  28  33
ATOM     33  O   UNL     1       3.436  -4.513   2.879  1.00  0.00    -0.384 OA
ATOM     34  H   UNL     1       2.549  -4.949   2.986  1.00  0.00     0.211 HD
ENDBRANCH  28  33
BRANCH  30  35
ATOM     35  O   UNL     1       3.363  -1.880   3.624  1.00  0.00    -0.387 OA
ATOM     36  H   UNL     1       2.727  -2.151   2.905  1.00  0.00     0.211 HD
ENDBRANCH  30  35
BRANCH  31  37
ATOM     37  C   UNL     1       6.194  -1.875   7.010  1.00  0.00     0.191 C 
BRANCH  37  38
ATOM     38  O   UNL     1       6.313  -2.924   7.927  1.00  0.00    -0.394 OA
ATOM     39  H   UNL     1       7.288  -3.057   8.070  1.00  0.00     0.210 HD
ENDBRANCH  37  38
ENDBRANCH  31  37
BRANCH  32  40
ATOM     40  O   UNL     1       3.572  -3.192   7.012  1.00  0.00    -0.387 OA
ATOM     41  H   UNL     1       3.853  -2.720   7.840  1.00  0.00     0.211 HD
ENDBRANCH  32  40
ENDBRANCH   1  27
TORSDOF 12
ENDMDL
