MODEL 1
REMARK VINA RESULT:    -3.366      0.000      0.000
REMARK INTER + INTRA:         -11.376
REMARK INTER:                  -8.876
REMARK INTRA:                  -2.500
REMARK UNBOUND:                -2.500
REMARK SMILES CCCCCCCCCCCCCCCCCCCCCCCCCCCCCC(=O)[O-]
REMARK SMILES IDX 16 1 17 2 18 3 19 4 20 5 21 6 22 7 23 8 24 9 25 10 26 11
REMARK SMILES IDX 27 12 28 13 29 14 30 15 31 16 32 17 15 18 14 19 13 20 12 21
REMARK SMILES IDX 11 22 10 23 9 24 8 25 7 26 6 27 5 28 4 29 3 30 2 31 1 32
REMARK H PARENT
REMARK Flexibility Score: inf
ROOT
ATOM      1  C   UNL     1      -4.042   1.135   9.680  1.00  0.00     0.000 C 
ENDROOT
BRANCH   1   2
ATOM      2  C   UNL     1      -3.489   2.508  10.125  1.00  0.00     0.000 C 
BRANCH   2   3
ATOM      3  C   UNL     1      -3.163   3.418   8.928  1.00  0.00     0.000 C 
BRANCH   3   4
ATOM      4  C   UNL     1      -3.726   4.845   9.108  1.00  0.00     0.000 C 
BRANCH   4   5
ATOM      5  C   UNL     1      -2.645   5.918   9.316  1.00  0.00     0.000 C 
BRANCH   5   6
ATOM      6  C   UNL     1      -1.222   5.335   9.329  1.00  0.00     0.000 C 
BRANCH   6   7
ATOM      7  C   UNL     1      -0.137   6.390   9.044  1.00  0.00     0.000 C 
BRANCH   7   8
ATOM      8  C   UNL     1      -0.574   7.853   9.253  1.00  0.00     0.000 C 
BRANCH   8   9
ATOM      9  C   UNL     1      -0.268   8.751   8.045  1.00  0.00     0.000 C 
BRANCH   9  10
ATOM     10  C   UNL     1       0.956   8.233   7.273  1.00  0.00     0.000 C 
BRANCH  10  11
ATOM     11  C   UNL     1       2.155   9.191   7.345  1.00  0.00     0.000 C 
BRANCH  11  12
ATOM     12  C   UNL     1       2.378   9.749   8.762  1.00  0.00     0.000 C 
BRANCH  12  13
ATOM     13  C   UNL     1       3.256   8.833   9.637  1.00  0.00     0.006 C 
BRANCH  13  14
ATOM     14  C   UNL     1       4.318   8.047   8.849  1.00  0.00     0.053 C 
BRANCH  14  15
ATOM     15  C   UNL     1       5.628   8.768   8.772  1.00  0.00     0.041 C 
ATOM     16  O   UNL     1       6.553   8.488   9.580  1.00  0.00    -0.550 OA
ATOM     17  O   UNL     1       5.835   9.737   7.800  1.00  0.00    -0.550 OA
ENDBRANCH  14  15
ENDBRANCH  13  14
ENDBRANCH  12  13
ENDBRANCH  11  12
ENDBRANCH  10  11
ENDBRANCH   9  10
ENDBRANCH   8   9
ENDBRANCH   7   8
ENDBRANCH   6   7
ENDBRANCH   5   6
ENDBRANCH   4   5
ENDBRANCH   3   4
ENDBRANCH   2   3
ENDBRANCH   1   2
BRANCH   1  18
ATOM     18  C   UNL     1      -5.566   1.008   9.837  1.00  0.00     0.000 C 
BRANCH  18  19
ATOM     19  C   UNL     1      -6.214   0.193   8.708  1.00  0.00     0.000 C 
BRANCH  19  20
ATOM     20  C   UNL     1      -7.621  -0.268   9.105  1.00  0.00     0.000 C 
BRANCH  20  21
ATOM     21  C   UNL     1      -8.695   0.612   8.447  1.00  0.00     0.000 C 
BRANCH  21  22
ATOM     22  C   UNL     1      -9.332   1.604   9.433  1.00  0.00     0.000 C 
BRANCH  22  23
ATOM     23  C   UNL     1     -10.055   2.764   8.725  1.00  0.00     0.000 C 
BRANCH  23  24
ATOM     24  C   UNL     1      -9.066   3.757   8.080  1.00  0.00    -0.000 C 
BRANCH  24  25
ATOM     25  C   UNL     1      -9.488   5.230   8.220  1.00  0.00    -0.000 C 
BRANCH  25  26
ATOM     26  C   UNL     1      -8.468   6.075   8.996  1.00  0.00    -0.000 C 
BRANCH  26  27
ATOM     27  C   UNL     1      -7.057   5.894   8.424  1.00  0.00    -0.000 C 
BRANCH  27  28
ATOM     28  C   UNL     1      -6.392   7.254   8.158  1.00  0.00    -0.000 C 
BRANCH  28  29
ATOM     29  C   UNL     1      -7.287   8.199   7.341  1.00  0.00    -0.000 C 
BRANCH  29  30
ATOM     30  C   UNL     1      -7.601   7.653   5.937  1.00  0.00    -0.000 C 
BRANCH  30  31
ATOM     31  C   UNL     1      -8.371   8.662   5.071  1.00  0.00    -0.003 C 
ATOM     32  C   UNL     1      -7.574   9.938   4.802  1.00  0.00     0.004 C 
ENDBRANCH  30  31
ENDBRANCH  29  30
ENDBRANCH  28  29
ENDBRANCH  27  28
ENDBRANCH  26  27
ENDBRANCH  25  26
ENDBRANCH  24  25
ENDBRANCH  23  24
ENDBRANCH  22  23
ENDBRANCH  21  22
ENDBRANCH  20  21
ENDBRANCH  19  20
ENDBRANCH  18  19
ENDBRANCH   1  18
TORSDOF 28
ENDMDL
MODEL 2
REMARK VINA RESULT:    -3.212      3.960      9.249
REMARK INTER + INTRA:         -10.969
REMARK INTER:                  -8.058
REMARK INTRA:                  -2.911
REMARK UNBOUND:                -2.500
REMARK SMILES CCCCCCCCCCCCCCCCCCCCCCCCCCCCCC(=O)[O-]
REMARK SMILES IDX 16 1 17 2 18 3 19 4 20 5 21 6 22 7 23 8 24 9 25 10 26 11
REMARK SMILES IDX 27 12 28 13 29 14 30 15 31 16 32 17 15 18 14 19 13 20 12 21
REMARK SMILES IDX 11 22 10 23 9 24 8 25 7 26 6 27 5 28 4 29 3 30 2 31 1 32
REMARK H PARENT
REMARK Flexibility Score: inf
ROOT
ATOM      1  C   UNL     1      -1.968   2.874   9.074  1.00  0.00     0.000 C 
ENDROOT
BRANCH   1   2
ATOM      2  C   UNL     1      -2.713   1.665   9.680  1.00  0.00     0.000 C 
BRANCH   2   3
ATOM      3  C   UNL     1      -4.235   1.884   9.728  1.00  0.00     0.000 C 
BRANCH   3   4
ATOM      4  C   UNL     1      -5.013   0.737   9.047  1.00  0.00     0.000 C 
BRANCH   4   5
ATOM      5  C   UNL     1      -6.276   0.304   9.809  1.00  0.00     0.000 C 
BRANCH   5   6
ATOM      6  C   UNL     1      -7.239   1.473  10.077  1.00  0.00     0.000 C 
BRANCH   6   7
ATOM      7  C   UNL     1      -8.087   1.848   8.847  1.00  0.00     0.000 C 
BRANCH   7   8
ATOM      8  C   UNL     1      -9.474   2.438   9.162  1.00  0.00     0.000 C 
BRANCH   8   9
ATOM      9  C   UNL     1      -9.721   3.793   8.481  1.00  0.00     0.000 C 
BRANCH   9  10
ATOM     10  C   UNL     1      -8.699   4.838   8.953  1.00  0.00     0.000 C 
BRANCH  10  11
ATOM     11  C   UNL     1      -9.351   6.174   9.344  1.00  0.00     0.000 C 
BRANCH  11  12
ATOM     12  C   UNL     1      -8.938   7.326   8.411  1.00  0.00     0.000 C 
BRANCH  12  13
ATOM     13  C   UNL     1      -8.940   6.925   6.923  1.00  0.00     0.006 C 
BRANCH  13  14
ATOM     14  C   UNL     1      -7.787   7.536   6.109  1.00  0.00     0.053 C 
BRANCH  14  15
ATOM     15  C   UNL     1      -8.235   8.669   5.238  1.00  0.00     0.041 C 
ATOM     16  O   UNL     1      -7.389   9.346   4.595  1.00  0.00    -0.550 OA
ATOM     17  O   UNL     1      -9.585   8.968   5.122  1.00  0.00    -0.550 OA
ENDBRANCH  14  15
ENDBRANCH  13  14
ENDBRANCH  12  13
ENDBRANCH  11  12
ENDBRANCH  10  11
ENDBRANCH   9  10
ENDBRANCH   8   9
ENDBRANCH   7   8
ENDBRANCH   6   7
ENDBRANCH   5   6
ENDBRANCH   4   5
ENDBRANCH   3   4
ENDBRANCH   2   3
ENDBRANCH   1   2
BRANCH   1  18
ATOM     18  C   UNL     1      -1.480   3.885  10.125  1.00  0.00     0.000 C 
BRANCH  18  19
ATOM     19  C   UNL     1      -2.213   5.232  10.041  1.00  0.00     0.000 C 
BRANCH  19  20
ATOM     20  C   UNL     1      -3.089   5.301   8.785  1.00  0.00     0.000 C 
BRANCH  20  21
ATOM     21  C   UNL     1      -4.574   5.136   9.140  1.00  0.00     0.000 C 
BRANCH  21  22
ATOM     22  C   UNL     1      -5.397   6.401   8.845  1.00  0.00     0.000 C 
BRANCH  22  23
ATOM     23  C   UNL     1      -5.030   7.577   9.768  1.00  0.00     0.000 C 
BRANCH  23  24
ATOM     24  C   UNL     1      -4.555   8.811   8.973  1.00  0.00    -0.000 C 
BRANCH  24  25
ATOM     25  C   UNL     1      -3.848   9.869   9.838  1.00  0.00    -0.000 C 
BRANCH  25  26
ATOM     26  C   UNL     1      -2.385  10.097   9.431  1.00  0.00    -0.000 C 
BRANCH  26  27
ATOM     27  C   UNL     1      -1.567   8.810   9.582  1.00  0.00    -0.000 C 
BRANCH  27  28
ATOM     28  C   UNL     1      -0.525   8.685   8.459  1.00  0.00    -0.000 C 
BRANCH  28  29
ATOM     29  C   UNL     1       0.830   9.302   8.839  1.00  0.00    -0.000 C 
BRANCH  29  30
ATOM     30  C   UNL     1       1.980   8.281   8.798  1.00  0.00    -0.000 C 
BRANCH  30  31
ATOM     31  C   UNL     1       2.791   8.358   7.496  1.00  0.00    -0.003 C 
ATOM     32  C   UNL     1       4.299   8.287   7.734  1.00  0.00     0.004 C 
ENDBRANCH  30  31
ENDBRANCH  29  30
ENDBRANCH  28  29
ENDBRANCH  27  28
ENDBRANCH  26  27
ENDBRANCH  25  26
ENDBRANCH  24  25
ENDBRANCH  23  24
ENDBRANCH  22  23
ENDBRANCH  21  22
ENDBRANCH  20  21
ENDBRANCH  19  20
ENDBRANCH  18  19
ENDBRANCH   1  18
TORSDOF 28
ENDMDL
MODEL 3
REMARK VINA RESULT:    -3.008      3.968     10.672
REMARK INTER + INTRA:         -10.431
REMARK INTER:                  -8.851
REMARK INTRA:                  -1.580
REMARK UNBOUND:                -2.500
REMARK SMILES CCCCCCCCCCCCCCCCCCCCCCCCCCCCCC(=O)[O-]
REMARK SMILES IDX 16 1 17 2 18 3 19 4 20 5 21 6 22 7 23 8 24 9 25 10 26 11
REMARK SMILES IDX 27 12 28 13 29 14 30 15 31 16 32 17 15 18 14 19 13 20 12 21
REMARK SMILES IDX 11 22 10 23 9 24 8 25 7 26 6 27 5 28 4 29 3 30 2 31 1 32
REMARK H PARENT
REMARK Flexibility Score: inf
ROOT
ATOM      1  C   UNL     1      -3.079   1.792   9.462  1.00  0.00     0.000 C 
ENDROOT
BRANCH   1   2
ATOM      2  C   UNL     1      -4.226   0.814   9.797  1.00  0.00     0.000 C 
BRANCH   2   3
ATOM      3  C   UNL     1      -5.415   0.959   8.832  1.00  0.00     0.000 C 
BRANCH   3   4
ATOM      4  C   UNL     1      -6.764   0.646   9.515  1.00  0.00     0.000 C 
BRANCH   4   5
ATOM      5  C   UNL     1      -7.615   1.892   9.811  1.00  0.00     0.000 C 
BRANCH   5   6
ATOM      6  C   UNL     1      -9.046   1.781   9.260  1.00  0.00     0.000 C 
BRANCH   6   7
ATOM      7  C   UNL     1      -9.355   2.831   8.176  1.00  0.00     0.000 C 
BRANCH   7   8
ATOM      8  C   UNL     1      -9.680   4.242   8.703  1.00  0.00     0.000 C 
BRANCH   8   9
ATOM      9  C   UNL     1      -8.492   5.210   8.600  1.00  0.00     0.000 C 
BRANCH   9  10
ATOM     10  C   UNL     1      -8.891   6.489   7.848  1.00  0.00     0.000 C 
BRANCH  10  11
ATOM     11  C   UNL     1      -8.735   6.357   6.325  1.00  0.00     0.000 C 
BRANCH  11  12
ATOM     12  C   UNL     1      -7.711   7.351   5.749  1.00  0.00     0.000 C 
BRANCH  12  13
ATOM     13  C   UNL     1      -7.176   8.340   6.803  1.00  0.00     0.006 C 
BRANCH  13  14
ATOM     14  C   UNL     1      -7.774   9.752   6.694  1.00  0.00     0.053 C 
BRANCH  14  15
ATOM     15  C   UNL     1      -8.587   9.939   5.451  1.00  0.00     0.041 C 
ATOM     16  O   UNL     1      -8.017  10.056   4.333  1.00  0.00    -0.550 OA
ATOM     17  O   UNL     1      -9.973   9.969   5.521  1.00  0.00    -0.550 OA
ENDBRANCH  14  15
ENDBRANCH  13  14
ENDBRANCH  12  13
ENDBRANCH  11  12
ENDBRANCH  10  11
ENDBRANCH   9  10
ENDBRANCH   8   9
ENDBRANCH   7   8
ENDBRANCH   6   7
ENDBRANCH   5   6
ENDBRANCH   4   5
ENDBRANCH   3   4
ENDBRANCH   2   3
ENDBRANCH   1   2
BRANCH   1  18
ATOM     18  C   UNL     1      -3.532   3.258   9.360  1.00  0.00     0.000 C 
BRANCH  18  19
ATOM     19  C   UNL     1      -2.602   4.222  10.111  1.00  0.00     0.000 C 
BRANCH  19  20
ATOM     20  C   UNL     1      -1.152   4.059   9.644  1.00  0.00     0.000 C 
BRANCH  20  21
ATOM     21  C   UNL     1      -0.375   5.377   9.790  1.00  0.00     0.000 C 
BRANCH  21  22
ATOM     22  C   UNL     1      -0.626   6.343   8.621  1.00  0.00     0.000 C 
BRANCH  22  23
ATOM     23  C   UNL     1      -1.009   7.758   9.091  1.00  0.00     0.000 C 
BRANCH  23  24
ATOM     24  C   UNL     1      -0.241   8.853   8.321  1.00  0.00    -0.000 C 
BRANCH  24  25
ATOM     25  C   UNL     1       1.149   8.408   7.835  1.00  0.00    -0.000 C 
BRANCH  25  26
ATOM     26  C   UNL     1       2.234   9.468   8.070  1.00  0.00    -0.000 C 
BRANCH  26  27
ATOM     27  C   UNL     1       2.768   9.400   9.505  1.00  0.00    -0.000 C 
BRANCH  27  28
ATOM     28  C   UNL     1       4.271   9.715   9.549  1.00  0.00    -0.000 C 
BRANCH  28  29
ATOM     29  C   UNL     1       4.918   9.706   8.155  1.00  0.00    -0.000 C 
BRANCH  29  30
ATOM     30  C   UNL     1       6.325   9.084   8.157  1.00  0.00    -0.000 C 
BRANCH  30  31
ATOM     31  C   UNL     1       7.362   9.974   8.859  1.00  0.00    -0.003 C 
ATOM     32  C   UNL     1       8.473   9.168   9.531  1.00  0.00     0.004 C 
ENDBRANCH  30  31
ENDBRANCH  29  30
ENDBRANCH  28  29
ENDBRANCH  27  28
ENDBRANCH  26  27
ENDBRANCH  25  26
ENDBRANCH  24  25
ENDBRANCH  23  24
ENDBRANCH  22  23
ENDBRANCH  21  22
ENDBRANCH  20  21
ENDBRANCH  19  20
ENDBRANCH  18  19
ENDBRANCH   1  18
TORSDOF 28
ENDMDL
MODEL 4
REMARK VINA RESULT:    -2.990      1.652      2.801
REMARK INTER + INTRA:         -10.384
REMARK INTER:                  -7.901
REMARK INTRA:                  -2.482
REMARK UNBOUND:                -2.500
REMARK SMILES CCCCCCCCCCCCCCCCCCCCCCCCCCCCCC(=O)[O-]
REMARK SMILES IDX 16 1 17 2 18 3 19 4 20 5 21 6 22 7 23 8 24 9 25 10 26 11
REMARK SMILES IDX 27 12 28 13 29 14 30 15 31 16 32 17 15 18 14 19 13 20 12 21
REMARK SMILES IDX 11 22 10 23 9 24 8 25 7 26 6 27 5 28 4 29 3 30 2 31 1 32
REMARK H PARENT
REMARK Flexibility Score: inf
ROOT
ATOM      1  C   UNL     1      -3.388   2.627  10.123  1.00  0.00     0.000 C 
ENDROOT
BRANCH   1   2
ATOM      2  C   UNL     1      -2.107   2.960   9.327  1.00  0.00     0.000 C 
BRANCH   2   3
ATOM      3  C   UNL     1      -1.600   4.385   9.612  1.00  0.00     0.000 C 
BRANCH   3   4
ATOM      4  C   UNL     1      -2.756   5.398   9.758  1.00  0.00     0.000 C 
BRANCH   4   5
ATOM      5  C   UNL     1      -3.840   5.264   8.676  1.00  0.00     0.000 C 
BRANCH   5   6
ATOM      6  C   UNL     1      -4.923   6.350   8.779  1.00  0.00     0.000 C 
BRANCH   6   7
ATOM      7  C   UNL     1      -4.688   7.324   9.949  1.00  0.00     0.000 C 
BRANCH   7   8
ATOM      8  C   UNL     1      -5.075   8.789   9.669  1.00  0.00     0.000 C 
BRANCH   8   9
ATOM      9  C   UNL     1      -3.889   9.759   9.791  1.00  0.00     0.000 C 
BRANCH   9  10
ATOM     10  C   UNL     1      -2.838   9.477   8.706  1.00  0.00     0.000 C 
BRANCH  10  11
ATOM     11  C   UNL     1      -1.438   9.984   9.089  1.00  0.00     0.000 C 
BRANCH  11  12
ATOM     12  C   UNL     1      -0.616   8.926   9.845  1.00  0.00     0.000 C 
BRANCH  12  13
ATOM     13  C   UNL     1       0.688   8.545   9.117  1.00  0.00     0.006 C 
BRANCH  13  14
ATOM     14  C   UNL     1       1.549   9.751   8.704  1.00  0.00     0.053 C 
BRANCH  14  15
ATOM     15  C   UNL     1       2.469   9.438   7.565  1.00  0.00     0.041 C 
ATOM     16  O   UNL     1       3.571  10.039   7.459  1.00  0.00    -0.550 OA
ATOM     17  O   UNL     1       2.120   8.474   6.630  1.00  0.00    -0.550 OA
ENDBRANCH  14  15
ENDBRANCH  13  14
ENDBRANCH  12  13
ENDBRANCH  11  12
ENDBRANCH  10  11
ENDBRANCH   9  10
ENDBRANCH   8   9
ENDBRANCH   7   8
ENDBRANCH   6   7
ENDBRANCH   5   6
ENDBRANCH   4   5
ENDBRANCH   3   4
ENDBRANCH   2   3
ENDBRANCH   1   2
BRANCH   1  18
ATOM     18  C   UNL     1      -3.799   1.147  10.032  1.00  0.00     0.000 C 
BRANCH  18  19
ATOM     19  C   UNL     1      -4.639   0.838   8.785  1.00  0.00     0.000 C 
BRANCH  19  20
ATOM     20  C   UNL     1      -5.885   0.023   9.152  1.00  0.00     0.000 C 
BRANCH  20  21
ATOM     21  C   UNL     1      -6.976   0.926   9.748  1.00  0.00     0.000 C 
BRANCH  21  22
ATOM     22  C   UNL     1      -8.388   0.533   9.283  1.00  0.00     0.000 C 
BRANCH  22  23
ATOM     23  C   UNL     1      -9.491   1.356   9.971  1.00  0.00     0.000 C 
BRANCH  23  24
ATOM     24  C   UNL     1     -10.096   2.418   9.029  1.00  0.00    -0.000 C 
BRANCH  24  25
ATOM     25  C   UNL     1      -9.045   3.185   8.207  1.00  0.00    -0.000 C 
BRANCH  25  26
ATOM     26  C   UNL     1      -8.296   4.243   9.028  1.00  0.00    -0.000 C 
BRANCH  26  27
ATOM     27  C   UNL     1      -8.627   5.657   8.536  1.00  0.00    -0.000 C 
BRANCH  27  28
ATOM     28  C   UNL     1      -9.222   5.622   7.120  1.00  0.00    -0.000 C 
BRANCH  28  29
ATOM     29  C   UNL     1      -9.060   6.959   6.379  1.00  0.00    -0.000 C 
BRANCH  29  30
ATOM     30  C   UNL     1      -7.698   7.624   6.645  1.00  0.00    -0.000 C 
BRANCH  30  31
ATOM     31  C   UNL     1      -7.660   9.091   6.188  1.00  0.00    -0.003 C 
ATOM     32  C   UNL     1      -8.014   9.258   4.711  1.00  0.00     0.004 C 
ENDBRANCH  30  31
ENDBRANCH  29  30
ENDBRANCH  28  29
ENDBRANCH  27  28
ENDBRANCH  26  27
ENDBRANCH  25  26
ENDBRANCH  24  25
ENDBRANCH  23  24
ENDBRANCH  22  23
ENDBRANCH  21  22
ENDBRANCH  20  21
ENDBRANCH  19  20
ENDBRANCH  18  19
ENDBRANCH   1  18
TORSDOF 28
ENDMDL
MODEL 5
REMARK VINA RESULT:    -2.980      1.669      2.686
REMARK INTER + INTRA:         -10.357
REMARK INTER:                  -7.930
REMARK INTRA:                  -2.427
REMARK UNBOUND:                -2.500
REMARK SMILES CCCCCCCCCCCCCCCCCCCCCCCCCCCCCC(=O)[O-]
REMARK SMILES IDX 16 1 17 2 18 3 19 4 20 5 21 6 22 7 23 8 24 9 25 10 26 11
REMARK SMILES IDX 27 12 28 13 29 14 30 15 31 16 32 17 15 18 14 19 13 20 12 21
REMARK SMILES IDX 11 22 10 23 9 24 8 25 7 26 6 27 5 28 4 29 3 30 2 31 1 32
REMARK H PARENT
REMARK Flexibility Score: inf
ROOT
ATOM      1  C   UNL     1      -4.655   3.826   9.015  1.00  0.00     0.000 C 
ENDROOT
BRANCH   1   2
ATOM      2  C   UNL     1      -4.305   4.842  10.124  1.00  0.00     0.000 C 
BRANCH   2   3
ATOM      3  C   UNL     1      -3.050   5.665   9.784  1.00  0.00     0.000 C 
BRANCH   3   4
ATOM      4  C   UNL     1      -1.746   4.901  10.101  1.00  0.00     0.000 C 
BRANCH   4   5
ATOM      5  C   UNL     1      -0.470   5.723   9.860  1.00  0.00     0.000 C 
BRANCH   5   6
ATOM      6  C   UNL     1      -0.530   6.549   8.564  1.00  0.00     0.000 C 
BRANCH   6   7
ATOM      7  C   UNL     1      -0.166   8.030   8.778  1.00  0.00     0.000 C 
BRANCH   7   8
ATOM      8  C   UNL     1       1.088   8.513   8.023  1.00  0.00     0.000 C 
BRANCH   8   9
ATOM      9  C   UNL     1       2.361   7.749   8.421  1.00  0.00     0.000 C 
BRANCH   9  10
ATOM     10  C   UNL     1       3.157   8.525   9.480  1.00  0.00     0.000 C 
BRANCH  10  11
ATOM     11  C   UNL     1       3.687   9.871   8.959  1.00  0.00     0.000 C 
BRANCH  11  12
ATOM     12  C   UNL     1       4.604   9.707   7.735  1.00  0.00     0.000 C 
BRANCH  12  13
ATOM     13  C   UNL     1       5.898   8.932   8.052  1.00  0.00     0.006 C 
BRANCH  13  14
ATOM     14  C   UNL     1       6.685   9.494   9.247  1.00  0.00     0.053 C 
BRANCH  14  15
ATOM     15  C   UNL     1       8.138   9.131   9.202  1.00  0.00     0.041 C 
ATOM     16  O   UNL     1       8.490   7.923   9.237  1.00  0.00    -0.550 OA
ATOM     17  O   UNL     1       9.102  10.125   9.106  1.00  0.00    -0.550 OA
ENDBRANCH  14  15
ENDBRANCH  13  14
ENDBRANCH  12  13
ENDBRANCH  11  12
ENDBRANCH  10  11
ENDBRANCH   9  10
ENDBRANCH   8   9
ENDBRANCH   7   8
ENDBRANCH   6   7
ENDBRANCH   5   6
ENDBRANCH   4   5
ENDBRANCH   3   4
ENDBRANCH   2   3
ENDBRANCH   1   2
BRANCH   1  18
ATOM     18  C   UNL     1      -3.873   2.507   9.122  1.00  0.00     0.000 C 
BRANCH  18  19
ATOM     19  C   UNL     1      -4.620   1.435   9.928  1.00  0.00     0.000 C 
BRANCH  19  20
ATOM     20  C   UNL     1      -5.235   0.381   9.000  1.00  0.00     0.000 C 
BRANCH  20  21
ATOM     21  C   UNL     1      -6.752   0.270   9.223  1.00  0.00     0.000 C 
BRANCH  21  22
ATOM     22  C   UNL     1      -7.349   1.530   9.869  1.00  0.00     0.000 C 
BRANCH  22  23
ATOM     23  C   UNL     1      -8.090   2.422   8.857  1.00  0.00     0.000 C 
BRANCH  23  24
ATOM     24  C   UNL     1      -9.254   3.196   9.510  1.00  0.00    -0.000 C 
BRANCH  24  25
ATOM     25  C   UNL     1      -9.041   4.720   9.546  1.00  0.00    -0.000 C 
BRANCH  25  26
ATOM     26  C   UNL     1      -8.275   5.247   8.325  1.00  0.00    -0.000 C 
BRANCH  26  27
ATOM     27  C   UNL     1      -9.012   6.427   7.682  1.00  0.00    -0.000 C 
BRANCH  27  28
ATOM     28  C   UNL     1      -8.560   7.760   8.296  1.00  0.00    -0.000 C 
BRANCH  28  29
ATOM     29  C   UNL     1      -7.251   7.631   9.091  1.00  0.00    -0.000 C 
BRANCH  29  30
ATOM     30  C   UNL     1      -6.354   8.874   8.963  1.00  0.00    -0.000 C 
BRANCH  30  31
ATOM     31  C   UNL     1      -4.876   8.567   9.250  1.00  0.00    -0.003 C 
ATOM     32  C   UNL     1      -3.957   9.748   8.943  1.00  0.00     0.004 C 
ENDBRANCH  30  31
ENDBRANCH  29  30
ENDBRANCH  28  29
ENDBRANCH  27  28
ENDBRANCH  26  27
ENDBRANCH  25  26
ENDBRANCH  24  25
ENDBRANCH  23  24
ENDBRANCH  22  23
ENDBRANCH  21  22
ENDBRANCH  20  21
ENDBRANCH  19  20
ENDBRANCH  18  19
ENDBRANCH   1  18
TORSDOF 28
ENDMDL
MODEL 6
REMARK VINA RESULT:    -2.598      1.627      2.155
REMARK INTER + INTRA:          -9.351
REMARK INTER:                  -7.184
REMARK INTRA:                  -2.167
REMARK UNBOUND:                -2.500
REMARK SMILES CCCCCCCCCCCCCCCCCCCCCCCCCCCCCC(=O)[O-]
REMARK SMILES IDX 16 1 17 2 18 3 19 4 20 5 21 6 22 7 23 8 24 9 25 10 26 11
REMARK SMILES IDX 27 12 28 13 29 14 30 15 31 16 32 17 15 18 14 19 13 20 12 21
REMARK SMILES IDX 11 22 10 23 9 24 8 25 7 26 6 27 5 28 4 29 3 30 2 31 1 32
REMARK H PARENT
REMARK Flexibility Score: inf
ROOT
ATOM      1  C   UNL     1      -4.587   0.533   9.619  1.00  0.00     0.000 C 
ENDROOT
BRANCH   1   2
ATOM      2  C   UNL     1      -3.851   1.793  10.124  1.00  0.00     0.000 C 
BRANCH   2   3
ATOM      3  C   UNL     1      -4.033   2.993   9.178  1.00  0.00     0.000 C 
BRANCH   3   4
ATOM      4  C   UNL     1      -4.363   4.294   9.941  1.00  0.00     0.000 C 
BRANCH   4   5
ATOM      5  C   UNL     1      -3.156   5.229  10.124  1.00  0.00     0.000 C 
BRANCH   5   6
ATOM      6  C   UNL     1      -1.825   4.568   9.730  1.00  0.00     0.000 C 
BRANCH   6   7
ATOM      7  C   UNL     1      -0.904   5.504   8.925  1.00  0.00     0.000 C 
BRANCH   7   8
ATOM      8  C   UNL     1      -0.280   6.660   9.730  1.00  0.00     0.000 C 
BRANCH   8   9
ATOM      9  C   UNL     1      -1.297   7.750  10.103  1.00  0.00     0.000 C 
BRANCH   9  10
ATOM     10  C   UNL     1      -1.492   8.737   8.942  1.00  0.00     0.000 C 
BRANCH  10  11
ATOM     11  C   UNL     1      -0.886  10.120   9.228  1.00  0.00     0.000 C 
BRANCH  11  12
ATOM     12  C   UNL     1       0.562  10.034   9.739  1.00  0.00     0.000 C 
BRANCH  12  13
ATOM     13  C   UNL     1       1.605  10.121   8.608  1.00  0.00     0.006 C 
BRANCH  13  14
ATOM     14  C   UNL     1       3.015   9.670   9.022  1.00  0.00     0.053 C 
BRANCH  14  15
ATOM     15  C   UNL     1       3.250   8.212   8.773  1.00  0.00     0.041 C 
ATOM     16  O   UNL     1       3.147   7.384   9.716  1.00  0.00    -0.550 OA
ATOM     17  O   UNL     1       3.565   7.764   7.498  1.00  0.00    -0.550 OA
ENDBRANCH  14  15
ENDBRANCH  13  14
ENDBRANCH  12  13
ENDBRANCH  11  12
ENDBRANCH  10  11
ENDBRANCH   9  10
ENDBRANCH   8   9
ENDBRANCH   7   8
ENDBRANCH   6   7
ENDBRANCH   5   6
ENDBRANCH   4   5
ENDBRANCH   3   4
ENDBRANCH   2   3
ENDBRANCH   1   2
BRANCH   1  18
ATOM     18  C   UNL     1      -6.103   0.563   9.877  1.00  0.00     0.000 C 
BRANCH  18  19
ATOM     19  C   UNL     1      -6.925   0.149   8.648  1.00  0.00     0.000 C 
BRANCH  19  20
ATOM     20  C   UNL     1      -8.388  -0.103   9.028  1.00  0.00     0.000 C 
BRANCH  20  21
ATOM     21  C   UNL     1      -9.288   1.042   8.539  1.00  0.00     0.000 C 
BRANCH  21  22
ATOM     22  C   UNL     1      -9.644   2.034   9.658  1.00  0.00     0.000 C 
BRANCH  22  23
ATOM     23  C   UNL     1     -10.104   3.400   9.118  1.00  0.00     0.000 C 
BRANCH  23  24
ATOM     24  C   UNL     1      -8.918   4.263   8.639  1.00  0.00    -0.000 C 
BRANCH  24  25
ATOM     25  C   UNL     1      -9.242   5.133   7.412  1.00  0.00    -0.000 C 
BRANCH  25  26
ATOM     26  C   UNL     1      -8.648   6.546   7.506  1.00  0.00    -0.000 C 
BRANCH  26  27
ATOM     27  C   UNL     1      -8.314   6.906   8.957  1.00  0.00    -0.000 C 
BRANCH  27  28
ATOM     28  C   UNL     1      -6.873   6.502   9.308  1.00  0.00    -0.000 C 
BRANCH  28  29
ATOM     29  C   UNL     1      -5.826   7.301   8.515  1.00  0.00    -0.000 C 
BRANCH  29  30
ATOM     30  C   UNL     1      -5.195   8.435   9.341  1.00  0.00    -0.000 C 
BRANCH  30  31
ATOM     31  C   UNL     1      -5.956   9.762   9.196  1.00  0.00    -0.003 C 
ATOM     32  C   UNL     1      -6.543   9.957   7.799  1.00  0.00     0.004 C 
ENDBRANCH  30  31
ENDBRANCH  29  30
ENDBRANCH  28  29
ENDBRANCH  27  28
ENDBRANCH  26  27
ENDBRANCH  25  26
ENDBRANCH  24  25
ENDBRANCH  23  24
ENDBRANCH  22  23
ENDBRANCH  21  22
ENDBRANCH  20  21
ENDBRANCH  19  20
ENDBRANCH  18  19
ENDBRANCH   1  18
TORSDOF 28
ENDMDL
MODEL 7
REMARK VINA RESULT:    -2.506      3.882     11.894
REMARK INTER + INTRA:          -9.108
REMARK INTER:                  -7.127
REMARK INTRA:                  -1.981
REMARK UNBOUND:                -2.500
REMARK SMILES CCCCCCCCCCCCCCCCCCCCCCCCCCCCCC(=O)[O-]
REMARK SMILES IDX 16 1 17 2 18 3 19 4 20 5 21 6 22 7 23 8 24 9 25 10 26 11
REMARK SMILES IDX 27 12 28 13 29 14 30 15 31 16 32 17 15 18 14 19 13 20 12 21
REMARK SMILES IDX 11 22 10 23 9 24 8 25 7 26 6 27 5 28 4 29 3 30 2 31 1 32
REMARK H PARENT
REMARK Flexibility Score: inf
ROOT
ATOM      1  C   UNL     1      -3.667   5.510   8.919  1.00  0.00     0.000 C 
ENDROOT
BRANCH   1   2
ATOM      2  C   UNL     1      -5.141   5.750   9.313  1.00  0.00     0.000 C 
BRANCH   2   3
ATOM      3  C   UNL     1      -5.741   4.554  10.073  1.00  0.00     0.000 C 
BRANCH   3   4
ATOM      4  C   UNL     1      -5.291   3.200   9.482  1.00  0.00     0.000 C 
BRANCH   4   5
ATOM      5  C   UNL     1      -6.261   2.043   9.772  1.00  0.00     0.000 C 
BRANCH   5   6
ATOM      6  C   UNL     1      -5.806   0.714   9.147  1.00  0.00     0.000 C 
BRANCH   6   7
ATOM      7  C   UNL     1      -6.982  -0.210   8.778  1.00  0.00     0.000 C 
BRANCH   7   8
ATOM      8  C   UNL     1      -8.368   0.273   9.247  1.00  0.00     0.000 C 
BRANCH   8   9
ATOM      9  C   UNL     1      -9.292   0.669   8.085  1.00  0.00     0.000 C 
BRANCH   9  10
ATOM     10  C   UNL     1      -9.959   2.027   8.354  1.00  0.00     0.000 C 
BRANCH  10  11
ATOM     11  C   UNL     1      -8.940   3.159   8.566  1.00  0.00     0.000 C 
BRANCH  11  12
ATOM     12  C   UNL     1      -9.540   4.549   8.293  1.00  0.00     0.000 C 
BRANCH  12  13
ATOM     13  C   UNL     1      -8.512   5.545   7.722  1.00  0.00     0.006 C 
BRANCH  13  14
ATOM     14  C   UNL     1      -9.084   6.487   6.649  1.00  0.00     0.053 C 
BRANCH  14  15
ATOM     15  C   UNL     1      -8.214   7.682   6.409  1.00  0.00     0.041 C 
ATOM     16  O   UNL     1      -7.409   7.694   5.441  1.00  0.00    -0.550 OA
ATOM     17  O   UNL     1      -8.303   8.788   7.243  1.00  0.00    -0.550 OA
ENDBRANCH  14  15
ENDBRANCH  13  14
ENDBRANCH  12  13
ENDBRANCH  11  12
ENDBRANCH  10  11
ENDBRANCH   9  10
ENDBRANCH   8   9
ENDBRANCH   7   8
ENDBRANCH   6   7
ENDBRANCH   5   6
ENDBRANCH   4   5
ENDBRANCH   3   4
ENDBRANCH   2   3
ENDBRANCH   1   2
BRANCH   1  18
ATOM     18  C   UNL     1      -2.733   5.315  10.124  1.00  0.00     0.000 C 
BRANCH  18  19
ATOM     19  C   UNL     1      -1.697   4.204   9.902  1.00  0.00     0.000 C 
BRANCH  19  20
ATOM     20  C   UNL     1      -0.384   4.781   9.360  1.00  0.00     0.000 C 
BRANCH  20  21
ATOM     21  C   UNL     1      -0.044   6.113  10.045  1.00  0.00     0.000 C 
BRANCH  21  22
ATOM     22  C   UNL     1       0.283   7.229   9.039  1.00  0.00     0.000 C 
BRANCH  22  23
ATOM     23  C   UNL     1       1.459   8.112   9.492  1.00  0.00     0.000 C 
BRANCH  23  24
ATOM     24  C   UNL     1       2.802   7.643   8.893  1.00  0.00    -0.000 C 
BRANCH  24  25
ATOM     25  C   UNL     1       3.970   8.607   9.164  1.00  0.00    -0.000 C 
BRANCH  25  26
ATOM     26  C   UNL     1       4.631   9.123   7.878  1.00  0.00    -0.000 C 
BRANCH  26  27
ATOM     27  C   UNL     1       6.139   9.311   8.073  1.00  0.00    -0.000 C 
BRANCH  27  28
ATOM     28  C   UNL     1       6.536   9.100   9.542  1.00  0.00    -0.000 C 
BRANCH  28  29
ATOM     29  C   UNL     1       7.573  10.125  10.027  1.00  0.00    -0.000 C 
BRANCH  29  30
ATOM     30  C   UNL     1       8.991   9.535  10.124  1.00  0.00    -0.000 C 
BRANCH  30  31
ATOM     31  C   UNL     1       9.002   8.003  10.002  1.00  0.00    -0.003 C 
ATOM     32  C   UNL     1       9.961   7.504   8.923  1.00  0.00     0.004 C 
ENDBRANCH  30  31
ENDBRANCH  29  30
ENDBRANCH  28  29
ENDBRANCH  27  28
ENDBRANCH  26  27
ENDBRANCH  25  26
ENDBRANCH  24  25
ENDBRANCH  23  24
ENDBRANCH  22  23
ENDBRANCH  21  22
ENDBRANCH  20  21
ENDBRANCH  19  20
ENDBRANCH  18  19
ENDBRANCH   1  18
TORSDOF 28
ENDMDL
MODEL 8
REMARK VINA RESULT:    -1.774      3.655     10.769
REMARK INTER + INTRA:          -7.177
REMARK INTER:                  -5.469
REMARK INTRA:                  -1.709
REMARK UNBOUND:                -2.500
REMARK SMILES CCCCCCCCCCCCCCCCCCCCCCCCCCCCCC(=O)[O-]
REMARK SMILES IDX 16 1 17 2 18 3 19 4 20 5 21 6 22 7 23 8 24 9 25 10 26 11
REMARK SMILES IDX 27 12 28 13 29 14 30 15 31 16 32 17 15 18 14 19 13 20 12 21
REMARK SMILES IDX 11 22 10 23 9 24 8 25 7 26 6 27 5 28 4 29 3 30 2 31 1 32
REMARK H PARENT
REMARK Flexibility Score: inf
ROOT
ATOM      1  C   UNL     1      -1.563   2.846   8.744  1.00  0.00     0.000 C 
ENDROOT
BRANCH   1   2
ATOM      2  C   UNL     1      -3.069   2.859   9.087  1.00  0.00     0.000 C 
BRANCH   2   3
ATOM      3  C   UNL     1      -3.637   1.440   9.266  1.00  0.00     0.000 C 
BRANCH   3   4
ATOM      4  C   UNL     1      -4.921   1.429  10.125  1.00  0.00     0.000 C 
BRANCH   4   5
ATOM      5  C   UNL     1      -5.723   0.122  10.025  1.00  0.00     0.000 C 
BRANCH   5   6
ATOM      6  C   UNL     1      -6.661   0.090   8.807  1.00  0.00     0.000 C 
BRANCH   6   7
ATOM      7  C   UNL     1      -8.152   0.097   9.196  1.00  0.00     0.000 C 
BRANCH   7   8
ATOM      8  C   UNL     1      -9.064   0.938   8.283  1.00  0.00     0.000 C 
BRANCH   8   9
ATOM      9  C   UNL     1     -10.124   1.733   9.060  1.00  0.00     0.000 C 
BRANCH   9  10
ATOM     10  C   UNL     1      -9.514   2.997   9.685  1.00  0.00     0.000 C 
BRANCH  10  11
ATOM     11  C   UNL     1      -8.084   3.273   9.192  1.00  0.00     0.000 C 
BRANCH  11  12
ATOM     12  C   UNL     1      -7.726   4.769   9.232  1.00  0.00     0.000 C 
BRANCH  12  13
ATOM     13  C   UNL     1      -8.891   5.677   8.792  1.00  0.00     0.006 C 
BRANCH  13  14
ATOM     14  C   UNL     1      -8.457   7.097   8.389  1.00  0.00     0.053 C 
BRANCH  14  15
ATOM     15  C   UNL     1      -7.786   7.136   7.051  1.00  0.00     0.041 C 
ATOM     16  O   UNL     1      -6.597   7.539   6.952  1.00  0.00    -0.550 OA
ATOM     17  O   UNL     1      -8.466   6.714   5.917  1.00  0.00    -0.550 OA
ENDBRANCH  14  15
ENDBRANCH  13  14
ENDBRANCH  12  13
ENDBRANCH  11  12
ENDBRANCH  10  11
ENDBRANCH   9  10
ENDBRANCH   8   9
ENDBRANCH   7   8
ENDBRANCH   6   7
ENDBRANCH   5   6
ENDBRANCH   4   5
ENDBRANCH   3   4
ENDBRANCH   2   3
ENDBRANCH   1   2
BRANCH   1  18
ATOM     18  C   UNL     1      -0.657   3.164   9.946  1.00  0.00     0.000 C 
BRANCH  18  19
ATOM     19  C   UNL     1      -0.083   4.588   9.898  1.00  0.00     0.000 C 
BRANCH  19  20
ATOM     20  C   UNL     1      -1.206   5.629   9.847  1.00  0.00     0.000 C 
BRANCH  20  21
ATOM     21  C   UNL     1      -0.717   6.935   9.200  1.00  0.00     0.000 C 
BRANCH  21  22
ATOM     22  C   UNL     1      -1.858   7.932   8.944  1.00  0.00     0.000 C 
BRANCH  22  23
ATOM     23  C   UNL     1      -1.366   9.387   8.851  1.00  0.00     0.000 C 
BRANCH  23  24
ATOM     24  C   UNL     1      -0.614   9.828  10.125  1.00  0.00    -0.000 C 
BRANCH  24  25
ATOM     25  C   UNL     1       0.880  10.113   9.893  1.00  0.00    -0.000 C 
BRANCH  25  26
ATOM     26  C   UNL     1       1.352   9.729   8.484  1.00  0.00    -0.000 C 
BRANCH  26  27
ATOM     27  C   UNL     1       2.854   9.985   8.319  1.00  0.00    -0.000 C 
BRANCH  27  28
ATOM     28  C   UNL     1       3.595   8.693   7.939  1.00  0.00    -0.000 C 
BRANCH  28  29
ATOM     29  C   UNL     1       4.687   8.318   8.953  1.00  0.00    -0.000 C 
BRANCH  29  30
ATOM     30  C   UNL     1       5.432   9.547   9.505  1.00  0.00    -0.000 C 
BRANCH  30  31
ATOM     31  C   UNL     1       6.644   9.935   8.645  1.00  0.00    -0.003 C 
ATOM     32  C   UNL     1       7.956   9.362   9.180  1.00  0.00     0.004 C 
ENDBRANCH  30  31
ENDBRANCH  29  30
ENDBRANCH  28  29
ENDBRANCH  27  28
ENDBRANCH  26  27
ENDBRANCH  25  26
ENDBRANCH  24  25
ENDBRANCH  23  24
ENDBRANCH  22  23
ENDBRANCH  21  22
ENDBRANCH  20  21
ENDBRANCH  19  20
ENDBRANCH  18  19
ENDBRANCH   1  18
TORSDOF 28
ENDMDL
