MODEL 1
REMARK VINA RESULT:    -4.924      0.000      0.000
REMARK INTER + INTRA:          -6.247
REMARK INTER:                  -5.932
REMARK INTRA:                  -0.315
REMARK UNBOUND:                -0.315
REMARK SMILES O=c1c(O)c(-c2ccc(O)c(O)c2)oc2cc(O)cc(O)c12
REMARK SMILES IDX 5 1 3 2 2 3 1 4 22 5 20 6 19 7 17 8 16 9 15 10 14 11 6 12
REMARK SMILES IDX 7 13 8 14 9 15 13 16 11 17 10 18 12 20 4 22 21 24 18 26
REMARK H PARENT 10 19 12 21 4 23 21 25 18 27
REMARK Flexibility Score: inf
ROOT
ATOM      1  C   UNL     1       5.225   2.428  18.670  1.00  0.00     0.180 A 
ATOM      2  C   UNL     1       6.407   1.672  18.744  1.00  0.00     0.208 A 
ATOM      3  C   UNL     1       7.637   2.306  18.507  1.00  0.00     0.238 A 
ATOM      4  O   UNL     1       8.696   1.636  18.628  1.00  0.00    -0.285 OA
ATOM      5  C   UNL     1       7.668   3.684  18.183  1.00  0.00     0.111 A 
ATOM      6  C   UNL     1       8.855   4.420  17.884  1.00  0.00     0.134 A 
ATOM      7  C   UNL     1       8.780   5.806  17.705  1.00  0.00     0.093 A 
ATOM      8  C   UNL     1       7.554   6.474  17.750  1.00  0.00     0.123 A 
ATOM      9  C   UNL     1       6.383   5.756  17.982  1.00  0.00     0.094 A 
ATOM     10  C   UNL     1       6.430   4.376  18.201  1.00  0.00     0.146 A 
ATOM     11  O   UNL     1       5.292   3.732  18.429  1.00  0.00    -0.452 OA
ENDROOT
BRANCH   1  12
ATOM     12  C   UNL     1       3.889   1.824  18.884  1.00  0.00     0.025 A 
ATOM     13  C   UNL     1       3.238   2.006  20.114  1.00  0.00     0.016 A 
ATOM     14  C   UNL     1       1.968   1.463  20.330  1.00  0.00     0.051 A 
ATOM     15  C   UNL     1       1.326   0.746  19.312  1.00  0.00     0.157 A 
ATOM     16  C   UNL     1       3.232   1.121  17.858  1.00  0.00     0.062 A 
ATOM     17  C   UNL     1       1.956   0.577  18.073  1.00  0.00     0.158 A 
BRANCH  15  18
ATOM     18  O   UNL     1       0.061   0.201  19.523  1.00  0.00    -0.504 OA
ATOM     19  H   UNL     1      -0.276  -0.013  20.455  1.00  0.00     0.293 HD
ENDBRANCH  15  18
BRANCH  17  20
ATOM     20  O   UNL     1       1.309  -0.125  17.058  1.00  0.00    -0.504 OA
ATOM     21  H   UNL     1       1.710  -0.963  16.653  1.00  0.00     0.293 HD
ENDBRANCH  17  20
ENDBRANCH   1  12
BRANCH   2  22
ATOM     22  O   UNL     1       6.356   0.318  19.087  1.00  0.00    -0.502 OA
ATOM     23  H   UNL     1       5.880  -0.016  19.916  1.00  0.00     0.293 HD
ENDBRANCH   2  22
BRANCH   6  24
ATOM     24  O   UNL     1      10.115   3.836  17.725  1.00  0.00    -0.507 OA
ATOM     25  H   UNL     1      10.494   3.513  16.847  1.00  0.00     0.293 HD
ENDBRANCH   6  24
BRANCH   8  26
ATOM     26  O   UNL     1       7.487   7.852  17.555  1.00  0.00    -0.508 OA
ATOM     27  H   UNL     1       7.386   8.494  18.333  1.00  0.00     0.293 HD
ENDBRANCH   8  26
TORSDOF 6
ENDMDL
