MODEL 1
REMARK VINA RESULT:    -6.108      0.000      0.000
REMARK INTER + INTRA:          -7.479
REMARK INTER:                  -7.179
REMARK INTRA:                  -0.300
REMARK UNBOUND:                -0.300
REMARK SMILES O=c1c(O)c(-c2ccc(O)cc2)oc2cc(O)cc(O)c12
REMARK SMILES IDX 5 1 3 2 2 3 1 4 21 5 19 6 18 7 16 8 15 9 14 10 13 11 6 12
REMARK SMILES IDX 7 13 8 14 9 15 12 16 11 17 10 18 4 20 20 22 17 24
REMARK H PARENT 10 19 4 21 20 23 17 25
REMARK Flexibility Score: inf
ROOT
ATOM      1  C   UNL     1      11.180  -6.306 -10.816  1.00  0.00     0.180 A 
ATOM      2  C   UNL     1      10.884  -6.496  -9.456  1.00  0.00     0.208 A 
ATOM      3  C   UNL     1       9.720  -7.198  -9.104  1.00  0.00     0.238 A 
ATOM      4  O   UNL     1       9.433  -7.317  -7.884  1.00  0.00    -0.285 OA
ATOM      5  C   UNL     1       8.875  -7.714 -10.115  1.00  0.00     0.111 A 
ATOM      6  C   UNL     1       7.693  -8.476  -9.873  1.00  0.00     0.134 A 
ATOM      7  C   UNL     1       6.864  -8.824 -10.946  1.00  0.00     0.093 A 
ATOM      8  C   UNL     1       7.210  -8.496 -12.260  1.00  0.00     0.123 A 
ATOM      9  C   UNL     1       8.393  -7.806 -12.511  1.00  0.00     0.094 A 
ATOM     10  C   UNL     1       9.222  -7.412 -11.458  1.00  0.00     0.146 A 
ATOM     11  O   UNL     1      10.335  -6.746 -11.741  1.00  0.00    -0.452 OA
ENDROOT
BRANCH   1  12
ATOM     12  C   UNL     1      12.402  -5.599 -11.266  1.00  0.00     0.021 A 
ATOM     13  C   UNL     1      13.611  -6.286 -11.475  1.00  0.00     0.016 A 
ATOM     14  C   UNL     1      14.745  -5.601 -11.923  1.00  0.00     0.047 A 
ATOM     15  C   UNL     1      14.680  -4.226 -12.182  1.00  0.00     0.115 A 
ATOM     16  C   UNL     1      12.341  -4.224 -11.548  1.00  0.00     0.016 A 
ATOM     17  C   UNL     1      13.476  -3.542 -11.995  1.00  0.00     0.047 A 
BRANCH  15  18
ATOM     18  O   UNL     1      15.804  -3.533 -12.627  1.00  0.00    -0.508 OA
ATOM     19  H   UNL     1      15.927  -2.545 -12.438  1.00  0.00     0.293 HD
ENDBRANCH  15  18
ENDBRANCH   1  12
BRANCH   2  20
ATOM     20  O   UNL     1      11.720  -5.958  -8.473  1.00  0.00    -0.502 OA
ATOM     21  H   UNL     1      11.377  -5.343  -7.745  1.00  0.00     0.293 HD
ENDBRANCH   2  20
BRANCH   6  22
ATOM     22  O   UNL     1       7.305  -8.933  -8.610  1.00  0.00    -0.507 OA
ATOM     23  H   UNL     1       7.485  -8.450  -7.743  1.00  0.00     0.293 HD
ENDBRANCH   6  22
BRANCH   8  24
ATOM     24  O   UNL     1       6.388  -8.861 -13.323  1.00  0.00    -0.508 OA
ATOM     25  H   UNL     1       5.776  -9.667 -13.269  1.00  0.00     0.293 HD
ENDBRANCH   8  24
TORSDOF 5
ENDMDL
MODEL 2
REMARK VINA RESULT:    -5.946      2.376      4.150
REMARK INTER + INTRA:          -7.289
REMARK INTER:                  -6.996
REMARK INTRA:                  -0.292
REMARK UNBOUND:                -0.300
REMARK SMILES O=c1c(O)c(-c2ccc(O)cc2)oc2cc(O)cc(O)c12
REMARK SMILES IDX 5 1 3 2 2 3 1 4 21 5 19 6 18 7 16 8 15 9 14 10 13 11 6 12
REMARK SMILES IDX 7 13 8 14 9 15 12 16 11 17 10 18 4 20 20 22 17 24
REMARK H PARENT 10 19 4 21 20 23 17 25
REMARK Flexibility Score: inf
ROOT
ATOM      1  C   UNL     1      10.530  -6.170  -9.203  1.00  0.00     0.180 A 
ATOM      2  C   UNL     1       9.968  -7.419  -9.521  1.00  0.00     0.208 A 
ATOM      3  C   UNL     1       9.023  -7.982  -8.648  1.00  0.00     0.238 A 
ATOM      4  O   UNL     1       8.565  -9.125  -8.910  1.00  0.00    -0.285 OA
ATOM      5  C   UNL     1       8.639  -7.283  -7.479  1.00  0.00     0.111 A 
ATOM      6  C   UNL     1       7.660  -7.740  -6.546  1.00  0.00     0.134 A 
ATOM      7  C   UNL     1       7.454  -7.030  -5.357  1.00  0.00     0.093 A 
ATOM      8  C   UNL     1       8.145  -5.842  -5.099  1.00  0.00     0.123 A 
ATOM      9  C   UNL     1       9.057  -5.357  -6.031  1.00  0.00     0.094 A 
ATOM     10  C   UNL     1       9.312  -6.062  -7.210  1.00  0.00     0.146 A 
ATOM     11  O   UNL     1      10.198  -5.569  -8.067  1.00  0.00    -0.452 OA
ENDROOT
BRANCH   1  12
ATOM     12  C   UNL     1      11.513  -5.501 -10.086  1.00  0.00     0.021 A 
ATOM     13  C   UNL     1      11.108  -4.576 -11.066  1.00  0.00     0.016 A 
ATOM     14  C   UNL     1      12.058  -3.938 -11.870  1.00  0.00     0.047 A 
ATOM     15  C   UNL     1      13.421  -4.205 -11.697  1.00  0.00     0.115 A 
ATOM     16  C   UNL     1      12.884  -5.747  -9.905  1.00  0.00     0.016 A 
ATOM     17  C   UNL     1      13.831  -5.109 -10.713  1.00  0.00     0.047 A 
BRANCH  15  18
ATOM     18  O   UNL     1      14.376  -3.577 -12.495  1.00  0.00    -0.508 OA
ATOM     19  H   UNL     1      14.994  -2.867 -12.122  1.00  0.00     0.293 HD
ENDBRANCH  15  18
ENDBRANCH   1  12
BRANCH   2  20
ATOM     20  O   UNL     1      10.379  -8.103 -10.669  1.00  0.00    -0.502 OA
ATOM     21  H   UNL     1      11.068  -7.726 -11.309  1.00  0.00     0.293 HD
ENDBRANCH   2  20
BRANCH   6  22
ATOM     22  O   UNL     1       6.852  -8.863  -6.751  1.00  0.00    -0.507 OA
ATOM     23  H   UNL     1       5.872  -8.830  -6.987  1.00  0.00     0.293 HD
ENDBRANCH   6  22
BRANCH   8  24
ATOM     24  O   UNL     1       7.922  -5.133  -3.921  1.00  0.00    -0.508 OA
ATOM     25  H   UNL     1       7.440  -4.242  -3.921  1.00  0.00     0.293 HD
ENDBRANCH   8  24
TORSDOF 5
ENDMDL
MODEL 3
REMARK VINA RESULT:    -5.913     12.256     15.020
REMARK INTER + INTRA:          -7.250
REMARK INTER:                  -7.061
REMARK INTRA:                  -0.189
REMARK UNBOUND:                -0.300
REMARK SMILES O=c1c(O)c(-c2ccc(O)cc2)oc2cc(O)cc(O)c12
REMARK SMILES IDX 5 1 3 2 2 3 1 4 21 5 19 6 18 7 16 8 15 9 14 10 13 11 6 12
REMARK SMILES IDX 7 13 8 14 9 15 12 16 11 17 10 18 4 20 20 22 17 24
REMARK H PARENT 10 19 4 21 20 23 17 25
REMARK Flexibility Score: inf
ROOT
ATOM      1  C   UNL     1      12.089   4.278 -18.156  1.00  0.00     0.180 A 
ATOM      2  C   UNL     1      12.560   3.741 -16.947  1.00  0.00     0.208 A 
ATOM      3  C   UNL     1      13.711   4.291 -16.360  1.00  0.00     0.238 A 
ATOM      4  O   UNL     1      14.159   3.770 -15.305  1.00  0.00    -0.285 OA
ATOM      5  C   UNL     1      14.366   5.382 -16.980  1.00  0.00     0.111 A 
ATOM      6  C   UNL     1      15.515   6.044 -16.452  1.00  0.00     0.134 A 
ATOM      7  C   UNL     1      16.157   7.026 -17.216  1.00  0.00     0.093 A 
ATOM      8  C   UNL     1      15.652   7.417 -18.459  1.00  0.00     0.123 A 
ATOM      9  C   UNL     1      14.497   6.818 -18.955  1.00  0.00     0.094 A 
ATOM     10  C   UNL     1      13.854   5.809 -18.234  1.00  0.00     0.146 A 
ATOM     11  O   UNL     1      12.762   5.258 -18.748  1.00  0.00    -0.452 OA
ENDROOT
BRANCH   1  12
ATOM     12  C   UNL     1      10.868   3.768 -18.823  1.00  0.00     0.021 A 
ATOM     13  C   UNL     1       9.594   3.940 -18.251  1.00  0.00     0.016 A 
ATOM     14  C   UNL     1       8.454   3.471 -18.911  1.00  0.00     0.047 A 
ATOM     15  C   UNL     1       8.571   2.839 -20.155  1.00  0.00     0.115 A 
ATOM     16  C   UNL     1      10.973   3.152 -20.081  1.00  0.00     0.016 A 
ATOM     17  C   UNL     1       9.832   2.683 -20.738  1.00  0.00     0.047 A 
BRANCH  15  18
ATOM     18  O   UNL     1       7.441   2.366 -20.821  1.00  0.00    -0.508 OA
ATOM     19  H   UNL     1       7.221   2.661 -21.765  1.00  0.00     0.293 HD
ENDBRANCH  15  18
ENDBRANCH   1  12
BRANCH   2  20
ATOM     20  O   UNL     1      11.911   2.649 -16.363  1.00  0.00    -0.502 OA
ATOM     21  H   UNL     1      11.006   2.730 -15.915  1.00  0.00     0.293 HD
ENDBRANCH   2  20
BRANCH   6  22
ATOM     22  O   UNL     1      16.045   5.794 -15.183  1.00  0.00    -0.507 OA
ATOM     23  H   UNL     1      16.924   6.156 -14.846  1.00  0.00     0.293 HD
ENDBRANCH   6  22
BRANCH   8  24
ATOM     24  O   UNL     1      16.288   8.406 -19.206  1.00  0.00    -0.508 OA
ATOM     25  H   UNL     1      16.753   8.194 -20.081  1.00  0.00     0.293 HD
ENDBRANCH   8  24
TORSDOF 5
ENDMDL
MODEL 4
REMARK VINA RESULT:    -5.867     12.881     15.768
REMARK INTER + INTRA:          -7.196
REMARK INTER:                  -6.905
REMARK INTRA:                  -0.291
REMARK UNBOUND:                -0.300
REMARK SMILES O=c1c(O)c(-c2ccc(O)cc2)oc2cc(O)cc(O)c12
REMARK SMILES IDX 5 1 3 2 2 3 1 4 21 5 19 6 18 7 16 8 15 9 14 10 13 11 6 12
REMARK SMILES IDX 7 13 8 14 9 15 12 16 11 17 10 18 4 20 20 22 17 24
REMARK H PARENT 10 19 4 21 20 23 17 25
REMARK Flexibility Score: inf
ROOT
ATOM      1  C   UNL     1      12.284   4.799 -18.628  1.00  0.00     0.180 A 
ATOM      2  C   UNL     1      13.240   4.133 -17.841  1.00  0.00     0.208 A 
ATOM      3  C   UNL     1      14.350   4.851 -17.366  1.00  0.00     0.238 A 
ATOM      4  O   UNL     1      15.229   4.236 -16.708  1.00  0.00    -0.285 OA
ATOM      5  C   UNL     1      14.482   6.227 -17.669  1.00  0.00     0.111 A 
ATOM      6  C   UNL     1      15.543   7.061 -17.205  1.00  0.00     0.134 A 
ATOM      7  C   UNL     1      15.643   8.376 -17.674  1.00  0.00     0.093 A 
ATOM      8  C   UNL     1      14.682   8.908 -18.538  1.00  0.00     0.123 A 
ATOM      9  C   UNL     1      13.609   8.120 -18.947  1.00  0.00     0.094 A 
ATOM     10  C   UNL     1      13.502   6.793 -18.526  1.00  0.00     0.146 A 
ATOM     11  O   UNL     1      12.469   6.073 -18.949  1.00  0.00    -0.452 OA
ENDROOT
BRANCH   1  12
ATOM     12  C   UNL     1      11.075   4.117 -19.144  1.00  0.00     0.021 A 
ATOM     13  C   UNL     1       9.858   4.149 -18.439  1.00  0.00     0.016 A 
ATOM     14  C   UNL     1       8.724   3.518 -18.959  1.00  0.00     0.047 A 
ATOM     15  C   UNL     1       8.787   2.860 -20.193  1.00  0.00     0.115 A 
ATOM     16  C   UNL     1      11.124   3.472 -20.391  1.00  0.00     0.016 A 
ATOM     17  C   UNL     1       9.988   2.841 -20.907  1.00  0.00     0.047 A 
BRANCH  15  18
ATOM     18  O   UNL     1       7.663   2.226 -20.720  1.00  0.00    -0.508 OA
ATOM     19  H   UNL     1       6.754   2.675 -20.722  1.00  0.00     0.293 HD
ENDBRANCH  15  18
ENDBRANCH   1  12
BRANCH   2  20
ATOM     20  O   UNL     1      13.102   2.768 -17.573  1.00  0.00    -0.502 OA
ATOM     21  H   UNL     1      12.282   2.383 -17.121  1.00  0.00     0.293 HD
ENDBRANCH   2  20
BRANCH   6  22
ATOM     22  O   UNL     1      16.502   6.656 -16.272  1.00  0.00    -0.507 OA
ATOM     23  H   UNL     1      17.458   6.422 -16.494  1.00  0.00     0.293 HD
ENDBRANCH   6  22
BRANCH   8  24
ATOM     24  O   UNL     1      14.780  10.223 -18.987  1.00  0.00    -0.508 OA
ATOM     25  H   UNL     1      13.986  10.852 -18.964  1.00  0.00     0.293 HD
ENDBRANCH   8  24
TORSDOF 5
ENDMDL
MODEL 5
REMARK VINA RESULT:    -5.858     10.824     13.687
REMARK INTER + INTRA:          -7.186
REMARK INTER:                  -6.893
REMARK INTRA:                  -0.293
REMARK UNBOUND:                -0.300
REMARK SMILES O=c1c(O)c(-c2ccc(O)cc2)oc2cc(O)cc(O)c12
REMARK SMILES IDX 5 1 3 2 2 3 1 4 21 5 19 6 18 7 16 8 15 9 14 10 13 11 6 12
REMARK SMILES IDX 7 13 8 14 9 15 12 16 11 17 10 18 4 20 20 22 17 24
REMARK H PARENT 10 19 4 21 20 23 17 25
REMARK Flexibility Score: inf
ROOT
ATOM      1  C   UNL     1       7.732   2.974 -17.051  1.00  0.00     0.180 A 
ATOM      2  C   UNL     1       8.206   4.121 -16.391  1.00  0.00     0.208 A 
ATOM      3  C   UNL     1       9.157   4.931 -17.032  1.00  0.00     0.238 A 
ATOM      4  O   UNL     1       9.618   5.925 -16.413  1.00  0.00    -0.285 OA
ATOM      5  C   UNL     1       9.611   4.594 -18.329  1.00  0.00     0.111 A 
ATOM      6  C   UNL     1      10.542   5.365 -19.088  1.00  0.00     0.134 A 
ATOM      7  C   UNL     1      11.018   4.868 -20.308  1.00  0.00     0.093 A 
ATOM      8  C   UNL     1      10.546   3.659 -20.827  1.00  0.00     0.123 A 
ATOM      9  C   UNL     1       9.593   2.930 -20.121  1.00  0.00     0.094 A 
ATOM     10  C   UNL     1       9.125   3.381 -18.884  1.00  0.00     0.146 A 
ATOM     11  O   UNL     1       8.225   2.649 -18.240  1.00  0.00    -0.452 OA
ENDROOT
BRANCH   1  12
ATOM     12  C   UNL     1       6.711   2.085 -16.452  1.00  0.00     0.021 A 
ATOM     13  C   UNL     1       5.339   2.265 -16.709  1.00  0.00     0.016 A 
ATOM     14  C   UNL     1       4.395   1.398 -16.151  1.00  0.00     0.047 A 
ATOM     15  C   UNL     1       4.809   0.333 -15.342  1.00  0.00     0.115 A 
ATOM     16  C   UNL     1       7.118   1.002 -15.655  1.00  0.00     0.016 A 
ATOM     17  C   UNL     1       6.171   0.137 -15.097  1.00  0.00     0.047 A 
BRANCH  15  18
ATOM     18  O   UNL     1       3.877  -0.536 -14.778  1.00  0.00    -0.508 OA
ATOM     19  H   UNL     1       4.115  -1.495 -14.553  1.00  0.00     0.293 HD
ENDBRANCH  15  18
ENDBRANCH   1  12
BRANCH   2  20
ATOM     20  O   UNL     1       7.762   4.422 -15.100  1.00  0.00    -0.502 OA
ATOM     21  H   UNL     1       7.765   3.740 -14.351  1.00  0.00     0.293 HD
ENDBRANCH   2  20
BRANCH   6  22
ATOM     22  O   UNL     1      11.005   6.626 -18.704  1.00  0.00    -0.507 OA
ATOM     23  H   UNL     1      10.415   7.400 -18.439  1.00  0.00     0.293 HD
ENDBRANCH   6  22
BRANCH   8  24
ATOM     24  O   UNL     1      11.013   3.180 -22.048  1.00  0.00    -0.508 OA
ATOM     25  H   UNL     1      11.376   3.804 -22.759  1.00  0.00     0.293 HD
ENDBRANCH   8  24
TORSDOF 5
ENDMDL
MODEL 6
REMARK VINA RESULT:    -5.753      6.242      9.790
REMARK INTER + INTRA:          -7.062
REMARK INTER:                  -6.925
REMARK INTRA:                  -0.137
REMARK UNBOUND:                -0.300
REMARK SMILES O=c1c(O)c(-c2ccc(O)cc2)oc2cc(O)cc(O)c12
REMARK SMILES IDX 5 1 3 2 2 3 1 4 21 5 19 6 18 7 16 8 15 9 14 10 13 11 6 12
REMARK SMILES IDX 7 13 8 14 9 15 12 16 11 17 10 18 4 20 20 22 17 24
REMARK H PARENT 10 19 4 21 20 23 17 25
REMARK Flexibility Score: inf
ROOT
ATOM      1  C   UNL     1      17.551  -1.381 -15.780  1.00  0.00     0.180 A 
ATOM      2  C   UNL     1      17.049  -0.234 -15.142  1.00  0.00     0.208 A 
ATOM      3  C   UNL     1      16.178  -0.387 -14.051  1.00  0.00     0.238 A 
ATOM      4  O   UNL     1      15.689   0.644 -13.519  1.00  0.00    -0.285 OA
ATOM      5  C   UNL     1      15.833  -1.684 -13.602  1.00  0.00     0.111 A 
ATOM      6  C   UNL     1      14.993  -1.957 -12.481  1.00  0.00     0.134 A 
ATOM      7  C   UNL     1      14.614  -3.277 -12.207  1.00  0.00     0.093 A 
ATOM      8  C   UNL     1      15.100  -4.340 -12.973  1.00  0.00     0.123 A 
ATOM      9  C   UNL     1      15.968  -4.088 -14.032  1.00  0.00     0.094 A 
ATOM     10  C   UNL     1      16.336  -2.779 -14.353  1.00  0.00     0.146 A 
ATOM     11  O   UNL     1      17.158  -2.583 -15.377  1.00  0.00    -0.452 OA
ENDROOT
BRANCH   1  12
ATOM     12  C   UNL     1      18.493  -1.300 -16.920  1.00  0.00     0.021 A 
ATOM     13  C   UNL     1      19.766  -0.717 -16.779  1.00  0.00     0.016 A 
ATOM     14  C   UNL     1      20.647  -0.675 -17.864  1.00  0.00     0.047 A 
ATOM     15  C   UNL     1      20.275  -1.226 -19.096  1.00  0.00     0.115 A 
ATOM     16  C   UNL     1      18.136  -1.868 -18.154  1.00  0.00     0.016 A 
ATOM     17  C   UNL     1      19.019  -1.823 -19.237  1.00  0.00     0.047 A 
BRANCH  15  18
ATOM     18  O   UNL     1      21.145  -1.187 -20.184  1.00  0.00    -0.508 OA
ATOM     19  H   UNL     1      20.988  -1.756 -21.008  1.00  0.00     0.293 HD
ENDBRANCH  15  18
ENDBRANCH   1  12
BRANCH   2  20
ATOM     20  O   UNL     1      17.384   1.038 -15.616  1.00  0.00    -0.502 OA
ATOM     21  H   UNL     1      17.957   1.683 -15.085  1.00  0.00     0.293 HD
ENDBRANCH   2  20
BRANCH   6  22
ATOM     22  O   UNL     1      14.528  -0.978 -11.598  1.00  0.00    -0.507 OA
ATOM     23  H   UNL     1      13.627  -0.528 -11.661  1.00  0.00     0.293 HD
ENDBRANCH   6  22
BRANCH   8  24
ATOM     24  O   UNL     1      14.730  -5.651 -12.684  1.00  0.00    -0.508 OA
ATOM     25  H   UNL     1      15.018  -6.106 -11.825  1.00  0.00     0.293 HD
ENDBRANCH   8  24
TORSDOF 5
ENDMDL
MODEL 7
REMARK VINA RESULT:    -5.650      6.230      9.465
REMARK INTER + INTRA:          -6.941
REMARK INTER:                  -7.082
REMARK INTRA:                   0.141
REMARK UNBOUND:                -0.300
REMARK SMILES O=c1c(O)c(-c2ccc(O)cc2)oc2cc(O)cc(O)c12
REMARK SMILES IDX 5 1 3 2 2 3 1 4 21 5 19 6 18 7 16 8 15 9 14 10 13 11 6 12
REMARK SMILES IDX 7 13 8 14 9 15 12 16 11 17 10 18 4 20 20 22 17 24
REMARK H PARENT 10 19 4 21 20 23 17 25
REMARK Flexibility Score: inf
ROOT
ATOM      1  C   UNL     1      17.762  -3.128 -16.050  1.00  0.00     0.180 A 
ATOM      2  C   UNL     1      17.677  -4.498 -15.750  1.00  0.00     0.208 A 
ATOM      3  C   UNL     1      16.819  -4.917 -14.720  1.00  0.00     0.238 A 
ATOM      4  O   UNL     1      16.789  -6.139 -14.420  1.00  0.00    -0.285 OA
ATOM      5  C   UNL     1      16.045  -3.964 -14.016  1.00  0.00     0.111 A 
ATOM      6  C   UNL     1      15.113  -4.282 -12.983  1.00  0.00     0.134 A 
ATOM      7  C   UNL     1      14.498  -3.247 -12.266  1.00  0.00     0.093 A 
ATOM      8  C   UNL     1      14.733  -1.908 -12.589  1.00  0.00     0.123 A 
ATOM      9  C   UNL     1      15.595  -1.591 -13.635  1.00  0.00     0.094 A 
ATOM     10  C   UNL     1      16.251  -2.599 -14.346  1.00  0.00     0.146 A 
ATOM     11  O   UNL     1      17.073  -2.252 -15.328  1.00  0.00    -0.452 OA
ENDROOT
BRANCH   1  12
ATOM     12  C   UNL     1      18.625  -2.611 -17.138  1.00  0.00     0.021 A 
ATOM     13  C   UNL     1      18.738  -3.286 -18.367  1.00  0.00     0.016 A 
ATOM     14  C   UNL     1      19.540  -2.765 -19.387  1.00  0.00     0.047 A 
ATOM     15  C   UNL     1      20.226  -1.559 -19.198  1.00  0.00     0.115 A 
ATOM     16  C   UNL     1      19.301  -1.392 -16.964  1.00  0.00     0.016 A 
ATOM     17  C   UNL     1      20.103  -0.875 -17.986  1.00  0.00     0.047 A 
BRANCH  15  18
ATOM     18  O   UNL     1      21.030  -1.033 -20.208  1.00  0.00    -0.508 OA
ATOM     19  H   UNL     1      21.546  -1.633 -20.841  1.00  0.00     0.293 HD
ENDBRANCH  15  18
ENDBRANCH   1  12
BRANCH   2  20
ATOM     20  O   UNL     1      18.468  -5.419 -16.442  1.00  0.00    -0.502 OA
ATOM     21  H   UNL     1      19.087  -6.068 -15.970  1.00  0.00     0.293 HD
ENDBRANCH   2  20
BRANCH   6  22
ATOM     22  O   UNL     1      14.739  -5.585 -12.643  1.00  0.00    -0.507 OA
ATOM     23  H   UNL     1      14.211  -6.205 -13.239  1.00  0.00     0.293 HD
ENDBRANCH   6  22
BRANCH   8  24
ATOM     24  O   UNL     1      14.105  -0.886 -11.881  1.00  0.00    -0.508 OA
ATOM     25  H   UNL     1      14.621  -0.287 -11.246  1.00  0.00     0.293 HD
ENDBRANCH   8  24
TORSDOF 5
ENDMDL
MODEL 8
REMARK VINA RESULT:    -5.647      8.111     10.576
REMARK INTER + INTRA:          -6.938
REMARK INTER:                  -6.687
REMARK INTRA:                  -0.251
REMARK UNBOUND:                -0.300
REMARK SMILES O=c1c(O)c(-c2ccc(O)cc2)oc2cc(O)cc(O)c12
REMARK SMILES IDX 5 1 3 2 2 3 1 4 21 5 19 6 18 7 16 8 15 9 14 10 13 11 6 12
REMARK SMILES IDX 7 13 8 14 9 15 12 16 11 17 10 18 4 20 20 22 17 24
REMARK H PARENT 10 19 4 21 20 23 17 25
REMARK Flexibility Score: inf
ROOT
ATOM      1  C   UNL     1      18.356  -1.651  -8.206  1.00  0.00     0.180 A 
ATOM      2  C   UNL     1      17.476  -2.491  -8.909  1.00  0.00     0.208 A 
ATOM      3  C   UNL     1      16.410  -1.919  -9.622  1.00  0.00     0.238 A 
ATOM      4  O   UNL     1      15.595  -2.681 -10.204  1.00  0.00    -0.285 OA
ATOM      5  C   UNL     1      16.246  -0.513  -9.636  1.00  0.00     0.111 A 
ATOM      6  C   UNL     1      15.226   0.177 -10.358  1.00  0.00     0.134 A 
ATOM      7  C   UNL     1      15.080   1.560 -10.194  1.00  0.00     0.093 A 
ATOM      8  C   UNL     1      15.959   2.287  -9.387  1.00  0.00     0.123 A 
ATOM      9  C   UNL     1      16.994   1.630  -8.727  1.00  0.00     0.094 A 
ATOM     10  C   UNL     1      17.144   0.246  -8.840  1.00  0.00     0.146 A 
ATOM     11  O   UNL     1      18.138  -0.341  -8.185  1.00  0.00    -0.452 OA
ENDROOT
BRANCH   1  12
ATOM     12  C   UNL     1      19.517  -2.177  -7.453  1.00  0.00     0.021 A 
ATOM     13  C   UNL     1      20.824  -2.091  -7.967  1.00  0.00     0.016 A 
ATOM     14  C   UNL     1      21.907  -2.574  -7.227  1.00  0.00     0.047 A 
ATOM     15  C   UNL     1      21.701  -3.135  -5.960  1.00  0.00     0.115 A 
ATOM     16  C   UNL     1      19.322  -2.723  -6.174  1.00  0.00     0.016 A 
ATOM     17  C   UNL     1      20.407  -3.205  -5.436  1.00  0.00     0.047 A 
BRANCH  15  18
ATOM     18  O   UNL     1      22.774  -3.621  -5.215  1.00  0.00    -0.508 OA
ATOM     19  H   UNL     1      22.632  -4.107  -4.337  1.00  0.00     0.293 HD
ENDBRANCH  15  18
ENDBRANCH   1  12
BRANCH   2  20
ATOM     20  O   UNL     1      17.643  -3.879  -8.863  1.00  0.00    -0.502 OA
ATOM     21  H   UNL     1      17.946  -4.362  -8.026  1.00  0.00     0.293 HD
ENDBRANCH   2  20
BRANCH   6  22
ATOM     22  O   UNL     1      14.355  -0.441 -11.260  1.00  0.00    -0.507 OA
ATOM     23  H   UNL     1      13.420  -0.123 -11.466  1.00  0.00     0.293 HD
ENDBRANCH   6  22
BRANCH   8  24
ATOM     24  O   UNL     1      15.816   3.665  -9.243  1.00  0.00    -0.508 OA
ATOM     25  H   UNL     1      15.325   4.067  -8.452  1.00  0.00     0.293 HD
ENDBRANCH   8  24
TORSDOF 5
ENDMDL
MODEL 9
REMARK VINA RESULT:    -5.642     10.667     11.826
REMARK INTER + INTRA:          -6.932
REMARK INTER:                  -6.674
REMARK INTRA:                  -0.257
REMARK UNBOUND:                -0.300
REMARK SMILES O=c1c(O)c(-c2ccc(O)cc2)oc2cc(O)cc(O)c12
REMARK SMILES IDX 5 1 3 2 2 3 1 4 21 5 19 6 18 7 16 8 15 9 14 10 13 11 6 12
REMARK SMILES IDX 7 13 8 14 9 15 12 16 11 17 10 18 4 20 20 22 17 24
REMARK H PARENT 10 19 4 21 20 23 17 25
REMARK Flexibility Score: inf
ROOT
ATOM      1  C   UNL     1       7.395   2.980 -17.120  1.00  0.00     0.180 A 
ATOM      2  C   UNL     1       6.698   4.068 -16.568  1.00  0.00     0.208 A 
ATOM      3  C   UNL     1       5.832   3.843 -15.486  1.00  0.00     0.238 A 
ATOM      4  O   UNL     1       5.169   4.812 -15.032  1.00  0.00    -0.285 OA
ATOM      5  C   UNL     1       5.688   2.538 -14.958  1.00  0.00     0.111 A 
ATOM      6  C   UNL     1       4.870   2.203 -13.837  1.00  0.00     0.134 A 
ATOM      7  C   UNL     1       4.701   0.858 -13.483  1.00  0.00     0.093 A 
ATOM      8  C   UNL     1       5.373  -0.157 -14.169  1.00  0.00     0.123 A 
ATOM      9  C   UNL     1       6.220   0.166 -15.226  1.00  0.00     0.094 A 
ATOM     10  C   UNL     1       6.381   1.495 -15.626  1.00  0.00     0.146 A 
ATOM     11  O   UNL     1       7.189   1.757 -16.646  1.00  0.00    -0.452 OA
ENDROOT
BRANCH   1  12
ATOM     12  C   UNL     1       8.344   3.141 -18.246  1.00  0.00     0.021 A 
ATOM     13  C   UNL     1       9.636   3.663 -18.047  1.00  0.00     0.016 A 
ATOM     14  C   UNL     1      10.523   3.783 -19.121  1.00  0.00     0.047 A 
ATOM     15  C   UNL     1      10.136   3.371 -20.403  1.00  0.00     0.115 A 
ATOM     16  C   UNL     1       7.973   2.712 -19.531  1.00  0.00     0.016 A 
ATOM     17  C   UNL     1       8.861   2.835 -20.603  1.00  0.00     0.047 A 
BRANCH  15  18
ATOM     18  O   UNL     1      11.011   3.489 -21.481  1.00  0.00    -0.508 OA
ATOM     19  H   UNL     1      11.335   2.675 -21.992  1.00  0.00     0.293 HD
ENDBRANCH  15  18
ENDBRANCH   1  12
BRANCH   2  20
ATOM     20  O   UNL     1       6.837   5.345 -17.120  1.00  0.00    -0.502 OA
ATOM     21  H   UNL     1       6.792   5.514 -18.117  1.00  0.00     0.293 HD
ENDBRANCH   2  20
BRANCH   6  22
ATOM     22  O   UNL     1       4.230   3.146 -13.029  1.00  0.00    -0.507 OA
ATOM     23  H   UNL     1       4.684   3.936 -12.596  1.00  0.00     0.293 HD
ENDBRANCH   6  22
BRANCH   8  24
ATOM     24  O   UNL     1       5.212  -1.491 -13.800  1.00  0.00    -0.508 OA
ATOM     25  H   UNL     1       5.812  -1.927 -13.110  1.00  0.00     0.293 HD
ENDBRANCH   8  24
TORSDOF 5
ENDMDL
