MODEL 1
REMARK VINA RESULT:     6.014      0.000      0.000
REMARK INTER + INTRA:           7.774
REMARK INTER:                   7.244
REMARK INTRA:                   0.530
REMARK UNBOUND:                 0.530
REMARK SMILES O=c1c(O)c(-c2ccc(O)c(O)c2)oc2cc(O)cc(O)c12
REMARK SMILES IDX 5 1 3 2 2 3 1 4 22 5 20 6 19 7 17 8 16 9 15 10 14 11 6 12
REMARK SMILES IDX 7 13 8 14 9 15 13 16 11 17 10 18 12 20 4 22 21 24 18 26
REMARK H PARENT 10 19 12 21 4 23 21 25 18 27
REMARK Flexibility Score: inf
ROOT
ATOM      1  C   UNL     1      61.310  26.624  15.330  1.00  0.00     0.180 A 
ATOM      2  C   UNL     1      61.822  27.499  16.307  1.00  0.00     0.208 A 
ATOM      3  C   UNL     1      60.941  28.055  17.248  1.00  0.00     0.238 A 
ATOM      4  O   UNL     1      61.390  28.831  18.135  1.00  0.00    -0.285 OA
ATOM      5  C   UNL     1      59.568  27.745  17.185  1.00  0.00     0.111 A 
ATOM      6  C   UNL     1      58.613  28.266  18.092  1.00  0.00     0.134 A 
ATOM      7  C   UNL     1      57.261  27.918  17.956  1.00  0.00     0.093 A 
ATOM      8  C   UNL     1      56.846  27.061  16.934  1.00  0.00     0.123 A 
ATOM      9  C   UNL     1      57.784  26.543  16.035  1.00  0.00     0.094 A 
ATOM     10  C   UNL     1      59.136  26.877  16.155  1.00  0.00     0.146 A 
ATOM     11  O   UNL     1      60.006  26.366  15.291  1.00  0.00    -0.452 OA
ENDROOT
BRANCH   1  12
ATOM     12  C   UNL     1      62.178  25.984  14.315  1.00  0.00     0.025 A 
ATOM     13  C   UNL     1      63.568  26.172  14.376  1.00  0.00     0.016 A 
ATOM     14  C   UNL     1      64.404  25.595  13.417  1.00  0.00     0.051 A 
ATOM     15  C   UNL     1      63.860  24.834  12.374  1.00  0.00     0.157 A 
ATOM     16  C   UNL     1      61.636  25.237  13.254  1.00  0.00     0.062 A 
ATOM     17  C   UNL     1      62.474  24.659  12.289  1.00  0.00     0.158 A 
BRANCH  15  18
ATOM     18  O   UNL     1      64.691  24.255  11.416  1.00  0.00    -0.504 OA
ATOM     19  H   UNL     1      65.700  24.329  11.475  1.00  0.00     0.293 HD
ENDBRANCH  15  18
BRANCH  17  20
ATOM     20  O   UNL     1      61.936  23.914  11.242  1.00  0.00    -0.504 OA
ATOM     21  H   UNL     1      62.168  22.935  11.113  1.00  0.00     0.293 HD
ENDBRANCH  17  20
ENDBRANCH   1  12
BRANCH   2  22
ATOM     22  O   UNL     1      63.180  27.828  16.318  1.00  0.00    -0.502 OA
ATOM     23  H   UNL     1      63.861  27.342  15.748  1.00  0.00     0.293 HD
ENDBRANCH   2  22
BRANCH   6  24
ATOM     24  O   UNL     1      58.997  29.125  19.123  1.00  0.00    -0.507 OA
ATOM     25  H   UNL     1      58.315  29.574  19.724  1.00  0.00     0.293 HD
ENDBRANCH   6  24
BRANCH   8  26
ATOM     26  O   UNL     1      55.496  26.731  16.821  1.00  0.00    -0.508 OA
ATOM     27  H   UNL     1      55.086  25.987  17.372  1.00  0.00     0.293 HD
ENDBRANCH   8  26
TORSDOF 6
ENDMDL
MODEL 2
REMARK VINA RESULT:     7.092      2.174      6.333
REMARK INTER + INTRA:           9.074
REMARK INTER:                   9.007
REMARK INTRA:                   0.066
REMARK UNBOUND:                 0.530
REMARK SMILES O=c1c(O)c(-c2ccc(O)c(O)c2)oc2cc(O)cc(O)c12
REMARK SMILES IDX 5 1 3 2 2 3 1 4 22 5 20 6 19 7 17 8 16 9 15 10 14 11 6 12
REMARK SMILES IDX 7 13 8 14 9 15 13 16 11 17 10 18 12 20 4 22 21 24 18 26
REMARK H PARENT 10 19 12 21 4 23 21 25 18 27
REMARK Flexibility Score: inf
ROOT
ATOM      1  C   UNL     1      57.867  26.501  16.442  1.00  0.00     0.180 A 
ATOM      2  C   UNL     1      57.988  27.536  17.390  1.00  0.00     0.208 A 
ATOM      3  C   UNL     1      59.256  28.087  17.633  1.00  0.00     0.238 A 
ATOM      4  O   UNL     1      59.375  29.022  18.470  1.00  0.00    -0.285 OA
ATOM      5  C   UNL     1      60.378  27.585  16.943  1.00  0.00     0.111 A 
ATOM      6  C   UNL     1      61.690  28.082  17.134  1.00  0.00     0.134 A 
ATOM      7  C   UNL     1      62.758  27.521  16.416  1.00  0.00     0.093 A 
ATOM      8  C   UNL     1      62.540  26.476  15.517  1.00  0.00     0.123 A 
ATOM      9  C   UNL     1      61.246  25.981  15.324  1.00  0.00     0.094 A 
ATOM     10  C   UNL     1      60.169  26.527  16.028  1.00  0.00     0.146 A 
ATOM     11  O   UNL     1      58.949  26.041  15.822  1.00  0.00    -0.452 OA
ENDROOT
BRANCH   1  12
ATOM     12  C   UNL     1      56.562  25.882  16.117  1.00  0.00     0.025 A 
ATOM     13  C   UNL     1      55.721  25.454  17.157  1.00  0.00     0.016 A 
ATOM     14  C   UNL     1      54.495  24.847  16.874  1.00  0.00     0.051 A 
ATOM     15  C   UNL     1      54.099  24.646  15.545  1.00  0.00     0.157 A 
ATOM     16  C   UNL     1      56.168  25.658  14.785  1.00  0.00     0.062 A 
ATOM     17  C   UNL     1      54.938  25.047  14.500  1.00  0.00     0.158 A 
BRANCH  15  18
ATOM     18  O   UNL     1      52.875  24.042  15.258  1.00  0.00    -0.504 OA
ATOM     19  H   UNL     1      52.822  23.171  14.742  1.00  0.00     0.293 HD
ENDBRANCH  15  18
BRANCH  17  20
ATOM     20  O   UNL     1      54.547  24.831  13.180  1.00  0.00    -0.504 OA
ATOM     21  H   UNL     1      54.858  25.436  12.429  1.00  0.00     0.293 HD
ENDBRANCH  17  20
ENDBRANCH   1  12
BRANCH   2  22
ATOM     22  O   UNL     1      56.867  27.983  18.094  1.00  0.00    -0.502 OA
ATOM     23  H   UNL     1      56.494  27.484  18.893  1.00  0.00     0.293 HD
ENDBRANCH   2  22
BRANCH   6  24
ATOM     24  O   UNL     1      61.940  29.125  18.026  1.00  0.00    -0.507 OA
ATOM     25  H   UNL     1      61.878  28.994  19.030  1.00  0.00     0.293 HD
ENDBRANCH   6  24
BRANCH   8  26
ATOM     26  O   UNL     1      63.617  25.936  14.817  1.00  0.00    -0.508 OA
ATOM     27  H   UNL     1      64.527  26.380  14.821  1.00  0.00     0.293 HD
ENDBRANCH   8  26
TORSDOF 6
ENDMDL
MODEL 3
REMARK VINA RESULT:     8.422      1.634      2.673
REMARK INTER + INTRA:          10.675
REMARK INTER:                  10.365
REMARK INTRA:                   0.310
REMARK UNBOUND:                 0.530
REMARK SMILES O=c1c(O)c(-c2ccc(O)c(O)c2)oc2cc(O)cc(O)c12
REMARK SMILES IDX 5 1 3 2 2 3 1 4 22 5 20 6 19 7 17 8 16 9 15 10 14 11 6 12
REMARK SMILES IDX 7 13 8 14 9 15 13 16 11 17 10 18 12 20 4 22 21 24 18 26
REMARK H PARENT 10 19 12 21 4 23 21 25 18 27
REMARK Flexibility Score: inf
ROOT
ATOM      1  C   UNL     1      59.713  26.804  16.151  1.00  0.00     0.180 A 
ATOM      2  C   UNL     1      59.386  27.938  16.918  1.00  0.00     0.208 A 
ATOM      3  C   UNL     1      58.056  28.119  17.329  1.00  0.00     0.238 A 
ATOM      4  O   UNL     1      57.753  29.125  18.026  1.00  0.00    -0.285 OA
ATOM      5  C   UNL     1      57.076  27.178  16.951  1.00  0.00     0.111 A 
ATOM      6  C   UNL     1      55.714  27.289  17.319  1.00  0.00     0.134 A 
ATOM      7  C   UNL     1      54.796  26.315  16.895  1.00  0.00     0.093 A 
ATOM      8  C   UNL     1      55.214  25.238  16.110  1.00  0.00     0.123 A 
ATOM      9  C   UNL     1      56.559  25.123  15.744  1.00  0.00     0.094 A 
ATOM     10  C   UNL     1      57.488  26.081  16.158  1.00  0.00     0.146 A 
ATOM     11  O   UNL     1      58.760  25.945  15.800  1.00  0.00    -0.452 OA
ENDROOT
BRANCH   1  12
ATOM     12  C   UNL     1      61.096  26.534  15.696  1.00  0.00     0.025 A 
ATOM     13  C   UNL     1      62.178  26.987  16.467  1.00  0.00     0.016 A 
ATOM     14  C   UNL     1      63.492  26.762  16.047  1.00  0.00     0.051 A 
ATOM     15  C   UNL     1      63.741  26.095  14.840  1.00  0.00     0.157 A 
ATOM     16  C   UNL     1      61.352  25.884  14.475  1.00  0.00     0.062 A 
ATOM     17  C   UNL     1      62.670  25.660  14.050  1.00  0.00     0.158 A 
BRANCH  15  18
ATOM     18  O   UNL     1      65.049  25.868  14.417  1.00  0.00    -0.504 OA
ATOM     19  H   UNL     1      65.256  25.561  13.473  1.00  0.00     0.293 HD
ENDBRANCH  15  18
BRANCH  17  20
ATOM     20  O   UNL     1      62.922  25.010  12.844  1.00  0.00    -0.504 OA
ATOM     21  H   UNL     1      63.858  24.723  12.582  1.00  0.00     0.293 HD
ENDBRANCH  17  20
ENDBRANCH   1  12
BRANCH   2  22
ATOM     22  O   UNL     1      60.367  28.881  17.239  1.00  0.00    -0.502 OA
ATOM     23  H   UNL     1      61.050  29.203  16.564  1.00  0.00     0.293 HD
ENDBRANCH   2  22
BRANCH   6  24
ATOM     24  O   UNL     1      55.265  28.354  18.102  1.00  0.00    -0.507 OA
ATOM     25  H   UNL     1      55.564  28.472  19.063  1.00  0.00     0.293 HD
ENDBRANCH   6  24
BRANCH   8  26
ATOM     26  O   UNL     1      54.283  24.285  15.701  1.00  0.00    -0.508 OA
ATOM     27  H   UNL     1      53.377  24.204  16.148  1.00  0.00     0.293 HD
ENDBRANCH   8  26
TORSDOF 6
ENDMDL
