MODEL 1
REMARK VINA RESULT:    -9.644      0.000      0.000
REMARK INTER + INTRA:          -9.926
REMARK INTER:                  -9.926
REMARK INTRA:                   0.000
REMARK UNBOUND:                 0.000
REMARK SMILES CC1(C)CC[C@]2(C)CC[C@]3(C)C(=CC[C@H]4[C@@]5(C)CC[C@H](O)C(C)(C)[C@@H]5CC[C@@]43C)[C@@H]2C1
REMARK SMILES IDX 1 1 2 2 4 3 5 4 6 5 8 6 9 7 10 8 12 9 13 10 14 11 15 12
REMARK SMILES IDX 28 13 27 14 26 15 25 16 16 17 18 18 19 19 20 20 22 21 23 22
REMARK SMILES IDX 24 23 17 24 29 25 30 26 31 27 11 28 7 29 3 30 21 31
REMARK H PARENT 21 32
REMARK Flexibility Score: inf
ROOT
ATOM      1  C   UNL     1     130.426 132.331 141.186  1.00  0.00     0.011 C 
ATOM      2  C   UNL     1     129.561 131.275 140.462  1.00  0.00    -0.035 C 
ATOM      3  C   UNL     1     129.777 131.399 138.915  1.00  0.00     0.007 C 
ATOM      4  C   UNL     1     130.064 130.057 138.230  1.00  0.00     0.008 C 
ATOM      5  C   UNL     1     131.303 129.319 138.835  1.00  0.00    -0.026 C 
ATOM      6  C   UNL     1     131.411 127.896 138.209  1.00  0.00     0.008 C 
ATOM      7  C   UNL     1     130.479 126.888 138.888  1.00  0.00     0.012 C 
ATOM      8  C   UNL     1     130.850 126.583 140.396  1.00  0.00    -0.006 C 
ATOM      9  C   UNL     1     131.522 127.867 140.992  1.00  0.00    -0.064 C 
ATOM     10  C   UNL     1     132.560 127.787 141.874  1.00  0.00    -0.027 C 
ATOM     11  C   UNL     1     133.450 126.577 141.995  1.00  0.00     0.032 C 
ATOM     12  C   UNL     1     133.306 125.691 140.739  1.00  0.00     0.006 C 
ATOM     13  C   UNL     1     131.801 125.253 140.613  1.00  0.00    -0.020 C 
ATOM     14  C   UNL     1     131.734 124.263 139.411  1.00  0.00     0.008 C 
ATOM     15  C   UNL     1     132.576 122.981 139.539  1.00  0.00     0.005 C 
ATOM     16  C   UNL     1     133.879 123.124 140.368  1.00  0.00     0.003 C 
ATOM     17  C   UNL     1     134.461 124.590 140.448  1.00  0.00    -0.025 C 
ATOM     18  C   UNL     1     135.554 124.573 141.567  1.00  0.00     0.010 C 
ATOM     19  C   UNL     1     136.616 123.471 141.401  1.00  0.00     0.033 C 
ATOM     20  C   UNL     1     136.007 122.058 141.285  1.00  0.00     0.120 C 
ATOM     21  C   UNL     1     134.919 121.945 140.166  1.00  0.00    -0.006 C 
ATOM     22  C   UNL     1     135.570 121.901 138.750  1.00  0.00     0.014 C 
ATOM     23  C   UNL     1     134.185 120.584 140.373  1.00  0.00     0.014 C 
ATOM     24  C   UNL     1     135.150 125.004 139.108  1.00  0.00     0.012 C 
ATOM     25  C   UNL     1     131.343 124.498 141.923  1.00  0.00     0.012 C 
ATOM     26  C   UNL     1     131.218 129.268 140.414  1.00  0.00     0.022 C 
ATOM     27  C   UNL     1     129.902 129.846 140.986  1.00  0.00     0.015 C 
ATOM     28  C   UNL     1     129.468 126.392 141.106  1.00  0.00     0.017 C 
ATOM     29  C   UNL     1     132.586 130.088 138.411  1.00  0.00     0.012 C 
ATOM     30  C   UNL     1     128.081 131.572 140.802  1.00  0.00     0.011 C 
ENDROOT
BRANCH  20  31
ATOM     31  O   UNL     1     137.032 121.121 141.063  1.00  0.00    -0.393 OA
ATOM     32  H   UNL     1     136.871 120.719 140.162  1.00  0.00     0.210 HD
ENDBRANCH  20  31
TORSDOF 1
ENDMDL
MODEL 2
REMARK VINA RESULT:    -8.838      1.426      3.590
REMARK INTER + INTRA:          -9.096
REMARK INTER:                  -9.096
REMARK INTRA:                   0.000
REMARK UNBOUND:                 0.000
REMARK SMILES CC1(C)CC[C@]2(C)CC[C@]3(C)C(=CC[C@H]4[C@@]5(C)CC[C@H](O)C(C)(C)[C@@H]5CC[C@@]43C)[C@@H]2C1
REMARK SMILES IDX 1 1 2 2 4 3 5 4 6 5 8 6 9 7 10 8 12 9 13 10 14 11 15 12
REMARK SMILES IDX 28 13 27 14 26 15 25 16 16 17 18 18 19 19 20 20 22 21 23 22
REMARK SMILES IDX 24 23 17 24 29 25 30 26 31 27 11 28 7 29 3 30 21 31
REMARK H PARENT 21 32
REMARK Flexibility Score: inf
ROOT
ATOM      1  C   UNL     1     126.766 132.011 140.760  1.00  0.00     0.011 C 
ATOM      2  C   UNL     1     128.200 132.491 140.445  1.00  0.00    -0.035 C 
ATOM      3  C   UNL     1     128.923 132.880 141.779  1.00  0.00     0.007 C 
ATOM      4  C   UNL     1     130.321 132.264 141.917  1.00  0.00     0.008 C 
ATOM      5  C   UNL     1     130.310 130.704 141.808  1.00  0.00    -0.026 C 
ATOM      6  C   UNL     1     131.778 130.178 141.776  1.00  0.00     0.008 C 
ATOM      7  C   UNL     1     132.400 130.272 140.380  1.00  0.00     0.012 C 
ATOM      8  C   UNL     1     131.720 129.327 139.308  1.00  0.00    -0.006 C 
ATOM      9  C   UNL     1     130.216 129.153 139.711  1.00  0.00    -0.064 C 
ATOM     10  C   UNL     1     129.565 127.965 139.549  1.00  0.00    -0.027 C 
ATOM     11  C   UNL     1     130.277 126.641 139.440  1.00  0.00     0.032 C 
ATOM     12  C   UNL     1     131.721 126.776 139.968  1.00  0.00     0.006 C 
ATOM     13  C   UNL     1     132.460 127.868 139.110  1.00  0.00    -0.020 C 
ATOM     14  C   UNL     1     133.942 127.875 139.597  1.00  0.00     0.008 C 
ATOM     15  C   UNL     1     134.718 126.556 139.429  1.00  0.00     0.005 C 
ATOM     16  C   UNL     1     133.863 125.266 139.532  1.00  0.00     0.003 C 
ATOM     17  C   UNL     1     132.522 125.418 140.352  1.00  0.00    -0.025 C 
ATOM     18  C   UNL     1     131.676 124.135 140.063  1.00  0.00     0.010 C 
ATOM     19  C   UNL     1     132.427 122.812 140.304  1.00  0.00     0.033 C 
ATOM     20  C   UNL     1     133.751 122.718 139.517  1.00  0.00     0.120 C 
ATOM     21  C   UNL     1     134.700 123.939 139.758  1.00  0.00    -0.006 C 
ATOM     22  C   UNL     1     135.392 123.849 141.152  1.00  0.00     0.014 C 
ATOM     23  C   UNL     1     135.828 123.865 138.682  1.00  0.00     0.014 C 
ATOM     24  C   UNL     1     132.797 125.478 141.889  1.00  0.00     0.012 C 
ATOM     25  C   UNL     1     132.427 127.473 137.581  1.00  0.00     0.012 C 
ATOM     26  C   UNL     1     129.483 130.228 140.546  1.00  0.00     0.022 C 
ATOM     27  C   UNL     1     128.977 131.390 139.658  1.00  0.00     0.015 C 
ATOM     28  C   UNL     1     131.765 130.152 137.978  1.00  0.00     0.017 C 
ATOM     29  C   UNL     1     129.662 130.127 143.098  1.00  0.00     0.012 C 
ATOM     30  C   UNL     1     128.085 133.739 139.537  1.00  0.00     0.011 C 
ENDROOT
BRANCH  20  31
ATOM     31  O   UNL     1     134.409 121.519 139.846  1.00  0.00    -0.393 OA
ATOM     32  H   UNL     1     133.769 120.774 139.662  1.00  0.00     0.210 HD
ENDBRANCH  20  31
TORSDOF 1
ENDMDL
MODEL 3
REMARK VINA RESULT:    -8.743      2.864      8.176
REMARK INTER + INTRA:          -8.999
REMARK INTER:                  -8.999
REMARK INTRA:                   0.000
REMARK UNBOUND:                 0.000
REMARK SMILES CC1(C)CC[C@]2(C)CC[C@]3(C)C(=CC[C@H]4[C@@]5(C)CC[C@H](O)C(C)(C)[C@@H]5CC[C@@]43C)[C@@H]2C1
REMARK SMILES IDX 1 1 2 2 4 3 5 4 6 5 8 6 9 7 10 8 12 9 13 10 14 11 15 12
REMARK SMILES IDX 28 13 27 14 26 15 25 16 16 17 18 18 19 19 20 20 22 21 23 22
REMARK SMILES IDX 24 23 17 24 29 25 30 26 31 27 11 28 7 29 3 30 21 31
REMARK H PARENT 21 32
REMARK Flexibility Score: inf
ROOT
ATOM      1  C   UNL     1     136.125 120.644 138.751  1.00  0.00     0.011 C 
ATOM      2  C   UNL     1     135.429 121.168 140.027  1.00  0.00    -0.035 C 
ATOM      3  C   UNL     1     136.500 121.801 140.980  1.00  0.00     0.007 C 
ATOM      4  C   UNL     1     136.108 123.190 141.500  1.00  0.00     0.008 C 
ATOM      5  C   UNL     1     135.819 124.209 140.350  1.00  0.00    -0.026 C 
ATOM      6  C   UNL     1     135.256 125.529 140.960  1.00  0.00     0.008 C 
ATOM      7  C   UNL     1     133.757 125.440 141.259  1.00  0.00     0.012 C 
ATOM      8  C   UNL     1     132.852 125.296 139.969  1.00  0.00    -0.006 C 
ATOM      9  C   UNL     1     133.689 124.545 138.879  1.00  0.00    -0.064 C 
ATOM     10  C   UNL     1     133.599 124.871 137.558  1.00  0.00    -0.027 C 
ATOM     11  C   UNL     1     133.108 126.209 137.068  1.00  0.00     0.032 C 
ATOM     12  C   UNL     1     133.160 127.239 138.217  1.00  0.00     0.006 C 
ATOM     13  C   UNL     1     132.251 126.718 139.389  1.00  0.00    -0.020 C 
ATOM     14  C   UNL     1     132.236 127.847 140.464  1.00  0.00     0.008 C 
ATOM     15  C   UNL     1     131.669 129.206 140.014  1.00  0.00     0.005 C 
ATOM     16  C   UNL     1     131.882 129.549 138.516  1.00  0.00     0.003 C 
ATOM     17  C   UNL     1     133.099 128.814 137.830  1.00  0.00    -0.025 C 
ATOM     18  C   UNL     1     132.941 129.036 136.290  1.00  0.00     0.010 C 
ATOM     19  C   UNL     1     132.766 130.509 135.875  1.00  0.00     0.033 C 
ATOM     20  C   UNL     1     131.593 131.203 136.597  1.00  0.00     0.120 C 
ATOM     21  C   UNL     1     131.665 131.077 138.155  1.00  0.00    -0.006 C 
ATOM     22  C   UNL     1     132.743 132.034 138.749  1.00  0.00     0.014 C 
ATOM     23  C   UNL     1     130.285 131.538 138.720  1.00  0.00     0.014 C 
ATOM     24  C   UNL     1     134.463 129.438 138.268  1.00  0.00     0.012 C 
ATOM     25  C   UNL     1     130.776 126.485 138.873  1.00  0.00     0.012 C 
ATOM     26  C   UNL     1     134.839 123.590 139.274  1.00  0.00     0.022 C 
ATOM     27  C   UNL     1     134.308 122.186 139.650  1.00  0.00     0.015 C 
ATOM     28  C   UNL     1     131.687 124.349 140.415  1.00  0.00     0.017 C 
ATOM     29  C   UNL     1     137.168 124.577 139.670  1.00  0.00     0.012 C 
ATOM     30  C   UNL     1     134.766 119.959 140.727  1.00  0.00     0.011 C 
ENDROOT
BRANCH  20  31
ATOM     31  O   UNL     1     131.545 132.558 136.221  1.00  0.00    -0.393 OA
ATOM     32  H   UNL     1     131.658 133.098 137.055  1.00  0.00     0.210 HD
ENDBRANCH  20  31
TORSDOF 1
ENDMDL
MODEL 4
REMARK VINA RESULT:    -8.718      2.673      8.370
REMARK INTER + INTRA:          -8.973
REMARK INTER:                  -8.973
REMARK INTRA:                   0.000
REMARK UNBOUND:                 0.000
REMARK SMILES CC1(C)CC[C@]2(C)CC[C@]3(C)C(=CC[C@H]4[C@@]5(C)CC[C@H](O)C(C)(C)[C@@H]5CC[C@@]43C)[C@@H]2C1
REMARK SMILES IDX 1 1 2 2 4 3 5 4 6 5 8 6 9 7 10 8 12 9 13 10 14 11 15 12
REMARK SMILES IDX 28 13 27 14 26 15 25 16 16 17 18 18 19 19 20 20 22 21 23 22
REMARK SMILES IDX 24 23 17 24 29 25 30 26 31 27 11 28 7 29 3 30 21 31
REMARK H PARENT 21 32
REMARK Flexibility Score: inf
ROOT
ATOM      1  C   UNL     1     138.169 119.551 140.661  1.00  0.00     0.011 C 
ATOM      2  C   UNL     1     137.225 119.897 139.489  1.00  0.00    -0.035 C 
ATOM      3  C   UNL     1     135.949 118.990 139.563  1.00  0.00     0.007 C 
ATOM      4  C   UNL     1     134.636 119.771 139.432  1.00  0.00     0.008 C 
ATOM      5  C   UNL     1     134.493 120.900 140.505  1.00  0.00    -0.026 C 
ATOM      6  C   UNL     1     133.227 121.754 140.188  1.00  0.00     0.008 C 
ATOM      7  C   UNL     1     133.492 122.811 139.112  1.00  0.00     0.012 C 
ATOM      8  C   UNL     1     134.512 123.937 139.554  1.00  0.00    -0.006 C 
ATOM      9  C   UNL     1     135.508 123.303 140.583  1.00  0.00    -0.064 C 
ATOM     10  C   UNL     1     135.972 124.006 141.656  1.00  0.00    -0.027 C 
ATOM     11  C   UNL     1     135.263 125.209 142.225  1.00  0.00     0.032 C 
ATOM     12  C   UNL     1     133.800 125.238 141.732  1.00  0.00     0.006 C 
ATOM     13  C   UNL     1     133.810 125.300 140.160  1.00  0.00    -0.020 C 
ATOM     14  C   UNL     1     132.322 125.456 139.721  1.00  0.00     0.008 C 
ATOM     15  C   UNL     1     131.593 126.715 140.226  1.00  0.00     0.005 C 
ATOM     16  C   UNL     1     132.066 127.246 141.605  1.00  0.00     0.003 C 
ATOM     17  C   UNL     1     132.744 126.168 142.538  1.00  0.00    -0.025 C 
ATOM     18  C   UNL     1     133.425 126.957 143.705  1.00  0.00     0.010 C 
ATOM     19  C   UNL     1     132.493 127.941 144.435  1.00  0.00     0.033 C 
ATOM     20  C   UNL     1     131.819 128.952 143.484  1.00  0.00     0.120 C 
ATOM     21  C   UNL     1     131.071 128.272 142.290  1.00  0.00    -0.006 C 
ATOM     22  C   UNL     1     129.723 127.641 142.755  1.00  0.00     0.014 C 
ATOM     23  C   UNL     1     130.719 129.395 141.266  1.00  0.00     0.014 C 
ATOM     24  C   UNL     1     131.682 125.206 143.163  1.00  0.00     0.012 C 
ATOM     25  C   UNL     1     134.622 126.563 139.670  1.00  0.00     0.012 C 
ATOM     26  C   UNL     1     135.802 121.785 140.579  1.00  0.00     0.022 C 
ATOM     27  C   UNL     1     136.864 121.415 139.517  1.00  0.00     0.015 C 
ATOM     28  C   UNL     1     135.316 124.267 138.251  1.00  0.00     0.017 C 
ATOM     29  C   UNL     1     134.241 120.233 141.886  1.00  0.00     0.012 C 
ATOM     30  C   UNL     1     137.988 119.608 138.174  1.00  0.00     0.011 C 
ENDROOT
BRANCH  20  31
ATOM     31  O   UNL     1     130.932 129.764 144.214  1.00  0.00    -0.393 OA
ATOM     32  H   UNL     1     130.012 129.406 144.059  1.00  0.00     0.210 HD
ENDBRANCH  20  31
TORSDOF 1
ENDMDL
MODEL 5
REMARK VINA RESULT:    -8.615      2.773      5.053
REMARK INTER + INTRA:          -8.867
REMARK INTER:                  -8.867
REMARK INTRA:                   0.000
REMARK UNBOUND:                 0.000
REMARK SMILES CC1(C)CC[C@]2(C)CC[C@]3(C)C(=CC[C@H]4[C@@]5(C)CC[C@H](O)C(C)(C)[C@@H]5CC[C@@]43C)[C@@H]2C1
REMARK SMILES IDX 1 1 2 2 4 3 5 4 6 5 8 6 9 7 10 8 12 9 13 10 14 11 15 12
REMARK SMILES IDX 28 13 27 14 26 15 25 16 16 17 18 18 19 19 20 20 22 21 23 22
REMARK SMILES IDX 24 23 17 24 29 25 30 26 31 27 11 28 7 29 3 30 21 31
REMARK H PARENT 21 32
REMARK Flexibility Score: inf
ROOT
ATOM      1  C   UNL     1     129.079 135.458 140.762  1.00  0.00     0.011 C 
ATOM      2  C   UNL     1     129.414 135.387 139.255  1.00  0.00    -0.035 C 
ATOM      3  C   UNL     1     130.778 136.111 138.992  1.00  0.00     0.007 C 
ATOM      4  C   UNL     1     131.752 135.286 138.142  1.00  0.00     0.008 C 
ATOM      5  C   UNL     1     132.059 133.883 138.762  1.00  0.00    -0.026 C 
ATOM      6  C   UNL     1     132.905 133.047 137.753  1.00  0.00     0.008 C 
ATOM      7  C   UNL     1     132.040 132.384 136.677  1.00  0.00     0.012 C 
ATOM      8  C   UNL     1     131.057 131.276 137.235  1.00  0.00    -0.006 C 
ATOM      9  C   UNL     1     130.680 131.667 138.704  1.00  0.00    -0.064 C 
ATOM     10  C   UNL     1     130.525 130.725 139.678  1.00  0.00    -0.027 C 
ATOM     11  C   UNL     1     131.134 129.348 139.600  1.00  0.00     0.032 C 
ATOM     12  C   UNL     1     132.260 129.332 138.544  1.00  0.00     0.006 C 
ATOM     13  C   UNL     1     131.641 129.737 137.156  1.00  0.00    -0.020 C 
ATOM     14  C   UNL     1     132.785 129.581 136.107  1.00  0.00     0.008 C 
ATOM     15  C   UNL     1     133.376 128.168 135.951  1.00  0.00     0.005 C 
ATOM     16  C   UNL     1     133.364 127.300 137.237  1.00  0.00     0.003 C 
ATOM     17  C   UNL     1     133.329 128.112 138.590  1.00  0.00    -0.025 C 
ATOM     18  C   UNL     1     132.996 127.081 139.718  1.00  0.00     0.010 C 
ATOM     19  C   UNL     1     133.913 125.843 139.738  1.00  0.00     0.033 C 
ATOM     20  C   UNL     1     133.953 125.100 138.386  1.00  0.00     0.120 C 
ATOM     21  C   UNL     1     134.312 126.030 137.181  1.00  0.00    -0.006 C 
ATOM     22  C   UNL     1     135.834 126.370 137.165  1.00  0.00     0.014 C 
ATOM     23  C   UNL     1     134.010 125.231 135.875  1.00  0.00     0.014 C 
ATOM     24  C   UNL     1     134.721 128.745 138.911  1.00  0.00     0.012 C 
ATOM     25  C   UNL     1     130.464 128.754 136.777  1.00  0.00     0.012 C 
ATOM     26  C   UNL     1     130.724 133.140 139.175  1.00  0.00     0.022 C 
ATOM     27  C   UNL     1     129.438 133.903 138.777  1.00  0.00     0.015 C 
ATOM     28  C   UNL     1     129.769 131.421 136.356  1.00  0.00     0.017 C 
ATOM     29  C   UNL     1     132.947 134.087 140.020  1.00  0.00     0.012 C 
ATOM     30  C   UNL     1     128.285 136.120 138.492  1.00  0.00     0.011 C 
ENDROOT
BRANCH  20  31
ATOM     31  O   UNL     1     134.863 124.031 138.464  1.00  0.00    -0.393 OA
ATOM     32  H   UNL     1     135.777 124.429 138.538  1.00  0.00     0.210 HD
ENDBRANCH  20  31
TORSDOF 1
ENDMDL
MODEL 6
REMARK VINA RESULT:    -8.208      2.739      8.088
REMARK INTER + INTRA:          -8.447
REMARK INTER:                  -8.447
REMARK INTRA:                   0.000
REMARK UNBOUND:                 0.000
REMARK SMILES CC1(C)CC[C@]2(C)CC[C@]3(C)C(=CC[C@H]4[C@@]5(C)CC[C@H](O)C(C)(C)[C@@H]5CC[C@@]43C)[C@@H]2C1
REMARK SMILES IDX 1 1 2 2 4 3 5 4 6 5 8 6 9 7 10 8 12 9 13 10 14 11 15 12
REMARK SMILES IDX 28 13 27 14 26 15 25 16 16 17 18 18 19 19 20 20 22 21 23 22
REMARK SMILES IDX 24 23 17 24 29 25 30 26 31 27 11 28 7 29 3 30 21 31
REMARK H PARENT 21 32
REMARK Flexibility Score: inf
ROOT
ATOM      1  C   UNL     1     135.833 121.035 138.835  1.00  0.00     0.011 C 
ATOM      2  C   UNL     1     135.186 121.387 140.193  1.00  0.00    -0.035 C 
ATOM      3  C   UNL     1     136.257 122.057 141.120  1.00  0.00     0.007 C 
ATOM      4  C   UNL     1     135.770 123.354 141.778  1.00  0.00     0.008 C 
ATOM      5  C   UNL     1     135.295 124.420 140.736  1.00  0.00    -0.026 C 
ATOM      6  C   UNL     1     134.652 125.625 141.489  1.00  0.00     0.008 C 
ATOM      7  C   UNL     1     133.196 125.357 141.880  1.00  0.00     0.012 C 
ATOM      8  C   UNL     1     132.215 125.215 140.646  1.00  0.00    -0.006 C 
ATOM      9  C   UNL     1     133.038 124.639 139.444  1.00  0.00    -0.064 C 
ATOM     10  C   UNL     1     132.817 125.051 138.163  1.00  0.00    -0.027 C 
ATOM     11  C   UNL     1     132.160 126.363 137.819  1.00  0.00     0.032 C 
ATOM     12  C   UNL     1     132.196 127.305 139.041  1.00  0.00     0.006 C 
ATOM     13  C   UNL     1     131.434 126.605 140.226  1.00  0.00    -0.020 C 
ATOM     14  C   UNL     1     131.388 127.644 141.388  1.00  0.00     0.008 C 
ATOM     15  C   UNL     1     130.657 128.965 141.090  1.00  0.00     0.005 C 
ATOM     16  C   UNL     1     130.722 129.439 139.614  1.00  0.00     0.003 C 
ATOM     17  C   UNL     1     131.950 128.889 138.789  1.00  0.00    -0.025 C 
ATOM     18  C   UNL     1     131.655 129.206 137.287  1.00  0.00     0.010 C 
ATOM     19  C   UNL     1     131.304 130.680 137.006  1.00  0.00     0.033 C 
ATOM     20  C   UNL     1     130.126 131.192 137.860  1.00  0.00     0.120 C 
ATOM     21  C   UNL     1     130.327 130.958 139.394  1.00  0.00    -0.006 C 
ATOM     22  C   UNL     1     131.346 131.976 139.990  1.00  0.00     0.014 C 
ATOM     23  C   UNL     1     128.955 131.229 140.086  1.00  0.00     0.014 C 
ATOM     24  C   UNL     1     133.275 129.618 139.185  1.00  0.00     0.012 C 
ATOM     25  C   UNL     1     129.955 126.258 139.793  1.00  0.00     0.012 C 
ATOM     26  C   UNL     1     134.304 123.783 139.682  1.00  0.00     0.022 C 
ATOM     27  C   UNL     1     133.944 122.307 139.977  1.00  0.00     0.015 C 
ATOM     28  C   UNL     1     131.187 124.120 141.090  1.00  0.00     0.017 C 
ATOM     29  C   UNL     1     136.546 124.976 140.000  1.00  0.00     0.012 C 
ATOM     30  C   UNL     1     134.701 120.066 140.835  1.00  0.00     0.011 C 
ENDROOT
BRANCH  20  31
ATOM     31  O   UNL     1     129.916 132.558 137.600  1.00  0.00    -0.393 OA
ATOM     32  H   UNL     1     128.932 132.686 137.482  1.00  0.00     0.210 HD
ENDBRANCH  20  31
TORSDOF 1
ENDMDL
MODEL 7
REMARK VINA RESULT:    -8.121      3.995      8.265
REMARK INTER + INTRA:          -8.359
REMARK INTER:                  -8.359
REMARK INTRA:                   0.000
REMARK UNBOUND:                 0.000
REMARK SMILES CC1(C)CC[C@]2(C)CC[C@]3(C)C(=CC[C@H]4[C@@]5(C)CC[C@H](O)C(C)(C)[C@@H]5CC[C@@]43C)[C@@H]2C1
REMARK SMILES IDX 1 1 2 2 4 3 5 4 6 5 8 6 9 7 10 8 12 9 13 10 14 11 15 12
REMARK SMILES IDX 28 13 27 14 26 15 25 16 16 17 18 18 19 19 20 20 22 21 23 22
REMARK SMILES IDX 24 23 17 24 29 25 30 26 31 27 11 28 7 29 3 30 21 31
REMARK H PARENT 21 32
REMARK Flexibility Score: inf
ROOT
ATOM      1  C   UNL     1     128.402 124.331 142.234  1.00  0.00     0.011 C 
ATOM      2  C   UNL     1     128.872 125.363 143.283  1.00  0.00    -0.035 C 
ATOM      3  C   UNL     1     130.338 125.026 143.722  1.00  0.00     0.007 C 
ATOM      4  C   UNL     1     131.277 126.239 143.695  1.00  0.00     0.008 C 
ATOM      5  C   UNL     1     131.336 126.928 142.292  1.00  0.00    -0.026 C 
ATOM      6  C   UNL     1     132.163 128.246 142.400  1.00  0.00     0.008 C 
ATOM      7  C   UNL     1     131.331 129.413 142.939  1.00  0.00     0.012 C 
ATOM      8  C   UNL     1     130.163 129.869 141.974  1.00  0.00    -0.006 C 
ATOM      9  C   UNL     1     129.695 128.614 141.162  1.00  0.00    -0.064 C 
ATOM     10  C   UNL     1     129.325 128.706 139.852  1.00  0.00    -0.027 C 
ATOM     11  C   UNL     1     129.756 129.834 138.949  1.00  0.00     0.032 C 
ATOM     12  C   UNL     1     130.969 130.564 139.564  1.00  0.00     0.006 C 
ATOM     13  C   UNL     1     130.548 131.121 140.973  1.00  0.00    -0.020 C 
ATOM     14  C   UNL     1     131.760 131.954 141.492  1.00  0.00     0.008 C 
ATOM     15  C   UNL     1     132.176 133.159 140.628  1.00  0.00     0.005 C 
ATOM     16  C   UNL     1     131.925 133.000 139.105  1.00  0.00     0.003 C 
ATOM     17  C   UNL     1     131.861 131.509 138.592  1.00  0.00    -0.025 C 
ATOM     18  C   UNL     1     131.288 131.563 137.138  1.00  0.00     0.010 C 
ATOM     19  C   UNL     1     132.031 132.533 136.199  1.00  0.00     0.033 C 
ATOM     20  C   UNL     1     132.107 133.970 136.754  1.00  0.00     0.120 C 
ATOM     21  C   UNL     1     132.702 134.043 138.199  1.00  0.00    -0.006 C 
ATOM     22  C   UNL     1     134.249 133.847 138.183  1.00  0.00     0.014 C 
ATOM     23  C   UNL     1     132.430 135.482 138.739  1.00  0.00     0.014 C 
ATOM     24  C   UNL     1     133.285 130.867 138.525  1.00  0.00     0.012 C 
ATOM     25  C   UNL     1     129.297 132.075 140.831  1.00  0.00     0.012 C 
ATOM     26  C   UNL     1     129.883 127.185 141.723  1.00  0.00     0.022 C 
ATOM     27  C   UNL     1     128.752 126.808 142.709  1.00  0.00     0.015 C 
ATOM     28  C   UNL     1     128.997 130.275 142.938  1.00  0.00     0.017 C 
ATOM     29  C   UNL     1     132.115 125.997 141.321  1.00  0.00     0.012 C 
ATOM     30  C   UNL     1     127.929 125.250 144.504  1.00  0.00     0.011 C 
ENDROOT
BRANCH  20  31
ATOM     31  O   UNL     1     132.860 134.773 135.878  1.00  0.00    -0.393 OA
ATOM     32  H   UNL     1     133.787 134.822 136.249  1.00  0.00     0.210 HD
ENDBRANCH  20  31
TORSDOF 1
ENDMDL
MODEL 8
REMARK VINA RESULT:    -7.984      3.026      8.347
REMARK INTER + INTRA:          -8.218
REMARK INTER:                  -8.218
REMARK INTRA:                   0.000
REMARK UNBOUND:                 0.000
REMARK SMILES CC1(C)CC[C@]2(C)CC[C@]3(C)C(=CC[C@H]4[C@@]5(C)CC[C@H](O)C(C)(C)[C@@H]5CC[C@@]43C)[C@@H]2C1
REMARK SMILES IDX 1 1 2 2 4 3 5 4 6 5 8 6 9 7 10 8 12 9 13 10 14 11 15 12
REMARK SMILES IDX 28 13 27 14 26 15 25 16 16 17 18 18 19 19 20 20 22 21 23 22
REMARK SMILES IDX 24 23 17 24 29 25 30 26 31 27 11 28 7 29 3 30 21 31
REMARK H PARENT 21 32
REMARK Flexibility Score: inf
ROOT
ATOM      1  C   UNL     1     135.340 123.203 141.379  1.00  0.00     0.011 C 
ATOM      2  C   UNL     1     134.626 123.353 140.018  1.00  0.00    -0.035 C 
ATOM      3  C   UNL     1     133.256 122.592 140.063  1.00  0.00     0.007 C 
ATOM      4  C   UNL     1     132.077 123.428 139.551  1.00  0.00     0.008 C 
ATOM      5  C   UNL     1     131.908 124.777 140.325  1.00  0.00    -0.026 C 
ATOM      6  C   UNL     1     130.811 125.637 139.628  1.00  0.00     0.008 C 
ATOM      7  C   UNL     1     131.353 126.400 138.415  1.00  0.00     0.012 C 
ATOM      8  C   UNL     1     132.420 127.510 138.778  1.00  0.00    -0.006 C 
ATOM      9  C   UNL     1     133.174 127.045 140.071  1.00  0.00    -0.064 C 
ATOM     10  C   UNL     1     133.552 127.931 141.036  1.00  0.00    -0.027 C 
ATOM     11  C   UNL     1     132.912 129.284 141.213  1.00  0.00     0.032 C 
ATOM     12  C   UNL     1     131.551 129.320 140.485  1.00  0.00     0.006 C 
ATOM     13  C   UNL     1     131.800 129.027 138.959  1.00  0.00    -0.020 C 
ATOM     14  C   UNL     1     130.421 129.200 138.252  1.00  0.00     0.008 C 
ATOM     15  C   UNL     1     129.777 130.595 138.352  1.00  0.00     0.005 C 
ATOM     16  C   UNL     1     130.100 131.382 139.649  1.00  0.00     0.003 C 
ATOM     17  C   UNL     1     130.502 130.491 140.888  1.00  0.00    -0.025 C 
ATOM     18  C   UNL     1     131.091 131.463 141.963  1.00  0.00     0.010 C 
ATOM     19  C   UNL     1     130.182 132.659 142.303  1.00  0.00     0.033 C 
ATOM     20  C   UNL     1     129.777 133.481 141.062  1.00  0.00     0.120 C 
ATOM     21  C   UNL     1     129.140 132.613 139.927  1.00  0.00    -0.006 C 
ATOM     22  C   UNL     1     127.674 132.214 140.278  1.00  0.00     0.014 C 
ATOM     23  C   UNL     1     129.076 133.503 138.647  1.00  0.00     0.014 C 
ATOM     24  C   UNL     1     129.256 129.783 141.511  1.00  0.00     0.012 C 
ATOM     25  C   UNL     1     132.816 130.078 138.361  1.00  0.00     0.012 C 
ATOM     26  C   UNL     1     133.286 125.546 140.433  1.00  0.00     0.022 C 
ATOM     27  C   UNL     1     134.444 124.862 139.667  1.00  0.00     0.015 C 
ATOM     28  C   UNL     1     133.441 127.472 137.591  1.00  0.00     0.017 C 
ATOM     29  C   UNL     1     131.380 124.460 141.752  1.00  0.00     0.012 C 
ATOM     30  C   UNL     1     135.535 122.715 138.942  1.00  0.00     0.011 C 
ENDROOT
BRANCH  20  31
ATOM     31  O   UNL     1     128.893 134.506 141.445  1.00  0.00    -0.393 OA
ATOM     32  H   UNL     1     129.017 135.257 140.797  1.00  0.00     0.210 HD
ENDBRANCH  20  31
TORSDOF 1
ENDMDL
MODEL 9
REMARK VINA RESULT:    -7.874      4.305      5.786
REMARK INTER + INTRA:          -8.105
REMARK INTER:                  -8.105
REMARK INTRA:                   0.000
REMARK UNBOUND:                 0.000
REMARK SMILES CC1(C)CC[C@]2(C)CC[C@]3(C)C(=CC[C@H]4[C@@]5(C)CC[C@H](O)C(C)(C)[C@@H]5CC[C@@]43C)[C@@H]2C1
REMARK SMILES IDX 1 1 2 2 4 3 5 4 6 5 8 6 9 7 10 8 12 9 13 10 14 11 15 12
REMARK SMILES IDX 28 13 27 14 26 15 25 16 16 17 18 18 19 19 20 20 22 21 23 22
REMARK SMILES IDX 24 23 17 24 29 25 30 26 31 27 11 28 7 29 3 30 21 31
REMARK H PARENT 21 32
REMARK Flexibility Score: inf
ROOT
ATOM      1  C   UNL     1     128.612 135.168 138.987  1.00  0.00     0.011 C 
ATOM      2  C   UNL     1     129.028 133.839 138.320  1.00  0.00    -0.035 C 
ATOM      3  C   UNL     1     130.435 134.012 137.651  1.00  0.00     0.007 C 
ATOM      4  C   UNL     1     131.421 132.891 138.005  1.00  0.00     0.008 C 
ATOM      5  C   UNL     1     131.632 132.734 139.547  1.00  0.00    -0.026 C 
ATOM      6  C   UNL     1     132.498 131.467 139.822  1.00  0.00     0.008 C 
ATOM      7  C   UNL     1     131.669 130.180 139.805  1.00  0.00     0.012 C 
ATOM      8  C   UNL     1     130.611 130.080 140.977  1.00  0.00    -0.006 C 
ATOM      9  C   UNL     1     130.167 131.537 141.345  1.00  0.00    -0.064 C 
ATOM     10  C   UNL     1     129.918 131.905 142.635  1.00  0.00    -0.027 C 
ATOM     11  C   UNL     1     130.472 131.166 143.826  1.00  0.00     0.032 C 
ATOM     12  C   UNL     1     131.655 130.275 143.388  1.00  0.00     0.006 C 
ATOM     13  C   UNL     1     131.134 129.259 142.307  1.00  0.00    -0.020 C 
ATOM     14  C   UNL     1     132.328 128.306 141.993  1.00  0.00     0.008 C 
ATOM     15  C   UNL     1     132.867 127.481 143.176  1.00  0.00     0.005 C 
ATOM     16  C   UNL     1     132.746 128.159 144.566  1.00  0.00     0.003 C 
ATOM     17  C   UNL     1     132.667 129.735 144.535  1.00  0.00    -0.025 C 
ATOM     18  C   UNL     1     132.228 130.187 145.967  1.00  0.00     0.010 C 
ATOM     19  C   UNL     1     133.090 129.611 147.107  1.00  0.00     0.033 C 
ATOM     20  C   UNL     1     133.175 128.071 147.079  1.00  0.00     0.120 C 
ATOM     21  C   UNL     1     133.642 127.503 145.698  1.00  0.00    -0.006 C 
ATOM     22  C   UNL     1     135.175 127.703 145.495  1.00  0.00     0.014 C 
ATOM     23  C   UNL     1     133.381 125.964 145.719  1.00  0.00     0.014 C 
ATOM     24  C   UNL     1     134.064 130.370 144.237  1.00  0.00     0.012 C 
ATOM     25  C   UNL     1     129.940 128.406 142.892  1.00  0.00     0.012 C 
ATOM     26  C   UNL     1     130.247 132.682 140.309  1.00  0.00     0.022 C 
ATOM     27  C   UNL     1     129.018 132.683 139.368  1.00  0.00     0.015 C 
ATOM     28  C   UNL     1     129.382 129.356 140.331  1.00  0.00     0.017 C 
ATOM     29  C   UNL     1     132.455 133.951 140.055  1.00  0.00     0.012 C 
ATOM     30  C   UNL     1     127.977 133.512 137.234  1.00  0.00     0.011 C 
ENDROOT
BRANCH  20  31
ATOM     31  O   UNL     1     134.034 127.629 148.101  1.00  0.00    -0.393 OA
ATOM     32  H   UNL     1     133.509 127.644 148.952  1.00  0.00     0.210 HD
ENDBRANCH  20  31
TORSDOF 1
ENDMDL
