MODEL 1
REMARK VINA RESULT:    13.806      0.000      0.000
REMARK INTER + INTRA:          23.013
REMARK INTER:                  23.491
REMARK INTRA:                  -0.478
REMARK UNBOUND:                -0.478
REMARK SMILES CCCCCCCCCCCCCC(=O)[O-]
REMARK SMILES IDX 8 1 9 2 10 3 11 4 12 5 13 6 14 7 15 8 16 9 7 10 6 11 5 12
REMARK SMILES IDX 4 13 3 14 2 15 1 16
REMARK H PARENT
REMARK Flexibility Score: inf
ROOT
ATOM      1  C   UNL     1      -5.567  10.942 -23.875  1.00  0.00     0.000 C 
ENDROOT
BRANCH   1   2
ATOM      2  C   UNL     1      -6.521  12.094 -24.239  1.00  0.00     0.000 C 
BRANCH   2   3
ATOM      3  C   UNL     1      -5.805  13.453 -24.299  1.00  0.00     0.000 C 
BRANCH   3   4
ATOM      4  C   UNL     1      -5.748  14.025 -25.727  1.00  0.00     0.000 C 
BRANCH   4   5
ATOM      5  C   UNL     1      -4.696  15.140 -25.879  1.00  0.00     0.006 C 
BRANCH   5   6
ATOM      6  C   UNL     1      -5.241  16.450 -26.469  1.00  0.00     0.053 C 
BRANCH   6   7
ATOM      7  C   UNL     1      -5.227  17.565 -25.469  1.00  0.00     0.041 C 
ATOM      8  O   UNL     1      -5.799  18.656 -25.728  1.00  0.00    -0.550 OA
ATOM      9  O   UNL     1      -4.610  17.387 -24.237  1.00  0.00    -0.550 OA
ENDBRANCH   6   7
ENDBRANCH   5   6
ENDBRANCH   4   5
ENDBRANCH   3   4
ENDBRANCH   2   3
ENDBRANCH   1   2
BRANCH   1  10
ATOM     10  C   UNL     1      -5.664   9.755 -24.850  1.00  0.00     0.000 C 
BRANCH  10  11
ATOM     11  C   UNL     1      -4.329   9.040 -25.151  1.00  0.00    -0.000 C 
BRANCH  11  12
ATOM     12  C   UNL     1      -3.186   9.349 -24.168  1.00  0.00    -0.000 C 
BRANCH  12  13
ATOM     13  C   UNL     1      -1.855   8.633 -24.474  1.00  0.00    -0.000 C 
BRANCH  13  14
ATOM     14  C   UNL     1      -0.837   9.513 -25.230  1.00  0.00    -0.000 C 
BRANCH  14  15
ATOM     15  C   UNL     1       0.256   8.687 -25.922  1.00  0.00    -0.003 C 
ATOM     16  C   UNL     1       0.887   9.463 -27.075  1.00  0.00     0.004 C 
ENDBRANCH  14  15
ENDBRANCH  13  14
ENDBRANCH  12  13
ENDBRANCH  11  12
ENDBRANCH  10  11
ENDBRANCH   1  10
TORSDOF 12
ENDMDL
MODEL 2
REMARK VINA RESULT:    14.482      3.781      7.663
REMARK INTER + INTRA:          24.164
REMARK INTER:                  24.746
REMARK INTRA:                  -0.582
REMARK UNBOUND:                -0.478
REMARK SMILES CCCCCCCCCCCCCC(=O)[O-]
REMARK SMILES IDX 8 1 9 2 10 3 11 4 12 5 13 6 14 7 15 8 16 9 7 10 6 11 5 12
REMARK SMILES IDX 4 13 3 14 2 15 1 16
REMARK H PARENT
REMARK Flexibility Score: inf
ROOT
ATOM      1  C   UNL     1      -5.587  10.905 -23.835  1.00  0.00     0.000 C 
ENDROOT
BRANCH   1   2
ATOM      2  C   UNL     1      -5.748   9.956 -25.036  1.00  0.00     0.000 C 
BRANCH   2   3
ATOM      3  C   UNL     1      -4.481   9.128 -25.306  1.00  0.00     0.000 C 
BRANCH   3   4
ATOM      4  C   UNL     1      -3.394   9.351 -24.239  1.00  0.00     0.000 C 
BRANCH   4   5
ATOM      5  C   UNL     1      -2.085   8.606 -24.559  1.00  0.00     0.006 C 
BRANCH   5   6
ATOM      6  C   UNL     1      -0.901   9.523 -24.902  1.00  0.00     0.053 C 
BRANCH   6   7
ATOM      7  C   UNL     1       0.094   8.847 -25.795  1.00  0.00     0.041 C 
ATOM      8  O   UNL     1       0.522   9.432 -26.824  1.00  0.00    -0.550 OA
ATOM      9  O   UNL     1       0.573   7.584 -25.471  1.00  0.00    -0.550 OA
ENDBRANCH   6   7
ENDBRANCH   5   6
ENDBRANCH   4   5
ENDBRANCH   3   4
ENDBRANCH   2   3
ENDBRANCH   1   2
BRANCH   1  10
ATOM     10  C   UNL     1      -6.399  12.203 -23.986  1.00  0.00     0.000 C 
BRANCH  10  11
ATOM     11  C   UNL     1      -6.183  12.965 -25.312  1.00  0.00    -0.000 C 
BRANCH  11  12
ATOM     12  C   UNL     1      -5.409  14.290 -25.186  1.00  0.00    -0.000 C 
BRANCH  12  13
ATOM     13  C   UNL     1      -5.087  14.982 -26.525  1.00  0.00    -0.000 C 
BRANCH  13  14
ATOM     14  C   UNL     1      -5.187  16.522 -26.467  1.00  0.00    -0.000 C 
BRANCH  14  15
ATOM     15  C   UNL     1      -4.939  17.076 -25.057  1.00  0.00    -0.003 C 
ATOM     16  C   UNL     1      -5.650  18.411 -24.857  1.00  0.00     0.004 C 
ENDBRANCH  14  15
ENDBRANCH  13  14
ENDBRANCH  12  13
ENDBRANCH  11  12
ENDBRANCH  10  11
ENDBRANCH   1  10
TORSDOF 12
ENDMDL
MODEL 3
REMARK VINA RESULT:    14.586      1.023      1.935
REMARK INTER + INTRA:          24.340
REMARK INTER:                  24.904
REMARK INTRA:                  -0.564
REMARK UNBOUND:                -0.478
REMARK SMILES CCCCCCCCCCCCCC(=O)[O-]
REMARK SMILES IDX 8 1 9 2 10 3 11 4 12 5 13 6 14 7 15 8 16 9 7 10 6 11 5 12
REMARK SMILES IDX 4 13 3 14 2 15 1 16
REMARK H PARENT
REMARK Flexibility Score: inf
ROOT
ATOM      1  C   UNL     1      -6.510  12.863 -24.217  1.00  0.00     0.000 C 
ENDROOT
BRANCH   1   2
ATOM      2  C   UNL     1      -6.103  13.224 -25.657  1.00  0.00     0.000 C 
BRANCH   2   3
ATOM      3  C   UNL     1      -5.042  14.335 -25.707  1.00  0.00     0.000 C 
BRANCH   3   4
ATOM      4  C   UNL     1      -5.275  15.320 -26.867  1.00  0.00     0.000 C 
BRANCH   4   5
ATOM      5  C   UNL     1      -5.389  16.780 -26.393  1.00  0.00     0.006 C 
BRANCH   5   6
ATOM      6  C   UNL     1      -4.613  17.091 -25.103  1.00  0.00     0.053 C 
BRANCH   6   7
ATOM      7  C   UNL     1      -5.338  18.072 -24.233  1.00  0.00     0.041 C 
ATOM      8  O   UNL     1      -5.828  19.119 -24.731  1.00  0.00    -0.550 OA
ATOM      9  O   UNL     1      -5.502  17.811 -22.878  1.00  0.00    -0.550 OA
ENDBRANCH   6   7
ENDBRANCH   5   6
ENDBRANCH   4   5
ENDBRANCH   3   4
ENDBRANCH   2   3
ENDBRANCH   1   2
BRANCH   1  10
ATOM     10  C   UNL     1      -5.938  11.511 -23.755  1.00  0.00     0.000 C 
BRANCH  10  11
ATOM     11  C   UNL     1      -5.973  10.386 -24.813  1.00  0.00    -0.000 C 
BRANCH  11  12
ATOM     12  C   UNL     1      -5.134   9.142 -24.472  1.00  0.00    -0.000 C 
BRANCH  12  13
ATOM     13  C   UNL     1      -3.727   9.116 -25.101  1.00  0.00    -0.000 C 
BRANCH  13  14
ATOM     14  C   UNL     1      -2.625   8.626 -24.137  1.00  0.00    -0.000 C 
BRANCH  14  15
ATOM     15  C   UNL     1      -1.361   9.495 -24.196  1.00  0.00    -0.003 C 
ATOM     16  C   UNL     1      -0.516   9.155 -25.421  1.00  0.00     0.004 C 
ENDBRANCH  14  15
ENDBRANCH  13  14
ENDBRANCH  12  13
ENDBRANCH  11  12
ENDBRANCH  10  11
ENDBRANCH   1  10
TORSDOF 12
ENDMDL
MODEL 4
REMARK VINA RESULT:    15.090      1.780      2.761
REMARK INTER + INTRA:          25.199
REMARK INTER:                  25.829
REMARK INTRA:                  -0.630
REMARK UNBOUND:                -0.478
REMARK SMILES CCCCCCCCCCCCCC(=O)[O-]
REMARK SMILES IDX 8 1 9 2 10 3 11 4 12 5 13 6 14 7 15 8 16 9 7 10 6 11 5 12
REMARK SMILES IDX 4 13 3 14 2 15 1 16
REMARK H PARENT
REMARK Flexibility Score: inf
ROOT
ATOM      1  C   UNL     1      -6.546  12.459 -24.090  1.00  0.00     0.000 C 
ENDROOT
BRANCH   1   2
ATOM      2  C   UNL     1      -6.181  12.958 -25.499  1.00  0.00     0.000 C 
BRANCH   2   3
ATOM      3  C   UNL     1      -5.181  14.126 -25.468  1.00  0.00     0.000 C 
BRANCH   3   4
ATOM      4  C   UNL     1      -5.308  15.042 -26.699  1.00  0.00     0.000 C 
BRANCH   4   5
ATOM      5  C   UNL     1      -5.184  16.535 -26.343  1.00  0.00     0.006 C 
BRANCH   5   6
ATOM      6  C   UNL     1      -4.515  16.812 -24.988  1.00  0.00     0.053 C 
BRANCH   6   7
ATOM      7  C   UNL     1      -5.189  17.924 -24.245  1.00  0.00     0.041 C 
ATOM      8  O   UNL     1      -5.151  17.960 -22.987  1.00  0.00    -0.550 OA
ATOM      9  O   UNL     1      -5.831  18.939 -24.944  1.00  0.00    -0.550 OA
ENDBRANCH   6   7
ENDBRANCH   5   6
ENDBRANCH   4   5
ENDBRANCH   3   4
ENDBRANCH   2   3
ENDBRANCH   1   2
BRANCH   1  10
ATOM     10  C   UNL     1      -5.854  11.133 -23.728  1.00  0.00     0.000 C 
BRANCH  10  11
ATOM     11  C   UNL     1      -5.605  10.175 -24.913  1.00  0.00    -0.000 C 
BRANCH  11  12
ATOM     12  C   UNL     1      -4.743   8.942 -24.588  1.00  0.00    -0.000 C 
BRANCH  12  13
ATOM     13  C   UNL     1      -3.221   9.184 -24.637  1.00  0.00    -0.000 C 
BRANCH  13  14
ATOM     14  C   UNL     1      -2.412   8.232 -23.730  1.00  0.00    -0.000 C 
BRANCH  14  15
ATOM     15  C   UNL     1      -3.308   7.274 -22.933  1.00  0.00    -0.003 C 
ATOM     16  C   UNL     1      -2.930   7.269 -21.454  1.00  0.00     0.004 C 
ENDBRANCH  14  15
ENDBRANCH  13  14
ENDBRANCH  12  13
ENDBRANCH  11  12
ENDBRANCH  10  11
ENDBRANCH   1  10
TORSDOF 12
ENDMDL
MODEL 5
REMARK VINA RESULT:    15.102      3.857      7.071
REMARK INTER + INTRA:          25.218
REMARK INTER:                  25.730
REMARK INTRA:                  -0.512
REMARK UNBOUND:                -0.478
REMARK SMILES CCCCCCCCCCCCCC(=O)[O-]
REMARK SMILES IDX 8 1 9 2 10 3 11 4 12 5 13 6 14 7 15 8 16 9 7 10 6 11 5 12
REMARK SMILES IDX 4 13 3 14 2 15 1 16
REMARK H PARENT
REMARK Flexibility Score: inf
ROOT
ATOM      1  C   UNL     1      -6.197  12.171 -23.764  1.00  0.00     0.000 C 
ENDROOT
BRANCH   1   2
ATOM      2  C   UNL     1      -6.372  13.131 -24.954  1.00  0.00     0.000 C 
BRANCH   2   3
ATOM      3  C   UNL     1      -5.170  14.073 -25.132  1.00  0.00     0.000 C 
BRANCH   3   4
ATOM      4  C   UNL     1      -5.328  15.007 -26.345  1.00  0.00     0.000 C 
BRANCH   4   5
ATOM      5  C   UNL     1      -4.659  16.377 -26.131  1.00  0.00     0.006 C 
BRANCH   5   6
ATOM      6  C   UNL     1      -5.643  17.533 -25.891  1.00  0.00     0.053 C 
BRANCH   6   7
ATOM      7  C   UNL     1      -5.460  18.158 -24.542  1.00  0.00     0.041 C 
ATOM      8  O   UNL     1      -6.088  19.204 -24.238  1.00  0.00    -0.550 OA
ATOM      9  O   UNL     1      -4.620  17.563 -23.609  1.00  0.00    -0.550 OA
ENDBRANCH   6   7
ENDBRANCH   5   6
ENDBRANCH   4   5
ENDBRANCH   3   4
ENDBRANCH   2   3
ENDBRANCH   1   2
BRANCH   1  10
ATOM     10  C   UNL     1      -7.426  12.138 -22.838  1.00  0.00     0.000 C 
BRANCH  10  11
ATOM     11  C   UNL     1      -7.614  13.386 -21.948  1.00  0.00    -0.000 C 
BRANCH  11  12
ATOM     12  C   UNL     1      -8.747  13.284 -20.911  1.00  0.00    -0.000 C 
BRANCH  12  13
ATOM     13  C   UNL     1      -8.758  14.403 -19.851  1.00  0.00    -0.000 C 
BRANCH  13  14
ATOM     14  C   UNL     1      -8.729  13.882 -18.398  1.00  0.00    -0.000 C 
BRANCH  14  15
ATOM     15  C   UNL     1      -9.578  14.739 -17.448  1.00  0.00    -0.003 C 
ATOM     16  C   UNL     1      -9.759  16.152 -17.995  1.00  0.00     0.004 C 
ENDBRANCH  14  15
ENDBRANCH  13  14
ENDBRANCH  12  13
ENDBRANCH  11  12
ENDBRANCH  10  11
ENDBRANCH   1  10
TORSDOF 12
ENDMDL
MODEL 6
REMARK VINA RESULT:    15.460      3.312      7.556
REMARK INTER + INTRA:          25.828
REMARK INTER:                  26.516
REMARK INTRA:                  -0.688
REMARK UNBOUND:                -0.478
REMARK SMILES CCCCCCCCCCCCCC(=O)[O-]
REMARK SMILES IDX 8 1 9 2 10 3 11 4 12 5 13 6 14 7 15 8 16 9 7 10 6 11 5 12
REMARK SMILES IDX 4 13 3 14 2 15 1 16
REMARK H PARENT
REMARK Flexibility Score: inf
ROOT
ATOM      1  C   UNL     1      -6.457  12.853 -24.083  1.00  0.00     0.000 C 
ENDROOT
BRANCH   1   2
ATOM      2  C   UNL     1      -6.040  11.418 -23.717  1.00  0.00     0.000 C 
BRANCH   2   3
ATOM      3  C   UNL     1      -5.996  10.488 -24.941  1.00  0.00     0.000 C 
BRANCH   3   4
ATOM      4  C   UNL     1      -5.239   9.177 -24.657  1.00  0.00     0.000 C 
BRANCH   4   5
ATOM      5  C   UNL     1      -3.796   9.196 -25.194  1.00  0.00     0.006 C 
BRANCH   5   6
ATOM      6  C   UNL     1      -2.734   8.754 -24.175  1.00  0.00     0.053 C 
BRANCH   6   7
ATOM      7  C   UNL     1      -1.421   9.439 -24.398  1.00  0.00     0.041 C 
ATOM      8  O   UNL     1      -0.602   8.982 -25.236  1.00  0.00    -0.550 OA
ATOM      9  O   UNL     1      -1.117  10.603 -23.702  1.00  0.00    -0.550 OA
ENDBRANCH   6   7
ENDBRANCH   5   6
ENDBRANCH   4   5
ENDBRANCH   3   4
ENDBRANCH   2   3
ENDBRANCH   1   2
BRANCH   1  10
ATOM     10  C   UNL     1      -6.090  13.232 -25.529  1.00  0.00     0.000 C 
BRANCH  10  11
ATOM     11  C   UNL     1      -5.050  14.364 -25.669  1.00  0.00    -0.000 C 
BRANCH  11  12
ATOM     12  C   UNL     1      -5.382  15.430 -26.729  1.00  0.00    -0.000 C 
BRANCH  12  13
ATOM     13  C   UNL     1      -5.160  16.886 -26.276  1.00  0.00    -0.000 C 
BRANCH  13  14
ATOM     14  C   UNL     1      -4.497  17.010 -24.887  1.00  0.00    -0.000 C 
BRANCH  14  15
ATOM     15  C   UNL     1      -5.365  17.787 -23.887  1.00  0.00    -0.003 C 
ATOM     16  C   UNL     1      -6.120  18.919 -24.578  1.00  0.00     0.004 C 
ENDBRANCH  14  15
ENDBRANCH  13  14
ENDBRANCH  12  13
ENDBRANCH  11  12
ENDBRANCH  10  11
ENDBRANCH   1  10
TORSDOF 12
ENDMDL
