MODEL 1
REMARK VINA RESULT:    -5.044      0.000      0.000
REMARK INTER + INTRA:          -9.314
REMARK INTER:                  -7.993
REMARK INTRA:                  -1.321
REMARK UNBOUND:                -1.321
REMARK SMILES CCCCCCCCCCCC(=O)[O-]
REMARK SMILES IDX 7 1 8 2 9 3 10 4 11 5 12 6 13 7 14 8 6 9 5 10 4 11 3 12 2 13
REMARK SMILES IDX 1 14
REMARK H PARENT
REMARK Flexibility Score: inf
ROOT
ATOM      1  C   UNL     1     -97.832 -62.012 -64.117  1.00  0.00     0.000 C 
ENDROOT
BRANCH   1   2
ATOM      2  C   UNL     1     -96.885 -60.970 -64.724  1.00  0.00     0.000 C 
BRANCH   2   3
ATOM      3  C   UNL     1     -95.747 -61.644 -65.500  1.00  0.00     0.000 C 
BRANCH   3   4
ATOM      4  C   UNL     1     -95.320 -60.790 -66.703  1.00  0.00     0.006 C 
BRANCH   4   5
ATOM      5  C   UNL     1     -95.917 -61.302 -68.020  1.00  0.00     0.053 C 
BRANCH   5   6
ATOM      6  C   UNL     1     -94.869 -61.886 -68.917  1.00  0.00     0.041 C 
ATOM      7  O   UNL     1     -93.841 -62.422 -68.425  1.00  0.00    -0.550 OA
ATOM      8  O   UNL     1     -95.042 -61.869 -70.296  1.00  0.00    -0.550 OA
ENDBRANCH   5   6
ENDBRANCH   4   5
ENDBRANCH   3   4
ENDBRANCH   2   3
ENDBRANCH   1   2
BRANCH   1   9
ATOM      9  C   UNL     1     -99.283 -61.746 -64.533  1.00  0.00     0.000 C 
BRANCH   9  10
ATOM     10  C   UNL     1     -99.464 -61.928 -66.046  1.00  0.00    -0.000 C 
BRANCH  10  11
ATOM     11  C   UNL     1    -100.588 -61.031 -66.577  1.00  0.00    -0.000 C 
BRANCH  11  12
ATOM     12  C   UNL     1    -100.152 -59.558 -66.600  1.00  0.00    -0.000 C 
BRANCH  12  13
ATOM     13  C   UNL     1     -98.825 -59.347 -67.345  1.00  0.00    -0.003 C 
ATOM     14  C   UNL     1     -98.075 -58.101 -66.876  1.00  0.00     0.004 C 
ENDBRANCH  12  13
ENDBRANCH  11  12
ENDBRANCH  10  11
ENDBRANCH   9  10
ENDBRANCH   1   9
TORSDOF 10
ENDMDL
MODEL 2
REMARK VINA RESULT:    -4.979      2.712      4.278
REMARK INTER + INTRA:          -9.210
REMARK INTER:                  -7.780
REMARK INTRA:                  -1.430
REMARK UNBOUND:                -1.321
REMARK SMILES CCCCCCCCCCCC(=O)[O-]
REMARK SMILES IDX 7 1 8 2 9 3 10 4 11 5 12 6 13 7 14 8 6 9 5 10 4 11 3 12 2 13
REMARK SMILES IDX 1 14
REMARK H PARENT
REMARK Flexibility Score: inf
ROOT
ATOM      1  C   UNL     1     -96.329 -61.856 -64.967  1.00  0.00     0.000 C 
ENDROOT
BRANCH   1   2
ATOM      2  C   UNL     1     -97.382 -61.045 -64.202  1.00  0.00     0.000 C 
BRANCH   2   3
ATOM      3  C   UNL     1     -98.640 -61.882 -63.942  1.00  0.00     0.000 C 
BRANCH   3   4
ATOM      4  C   UNL     1     -99.767 -61.498 -64.912  1.00  0.00     0.006 C 
BRANCH   4   5
ATOM      5  C   UNL     1     -99.847 -62.446 -66.115  1.00  0.00     0.053 C 
BRANCH   5   6
ATOM      6  C   UNL     1    -100.761 -61.920 -67.179  1.00  0.00     0.041 C 
ATOM      7  O   UNL     1    -100.921 -62.563 -68.250  1.00  0.00    -0.550 OA
ATOM      8  O   UNL     1    -101.462 -60.738 -66.975  1.00  0.00    -0.550 OA
ENDBRANCH   5   6
ENDBRANCH   4   5
ENDBRANCH   3   4
ENDBRANCH   2   3
ENDBRANCH   1   2
BRANCH   1   9
ATOM      9  C   UNL     1     -95.533 -60.961 -65.923  1.00  0.00     0.000 C 
BRANCH   9  10
ATOM     10  C   UNL     1     -95.728 -61.402 -67.380  1.00  0.00    -0.000 C 
BRANCH  10  11
ATOM     11  C   UNL     1     -97.178 -61.189 -67.830  1.00  0.00    -0.000 C 
BRANCH  11  12
ATOM     12  C   UNL     1     -97.434 -59.716 -68.183  1.00  0.00    -0.000 C 
BRANCH  12  13
ATOM     13  C   UNL     1     -98.381 -59.027 -67.188  1.00  0.00    -0.003 C 
ATOM     14  C   UNL     1     -97.714 -57.879 -66.433  1.00  0.00     0.004 C 
ENDBRANCH  12  13
ENDBRANCH  11  12
ENDBRANCH  10  11
ENDBRANCH   9  10
ENDBRANCH   1   9
TORSDOF 10
ENDMDL
MODEL 3
REMARK VINA RESULT:    -4.906      1.151      1.894
REMARK INTER + INTRA:          -9.095
REMARK INTER:                  -7.848
REMARK INTRA:                  -1.246
REMARK UNBOUND:                -1.321
REMARK SMILES CCCCCCCCCCCC(=O)[O-]
REMARK SMILES IDX 7 1 8 2 9 3 10 4 11 5 12 6 13 7 14 8 6 9 5 10 4 11 3 12 2 13
REMARK SMILES IDX 1 14
REMARK H PARENT
REMARK Flexibility Score: inf
ROOT
ATOM      1  C   UNL     1     -96.998 -60.480 -64.493  1.00  0.00     0.000 C 
ENDROOT
BRANCH   1   2
ATOM      2  C   UNL     1     -96.529 -60.350 -65.948  1.00  0.00     0.000 C 
BRANCH   2   3
ATOM      3  C   UNL     1     -95.390 -61.331 -66.250  1.00  0.00     0.000 C 
BRANCH   3   4
ATOM      4  C   UNL     1     -95.175 -61.475 -67.763  1.00  0.00     0.006 C 
BRANCH   4   5
ATOM      5  C   UNL     1     -96.473 -61.276 -68.556  1.00  0.00     0.053 C 
BRANCH   5   6
ATOM      6  C   UNL     1     -96.267 -61.490 -70.025  1.00  0.00     0.041 C 
ATOM      7  O   UNL     1     -96.679 -60.635 -70.853  1.00  0.00    -0.550 OA
ATOM      8  O   UNL     1     -95.591 -62.616 -70.478  1.00  0.00    -0.550 OA
ENDBRANCH   5   6
ENDBRANCH   4   5
ENDBRANCH   3   4
ENDBRANCH   2   3
ENDBRANCH   1   2
BRANCH   1   9
ATOM      9  C   UNL     1     -97.738 -61.804 -64.270  1.00  0.00     0.000 C 
BRANCH   9  10
ATOM     10  C   UNL     1     -99.239 -61.648 -64.546  1.00  0.00    -0.000 C 
BRANCH  10  11
ATOM     11  C   UNL     1     -99.662 -62.466 -65.772  1.00  0.00    -0.000 C 
BRANCH  11  12
ATOM     12  C   UNL     1     -99.861 -61.559 -66.996  1.00  0.00    -0.000 C 
BRANCH  12  13
ATOM     13  C   UNL     1    -100.567 -60.240 -66.645  1.00  0.00    -0.003 C 
ATOM     14  C   UNL     1     -99.764 -59.009 -67.060  1.00  0.00     0.004 C 
ENDBRANCH  12  13
ENDBRANCH  11  12
ENDBRANCH  10  11
ENDBRANCH   9  10
ENDBRANCH   1   9
TORSDOF 10
ENDMDL
MODEL 4
REMARK VINA RESULT:    -4.827      1.323      2.732
REMARK INTER + INTRA:          -8.970
REMARK INTER:                  -7.866
REMARK INTRA:                  -1.104
REMARK UNBOUND:                -1.321
REMARK SMILES CCCCCCCCCCCC(=O)[O-]
REMARK SMILES IDX 7 1 8 2 9 3 10 4 11 5 12 6 13 7 14 8 6 9 5 10 4 11 3 12 2 13
REMARK SMILES IDX 1 14
REMARK H PARENT
REMARK Flexibility Score: inf
ROOT
ATOM      1  C   UNL     1     -97.187 -59.073 -66.537  1.00  0.00     0.000 C 
ENDROOT
BRANCH   1   2
ATOM      2  C   UNL     1     -97.005 -59.928 -65.276  1.00  0.00     0.000 C 
BRANCH   2   3
ATOM      3  C   UNL     1     -96.293 -61.246 -65.603  1.00  0.00     0.000 C 
BRANCH   3   4
ATOM      4  C   UNL     1     -95.053 -61.000 -66.474  1.00  0.00     0.006 C 
BRANCH   4   5
ATOM      5  C   UNL     1     -93.922 -61.991 -66.169  1.00  0.00     0.053 C 
BRANCH   5   6
ATOM      6  C   UNL     1     -93.656 -62.906 -67.325  1.00  0.00     0.041 C 
ATOM      7  O   UNL     1     -93.234 -64.076 -67.123  1.00  0.00    -0.550 OA
ATOM      8  O   UNL     1     -93.906 -62.480 -68.624  1.00  0.00    -0.550 OA
ENDBRANCH   5   6
ENDBRANCH   4   5
ENDBRANCH   3   4
ENDBRANCH   2   3
ENDBRANCH   1   2
BRANCH   1   9
ATOM      9  C   UNL     1     -98.340 -59.602 -67.398  1.00  0.00     0.000 C 
BRANCH   9  10
ATOM     10  C   UNL     1     -99.697 -59.178 -66.821  1.00  0.00    -0.000 C 
BRANCH  10  11
ATOM     11  C   UNL     1    -100.658 -60.370 -66.743  1.00  0.00    -0.000 C 
BRANCH  11  12
ATOM     12  C   UNL     1     -99.907 -61.695 -66.942  1.00  0.00    -0.000 C 
BRANCH  12  13
ATOM     13  C   UNL     1     -99.730 -62.476 -65.631  1.00  0.00    -0.003 C 
ATOM     14  C   UNL     1    -100.360 -61.770 -64.431  1.00  0.00     0.004 C 
ENDBRANCH  12  13
ENDBRANCH  11  12
ENDBRANCH  10  11
ENDBRANCH   9  10
ENDBRANCH   1   9
TORSDOF 10
ENDMDL
MODEL 5
REMARK VINA RESULT:    -4.819      2.998      3.949
REMARK INTER + INTRA:          -8.957
REMARK INTER:                  -7.666
REMARK INTRA:                  -1.290
REMARK UNBOUND:                -1.321
REMARK SMILES CCCCCCCCCCCC(=O)[O-]
REMARK SMILES IDX 7 1 8 2 9 3 10 4 11 5 12 6 13 7 14 8 6 9 5 10 4 11 3 12 2 13
REMARK SMILES IDX 1 14
REMARK H PARENT
REMARK Flexibility Score: inf
ROOT
ATOM      1  C   UNL     1     -99.064 -61.668 -64.127  1.00  0.00     0.000 C 
ENDROOT
BRANCH   1   2
ATOM      2  C   UNL     1     -97.604 -61.213 -64.240  1.00  0.00     0.000 C 
BRANCH   2   3
ATOM      3  C   UNL     1     -97.049 -61.485 -65.643  1.00  0.00     0.000 C 
BRANCH   3   4
ATOM      4  C   UNL     1     -96.538 -60.191 -66.294  1.00  0.00     0.006 C 
BRANCH   4   5
ATOM      5  C   UNL     1     -97.434 -59.729 -67.450  1.00  0.00     0.053 C 
BRANCH   5   6
ATOM      6  C   UNL     1     -98.293 -58.566 -67.059  1.00  0.00     0.041 C 
ATOM      7  O   UNL     1     -99.517 -58.553 -67.356  1.00  0.00    -0.550 OA
ATOM      8  O   UNL     1     -97.751 -57.510 -66.335  1.00  0.00    -0.550 OA
ENDBRANCH   5   6
ENDBRANCH   4   5
ENDBRANCH   3   4
ENDBRANCH   2   3
ENDBRANCH   1   2
BRANCH   1   9
ATOM      9  C   UNL     1     -99.520 -62.376 -65.408  1.00  0.00     0.000 C 
BRANCH   9  10
ATOM     10  C   UNL     1    -100.694 -61.632 -66.059  1.00  0.00    -0.000 C 
BRANCH  10  11
ATOM     11  C   UNL     1    -100.674 -61.798 -67.583  1.00  0.00    -0.000 C 
BRANCH  11  12
ATOM     12  C   UNL     1     -99.553 -62.754 -68.017  1.00  0.00    -0.000 C 
BRANCH  12  13
ATOM     13  C   UNL     1     -99.886 -63.504 -69.316  1.00  0.00    -0.003 C 
ATOM     14  C   UNL     1    -101.349 -63.939 -69.389  1.00  0.00     0.004 C 
ENDBRANCH  12  13
ENDBRANCH  11  12
ENDBRANCH  10  11
ENDBRANCH   9  10
ENDBRANCH   1   9
TORSDOF 10
ENDMDL
MODEL 6
REMARK VINA RESULT:    -4.810      2.892      5.461
REMARK INTER + INTRA:          -8.942
REMARK INTER:                  -7.885
REMARK INTRA:                  -1.057
REMARK UNBOUND:                -1.321
REMARK SMILES CCCCCCCCCCCC(=O)[O-]
REMARK SMILES IDX 7 1 8 2 9 3 10 4 11 5 12 6 13 7 14 8 6 9 5 10 4 11 3 12 2 13
REMARK SMILES IDX 1 14
REMARK H PARENT
REMARK Flexibility Score: inf
ROOT
ATOM      1  C   UNL     1     -98.389 -58.211 -66.727  1.00  0.00     0.000 C 
ENDROOT
BRANCH   1   2
ATOM      2  C   UNL     1     -99.539 -58.967 -67.404  1.00  0.00     0.000 C 
BRANCH   2   3
ATOM      3  C   UNL     1    -100.496 -59.560 -66.363  1.00  0.00     0.000 C 
BRANCH   3   4
ATOM      4  C   UNL     1    -100.946 -60.971 -66.771  1.00  0.00     0.006 C 
BRANCH   4   5
ATOM      5  C   UNL     1     -99.902 -62.038 -66.419  1.00  0.00     0.053 C 
BRANCH   5   6
ATOM      6  C   UNL     1     -99.615 -62.074 -64.949  1.00  0.00     0.041 C 
ATOM      7  O   UNL     1    -100.439 -62.602 -64.156  1.00  0.00    -0.550 OA
ATOM      8  O   UNL     1     -98.423 -61.556 -64.458  1.00  0.00    -0.550 OA
ENDBRANCH   5   6
ENDBRANCH   4   5
ENDBRANCH   3   4
ENDBRANCH   2   3
ENDBRANCH   1   2
BRANCH   1   9
ATOM      9  C   UNL     1     -97.115 -59.063 -66.692  1.00  0.00     0.000 C 
BRANCH   9  10
ATOM     10  C   UNL     1     -97.106 -60.086 -67.836  1.00  0.00    -0.000 C 
BRANCH  10  11
ATOM     11  C   UNL     1     -96.341 -61.353 -67.435  1.00  0.00    -0.000 C 
BRANCH  11  12
ATOM     12  C   UNL     1     -94.918 -61.011 -66.970  1.00  0.00    -0.000 C 
BRANCH  12  13
ATOM     13  C   UNL     1     -94.286 -62.132 -66.130  1.00  0.00    -0.003 C 
ATOM     14  C   UNL     1     -93.343 -63.020 -66.940  1.00  0.00     0.004 C 
ENDBRANCH  12  13
ENDBRANCH  11  12
ENDBRANCH  10  11
ENDBRANCH   9  10
ENDBRANCH   1   9
TORSDOF 10
ENDMDL
MODEL 7
REMARK VINA RESULT:    -4.803      3.028      4.991
REMARK INTER + INTRA:          -8.931
REMARK INTER:                  -7.922
REMARK INTRA:                  -1.009
REMARK UNBOUND:                -1.321
REMARK SMILES CCCCCCCCCCCC(=O)[O-]
REMARK SMILES IDX 7 1 8 2 9 3 10 4 11 5 12 6 13 7 14 8 6 9 5 10 4 11 3 12 2 13
REMARK SMILES IDX 1 14
REMARK H PARENT
REMARK Flexibility Score: inf
ROOT
ATOM      1  C   UNL     1     -96.995 -60.641 -64.499  1.00  0.00     0.000 C 
ENDROOT
BRANCH   1   2
ATOM      2  C   UNL     1     -97.799 -61.930 -64.288  1.00  0.00     0.000 C 
BRANCH   2   3
ATOM      3  C   UNL     1     -99.304 -61.671 -64.433  1.00  0.00     0.000 C 
BRANCH   3   4
ATOM      4  C   UNL     1     -99.882 -62.442 -65.628  1.00  0.00     0.006 C 
BRANCH   4   5
ATOM      5  C   UNL     1    -100.105 -61.542 -66.850  1.00  0.00     0.053 C 
BRANCH   5   6
ATOM      6  C   UNL     1    -100.633 -60.195 -66.460  1.00  0.00     0.041 C 
ATOM      7  O   UNL     1     -99.971 -59.156 -66.718  1.00  0.00    -0.550 OA
ATOM      8  O   UNL     1    -101.874 -60.084 -65.844  1.00  0.00    -0.550 OA
ENDBRANCH   5   6
ENDBRANCH   4   5
ENDBRANCH   3   4
ENDBRANCH   2   3
ENDBRANCH   1   2
BRANCH   1   9
ATOM      9  C   UNL     1     -96.743 -60.388 -65.990  1.00  0.00     0.000 C 
BRANCH   9  10
ATOM     10  C   UNL     1     -95.433 -61.045 -66.445  1.00  0.00    -0.000 C 
BRANCH  10  11
ATOM     11  C   UNL     1     -95.485 -61.402 -67.936  1.00  0.00    -0.000 C 
BRANCH  11  12
ATOM     12  C   UNL     1     -96.866 -61.083 -68.529  1.00  0.00    -0.000 C 
BRANCH  12  13
ATOM     13  C   UNL     1     -97.095 -61.761 -69.889  1.00  0.00    -0.003 C 
ATOM     14  C   UNL     1     -95.801 -62.271 -70.522  1.00  0.00     0.004 C 
ENDBRANCH  12  13
ENDBRANCH  11  12
ENDBRANCH  10  11
ENDBRANCH   9  10
ENDBRANCH   1   9
TORSDOF 10
ENDMDL
MODEL 8
REMARK VINA RESULT:    -4.801      1.399      2.986
REMARK INTER + INTRA:          -8.928
REMARK INTER:                  -7.526
REMARK INTRA:                  -1.402
REMARK UNBOUND:                -1.321
REMARK SMILES CCCCCCCCCCCC(=O)[O-]
REMARK SMILES IDX 7 1 8 2 9 3 10 4 11 5 12 6 13 7 14 8 6 9 5 10 4 11 3 12 2 13
REMARK SMILES IDX 1 14
REMARK H PARENT
REMARK Flexibility Score: inf
ROOT
ATOM      1  C   UNL     1     -98.510 -58.513 -66.354  1.00  0.00     0.000 C 
ENDROOT
BRANCH   1   2
ATOM      2  C   UNL     1     -97.137 -58.843 -66.953  1.00  0.00     0.000 C 
BRANCH   2   3
ATOM      3  C   UNL     1     -96.669 -60.239 -66.525  1.00  0.00     0.000 C 
BRANCH   3   4
ATOM      4  C   UNL     1     -96.117 -61.025 -67.722  1.00  0.00     0.006 C 
BRANCH   4   5
ATOM      5  C   UNL     1     -97.203 -61.346 -68.758  1.00  0.00     0.053 C 
BRANCH   5   6
ATOM      6  C   UNL     1     -96.634 -61.486 -70.136  1.00  0.00     0.041 C 
ATOM      7  O   UNL     1     -96.613 -60.497 -70.916  1.00  0.00    -0.550 OA
ATOM      8  O   UNL     1     -96.095 -62.698 -70.549  1.00  0.00    -0.550 OA
ENDBRANCH   5   6
ENDBRANCH   4   5
ENDBRANCH   3   4
ENDBRANCH   2   3
ENDBRANCH   1   2
BRANCH   1   9
ATOM      9  C   UNL     1     -99.639 -59.092 -67.214  1.00  0.00     0.000 C 
BRANCH   9  10
ATOM     10  C   UNL     1    -100.617 -59.910 -66.360  1.00  0.00    -0.000 C 
BRANCH  10  11
ATOM     11  C   UNL     1    -100.692 -61.362 -66.848  1.00  0.00    -0.000 C 
BRANCH  11  12
ATOM     12  C   UNL     1     -99.803 -62.276 -65.992  1.00  0.00    -0.000 C 
BRANCH  12  13
ATOM     13  C   UNL     1     -99.777 -61.859 -64.514  1.00  0.00    -0.003 C 
ATOM     14  C   UNL     1     -98.362 -61.802 -63.939  1.00  0.00     0.004 C 
ENDBRANCH  12  13
ENDBRANCH  11  12
ENDBRANCH  10  11
ENDBRANCH   9  10
ENDBRANCH   1   9
TORSDOF 10
ENDMDL
MODEL 9
REMARK VINA RESULT:    -4.799      2.094      4.500
REMARK INTER + INTRA:          -8.926
REMARK INTER:                  -8.036
REMARK INTRA:                  -0.890
REMARK UNBOUND:                -1.321
REMARK SMILES CCCCCCCCCCCC(=O)[O-]
REMARK SMILES IDX 7 1 8 2 9 3 10 4 11 5 12 6 13 7 14 8 6 9 5 10 4 11 3 12 2 13
REMARK SMILES IDX 1 14
REMARK H PARENT
REMARK Flexibility Score: inf
ROOT
ATOM      1  C   UNL     1     -99.618 -62.047 -64.873  1.00  0.00     0.000 C 
ENDROOT
BRANCH   1   2
ATOM      2  C   UNL     1    -100.764 -61.056 -64.639  1.00  0.00     0.000 C 
BRANCH   2   3
ATOM      3  C   UNL     1    -101.324 -60.536 -65.968  1.00  0.00     0.000 C 
BRANCH   3   4
ATOM      4  C   UNL     1    -100.198 -60.298 -66.984  1.00  0.00     0.006 C 
BRANCH   4   5
ATOM      5  C   UNL     1     -99.661 -58.862 -66.929  1.00  0.00     0.053 C 
BRANCH   5   6
ATOM      6  C   UNL     1     -98.199 -58.801 -67.251  1.00  0.00     0.041 C 
ATOM      7  O   UNL     1     -97.471 -57.916 -66.728  1.00  0.00    -0.550 OA
ATOM      8  O   UNL     1     -97.632 -59.742 -68.102  1.00  0.00    -0.550 OA
ENDBRANCH   5   6
ENDBRANCH   4   5
ENDBRANCH   3   4
ENDBRANCH   2   3
ENDBRANCH   1   2
BRANCH   1   9
ATOM      9  C   UNL     1     -98.504 -61.856 -63.837  1.00  0.00     0.000 C 
BRANCH   9  10
ATOM     10  C   UNL     1     -97.365 -61.000 -64.406  1.00  0.00    -0.000 C 
BRANCH  10  11
ATOM     11  C   UNL     1     -96.262 -61.880 -65.006  1.00  0.00    -0.000 C 
BRANCH  11  12
ATOM     12  C   UNL     1     -95.342 -61.059 -65.922  1.00  0.00    -0.000 C 
BRANCH  12  13
ATOM     13  C   UNL     1     -94.402 -61.941 -66.758  1.00  0.00    -0.003 C 
ATOM     14  C   UNL     1     -94.757 -61.943 -68.245  1.00  0.00     0.004 C 
ENDBRANCH  12  13
ENDBRANCH  11  12
ENDBRANCH  10  11
ENDBRANCH   9  10
ENDBRANCH   1   9
TORSDOF 10
ENDMDL
