MODEL 1
REMARK VINA RESULT:    -4.565      0.000      0.000
REMARK INTER + INTRA:          -9.433
REMARK INTER:                  -8.301
REMARK INTRA:                  -1.132
REMARK UNBOUND:                -1.132
REMARK SMILES CCCCCCCCCCCCCCCC(=O)[O-]
REMARK SMILES IDX 9 1 10 2 11 3 12 4 13 5 14 6 15 7 16 8 17 9 18 10 8 11 7 12
REMARK SMILES IDX 6 13 5 14 4 15 3 16 2 17 1 18
REMARK H PARENT
REMARK Flexibility Score: inf
ROOT
ATOM      1  C   UNL     1       8.738   5.265   1.336  1.00  0.00     0.000 C 
ENDROOT
BRANCH   1   2
ATOM      2  C   UNL     1       8.332   3.950   0.640  1.00  0.00     0.000 C 
BRANCH   2   3
ATOM      3  C   UNL     1       6.873   3.520   0.873  1.00  0.00     0.000 C 
BRANCH   3   4
ATOM      4  C   UNL     1       6.274   2.778  -0.333  1.00  0.00     0.000 C 
BRANCH   4   5
ATOM      5  C   UNL     1       6.122   1.265  -0.090  1.00  0.00     0.000 C 
BRANCH   5   6
ATOM      6  C   UNL     1       7.156   0.384  -0.813  1.00  0.00     0.006 C 
BRANCH   6   7
ATOM      7  C   UNL     1       7.806   1.083  -2.015  1.00  0.00     0.053 C 
BRANCH   7   8
ATOM      8  C   UNL     1       7.062   0.758  -3.272  1.00  0.00     0.041 C 
ATOM      9  O   UNL     1       6.255   1.590  -3.764  1.00  0.00    -0.550 OA
ATOM     10  O   UNL     1       7.301  -0.441  -3.931  1.00  0.00    -0.550 OA
ENDBRANCH   7   8
ENDBRANCH   6   7
ENDBRANCH   5   6
ENDBRANCH   4   5
ENDBRANCH   3   4
ENDBRANCH   2   3
ENDBRANCH   1   2
BRANCH   1  11
ATOM     11  C   UNL     1       7.649   6.357   1.370  1.00  0.00     0.000 C 
BRANCH  11  12
ATOM     12  C   UNL     1       7.535   7.208   0.092  1.00  0.00    -0.000 C 
BRANCH  12  13
ATOM     13  C   UNL     1       8.460   8.437   0.110  1.00  0.00    -0.000 C 
BRANCH  13  14
ATOM     14  C   UNL     1       8.780   8.921   1.536  1.00  0.00    -0.000 C 
BRANCH  14  15
ATOM     15  C   UNL     1       8.420  10.392   1.830  1.00  0.00    -0.000 C 
BRANCH  15  16
ATOM     16  C   UNL     1       7.604  10.620   3.115  1.00  0.00    -0.000 C 
BRANCH  16  17
ATOM     17  C   UNL     1       6.881   9.353   3.594  1.00  0.00    -0.003 C 
ATOM     18  C   UNL     1       6.290   9.552   4.987  1.00  0.00     0.004 C 
ENDBRANCH  16  17
ENDBRANCH  15  16
ENDBRANCH  14  15
ENDBRANCH  13  14
ENDBRANCH  12  13
ENDBRANCH  11  12
ENDBRANCH   1  11
TORSDOF 14
ENDMDL
MODEL 2
REMARK VINA RESULT:    -4.499      4.391      9.015
REMARK INTER + INTRA:          -9.313
REMARK INTER:                  -8.259
REMARK INTRA:                  -1.054
REMARK UNBOUND:                -1.132
REMARK SMILES CCCCCCCCCCCCCCCC(=O)[O-]
REMARK SMILES IDX 9 1 10 2 11 3 12 4 13 5 14 6 15 7 16 8 17 9 18 10 8 11 7 12
REMARK SMILES IDX 6 13 5 14 4 15 3 16 2 17 1 18
REMARK H PARENT
REMARK Flexibility Score: inf
ROOT
ATOM      1  C   UNL     1       7.182   6.263   0.550  1.00  0.00     0.000 C 
ENDROOT
BRANCH   1   2
ATOM      2  C   UNL     1       8.115   7.422   0.141  1.00  0.00     0.000 C 
BRANCH   2   3
ATOM      3  C   UNL     1       8.874   8.082   1.306  1.00  0.00     0.000 C 
BRANCH   3   4
ATOM      4  C   UNL     1       8.766   9.616   1.289  1.00  0.00     0.000 C 
BRANCH   4   5
ATOM      5  C   UNL     1       7.974  10.172   2.487  1.00  0.00     0.000 C 
BRANCH   5   6
ATOM      6  C   UNL     1       7.305   9.106   3.374  1.00  0.00     0.006 C 
BRANCH   6   7
ATOM      7  C   UNL     1       5.991   9.588   4.004  1.00  0.00     0.053 C 
BRANCH   7   8
ATOM      8  C   UNL     1       6.090   9.566   5.497  1.00  0.00     0.041 C 
ATOM      9  O   UNL     1       5.269  10.216   6.196  1.00  0.00    -0.550 OA
ATOM     10  O   UNL     1       7.054   8.784   6.118  1.00  0.00    -0.550 OA
ENDBRANCH   7   8
ENDBRANCH   6   7
ENDBRANCH   5   6
ENDBRANCH   4   5
ENDBRANCH   3   4
ENDBRANCH   2   3
ENDBRANCH   1   2
BRANCH   1  11
ATOM     11  C   UNL     1       7.850   5.134   1.361  1.00  0.00     0.000 C 
BRANCH  11  12
ATOM     12  C   UNL     1       7.972   3.785   0.629  1.00  0.00    -0.000 C 
BRANCH  12  13
ATOM     13  C   UNL     1       6.658   3.354  -0.046  1.00  0.00    -0.000 C 
BRANCH  13  14
ATOM     14  C   UNL     1       6.108   2.030   0.515  1.00  0.00    -0.000 C 
BRANCH  14  15
ATOM     15  C   UNL     1       6.093   0.849  -0.477  1.00  0.00    -0.000 C 
BRANCH  15  16
ATOM     16  C   UNL     1       6.432   1.214  -1.933  1.00  0.00    -0.000 C 
BRANCH  16  17
ATOM     17  C   UNL     1       7.713   0.534  -2.436  1.00  0.00    -0.003 C 
ATOM     18  C   UNL     1       8.942   1.389  -2.140  1.00  0.00     0.004 C 
ENDBRANCH  16  17
ENDBRANCH  15  16
ENDBRANCH  14  15
ENDBRANCH  13  14
ENDBRANCH  12  13
ENDBRANCH  11  12
ENDBRANCH   1  11
TORSDOF 14
ENDMDL
MODEL 3
REMARK VINA RESULT:    -4.222      1.148      1.870
REMARK INTER + INTRA:          -8.810
REMARK INTER:                  -8.149
REMARK INTRA:                  -0.661
REMARK UNBOUND:                -1.132
REMARK SMILES CCCCCCCCCCCCCCCC(=O)[O-]
REMARK SMILES IDX 9 1 10 2 11 3 12 4 13 5 14 6 15 7 16 8 17 9 18 10 8 11 7 12
REMARK SMILES IDX 6 13 5 14 4 15 3 16 2 17 1 18
REMARK H PARENT
REMARK Flexibility Score: inf
ROOT
ATOM      1  C   UNL     1       7.685   3.698   0.137  1.00  0.00     0.000 C 
ENDROOT
BRANCH   1   2
ATOM      2  C   UNL     1       6.324   3.154  -0.340  1.00  0.00     0.000 C 
BRANCH   2   3
ATOM      3  C   UNL     1       5.862   1.864   0.362  1.00  0.00     0.000 C 
BRANCH   3   4
ATOM      4  C   UNL     1       6.324   0.593  -0.370  1.00  0.00     0.000 C 
BRANCH   4   5
ATOM      5  C   UNL     1       6.868   0.881  -1.781  1.00  0.00     0.000 C 
BRANCH   5   6
ATOM      6  C   UNL     1       8.394   0.741  -1.930  1.00  0.00     0.006 C 
BRANCH   6   7
ATOM      7  C   UNL     1       8.806  -0.447  -2.808  1.00  0.00     0.053 C 
BRANCH   7   8
ATOM      8  C   UNL     1       8.399  -0.211  -4.229  1.00  0.00     0.041 C 
ATOM      9  O   UNL     1       8.555   0.923  -4.753  1.00  0.00    -0.550 OA
ATOM     10  O   UNL     1       7.898  -1.258  -4.991  1.00  0.00    -0.550 OA
ENDBRANCH   7   8
ENDBRANCH   6   7
ENDBRANCH   5   6
ENDBRANCH   4   5
ENDBRANCH   3   4
ENDBRANCH   2   3
ENDBRANCH   1   2
BRANCH   1  11
ATOM     11  C   UNL     1       7.665   4.422   1.500  1.00  0.00     0.000 C 
BRANCH  11  12
ATOM     12  C   UNL     1       8.427   5.759   1.542  1.00  0.00    -0.000 C 
BRANCH  12  13
ATOM     13  C   UNL     1       7.635   6.915   0.906  1.00  0.00    -0.000 C 
BRANCH  13  14
ATOM     14  C   UNL     1       8.540   8.069   0.437  1.00  0.00    -0.000 C 
BRANCH  14  15
ATOM     15  C   UNL     1       8.528   9.324   1.334  1.00  0.00    -0.000 C 
BRANCH  15  16
ATOM     16  C   UNL     1       8.121   9.077   2.797  1.00  0.00    -0.000 C 
BRANCH  16  17
ATOM     17  C   UNL     1       7.236  10.195   3.367  1.00  0.00    -0.003 C 
ATOM     18  C   UNL     1       5.962   9.626   3.986  1.00  0.00     0.004 C 
ENDBRANCH  16  17
ENDBRANCH  15  16
ENDBRANCH  14  15
ENDBRANCH  13  14
ENDBRANCH  12  13
ENDBRANCH  11  12
ENDBRANCH   1  11
TORSDOF 14
ENDMDL
MODEL 4
REMARK VINA RESULT:    -4.166     10.211     13.417
REMARK INTER + INTRA:          -8.707
REMARK INTER:                  -7.198
REMARK INTRA:                  -1.509
REMARK UNBOUND:                -1.132
REMARK SMILES CCCCCCCCCCCCCCCC(=O)[O-]
REMARK SMILES IDX 9 1 10 2 11 3 12 4 13 5 14 6 15 7 16 8 17 9 18 10 8 11 7 12
REMARK SMILES IDX 6 13 5 14 4 15 3 16 2 17 1 18
REMARK H PARENT
REMARK Flexibility Score: inf
ROOT
ATOM      1  C   UNL     1       1.830   6.520  12.057  1.00  0.00     0.000 C 
ENDROOT
BRANCH   1   2
ATOM      2  C   UNL     1       1.427   8.008  11.993  1.00  0.00     0.000 C 
BRANCH   2   3
ATOM      3  C   UNL     1       0.129   8.293  11.217  1.00  0.00     0.000 C 
BRANCH   3   4
ATOM      4  C   UNL     1       0.361   9.168   9.974  1.00  0.00     0.000 C 
BRANCH   4   5
ATOM      5  C   UNL     1       1.163  10.445  10.283  1.00  0.00     0.000 C 
BRANCH   5   6
ATOM      6  C   UNL     1       2.378  10.686   9.369  1.00  0.00     0.006 C 
BRANCH   6   7
ATOM      7  C   UNL     1       3.413   9.555   9.432  1.00  0.00     0.053 C 
BRANCH   7   8
ATOM      8  C   UNL     1       3.612   8.954   8.077  1.00  0.00     0.041 C 
ATOM      9  O   UNL     1       4.563   9.338   7.347  1.00  0.00    -0.550 OA
ATOM     10  O   UNL     1       2.781   7.930   7.641  1.00  0.00    -0.550 OA
ENDBRANCH   7   8
ENDBRANCH   6   7
ENDBRANCH   5   6
ENDBRANCH   4   5
ENDBRANCH   3   4
ENDBRANCH   2   3
ENDBRANCH   1   2
BRANCH   1  11
ATOM     11  C   UNL     1       1.793   5.769  10.710  1.00  0.00     0.000 C 
BRANCH  11  12
ATOM     12  C   UNL     1       3.166   5.522  10.059  1.00  0.00    -0.000 C 
BRANCH  12  13
ATOM     13  C   UNL     1       3.449   4.030   9.813  1.00  0.00    -0.000 C 
BRANCH  13  14
ATOM     14  C   UNL     1       3.308   3.179  11.088  1.00  0.00    -0.000 C 
BRANCH  14  15
ATOM     15  C   UNL     1       2.548   1.848  10.912  1.00  0.00    -0.000 C 
BRANCH  15  16
ATOM     16  C   UNL     1       1.017   1.977  10.823  1.00  0.00    -0.000 C 
BRANCH  16  17
ATOM     17  C   UNL     1       0.391   2.535  12.109  1.00  0.00    -0.003 C 
ATOM     18  C   UNL     1      -0.550   1.518  12.748  1.00  0.00     0.004 C 
ENDBRANCH  16  17
ENDBRANCH  15  16
ENDBRANCH  14  15
ENDBRANCH  13  14
ENDBRANCH  12  13
ENDBRANCH  11  12
ENDBRANCH   1  11
TORSDOF 14
ENDMDL
MODEL 5
REMARK VINA RESULT:    -4.164     10.000     13.000
REMARK INTER + INTRA:          -8.704
REMARK INTER:                  -7.087
REMARK INTRA:                  -1.617
REMARK UNBOUND:                -1.132
REMARK SMILES CCCCCCCCCCCCCCCC(=O)[O-]
REMARK SMILES IDX 9 1 10 2 11 3 12 4 13 5 14 6 15 7 16 8 17 9 18 10 8 11 7 12
REMARK SMILES IDX 6 13 5 14 4 15 3 16 2 17 1 18
REMARK H PARENT
REMARK Flexibility Score: inf
ROOT
ATOM      1  C   UNL     1       2.111   6.926   8.919  1.00  0.00     0.000 C 
ENDROOT
BRANCH   1   2
ATOM      2  C   UNL     1       1.339   8.138   8.361  1.00  0.00     0.000 C 
BRANCH   2   3
ATOM      3  C   UNL     1       0.512   8.913   9.403  1.00  0.00     0.000 C 
BRANCH   3   4
ATOM      4  C   UNL     1       1.387   9.753  10.348  1.00  0.00     0.000 C 
BRANCH   4   5
ATOM      5  C   UNL     1       2.035  10.961   9.645  1.00  0.00     0.000 C 
BRANCH   5   6
ATOM      6  C   UNL     1       3.569  10.897   9.527  1.00  0.00     0.006 C 
BRANCH   6   7
ATOM      7  C   UNL     1       4.063  10.966   8.076  1.00  0.00     0.053 C 
BRANCH   7   8
ATOM      8  C   UNL     1       4.758   9.696   7.700  1.00  0.00     0.041 C 
ATOM      9  O   UNL     1       5.076   9.477   6.502  1.00  0.00    -0.550 OA
ATOM     10  O   UNL     1       5.106   8.777   8.682  1.00  0.00    -0.550 OA
ENDBRANCH   7   8
ENDBRANCH   6   7
ENDBRANCH   5   6
ENDBRANCH   4   5
ENDBRANCH   3   4
ENDBRANCH   2   3
ENDBRANCH   1   2
BRANCH   1  11
ATOM     11  C   UNL     1       1.283   5.960   9.792  1.00  0.00     0.000 C 
BRANCH  11  12
ATOM     12  C   UNL     1       1.749   5.835  11.253  1.00  0.00    -0.000 C 
BRANCH  12  13
ATOM     13  C   UNL     1       3.259   5.564  11.375  1.00  0.00    -0.000 C 
BRANCH  13  14
ATOM     14  C   UNL     1       3.584   4.440  12.375  1.00  0.00    -0.000 C 
BRANCH  14  15
ATOM     15  C   UNL     1       2.676   3.196  12.286  1.00  0.00    -0.000 C 
BRANCH  15  16
ATOM     16  C   UNL     1       2.729   2.443  10.945  1.00  0.00    -0.000 C 
BRANCH  16  17
ATOM     17  C   UNL     1       1.340   2.030  10.439  1.00  0.00    -0.003 C 
ATOM     18  C   UNL     1       0.304   2.098  11.558  1.00  0.00     0.004 C 
ENDBRANCH  16  17
ENDBRANCH  15  16
ENDBRANCH  14  15
ENDBRANCH  13  14
ENDBRANCH  12  13
ENDBRANCH  11  12
ENDBRANCH   1  11
TORSDOF 14
ENDMDL
MODEL 6
REMARK VINA RESULT:    -4.163      1.124      2.158
REMARK INTER + INTRA:          -8.701
REMARK INTER:                  -7.764
REMARK INTRA:                  -0.938
REMARK UNBOUND:                -1.132
REMARK SMILES CCCCCCCCCCCCCCCC(=O)[O-]
REMARK SMILES IDX 9 1 10 2 11 3 12 4 13 5 14 6 15 7 16 8 17 9 18 10 8 11 7 12
REMARK SMILES IDX 6 13 5 14 4 15 3 16 2 17 1 18
REMARK H PARENT
REMARK Flexibility Score: inf
ROOT
ATOM      1  C   UNL     1       7.646   6.868   0.422  1.00  0.00     0.000 C 
ENDROOT
BRANCH   1   2
ATOM      2  C   UNL     1       6.951   5.491   0.385  1.00  0.00     0.000 C 
BRANCH   2   3
ATOM      3  C   UNL     1       7.856   4.300   0.748  1.00  0.00     0.000 C 
BRANCH   3   4
ATOM      4  C   UNL     1       7.670   3.105  -0.201  1.00  0.00     0.000 C 
BRANCH   4   5
ATOM      5  C   UNL     1       6.287   2.442  -0.064  1.00  0.00     0.000 C 
BRANCH   5   6
ATOM      6  C   UNL     1       6.182   1.029  -0.665  1.00  0.00     0.006 C 
BRANCH   6   7
ATOM      7  C   UNL     1       7.349   0.685  -1.600  1.00  0.00     0.053 C 
BRANCH   7   8
ATOM      8  C   UNL     1       6.880   0.625  -3.019  1.00  0.00     0.041 C 
ATOM      9  O   UNL     1       7.235  -0.326  -3.764  1.00  0.00    -0.550 OA
ATOM     10  O   UNL     1       6.005   1.588  -3.504  1.00  0.00    -0.550 OA
ENDBRANCH   7   8
ENDBRANCH   6   7
ENDBRANCH   5   6
ENDBRANCH   4   5
ENDBRANCH   3   4
ENDBRANCH   2   3
ENDBRANCH   1   2
BRANCH   1  11
ATOM     11  C   UNL     1       7.865   7.459   1.831  1.00  0.00     0.000 C 
BRANCH  11  12
ATOM     12  C   UNL     1       8.904   8.591   1.912  1.00  0.00    -0.000 C 
BRANCH  12  13
ATOM     13  C   UNL     1       8.288   9.935   2.340  1.00  0.00    -0.000 C 
BRANCH  13  14
ATOM     14  C   UNL     1       6.937   9.769   3.059  1.00  0.00    -0.000 C 
BRANCH  14  15
ATOM     15  C   UNL     1       6.836  10.450   4.439  1.00  0.00    -0.000 C 
BRANCH  15  16
ATOM     16  C   UNL     1       6.468   9.513   5.604  1.00  0.00    -0.000 C 
BRANCH  16  17
ATOM     17  C   UNL     1       7.677   9.140   6.473  1.00  0.00    -0.003 C 
ATOM     18  C   UNL     1       8.510   8.045   5.813  1.00  0.00     0.004 C 
ENDBRANCH  16  17
ENDBRANCH  15  16
ENDBRANCH  14  15
ENDBRANCH  13  14
ENDBRANCH  12  13
ENDBRANCH  11  12
ENDBRANCH   1  11
TORSDOF 14
ENDMDL
MODEL 7
REMARK VINA RESULT:    -4.141     10.680     13.511
REMARK INTER + INTRA:          -8.662
REMARK INTER:                  -6.928
REMARK INTRA:                  -1.734
REMARK UNBOUND:                -1.132
REMARK SMILES CCCCCCCCCCCCCCCC(=O)[O-]
REMARK SMILES IDX 9 1 10 2 11 3 12 4 13 5 14 6 15 7 16 8 17 9 18 10 8 11 7 12
REMARK SMILES IDX 6 13 5 14 4 15 3 16 2 17 1 18
REMARK H PARENT
REMARK Flexibility Score: inf
ROOT
ATOM      1  C   UNL     1       2.645   5.622   9.728  1.00  0.00     0.000 C 
ENDROOT
BRANCH   1   2
ATOM      2  C   UNL     1       1.295   6.360   9.831  1.00  0.00     0.000 C 
BRANCH   2   3
ATOM      3  C   UNL     1       0.970   6.920  11.228  1.00  0.00     0.000 C 
BRANCH   3   4
ATOM      4  C   UNL     1       0.252   8.278  11.169  1.00  0.00     0.000 C 
BRANCH   4   5
ATOM      5  C   UNL     1       0.526   9.043   9.860  1.00  0.00     0.000 C 
BRANCH   5   6
ATOM      6  C   UNL     1       1.482  10.242   9.997  1.00  0.00     0.006 C 
BRANCH   6   7
ATOM      7  C   UNL     1       2.939   9.888   9.673  1.00  0.00     0.053 C 
BRANCH   7   8
ATOM      8  C   UNL     1       3.119   9.714   8.198  1.00  0.00     0.041 C 
ATOM      9  O   UNL     1       3.155  10.720   7.442  1.00  0.00    -0.550 OA
ATOM     10  O   UNL     1       3.301   8.446   7.665  1.00  0.00    -0.550 OA
ENDBRANCH   7   8
ENDBRANCH   6   7
ENDBRANCH   5   6
ENDBRANCH   4   5
ENDBRANCH   3   4
ENDBRANCH   2   3
ENDBRANCH   1   2
BRANCH   1  11
ATOM     11  C   UNL     1       3.392   5.423  11.063  1.00  0.00     0.000 C 
BRANCH  11  12
ATOM     12  C   UNL     1       4.193   4.113  11.177  1.00  0.00    -0.000 C 
BRANCH  12  13
ATOM     13  C   UNL     1       4.211   3.549  12.608  1.00  0.00    -0.000 C 
BRANCH  13  14
ATOM     14  C   UNL     1       4.269   2.011  12.641  1.00  0.00    -0.000 C 
BRANCH  14  15
ATOM     15  C   UNL     1       3.014   1.292  12.107  1.00  0.00    -0.000 C 
BRANCH  15  16
ATOM     16  C   UNL     1       1.684   1.745  12.735  1.00  0.00    -0.000 C 
BRANCH  16  17
ATOM     17  C   UNL     1       0.637   2.147  11.687  1.00  0.00    -0.003 C 
ATOM     18  C   UNL     1       1.224   2.104  10.279  1.00  0.00     0.004 C 
ENDBRANCH  16  17
ENDBRANCH  15  16
ENDBRANCH  14  15
ENDBRANCH  13  14
ENDBRANCH  12  13
ENDBRANCH  11  12
ENDBRANCH   1  11
TORSDOF 14
ENDMDL
MODEL 8
REMARK VINA RESULT:    -4.101     10.803     12.893
REMARK INTER + INTRA:          -8.589
REMARK INTER:                  -6.303
REMARK INTRA:                  -2.285
REMARK UNBOUND:                -1.132
REMARK SMILES CCCCCCCCCCCCCCCC(=O)[O-]
REMARK SMILES IDX 9 1 10 2 11 3 12 4 13 5 14 6 15 7 16 8 17 9 18 10 8 11 7 12
REMARK SMILES IDX 6 13 5 14 4 15 3 16 2 17 1 18
REMARK H PARENT
REMARK Flexibility Score: inf
ROOT
ATOM      1  C   UNL     1       5.300   7.438  10.132  1.00  0.00     0.000 C 
ENDROOT
BRANCH   1   2
ATOM      2  C   UNL     1       4.914   8.432  11.246  1.00  0.00     0.000 C 
BRANCH   2   3
ATOM      3  C   UNL     1       4.133   7.816  12.420  1.00  0.00     0.000 C 
BRANCH   3   4
ATOM      4  C   UNL     1       2.611   7.978  12.268  1.00  0.00     0.000 C 
BRANCH   4   5
ATOM      5  C   UNL     1       1.926   6.708  11.729  1.00  0.00     0.000 C 
BRANCH   5   6
ATOM      6  C   UNL     1       1.054   6.922  10.479  1.00  0.00     0.006 C 
BRANCH   6   7
ATOM      7  C   UNL     1       1.789   6.602   9.171  1.00  0.00     0.053 C 
BRANCH   7   8
ATOM      8  C   UNL     1       1.893   7.826   8.317  1.00  0.00     0.041 C 
ATOM      9  O   UNL     1       0.981   8.694   8.341  1.00  0.00    -0.550 OA
ATOM     10  O   UNL     1       3.022   8.037   7.537  1.00  0.00    -0.550 OA
ENDBRANCH   7   8
ENDBRANCH   6   7
ENDBRANCH   5   6
ENDBRANCH   4   5
ENDBRANCH   3   4
ENDBRANCH   2   3
ENDBRANCH   1   2
BRANCH   1  11
ATOM     11  C   UNL     1       5.920   6.111  10.618  1.00  0.00     0.000 C 
BRANCH  11  12
ATOM     12  C   UNL     1       5.020   4.872  10.464  1.00  0.00    -0.000 C 
BRANCH  12  13
ATOM     13  C   UNL     1       4.761   4.155  11.801  1.00  0.00    -0.000 C 
BRANCH  13  14
ATOM     14  C   UNL     1       3.463   3.327  11.791  1.00  0.00    -0.000 C 
BRANCH  14  15
ATOM     15  C   UNL     1       2.744   3.245  10.429  1.00  0.00    -0.000 C 
BRANCH  15  16
ATOM     16  C   UNL     1       1.209   3.165  10.506  1.00  0.00    -0.000 C 
BRANCH  16  17
ATOM     17  C   UNL     1       0.709   1.823  11.059  1.00  0.00    -0.003 C 
ATOM     18  C   UNL     1      -0.002   2.010  12.396  1.00  0.00     0.004 C 
ENDBRANCH  16  17
ENDBRANCH  15  16
ENDBRANCH  14  15
ENDBRANCH  13  14
ENDBRANCH  12  13
ENDBRANCH  11  12
ENDBRANCH   1  11
TORSDOF 14
ENDMDL
MODEL 9
REMARK VINA RESULT:    -4.022     10.480     12.724
REMARK INTER + INTRA:          -8.445
REMARK INTER:                  -5.999
REMARK INTRA:                  -2.446
REMARK UNBOUND:                -1.132
REMARK SMILES CCCCCCCCCCCCCCCC(=O)[O-]
REMARK SMILES IDX 9 1 10 2 11 3 12 4 13 5 14 6 15 7 16 8 17 9 18 10 8 11 7 12
REMARK SMILES IDX 6 13 5 14 4 15 3 16 2 17 1 18
REMARK H PARENT
REMARK Flexibility Score: inf
ROOT
ATOM      1  C   UNL     1       2.890   7.843  12.354  1.00  0.00     0.000 C 
ENDROOT
BRANCH   1   2
ATOM      2  C   UNL     1       1.772   6.858  11.957  1.00  0.00     0.000 C 
BRANCH   2   3
ATOM      3  C   UNL     1       0.887   7.322  10.787  1.00  0.00     0.000 C 
BRANCH   3   4
ATOM      4  C   UNL     1       1.238   6.621   9.464  1.00  0.00     0.000 C 
BRANCH   4   5
ATOM      5  C   UNL     1       2.013   7.531   8.493  1.00  0.00     0.000 C 
BRANCH   5   6
ATOM      6  C   UNL     1       1.619   9.018   8.543  1.00  0.00     0.006 C 
BRANCH   6   7
ATOM      7  C   UNL     1       2.738   9.919   9.083  1.00  0.00     0.053 C 
BRANCH   7   8
ATOM      8  C   UNL     1       3.893   9.943   8.132  1.00  0.00     0.041 C 
ATOM      9  O   UNL     1       3.892  10.736   7.154  1.00  0.00    -0.550 OA
ATOM     10  O   UNL     1       4.995   9.128   8.356  1.00  0.00    -0.550 OA
ENDBRANCH   7   8
ENDBRANCH   6   7
ENDBRANCH   5   6
ENDBRANCH   4   5
ENDBRANCH   3   4
ENDBRANCH   2   3
ENDBRANCH   1   2
BRANCH   1  11
ATOM     11  C   UNL     1       4.194   7.724  11.539  1.00  0.00     0.000 C 
BRANCH  11  12
ATOM     12  C   UNL     1       4.876   6.345  11.592  1.00  0.00    -0.000 C 
BRANCH  12  13
ATOM     13  C   UNL     1       4.852   5.617  10.237  1.00  0.00    -0.000 C 
BRANCH  13  14
ATOM     14  C   UNL     1       3.985   4.344  10.260  1.00  0.00    -0.000 C 
BRANCH  14  15
ATOM     15  C   UNL     1       3.866   3.652  11.633  1.00  0.00    -0.000 C 
BRANCH  15  16
ATOM     16  C   UNL     1       2.451   3.173  12.002  1.00  0.00    -0.000 C 
BRANCH  16  17
ATOM     17  C   UNL     1       1.478   3.221  10.816  1.00  0.00    -0.003 C 
ATOM     18  C   UNL     1       1.162   1.818  10.307  1.00  0.00     0.004 C 
ENDBRANCH  16  17
ENDBRANCH  15  16
ENDBRANCH  14  15
ENDBRANCH  13  14
ENDBRANCH  12  13
ENDBRANCH  11  12
ENDBRANCH   1  11
TORSDOF 14
ENDMDL
