MODEL 1
REMARK VINA RESULT:    19.563      0.000      0.000
REMARK INTER + INTRA:          39.054
REMARK INTER:                  32.143
REMARK INTRA:                   6.911
REMARK UNBOUND:                 6.911
REMARK SMILES C[C@H]1O[C@@H](OC[C@@H]2O[C@H](Oc3c(-c4ccc(O)c(O)c4)oc4cc(O)cc(O)c4c3=O)[C@@H](O)[C@@H](O)[C@@H]2O)[C@H](O)[C@H](O)[C@H]1O
REMARK SMILES IDX 7 1 36 2 34 3 32 4 9 5 8 6 6 7 5 8 4 9 1 10 2 11 42 12 3 13
REMARK SMILES IDX 40 14 38 15 43 16 41 18 39 20 37 22 35 24 10 26 11 27 12 28
REMARK SMILES IDX 30 29 21 30 29 31 31 32 22 33 27 34 23 35 26 36 24 37 13 38
REMARK SMILES IDX 20 39 14 40 18 41 15 42 16 43 19 44 17 46 28 48 25 50 33 52
REMARK H PARENT 43 17 41 19 39 21 37 23 35 25 19 45 17 47 28 49 25 51 33 53
REMARK Flexibility Score: inf
ROOT
ATOM      1  C   UNL     1      22.270  46.209  28.788  1.00  0.00     0.180 C 
ATOM      2  C   UNL     1      22.237  46.785  27.327  1.00  0.00     0.177 C 
ATOM      3  C   UNL     1      23.100  45.921  26.390  1.00  0.00     0.180 C 
ATOM      4  C   UNL     1      22.635  44.439  26.435  1.00  0.00     0.214 C 
ATOM      5  C   UNL     1      22.172  44.054  27.860  1.00  0.00     0.339 C 
ATOM      6  O   UNL     1      22.781  44.884  28.836  1.00  0.00    -0.332 OA
ENDROOT
BRANCH   1   7
ATOM      7  C   UNL     1      23.124  47.053  29.753  1.00  0.00     0.198 C 
BRANCH   7   8
ATOM      8  O   UNL     1      22.944  46.607  31.086  1.00  0.00    -0.347 OA
BRANCH   8   9
ATOM      9  C   UNL     1      22.009  45.539  31.131  1.00  0.00     0.281 C 
ATOM     10  C   UNL     1      21.095  47.822  33.047  1.00  0.00     0.041 C 
ATOM     11  C   UNL     1      20.505  46.424  32.778  1.00  0.00     0.150 C 
ATOM     12  C   UNL     1      20.926  45.354  33.810  1.00  0.00     0.174 C 
ATOM     13  O   UNL     1      20.692  45.996  31.432  1.00  0.00    -0.344 OA
ATOM     14  C   UNL     1      22.365  44.891  33.552  1.00  0.00     0.179 C 
ATOM     15  C   UNL     1      22.511  44.440  32.089  1.00  0.00     0.202 C 
BRANCH  12  16
ATOM     16  O   UNL     1      20.819  45.849  35.123  1.00  0.00    -0.388 OA
ATOM     17  H   UNL     1      21.595  45.477  35.625  1.00  0.00     0.211 HD
ENDBRANCH  12  16
BRANCH  14  18
ATOM     18  O   UNL     1      22.742  43.873  34.448  1.00  0.00    -0.387 OA
ATOM     19  H   UNL     1      21.933  43.344  34.685  1.00  0.00     0.211 HD
ENDBRANCH  14  18
BRANCH  15  20
ATOM     20  O   UNL     1      21.770  43.264  31.856  1.00  0.00    -0.385 OA
ATOM     21  H   UNL     1      22.110  42.573  32.484  1.00  0.00     0.211 HD
ENDBRANCH  15  20
ENDBRANCH   8   9
ENDBRANCH   7   8
ENDBRANCH   1   7
BRANCH   2  22
ATOM     22  O   UNL     1      22.672  48.125  27.296  1.00  0.00    -0.387 OA
ATOM     23  H   UNL     1      22.015  48.666  27.809  1.00  0.00     0.211 HD
ENDBRANCH   2  22
BRANCH   3  24
ATOM     24  O   UNL     1      23.028  46.428  25.082  1.00  0.00    -0.387 OA
ATOM     25  H   UNL     1      22.723  45.681  24.505  1.00  0.00     0.211 HD
ENDBRANCH   3  24
BRANCH   5  26
ATOM     26  O   UNL     1      22.473  42.675  28.125  1.00  0.00    -0.454 OA
BRANCH  26  27
ATOM     27  C   UNL     1      21.518  41.644  28.070  1.00  0.00     0.214 A 
ATOM     28  C   UNL     1      21.037  41.186  26.827  1.00  0.00     0.180 A 
ATOM     29  C   UNL     1      21.032  41.040  29.242  1.00  0.00     0.239 A 
ATOM     30  O   UNL     1      20.098  40.250  26.784  1.00  0.00    -0.452 OA
ATOM     31  C   UNL     1      20.032  40.056  29.157  1.00  0.00     0.111 A 
ATOM     32  O   UNL     1      21.501  41.387  30.362  1.00  0.00    -0.285 OA
ATOM     33  C   UNL     1      19.569  39.697  27.868  1.00  0.00     0.146 A 
ATOM     34  C   UNL     1      19.473  39.414  30.287  1.00  0.00     0.134 A 
ATOM     35  C   UNL     1      18.537  38.755  27.723  1.00  0.00     0.094 A 
ATOM     36  C   UNL     1      18.440  38.477  30.120  1.00  0.00     0.093 A 
ATOM     37  C   UNL     1      17.956  38.159  28.844  1.00  0.00     0.123 A 
BRANCH  28  38
ATOM     38  C   UNL     1      21.550  41.713  25.542  1.00  0.00     0.025 A 
ATOM     39  C   UNL     1      20.923  42.791  24.897  1.00  0.00     0.062 A 
ATOM     40  C   UNL     1      22.638  41.082  24.922  1.00  0.00     0.016 A 
ATOM     41  C   UNL     1      21.396  43.257  23.662  1.00  0.00     0.158 A 
ATOM     42  C   UNL     1      23.120  41.546  23.695  1.00  0.00     0.051 A 
ATOM     43  C   UNL     1      22.506  42.638  23.062  1.00  0.00     0.157 A 
BRANCH  41  44
ATOM     44  O   UNL     1      20.744  44.330  23.050  1.00  0.00    -0.504 OA
ATOM     45  H   UNL     1      20.741  44.460  22.044  1.00  0.00     0.293 HD
ENDBRANCH  41  44
BRANCH  43  46
ATOM     46  O   UNL     1      22.996  43.105  21.844  1.00  0.00    -0.504 OA
ATOM     47  H   UNL     1      22.459  43.738  21.262  1.00  0.00     0.293 HD
ENDBRANCH  43  46
ENDBRANCH  28  38
BRANCH  34  48
ATOM     48  O   UNL     1      19.949  39.686  31.566  1.00  0.00    -0.507 OA
ATOM     49  H   UNL     1      20.344  40.590  31.805  1.00  0.00     0.293 HD
ENDBRANCH  34  48
BRANCH  37  50
ATOM     50  O   UNL     1      16.883  37.282  28.681  1.00  0.00    -0.508 OA
ATOM     51  H   UNL     1      17.025  36.314  28.394  1.00  0.00     0.293 HD
ENDBRANCH  37  50
ENDBRANCH  26  27
ENDBRANCH   5  26
BRANCH   4  52
ATOM     52  O   UNL     1      21.569  44.222  25.538  1.00  0.00    -0.384 OA
ATOM     53  H   UNL     1      20.775  43.986  26.086  1.00  0.00     0.211 HD
ENDBRANCH   4  52
TORSDOF 16
ENDMDL
MODEL 2
REMARK VINA RESULT:    22.429      1.837      8.527
REMARK INTER + INTRA:          43.763
REMARK INTER:                  31.573
REMARK INTRA:                  12.191
REMARK UNBOUND:                 6.911
REMARK SMILES C[C@H]1O[C@@H](OC[C@@H]2O[C@H](Oc3c(-c4ccc(O)c(O)c4)oc4cc(O)cc(O)c4c3=O)[C@@H](O)[C@@H](O)[C@@H]2O)[C@H](O)[C@H](O)[C@H]1O
REMARK SMILES IDX 7 1 36 2 34 3 32 4 9 5 8 6 6 7 5 8 4 9 1 10 2 11 42 12 3 13
REMARK SMILES IDX 40 14 38 15 43 16 41 18 39 20 37 22 35 24 10 26 11 27 12 28
REMARK SMILES IDX 30 29 21 30 29 31 31 32 22 33 27 34 23 35 26 36 24 37 13 38
REMARK SMILES IDX 20 39 14 40 18 41 15 42 16 43 19 44 17 46 28 48 25 50 33 52
REMARK H PARENT 43 17 41 19 39 21 37 23 35 25 19 45 17 47 28 49 25 51 33 53
REMARK Flexibility Score: inf
ROOT
ATOM      1  C   UNL     1      19.881  39.499  29.219  1.00  0.00     0.180 C 
ATOM      2  C   UNL     1      20.272  39.043  27.768  1.00  0.00     0.177 C 
ATOM      3  C   UNL     1      20.406  40.264  26.839  1.00  0.00     0.180 C 
ATOM      4  C   UNL     1      21.429  41.279  27.421  1.00  0.00     0.214 C 
ATOM      5  C   UNL     1      21.350  41.313  28.965  1.00  0.00     0.339 C 
ATOM      6  O   UNL     1      20.074  40.892  29.420  1.00  0.00    -0.332 OA
ENDROOT
BRANCH   1   7
ATOM      7  C   UNL     1      18.412  39.195  29.574  1.00  0.00     0.198 C 
BRANCH   7   8
ATOM      8  O   UNL     1      18.328  38.002  30.334  1.00  0.00    -0.347 OA
BRANCH   8   9
ATOM      9  C   UNL     1      17.423  37.091  29.730  1.00  0.00     0.281 C 
ATOM     10  C   UNL     1      16.756  39.998  28.823  1.00  0.00     0.041 C 
ATOM     11  C   UNL     1      16.050  38.659  28.539  1.00  0.00     0.150 C 
ATOM     12  C   UNL     1      14.842  38.377  29.461  1.00  0.00     0.174 C 
ATOM     13  O   UNL     1      16.956  37.562  28.467  1.00  0.00    -0.344 OA
ATOM     14  C   UNL     1      15.313  37.932  30.850  1.00  0.00     0.179 C 
ATOM     15  C   UNL     1      16.286  36.748  30.715  1.00  0.00     0.202 C 
BRANCH  12  16
ATOM     16  O   UNL     1      14.023  39.514  29.583  1.00  0.00    -0.388 OA
ATOM     17  H   UNL     1      13.103  39.178  29.768  1.00  0.00     0.211 HD
ENDBRANCH  12  16
BRANCH  14  18
ATOM     18  O   UNL     1      14.224  37.614  31.682  1.00  0.00    -0.387 OA
ATOM     19  H   UNL     1      14.556  37.066  32.443  1.00  0.00     0.211 HD
ENDBRANCH  14  18
BRANCH  15  20
ATOM     20  O   UNL     1      15.611  35.603  30.245  1.00  0.00    -0.385 OA
ATOM     21  H   UNL     1      16.154  35.226  29.503  1.00  0.00     0.211 HD
ENDBRANCH  15  20
ENDBRANCH   8   9
ENDBRANCH   7   8
ENDBRANCH   1   7
BRANCH   2  22
ATOM     22  O   UNL     1      19.331  38.133  27.246  1.00  0.00    -0.387 OA
ATOM     23  H   UNL     1      19.530  38.017  26.279  1.00  0.00     0.211 HD
ENDBRANCH   2  22
BRANCH   3  24
ATOM     24  O   UNL     1      20.794  39.841  25.558  1.00  0.00    -0.387 OA
ATOM     25  H   UNL     1      21.785  39.875  25.536  1.00  0.00     0.211 HD
ENDBRANCH   3  24
BRANCH   5  26
ATOM     26  O   UNL     1      21.637  42.635  29.449  1.00  0.00    -0.454 OA
BRANCH  26  27
ATOM     27  C   UNL     1      21.992  43.710  28.615  1.00  0.00     0.214 A 
ATOM     28  C   UNL     1      22.189  44.995  29.158  1.00  0.00     0.180 A 
ATOM     29  C   UNL     1      22.170  43.529  27.233  1.00  0.00     0.239 A 
ATOM     30  O   UNL     1      22.472  46.016  28.358  1.00  0.00    -0.452 OA
ATOM     31  C   UNL     1      22.462  44.636  26.417  1.00  0.00     0.111 A 
ATOM     32  O   UNL     1      22.068  42.373  26.738  1.00  0.00    -0.285 OA
ATOM     33  C   UNL     1      22.589  45.900  27.041  1.00  0.00     0.146 A 
ATOM     34  C   UNL     1      22.637  44.546  25.016  1.00  0.00     0.134 A 
ATOM     35  C   UNL     1      22.832  47.049  26.271  1.00  0.00     0.094 A 
ATOM     36  C   UNL     1      22.876  45.707  24.264  1.00  0.00     0.093 A 
ATOM     37  C   UNL     1      22.956  46.961  24.884  1.00  0.00     0.123 A 
BRANCH  28  38
ATOM     38  C   UNL     1      22.097  45.259  30.612  1.00  0.00     0.025 A 
ATOM     39  C   UNL     1      20.964  44.876  31.349  1.00  0.00     0.062 A 
ATOM     40  C   UNL     1      23.125  45.964  31.253  1.00  0.00     0.016 A 
ATOM     41  C   UNL     1      20.872  45.164  32.718  1.00  0.00     0.158 A 
ATOM     42  C   UNL     1      23.044  46.248  32.619  1.00  0.00     0.051 A 
ATOM     43  C   UNL     1      21.921  45.845  33.359  1.00  0.00     0.157 A 
BRANCH  41  44
ATOM     44  O   UNL     1      19.729  44.769  33.416  1.00  0.00    -0.504 OA
ATOM     45  H   UNL     1      18.867  45.303  33.391  1.00  0.00     0.293 HD
ENDBRANCH  41  44
BRANCH  43  46
ATOM     46  O   UNL     1      21.849  46.121  34.723  1.00  0.00    -0.504 OA
ATOM     47  H   UNL     1      22.608  46.581  35.213  1.00  0.00     0.293 HD
ENDBRANCH  43  46
ENDBRANCH  28  38
BRANCH  34  48
ATOM     48  O   UNL     1      22.591  43.312  24.373  1.00  0.00    -0.507 OA
ATOM     49  H   UNL     1      23.138  42.522  24.700  1.00  0.00     0.293 HD
ENDBRANCH  34  48
BRANCH  37  50
ATOM     50  O   UNL     1      23.125  48.125  24.131  1.00  0.00    -0.508 OA
ATOM     51  H   UNL     1      23.853  48.200  23.422  1.00  0.00     0.293 HD
ENDBRANCH  37  50
ENDBRANCH  26  27
ENDBRANCH   5  26
BRANCH   4  52
ATOM     52  O   UNL     1      22.744  40.935  27.042  1.00  0.00    -0.384 OA
ATOM     53  H   UNL     1      22.670  40.351  26.243  1.00  0.00     0.211 HD
ENDBRANCH   4  52
TORSDOF 16
ENDMDL
