MODEL 1
REMARK VINA RESULT:    -3.501      0.000      0.000
REMARK INTER + INTRA:          -7.407
REMARK INTER:                  -5.957
REMARK INTRA:                  -1.450
REMARK UNBOUND:                -1.450
REMARK SMILES CCCCCCCCCCCCCC(=O)[O-]
REMARK SMILES IDX 8 1 9 2 10 3 11 4 12 5 13 6 14 7 15 8 16 9 7 10 6 11 5 12
REMARK SMILES IDX 4 13 3 14 2 15 1 16
REMARK H PARENT
REMARK Flexibility Score: inf
ROOT
ATOM      1  C   UNL     1      -6.017  -3.703   7.012  1.00  0.00     0.000 C 
ENDROOT
BRANCH   1   2
ATOM      2  C   UNL     1      -4.970  -4.824   7.133  1.00  0.00     0.000 C 
BRANCH   2   3
ATOM      3  C   UNL     1      -4.586  -5.121   8.590  1.00  0.00     0.000 C 
BRANCH   3   4
ATOM      4  C   UNL     1      -3.947  -6.509   8.716  1.00  0.00     0.000 C 
BRANCH   4   5
ATOM      5  C   UNL     1      -4.637  -7.520   7.788  1.00  0.00     0.006 C 
BRANCH   5   6
ATOM      6  C   UNL     1      -3.641  -8.499   7.153  1.00  0.00     0.053 C 
BRANCH   6   7
ATOM      7  C   UNL     1      -2.526  -7.784   6.452  1.00  0.00     0.041 C 
ATOM      8  O   UNL     1      -1.342  -7.903   6.861  1.00  0.00    -0.550 OA
ATOM      9  O   UNL     1      -2.802  -6.960   5.368  1.00  0.00    -0.550 OA
ENDBRANCH   6   7
ENDBRANCH   5   6
ENDBRANCH   4   5
ENDBRANCH   3   4
ENDBRANCH   2   3
ENDBRANCH   1   2
BRANCH   1  10
ATOM     10  C   UNL     1      -6.446  -3.145   8.379  1.00  0.00     0.000 C 
BRANCH  10  11
ATOM     11  C   UNL     1      -7.946  -3.346   8.655  1.00  0.00    -0.000 C 
BRANCH  11  12
ATOM     12  C   UNL     1      -8.365  -4.825   8.594  1.00  0.00    -0.000 C 
BRANCH  12  13
ATOM     13  C   UNL     1      -9.496  -5.077   7.583  1.00  0.00    -0.000 C 
BRANCH  13  14
ATOM     14  C   UNL     1      -9.876  -3.817   6.790  1.00  0.00    -0.000 C 
BRANCH  14  15
ATOM     15  C   UNL     1     -10.033  -4.136   5.299  1.00  0.00    -0.003 C 
ATOM     16  C   UNL     1      -8.758  -4.752   4.730  1.00  0.00     0.004 C 
ENDBRANCH  14  15
ENDBRANCH  13  14
ENDBRANCH  12  13
ENDBRANCH  11  12
ENDBRANCH  10  11
ENDBRANCH   1  10
TORSDOF 12
ENDMDL
MODEL 2
REMARK VINA RESULT:    -3.348     19.214     21.173
REMARK INTER + INTRA:          -7.146
REMARK INTER:                  -4.969
REMARK INTRA:                  -2.177
REMARK UNBOUND:                -1.450
REMARK SMILES CCCCCCCCCCCCCC(=O)[O-]
REMARK SMILES IDX 8 1 9 2 10 3 11 4 12 5 13 6 14 7 15 8 16 9 7 10 6 11 5 12
REMARK SMILES IDX 4 13 3 14 2 15 1 16
REMARK H PARENT
REMARK Flexibility Score: inf
ROOT
ATOM      1  C   UNL     1       8.753   0.425  -6.031  1.00  0.00     0.000 C 
ENDROOT
BRANCH   1   2
ATOM      2  C   UNL     1       9.262   0.404  -7.482  1.00  0.00     0.000 C 
BRANCH   2   3
ATOM      3  C   UNL     1       8.901   1.679  -8.257  1.00  0.00     0.000 C 
BRANCH   3   4
ATOM      4  C   UNL     1       8.325   2.746  -7.318  1.00  0.00     0.000 C 
BRANCH   4   5
ATOM      5  C   UNL     1       7.048   3.365  -7.904  1.00  0.00     0.006 C 
BRANCH   5   6
ATOM      6  C   UNL     1       6.179   4.032  -6.829  1.00  0.00     0.053 C 
BRANCH   6   7
ATOM      7  C   UNL     1       4.763   3.543  -6.874  1.00  0.00     0.041 C 
ATOM      8  O   UNL     1       4.233   3.042  -5.848  1.00  0.00    -0.550 OA
ATOM      9  O   UNL     1       4.042   3.610  -8.060  1.00  0.00    -0.550 OA
ENDBRANCH   6   7
ENDBRANCH   5   6
ENDBRANCH   4   5
ENDBRANCH   3   4
ENDBRANCH   2   3
ENDBRANCH   1   2
BRANCH   1  10
ATOM     10  C   UNL     1       7.654  -0.620  -5.775  1.00  0.00     0.000 C 
BRANCH  10  11
ATOM     11  C   UNL     1       6.246  -0.087  -6.089  1.00  0.00    -0.000 C 
BRANCH  11  12
ATOM     12  C   UNL     1       5.589  -0.815  -7.274  1.00  0.00    -0.000 C 
BRANCH  12  13
ATOM     13  C   UNL     1       5.566   0.038  -8.553  1.00  0.00    -0.000 C 
BRANCH  13  14
ATOM     14  C   UNL     1       6.352  -0.601  -9.708  1.00  0.00    -0.000 C 
BRANCH  14  15
ATOM     15  C   UNL     1       6.713  -2.056  -9.385  1.00  0.00    -0.003 C 
ATOM     16  C   UNL     1       8.176  -2.345  -9.710  1.00  0.00     0.004 C 
ENDBRANCH  14  15
ENDBRANCH  13  14
ENDBRANCH  12  13
ENDBRANCH  11  12
ENDBRANCH  10  11
ENDBRANCH   1  10
TORSDOF 12
ENDMDL
MODEL 3
REMARK VINA RESULT:    -3.335      1.243      1.901
REMARK INTER + INTRA:          -7.124
REMARK INTER:                  -5.308
REMARK INTRA:                  -1.816
REMARK UNBOUND:                -1.450
REMARK SMILES CCCCCCCCCCCCCC(=O)[O-]
REMARK SMILES IDX 8 1 9 2 10 3 11 4 12 5 13 6 14 7 15 8 16 9 7 10 6 11 5 12
REMARK SMILES IDX 4 13 3 14 2 15 1 16
REMARK H PARENT
REMARK Flexibility Score: inf
ROOT
ATOM      1  C   UNL     1      -4.926  -4.897   7.434  1.00  0.00     0.000 C 
ENDROOT
BRANCH   1   2
ATOM      2  C   UNL     1      -4.582  -4.979   8.931  1.00  0.00     0.000 C 
BRANCH   2   3
ATOM      3  C   UNL     1      -3.889  -6.296   9.309  1.00  0.00     0.000 C 
BRANCH   3   4
ATOM      4  C   UNL     1      -4.741  -7.502   8.896  1.00  0.00     0.000 C 
BRANCH   4   5
ATOM      5  C   UNL     1      -3.887  -8.563   8.186  1.00  0.00     0.006 C 
BRANCH   5   6
ATOM      6  C   UNL     1      -3.898  -8.393   6.662  1.00  0.00     0.053 C 
BRANCH   6   7
ATOM      7  C   UNL     1      -2.662  -7.702   6.170  1.00  0.00     0.041 C 
ATOM      8  O   UNL     1      -1.545  -7.953   6.694  1.00  0.00    -0.550 OA
ATOM      9  O   UNL     1      -2.750  -6.757   5.156  1.00  0.00    -0.550 OA
ENDBRANCH   6   7
ENDBRANCH   5   6
ENDBRANCH   4   5
ENDBRANCH   3   4
ENDBRANCH   2   3
ENDBRANCH   1   2
BRANCH   1  10
ATOM     10  C   UNL     1      -5.915  -3.762   7.117  1.00  0.00     0.000 C 
BRANCH  10  11
ATOM     11  C   UNL     1      -6.336  -2.977   8.371  1.00  0.00    -0.000 C 
BRANCH  11  12
ATOM     12  C   UNL     1      -7.846  -3.075   8.650  1.00  0.00    -0.000 C 
BRANCH  12  13
ATOM     13  C   UNL     1      -8.552  -4.085   7.731  1.00  0.00    -0.000 C 
BRANCH  13  14
ATOM     14  C   UNL     1      -9.140  -5.278   8.500  1.00  0.00    -0.000 C 
BRANCH  14  15
ATOM     15  C   UNL     1      -8.197  -6.485   8.442  1.00  0.00    -0.003 C 
ATOM     16  C   UNL     1      -7.955  -6.926   7.000  1.00  0.00     0.004 C 
ENDBRANCH  14  15
ENDBRANCH  13  14
ENDBRANCH  12  13
ENDBRANCH  11  12
ENDBRANCH  10  11
ENDBRANCH   1  10
TORSDOF 12
ENDMDL
MODEL 4
REMARK VINA RESULT:    -3.275      0.917      1.945
REMARK INTER + INTRA:          -7.022
REMARK INTER:                  -5.895
REMARK INTRA:                  -1.126
REMARK UNBOUND:                -1.450
REMARK SMILES CCCCCCCCCCCCCC(=O)[O-]
REMARK SMILES IDX 8 1 9 2 10 3 11 4 12 5 13 6 14 7 15 8 16 9 7 10 6 11 5 12
REMARK SMILES IDX 4 13 3 14 2 15 1 16
REMARK H PARENT
REMARK Flexibility Score: inf
ROOT
ATOM      1  C   UNL     1      -4.471  -5.449   8.196  1.00  0.00     0.000 C 
ENDROOT
BRANCH   1   2
ATOM      2  C   UNL     1      -3.603  -6.364   9.076  1.00  0.00     0.000 C 
BRANCH   2   3
ATOM      3  C   UNL     1      -4.287  -7.702   9.397  1.00  0.00     0.000 C 
BRANCH   3   4
ATOM      4  C   UNL     1      -4.982  -8.273   8.156  1.00  0.00     0.000 C 
BRANCH   4   5
ATOM      5  C   UNL     1      -4.099  -9.323   7.463  1.00  0.00     0.006 C 
BRANCH   5   6
ATOM      6  C   UNL     1      -3.752  -8.930   6.021  1.00  0.00     0.053 C 
BRANCH   6   7
ATOM      7  C   UNL     1      -2.630  -7.939   5.968  1.00  0.00     0.041 C 
ATOM      8  O   UNL     1      -1.567  -8.150   6.609  1.00  0.00    -0.550 OA
ATOM      9  O   UNL     1      -2.772  -6.765   5.238  1.00  0.00    -0.550 OA
ENDBRANCH   6   7
ENDBRANCH   5   6
ENDBRANCH   4   5
ENDBRANCH   3   4
ENDBRANCH   2   3
ENDBRANCH   1   2
BRANCH   1  10
ATOM     10  C   UNL     1      -5.193  -4.360   9.008  1.00  0.00     0.000 C 
BRANCH  10  11
ATOM     11  C   UNL     1      -5.977  -3.381   8.118  1.00  0.00    -0.000 C 
BRANCH  11  12
ATOM     12  C   UNL     1      -6.122  -3.885   6.671  1.00  0.00    -0.000 C 
BRANCH  12  13
ATOM     13  C   UNL     1      -7.484  -4.549   6.412  1.00  0.00    -0.000 C 
BRANCH  13  14
ATOM     14  C   UNL     1      -8.585  -4.036   7.353  1.00  0.00    -0.000 C 
BRANCH  14  15
ATOM     15  C   UNL     1      -9.914  -3.879   6.606  1.00  0.00    -0.003 C 
ATOM     16  C   UNL     1      -9.769  -4.266   5.136  1.00  0.00     0.004 C 
ENDBRANCH  14  15
ENDBRANCH  13  14
ENDBRANCH  12  13
ENDBRANCH  11  12
ENDBRANCH  10  11
ENDBRANCH   1  10
TORSDOF 12
ENDMDL
MODEL 5
REMARK VINA RESULT:    -3.187     19.526     21.002
REMARK INTER + INTRA:          -6.872
REMARK INTER:                  -5.050
REMARK INTRA:                  -1.821
REMARK UNBOUND:                -1.450
REMARK SMILES CCCCCCCCCCCCCC(=O)[O-]
REMARK SMILES IDX 8 1 9 2 10 3 11 4 12 5 13 6 14 7 15 8 16 9 7 10 6 11 5 12
REMARK SMILES IDX 4 13 3 14 2 15 1 16
REMARK H PARENT
REMARK Flexibility Score: inf
ROOT
ATOM      1  C   UNL     1       8.205   1.793  -6.763  1.00  0.00     0.000 C 
ENDROOT
BRANCH   1   2
ATOM      2  C   UNL     1       7.877   1.856  -8.265  1.00  0.00     0.000 C 
BRANCH   2   3
ATOM      3  C   UNL     1       6.400   2.181  -8.536  1.00  0.00     0.000 C 
BRANCH   3   4
ATOM      4  C   UNL     1       5.568   2.061  -7.254  1.00  0.00     0.000 C 
BRANCH   4   5
ATOM      5  C   UNL     1       4.655   3.282  -7.073  1.00  0.00     0.006 C 
BRANCH   5   6
ATOM      6  C   UNL     1       5.219   4.284  -6.057  1.00  0.00     0.053 C 
BRANCH   6   7
ATOM      7  C   UNL     1       6.175   5.246  -6.695  1.00  0.00     0.041 C 
ATOM      8  O   UNL     1       5.767   6.063  -7.561  1.00  0.00    -0.550 OA
ATOM      9  O   UNL     1       7.522   5.215  -6.357  1.00  0.00    -0.550 OA
ENDBRANCH   6   7
ENDBRANCH   5   6
ENDBRANCH   4   5
ENDBRANCH   3   4
ENDBRANCH   2   3
ENDBRANCH   1   2
BRANCH   1  10
ATOM     10  C   UNL     1       9.086   0.585  -6.401  1.00  0.00     0.000 C 
BRANCH  10  11
ATOM     11  C   UNL     1       8.425  -0.757  -6.760  1.00  0.00    -0.000 C 
BRANCH  11  12
ATOM     12  C   UNL     1       7.205  -1.069  -5.877  1.00  0.00    -0.000 C 
BRANCH  12  13
ATOM     13  C   UNL     1       5.979  -1.504  -6.696  1.00  0.00    -0.000 C 
BRANCH  13  14
ATOM     14  C   UNL     1       6.243  -1.500  -8.210  1.00  0.00    -0.000 C 
BRANCH  14  15
ATOM     15  C   UNL     1       4.951  -1.228  -8.990  1.00  0.00    -0.003 C 
ATOM     16  C   UNL     1       4.108  -2.494  -9.117  1.00  0.00     0.004 C 
ENDBRANCH  14  15
ENDBRANCH  13  14
ENDBRANCH  12  13
ENDBRANCH  11  12
ENDBRANCH  10  11
ENDBRANCH   1  10
TORSDOF 12
ENDMDL
MODEL 6
REMARK VINA RESULT:    -3.142     19.269     21.481
REMARK INTER + INTRA:          -6.796
REMARK INTER:                  -4.771
REMARK INTRA:                  -2.025
REMARK UNBOUND:                -1.450
REMARK SMILES CCCCCCCCCCCCCC(=O)[O-]
REMARK SMILES IDX 8 1 9 2 10 3 11 4 12 5 13 6 14 7 15 8 16 9 7 10 6 11 5 12
REMARK SMILES IDX 4 13 3 14 2 15 1 16
REMARK H PARENT
REMARK Flexibility Score: inf
ROOT
ATOM      1  C   UNL     1       9.278  -0.372  -8.158  1.00  0.00     0.000 C 
ENDROOT
BRANCH   1   2
ATOM      2  C   UNL     1       9.089   1.154  -8.112  1.00  0.00     0.000 C 
BRANCH   2   3
ATOM      3  C   UNL     1       8.516   1.721  -9.420  1.00  0.00     0.000 C 
BRANCH   3   4
ATOM      4  C   UNL     1       7.202   2.469  -9.163  1.00  0.00     0.000 C 
BRANCH   4   5
ATOM      5  C   UNL     1       7.259   3.244  -7.838  1.00  0.00     0.006 C 
BRANCH   5   6
ATOM      6  C   UNL     1       6.252   4.401  -7.799  1.00  0.00     0.053 C 
BRANCH   6   7
ATOM      7  C   UNL     1       5.594   4.521  -6.458  1.00  0.00     0.041 C 
ATOM      8  O   UNL     1       5.950   5.425  -5.656  1.00  0.00    -0.550 OA
ATOM      9  O   UNL     1       4.612   3.613  -6.080  1.00  0.00    -0.550 OA
ENDBRANCH   6   7
ENDBRANCH   5   6
ENDBRANCH   4   5
ENDBRANCH   3   4
ENDBRANCH   2   3
ENDBRANCH   1   2
BRANCH   1  10
ATOM     10  C   UNL     1       8.641  -1.008  -9.405  1.00  0.00     0.000 C 
BRANCH  10  11
ATOM     11  C   UNL     1       7.494  -1.972  -9.056  1.00  0.00    -0.000 C 
BRANCH  11  12
ATOM     12  C   UNL     1       6.138  -1.256  -8.931  1.00  0.00    -0.000 C 
BRANCH  12  13
ATOM     13  C   UNL     1       5.596  -1.266  -7.493  1.00  0.00    -0.000 C 
BRANCH  13  14
ATOM     14  C   UNL     1       5.733   0.096  -6.796  1.00  0.00    -0.000 C 
BRANCH  14  15
ATOM     15  C   UNL     1       6.622  -0.012  -5.552  1.00  0.00    -0.003 C 
ATOM     16  C   UNL     1       6.973  -1.467  -5.251  1.00  0.00     0.004 C 
ENDBRANCH  14  15
ENDBRANCH  13  14
ENDBRANCH  12  13
ENDBRANCH  11  12
ENDBRANCH  10  11
ENDBRANCH   1  10
TORSDOF 12
ENDMDL
MODEL 7
REMARK VINA RESULT:    -3.132     18.808     20.808
REMARK INTER + INTRA:          -6.779
REMARK INTER:                  -5.193
REMARK INTRA:                  -1.587
REMARK UNBOUND:                -1.450
REMARK SMILES CCCCCCCCCCCCCC(=O)[O-]
REMARK SMILES IDX 8 1 9 2 10 3 11 4 12 5 13 6 14 7 15 8 16 9 7 10 6 11 5 12
REMARK SMILES IDX 4 13 3 14 2 15 1 16
REMARK H PARENT
REMARK Flexibility Score: inf
ROOT
ATOM      1  C   UNL     1       9.163  -0.030  -8.726  1.00  0.00     0.000 C 
ENDROOT
BRANCH   1   2
ATOM      2  C   UNL     1       8.898  -1.498  -9.098  1.00  0.00     0.000 C 
BRANCH   2   3
ATOM      3  C   UNL     1       7.401  -1.836  -9.152  1.00  0.00     0.000 C 
BRANCH   3   4
ATOM      4  C   UNL     1       6.556  -0.562  -9.273  1.00  0.00     0.000 C 
BRANCH   4   5
ATOM      5  C   UNL     1       5.616  -0.408  -8.069  1.00  0.00     0.006 C 
BRANCH   5   6
ATOM      6  C   UNL     1       5.731  -1.582  -7.087  1.00  0.00     0.053 C 
BRANCH   6   7
ATOM      7  C   UNL     1       6.355  -1.164  -5.790  1.00  0.00     0.041 C 
ATOM      8  O   UNL     1       6.867  -2.025  -5.028  1.00  0.00    -0.550 OA
ATOM      9  O   UNL     1       6.339   0.172  -5.409  1.00  0.00    -0.550 OA
ENDBRANCH   6   7
ENDBRANCH   5   6
ENDBRANCH   4   5
ENDBRANCH   3   4
ENDBRANCH   2   3
ENDBRANCH   1   2
BRANCH   1  10
ATOM     10  C   UNL     1       9.449   0.157  -7.226  1.00  0.00     0.000 C 
BRANCH  10  11
ATOM     11  C   UNL     1       9.159   1.588  -6.743  1.00  0.00    -0.000 C 
BRANCH  11  12
ATOM     12  C   UNL     1       8.439   2.436  -7.806  1.00  0.00    -0.000 C 
BRANCH  12  13
ATOM     13  C   UNL     1       7.466   3.455  -7.190  1.00  0.00    -0.000 C 
BRANCH  13  14
ATOM     14  C   UNL     1       5.993   3.100  -7.448  1.00  0.00    -0.000 C 
BRANCH  14  15
ATOM     15  C   UNL     1       5.065   3.950  -6.572  1.00  0.00    -0.003 C 
ATOM     16  C   UNL     1       4.270   3.077  -5.604  1.00  0.00     0.004 C 
ENDBRANCH  14  15
ENDBRANCH  13  14
ENDBRANCH  12  13
ENDBRANCH  11  12
ENDBRANCH  10  11
ENDBRANCH   1  10
TORSDOF 12
ENDMDL
MODEL 8
REMARK VINA RESULT:    -3.051      3.762      6.884
REMARK INTER + INTRA:          -6.642
REMARK INTER:                  -5.478
REMARK INTRA:                  -1.164
REMARK UNBOUND:                -1.450
REMARK SMILES CCCCCCCCCCCCCC(=O)[O-]
REMARK SMILES IDX 8 1 9 2 10 3 11 4 12 5 13 6 14 7 15 8 16 9 7 10 6 11 5 12
REMARK SMILES IDX 4 13 3 14 2 15 1 16
REMARK H PARENT
REMARK Flexibility Score: inf
ROOT
ATOM      1  C   UNL     1      -5.426  -5.291   7.454  1.00  0.00     0.000 C 
ENDROOT
BRANCH   1   2
ATOM      2  C   UNL     1      -6.082  -3.936   7.137  1.00  0.00     0.000 C 
BRANCH   2   3
ATOM      3  C   UNL     1      -7.498  -3.813   7.719  1.00  0.00     0.000 C 
BRANCH   3   4
ATOM      4  C   UNL     1      -7.498  -2.941   8.981  1.00  0.00     0.000 C 
BRANCH   4   5
ATOM      5  C   UNL     1      -6.352  -1.920   8.945  1.00  0.00     0.006 C 
BRANCH   5   6
ATOM      6  C   UNL     1      -6.521  -0.820  10.001  1.00  0.00     0.053 C 
BRANCH   6   7
ATOM      7  C   UNL     1      -6.071   0.516   9.492  1.00  0.00     0.041 C 
ATOM      8  O   UNL     1      -6.892   1.290   8.934  1.00  0.00    -0.550 OA
ATOM      9  O   UNL     1      -4.737   0.889   9.602  1.00  0.00    -0.550 OA
ENDBRANCH   6   7
ENDBRANCH   5   6
ENDBRANCH   4   5
ENDBRANCH   3   4
ENDBRANCH   2   3
ENDBRANCH   1   2
BRANCH   1  10
ATOM     10  C   UNL     1      -4.458  -5.214   8.647  1.00  0.00     0.000 C 
BRANCH  10  11
ATOM     11  C   UNL     1      -4.404  -6.525   9.450  1.00  0.00    -0.000 C 
BRANCH  11  12
ATOM     12  C   UNL     1      -2.978  -7.092   9.559  1.00  0.00    -0.000 C 
BRANCH  12  13
ATOM     13  C   UNL     1      -2.749  -8.300   8.635  1.00  0.00    -0.000 C 
BRANCH  13  14
ATOM     14  C   UNL     1      -1.897  -7.953   7.405  1.00  0.00    -0.000 C 
BRANCH  14  15
ATOM     15  C   UNL     1      -2.774  -7.802   6.157  1.00  0.00    -0.003 C 
ATOM     16  C   UNL     1      -4.010  -8.695   6.240  1.00  0.00     0.004 C 
ENDBRANCH  14  15
ENDBRANCH  13  14
ENDBRANCH  12  13
ENDBRANCH  11  12
ENDBRANCH  10  11
ENDBRANCH   1  10
TORSDOF 12
ENDMDL
MODEL 9
REMARK VINA RESULT:    -2.980     19.338     21.042
REMARK INTER + INTRA:          -6.520
REMARK INTER:                  -5.497
REMARK INTRA:                  -1.023
REMARK UNBOUND:                -1.450
REMARK SMILES CCCCCCCCCCCCCC(=O)[O-]
REMARK SMILES IDX 8 1 9 2 10 3 11 4 12 5 13 6 14 7 15 8 16 9 7 10 6 11 5 12
REMARK SMILES IDX 4 13 3 14 2 15 1 16
REMARK H PARENT
REMARK Flexibility Score: inf
ROOT
ATOM      1  C   UNL     1       5.179   3.761  -6.583  1.00  0.00     0.000 C 
ENDROOT
BRANCH   1   2
ATOM      2  C   UNL     1       5.644   4.780  -7.637  1.00  0.00     0.000 C 
BRANCH   2   3
ATOM      3  C   UNL     1       6.128   6.098  -7.015  1.00  0.00     0.000 C 
BRANCH   3   4
ATOM      4  C   UNL     1       7.409   5.882  -6.202  1.00  0.00     0.000 C 
BRANCH   4   5
ATOM      5  C   UNL     1       7.447   6.808  -4.976  1.00  0.00     0.006 C 
BRANCH   5   6
ATOM      6  C   UNL     1       6.389   6.431  -3.931  1.00  0.00     0.053 C 
BRANCH   6   7
ATOM      7  C   UNL     1       5.970   7.613  -3.111  1.00  0.00     0.041 C 
ATOM      8  O   UNL     1       5.352   8.570  -3.648  1.00  0.00    -0.550 OA
ATOM      9  O   UNL     1       6.294   7.673  -1.761  1.00  0.00    -0.550 OA
ENDBRANCH   6   7
ENDBRANCH   5   6
ENDBRANCH   4   5
ENDBRANCH   3   4
ENDBRANCH   2   3
ENDBRANCH   1   2
BRANCH   1  10
ATOM     10  C   UNL     1       5.627   2.326  -6.909  1.00  0.00     0.000 C 
BRANCH  10  11
ATOM     11  C   UNL     1       7.151   2.208  -7.080  1.00  0.00    -0.000 C 
BRANCH  11  12
ATOM     12  C   UNL     1       7.646   0.755  -6.979  1.00  0.00    -0.000 C 
BRANCH  12  13
ATOM     13  C   UNL     1       7.023  -0.001  -5.794  1.00  0.00    -0.000 C 
BRANCH  13  14
ATOM     14  C   UNL     1       6.397  -1.342  -6.208  1.00  0.00    -0.000 C 
BRANCH  14  15
ATOM     15  C   UNL     1       6.323  -1.463  -7.735  1.00  0.00    -0.003 C 
ATOM     16  C   UNL     1       4.910  -1.813  -8.192  1.00  0.00     0.004 C 
ENDBRANCH  14  15
ENDBRANCH  13  14
ENDBRANCH  12  13
ENDBRANCH  11  12
ENDBRANCH  10  11
ENDBRANCH   1  10
TORSDOF 12
ENDMDL
