MODEL 1
REMARK VINA RESULT:    -7.328      0.000      0.000
REMARK INTER + INTRA:          -9.079
REMARK INTER:                  -8.827
REMARK INTRA:                  -0.252
REMARK UNBOUND:                -0.252
REMARK SMILES O=c1c(O)c(-c2ccc(O)c(O)c2)oc2cc(O)cc(O)c12
REMARK SMILES IDX 5 1 3 2 2 3 1 4 22 5 20 6 19 7 17 8 16 9 15 10 14 11 6 12
REMARK SMILES IDX 7 13 8 14 9 15 13 16 11 17 10 18 12 20 4 22 21 24 18 26
REMARK H PARENT 10 19 12 21 4 23 21 25 18 27
REMARK Flexibility Score: inf
ROOT
ATOM      1  C   UNL     1      -3.533  -0.343  -3.660  1.00  0.00     0.180 A 
ATOM      2  C   UNL     1      -4.155  -0.479  -2.404  1.00  0.00     0.208 A 
ATOM      3  C   UNL     1      -3.995  -1.681  -1.695  1.00  0.00     0.238 A 
ATOM      4  O   UNL     1      -4.538  -1.810  -0.565  1.00  0.00    -0.285 OA
ATOM      5  C   UNL     1      -3.238  -2.728  -2.259  1.00  0.00     0.111 A 
ATOM      6  C   UNL     1      -3.031  -3.970  -1.612  1.00  0.00     0.134 A 
ATOM      7  C   UNL     1      -2.272  -4.966  -2.244  1.00  0.00     0.093 A 
ATOM      8  C   UNL     1      -1.716  -4.745  -3.507  1.00  0.00     0.123 A 
ATOM      9  C   UNL     1      -1.916  -3.519  -4.151  1.00  0.00     0.094 A 
ATOM     10  C   UNL     1      -2.669  -2.513  -3.536  1.00  0.00     0.146 A 
ATOM     11  O   UNL     1      -2.839  -1.357  -4.167  1.00  0.00    -0.452 OA
ENDROOT
BRANCH   1  12
ATOM     12  C   UNL     1      -3.639   0.898  -4.460  1.00  0.00     0.025 A 
ATOM     13  C   UNL     1      -2.924   2.039  -4.063  1.00  0.00     0.016 A 
ATOM     14  C   UNL     1      -3.026   3.227  -4.790  1.00  0.00     0.051 A 
ATOM     15  C   UNL     1      -3.854   3.299  -5.914  1.00  0.00     0.157 A 
ATOM     16  C   UNL     1      -4.487   0.979  -5.579  1.00  0.00     0.062 A 
ATOM     17  C   UNL     1      -4.592   2.172  -6.309  1.00  0.00     0.158 A 
BRANCH  15  18
ATOM     18  O   UNL     1      -3.934   4.498  -6.621  1.00  0.00    -0.504 OA
ATOM     19  H   UNL     1      -3.110   4.973  -6.971  1.00  0.00     0.293 HD
ENDBRANCH  15  18
BRANCH  17  20
ATOM     20  O   UNL     1      -5.431   2.241  -7.421  1.00  0.00    -0.504 OA
ATOM     21  H   UNL     1      -6.434   2.125  -7.338  1.00  0.00     0.293 HD
ENDBRANCH  17  20
ENDBRANCH   1  12
BRANCH   2  22
ATOM     22  O   UNL     1      -4.941   0.554  -1.889  1.00  0.00    -0.502 OA
ATOM     23  H   UNL     1      -5.882   0.735  -2.216  1.00  0.00     0.293 HD
ENDBRANCH   2  22
BRANCH   6  24
ATOM     24  O   UNL     1      -3.573  -4.222  -0.351  1.00  0.00    -0.507 OA
ATOM     25  H   UNL     1      -3.974  -3.482   0.215  1.00  0.00     0.293 HD
ENDBRANCH   6  24
BRANCH   8  26
ATOM     26  O   UNL     1      -0.967  -5.751  -4.112  1.00  0.00    -0.508 OA
ATOM     27  H   UNL     1       0.045  -5.761  -4.061  1.00  0.00     0.293 HD
ENDBRANCH   8  26
TORSDOF 6
ENDMDL
MODEL 2
REMARK VINA RESULT:    -7.296      2.891      4.942
REMARK INTER + INTRA:          -9.040
REMARK INTER:                  -8.992
REMARK INTRA:                  -0.049
REMARK UNBOUND:                -0.252
REMARK SMILES O=c1c(O)c(-c2ccc(O)c(O)c2)oc2cc(O)cc(O)c12
REMARK SMILES IDX 5 1 3 2 2 3 1 4 22 5 20 6 19 7 17 8 16 9 15 10 14 11 6 12
REMARK SMILES IDX 7 13 8 14 9 15 13 16 11 17 10 18 12 20 4 22 21 24 18 26
REMARK H PARENT 10 19 12 21 4 23 21 25 18 27
REMARK Flexibility Score: inf
ROOT
ATOM      1  C   UNL     1      -1.439  -1.514  -3.426  1.00  0.00     0.180 A 
ATOM      2  C   UNL     1      -2.379  -0.466  -3.490  1.00  0.00     0.208 A 
ATOM      3  C   UNL     1      -3.536  -0.544  -2.698  1.00  0.00     0.238 A 
ATOM      4  O   UNL     1      -4.379   0.392  -2.739  1.00  0.00    -0.285 OA
ATOM      5  C   UNL     1      -3.742  -1.670  -1.875  1.00  0.00     0.111 A 
ATOM      6  C   UNL     1      -4.882  -1.827  -1.050  1.00  0.00     0.134 A 
ATOM      7  C   UNL     1      -5.020  -2.982  -0.266  1.00  0.00     0.093 A 
ATOM      8  C   UNL     1      -4.043  -3.981  -0.290  1.00  0.00     0.123 A 
ATOM      9  C   UNL     1      -2.915  -3.831  -1.103  1.00  0.00     0.094 A 
ATOM     10  C   UNL     1      -2.759  -2.686  -1.891  1.00  0.00     0.146 A 
ATOM     11  O   UNL     1      -1.675  -2.566  -2.650  1.00  0.00    -0.452 OA
ENDROOT
BRANCH   1  12
ATOM     12  C   UNL     1      -0.187  -1.496  -4.216  1.00  0.00     0.025 A 
ATOM     13  C   UNL     1       0.681  -0.398  -4.110  1.00  0.00     0.016 A 
ATOM     14  C   UNL     1       1.857  -0.350  -4.862  1.00  0.00     0.051 A 
ATOM     15  C   UNL     1       2.176  -1.390  -5.742  1.00  0.00     0.157 A 
ATOM     16  C   UNL     1       0.126  -2.531  -5.116  1.00  0.00     0.062 A 
ATOM     17  C   UNL     1       1.306  -2.483  -5.874  1.00  0.00     0.158 A 
BRANCH  15  18
ATOM     18  O   UNL     1       3.359  -1.316  -6.477  1.00  0.00    -0.504 OA
ATOM     19  H   UNL     1       3.373  -1.016  -7.445  1.00  0.00     0.293 HD
ENDBRANCH  15  18
BRANCH  17  20
ATOM     20  O   UNL     1       1.611  -3.516  -6.759  1.00  0.00    -0.504 OA
ATOM     21  H   UNL     1       2.558  -3.677  -7.083  1.00  0.00     0.293 HD
ENDBRANCH  17  20
ENDBRANCH   1  12
BRANCH   2  22
ATOM     22  O   UNL     1      -2.174   0.615  -4.351  1.00  0.00    -0.502 OA
ATOM     23  H   UNL     1      -1.810   1.503  -4.029  1.00  0.00     0.293 HD
ENDBRANCH   2  22
BRANCH   6  24
ATOM     24  O   UNL     1      -5.876  -0.848  -1.003  1.00  0.00    -0.507 OA
ATOM     25  H   UNL     1      -6.765  -0.969  -1.474  1.00  0.00     0.293 HD
ENDBRANCH   6  24
BRANCH   8  26
ATOM     26  O   UNL     1      -4.205  -5.118   0.497  1.00  0.00    -0.508 OA
ATOM     27  H   UNL     1      -3.442  -5.492   1.051  1.00  0.00     0.293 HD
ENDBRANCH   8  26
TORSDOF 6
ENDMDL
MODEL 3
REMARK VINA RESULT:    -7.271      3.086      4.198
REMARK INTER + INTRA:          -9.010
REMARK INTER:                  -8.729
REMARK INTRA:                  -0.282
REMARK UNBOUND:                -0.252
REMARK SMILES O=c1c(O)c(-c2ccc(O)c(O)c2)oc2cc(O)cc(O)c12
REMARK SMILES IDX 5 1 3 2 2 3 1 4 22 5 20 6 19 7 17 8 16 9 15 10 14 11 6 12
REMARK SMILES IDX 7 13 8 14 9 15 13 16 11 17 10 18 12 20 4 22 21 24 18 26
REMARK H PARENT 10 19 12 21 4 23 21 25 18 27
REMARK Flexibility Score: inf
ROOT
ATOM      1  C   UNL     1      -3.279  -0.777  -4.148  1.00  0.00     0.180 A 
ATOM      2  C   UNL     1      -2.632  -0.056  -3.125  1.00  0.00     0.208 A 
ATOM      3  C   UNL     1      -1.230  -0.102  -3.046  1.00  0.00     0.238 A 
ATOM      4  O   UNL     1      -0.639   0.547  -2.142  1.00  0.00    -0.285 OA
ATOM      5  C   UNL     1      -0.505  -0.880  -3.972  1.00  0.00     0.111 A 
ATOM      6  C   UNL     1       0.907  -0.982  -3.959  1.00  0.00     0.134 A 
ATOM      7  C   UNL     1       1.555  -1.784  -4.910  1.00  0.00     0.093 A 
ATOM      8  C   UNL     1       0.822  -2.485  -5.871  1.00  0.00     0.123 A 
ATOM      9  C   UNL     1      -0.574  -2.386  -5.890  1.00  0.00     0.094 A 
ATOM     10  C   UNL     1      -1.238  -1.591  -4.951  1.00  0.00     0.146 A 
ATOM     11  O   UNL     1      -2.563  -1.511  -4.994  1.00  0.00    -0.452 OA
ENDROOT
BRANCH   1  12
ATOM     12  C   UNL     1      -4.750  -0.764  -4.309  1.00  0.00     0.025 A 
ATOM     13  C   UNL     1      -5.544  -1.571  -3.478  1.00  0.00     0.016 A 
ATOM     14  C   UNL     1      -6.932  -1.590  -3.625  1.00  0.00     0.051 A 
ATOM     15  C   UNL     1      -7.549  -0.816  -4.614  1.00  0.00     0.157 A 
ATOM     16  C   UNL     1      -5.371  -0.002  -5.316  1.00  0.00     0.062 A 
ATOM     17  C   UNL     1      -6.766  -0.022  -5.466  1.00  0.00     0.158 A 
BRANCH  15  18
ATOM     18  O   UNL     1      -8.937  -0.854  -4.736  1.00  0.00    -0.504 OA
ATOM     19  H   UNL     1      -9.429  -1.687  -5.034  1.00  0.00     0.293 HD
ENDBRANCH  15  18
BRANCH  17  20
ATOM     20  O   UNL     1      -7.373   0.741  -6.464  1.00  0.00    -0.504 OA
ATOM     21  H   UNL     1      -6.850   1.418  -7.007  1.00  0.00     0.293 HD
ENDBRANCH  17  20
ENDBRANCH   1  12
BRANCH   2  22
ATOM     22  O   UNL     1      -3.376   0.666  -2.190  1.00  0.00    -0.502 OA
ATOM     23  H   UNL     1      -4.279   1.069  -2.409  1.00  0.00     0.293 HD
ENDBRANCH   2  22
BRANCH   6  24
ATOM     24  O   UNL     1       1.668  -0.297  -3.012  1.00  0.00    -0.507 OA
ATOM     25  H   UNL     1       2.421   0.326  -3.282  1.00  0.00     0.293 HD
ENDBRANCH   6  24
BRANCH   8  26
ATOM     26  O   UNL     1       1.490  -3.275  -6.803  1.00  0.00    -0.508 OA
ATOM     27  H   UNL     1       2.399  -3.676  -6.603  1.00  0.00     0.293 HD
ENDBRANCH   8  26
TORSDOF 6
ENDMDL
MODEL 4
REMARK VINA RESULT:    -7.255      4.566      5.690
REMARK INTER + INTRA:          -8.991
REMARK INTER:                  -8.825
REMARK INTRA:                  -0.166
REMARK UNBOUND:                -0.252
REMARK SMILES O=c1c(O)c(-c2ccc(O)c(O)c2)oc2cc(O)cc(O)c12
REMARK SMILES IDX 5 1 3 2 2 3 1 4 22 5 20 6 19 7 17 8 16 9 15 10 14 11 6 12
REMARK SMILES IDX 7 13 8 14 9 15 13 16 11 17 10 18 12 20 4 22 21 24 18 26
REMARK H PARENT 10 19 12 21 4 23 21 25 18 27
REMARK Flexibility Score: inf
ROOT
ATOM      1  C   UNL     1      -0.613   2.152  -4.309  1.00  0.00     0.180 A 
ATOM      2  C   UNL     1      -0.425   2.734  -3.039  1.00  0.00     0.208 A 
ATOM      3  C   UNL     1       0.834   2.628  -2.425  1.00  0.00     0.238 A 
ATOM      4  O   UNL     1       1.017   3.154  -1.295  1.00  0.00    -0.285 OA
ATOM      5  C   UNL     1       1.871   1.930  -3.077  1.00  0.00     0.111 A 
ATOM      6  C   UNL     1       3.165   1.775  -2.526  1.00  0.00     0.134 A 
ATOM      7  C   UNL     1       4.142   1.058  -3.233  1.00  0.00     0.093 A 
ATOM      8  C   UNL     1       3.850   0.493  -4.477  1.00  0.00     0.123 A 
ATOM      9  C   UNL     1       2.572   0.643  -5.028  1.00  0.00     0.094 A 
ATOM     10  C   UNL     1       1.586   1.356  -4.339  1.00  0.00     0.146 A 
ATOM     11  O   UNL     1       0.383   1.489  -4.886  1.00  0.00    -0.452 OA
ENDROOT
BRANCH   1  12
ATOM     12  C   UNL     1      -1.904   2.236  -5.028  1.00  0.00     0.025 A 
ATOM     13  C   UNL     1      -2.581   1.056  -5.374  1.00  0.00     0.016 A 
ATOM     14  C   UNL     1      -3.790   1.111  -6.072  1.00  0.00     0.051 A 
ATOM     15  C   UNL     1      -4.334   2.344  -6.447  1.00  0.00     0.157 A 
ATOM     16  C   UNL     1      -2.443   3.474  -5.424  1.00  0.00     0.062 A 
ATOM     17  C   UNL     1      -3.656   3.531  -6.126  1.00  0.00     0.158 A 
BRANCH  15  18
ATOM     18  O   UNL     1      -5.544   2.368  -7.140  1.00  0.00    -0.504 OA
ATOM     19  H   UNL     1      -6.087   3.216  -7.245  1.00  0.00     0.293 HD
ENDBRANCH  15  18
BRANCH  17  20
ATOM     20  O   UNL     1      -4.186   4.763  -6.509  1.00  0.00    -0.504 OA
ATOM     21  H   UNL     1      -3.822   5.635  -6.144  1.00  0.00     0.293 HD
ENDBRANCH  17  20
ENDBRANCH   1  12
BRANCH   2  22
ATOM     22  O   UNL     1      -1.483   3.377  -2.393  1.00  0.00    -0.502 OA
ATOM     23  H   UNL     1      -1.916   3.004  -1.557  1.00  0.00     0.293 HD
ENDBRANCH   2  22
BRANCH   6  24
ATOM     24  O   UNL     1       3.489   2.326  -1.286  1.00  0.00    -0.507 OA
ATOM     25  H   UNL     1       3.261   3.286  -1.052  1.00  0.00     0.293 HD
ENDBRANCH   6  24
BRANCH   8  26
ATOM     26  O   UNL     1       4.837  -0.215  -5.158  1.00  0.00    -0.508 OA
ATOM     27  H   UNL     1       4.605  -0.880  -5.887  1.00  0.00     0.293 HD
ENDBRANCH   8  26
TORSDOF 6
ENDMDL
MODEL 5
REMARK VINA RESULT:    -7.248      5.891      8.764
REMARK INTER + INTRA:          -8.983
REMARK INTER:                  -8.654
REMARK INTRA:                  -0.329
REMARK UNBOUND:                -0.252
REMARK SMILES O=c1c(O)c(-c2ccc(O)c(O)c2)oc2cc(O)cc(O)c12
REMARK SMILES IDX 5 1 3 2 2 3 1 4 22 5 20 6 19 7 17 8 16 9 15 10 14 11 6 12
REMARK SMILES IDX 7 13 8 14 9 15 13 16 11 17 10 18 12 20 4 22 21 24 18 26
REMARK H PARENT 10 19 12 21 4 23 21 25 18 27
REMARK Flexibility Score: inf
ROOT
ATOM      1  C   UNL     1       2.300   1.328  -3.579  1.00  0.00     0.180 A 
ATOM      2  C   UNL     1       3.412   1.499  -2.730  1.00  0.00     0.208 A 
ATOM      3  C   UNL     1       3.525   2.690  -1.994  1.00  0.00     0.238 A 
ATOM      4  O   UNL     1       4.509   2.850  -1.223  1.00  0.00    -0.285 OA
ATOM      5  C   UNL     1       2.542   3.691  -2.134  1.00  0.00     0.111 A 
ATOM      6  C   UNL     1       2.583   4.920  -1.430  1.00  0.00     0.134 A 
ATOM      7  C   UNL     1       1.572   5.870  -1.630  1.00  0.00     0.093 A 
ATOM      8  C   UNL     1       0.522   5.618  -2.517  1.00  0.00     0.123 A 
ATOM      9  C   UNL     1       0.474   4.406  -3.213  1.00  0.00     0.094 A 
ATOM     10  C   UNL     1       1.473   3.445  -3.027  1.00  0.00     0.146 A 
ATOM     11  O   UNL     1       1.402   2.300  -3.696  1.00  0.00    -0.452 OA
ENDROOT
BRANCH   1  12
ATOM     12  C   UNL     1       2.101   0.095  -4.373  1.00  0.00     0.025 A 
ATOM     13  C   UNL     1       2.632   0.014  -5.671  1.00  0.00     0.016 A 
ATOM     14  C   UNL     1       2.438  -1.131  -6.446  1.00  0.00     0.051 A 
ATOM     15  C   UNL     1       1.699  -2.207  -5.944  1.00  0.00     0.157 A 
ATOM     16  C   UNL     1       1.341  -0.981  -3.879  1.00  0.00     0.062 A 
ATOM     17  C   UNL     1       1.144  -2.131  -4.657  1.00  0.00     0.158 A 
BRANCH  15  18
ATOM     18  O   UNL     1       1.524  -3.339  -6.740  1.00  0.00    -0.504 OA
ATOM     19  H   UNL     1       0.633  -3.814  -6.812  1.00  0.00     0.293 HD
ENDBRANCH  15  18
BRANCH  17  20
ATOM     20  O   UNL     1       0.394  -3.195  -4.156  1.00  0.00    -0.504 OA
ATOM     21  H   UNL     1      -0.351  -3.621  -4.695  1.00  0.00     0.293 HD
ENDBRANCH  17  20
ENDBRANCH   1  12
BRANCH   2  22
ATOM     22  O   UNL     1       4.397   0.513  -2.648  1.00  0.00    -0.502 OA
ATOM     23  H   UNL     1       4.510  -0.075  -1.831  1.00  0.00     0.293 HD
ENDBRANCH   2  22
BRANCH   6  24
ATOM     24  O   UNL     1       3.619   5.202  -0.539  1.00  0.00    -0.507 OA
ATOM     25  H   UNL     1       4.237   4.478  -0.192  1.00  0.00     0.293 HD
ENDBRANCH   6  24
BRANCH   8  26
ATOM     26  O   UNL     1      -0.470   6.580  -2.697  1.00  0.00    -0.508 OA
ATOM     27  H   UNL     1      -1.149   6.782  -1.973  1.00  0.00     0.293 HD
ENDBRANCH   8  26
TORSDOF 6
ENDMDL
MODEL 6
REMARK VINA RESULT:    -7.172      3.369      5.909
REMARK INTER + INTRA:          -8.891
REMARK INTER:                  -9.110
REMARK INTRA:                   0.219
REMARK UNBOUND:                -0.252
REMARK SMILES O=c1c(O)c(-c2ccc(O)c(O)c2)oc2cc(O)cc(O)c12
REMARK SMILES IDX 5 1 3 2 2 3 1 4 22 5 20 6 19 7 17 8 16 9 15 10 14 11 6 12
REMARK SMILES IDX 7 13 8 14 9 15 13 16 11 17 10 18 12 20 4 22 21 24 18 26
REMARK H PARENT 10 19 12 21 4 23 21 25 18 27
REMARK Flexibility Score: inf
ROOT
ATOM      1  C   UNL     1      -3.584  -2.710  -1.743  1.00  0.00     0.180 A 
ATOM      2  C   UNL     1      -4.450  -1.621  -1.965  1.00  0.00     0.208 A 
ATOM      3  C   UNL     1      -5.477  -1.372  -1.040  1.00  0.00     0.238 A 
ATOM      4  O   UNL     1      -6.251  -0.394  -1.222  1.00  0.00    -0.285 OA
ATOM      5  C   UNL     1      -5.635  -2.224   0.072  1.00  0.00     0.111 A 
ATOM      6  C   UNL     1      -6.646  -2.045   1.047  1.00  0.00     0.134 A 
ATOM      7  C   UNL     1      -6.743  -2.942   2.121  1.00  0.00     0.093 A 
ATOM      8  C   UNL     1      -5.852  -4.011   2.240  1.00  0.00     0.123 A 
ATOM      9  C   UNL     1      -4.850  -4.192   1.281  1.00  0.00     0.094 A 
ATOM     10  C   UNL     1      -4.736  -3.308   0.203  1.00  0.00     0.146 A 
ATOM     11  O   UNL     1      -3.773  -3.500  -0.691  1.00  0.00    -0.452 OA
ENDROOT
BRANCH   1  12
ATOM     12  C   UNL     1      -2.467  -3.026  -2.661  1.00  0.00     0.025 A 
ATOM     13  C   UNL     1      -1.761  -1.980  -3.276  1.00  0.00     0.016 A 
ATOM     14  C   UNL     1      -0.717  -2.254  -4.162  1.00  0.00     0.051 A 
ATOM     15  C   UNL     1      -0.372  -3.576  -4.460  1.00  0.00     0.157 A 
ATOM     16  C   UNL     1      -2.132  -4.355  -2.978  1.00  0.00     0.062 A 
ATOM     17  C   UNL     1      -1.085  -4.632  -3.870  1.00  0.00     0.158 A 
BRANCH  15  18
ATOM     18  O   UNL     1       0.676  -3.820  -5.346  1.00  0.00    -0.504 OA
ATOM     19  H   UNL     1       0.516  -4.050  -6.319  1.00  0.00     0.293 HD
ENDBRANCH  15  18
BRANCH  17  20
ATOM     20  O   UNL     1      -0.755  -5.953  -4.173  1.00  0.00    -0.504 OA
ATOM     21  H   UNL     1      -1.040  -6.722  -3.577  1.00  0.00     0.293 HD
ENDBRANCH  17  20
ENDBRANCH   1  12
BRANCH   2  22
ATOM     22  O   UNL     1      -4.303  -0.822  -3.101  1.00  0.00    -0.502 OA
ATOM     23  H   UNL     1      -3.397  -0.564  -3.470  1.00  0.00     0.293 HD
ENDBRANCH   2  22
BRANCH   6  24
ATOM     24  O   UNL     1      -7.552  -0.988   0.957  1.00  0.00    -0.507 OA
ATOM     25  H   UNL     1      -8.475  -1.039   1.373  1.00  0.00     0.293 HD
ENDBRANCH   6  24
BRANCH   8  26
ATOM     26  O   UNL     1      -5.971  -4.887   3.317  1.00  0.00    -0.508 OA
ATOM     27  H   UNL     1      -5.162  -5.179   3.854  1.00  0.00     0.293 HD
ENDBRANCH   8  26
TORSDOF 6
ENDMDL
MODEL 7
REMARK VINA RESULT:    -7.053      3.060      3.977
REMARK INTER + INTRA:          -8.748
REMARK INTER:                  -8.416
REMARK INTRA:                  -0.332
REMARK UNBOUND:                -0.252
REMARK SMILES O=c1c(O)c(-c2ccc(O)c(O)c2)oc2cc(O)cc(O)c12
REMARK SMILES IDX 5 1 3 2 2 3 1 4 22 5 20 6 19 7 17 8 16 9 15 10 14 11 6 12
REMARK SMILES IDX 7 13 8 14 9 15 13 16 11 17 10 18 12 20 4 22 21 24 18 26
REMARK H PARENT 10 19 12 21 4 23 21 25 18 27
REMARK Flexibility Score: inf
ROOT
ATOM      1  C   UNL     1      -1.108   1.179  -3.741  1.00  0.00     0.180 A 
ATOM      2  C   UNL     1      -1.962   0.431  -2.907  1.00  0.00     0.208 A 
ATOM      3  C   UNL     1      -1.913  -0.971  -2.970  1.00  0.00     0.238 A 
ATOM      4  O   UNL     1      -2.665  -1.651  -2.221  1.00  0.00    -0.285 OA
ATOM      5  C   UNL     1      -1.033  -1.598  -3.876  1.00  0.00     0.111 A 
ATOM      6  C   UNL     1      -0.926  -3.004  -4.004  1.00  0.00     0.134 A 
ATOM      7  C   UNL     1      -0.032  -3.551  -4.936  1.00  0.00     0.093 A 
ATOM      8  C   UNL     1       0.756  -2.724  -5.740  1.00  0.00     0.123 A 
ATOM      9  C   UNL     1       0.655  -1.334  -5.618  1.00  0.00     0.094 A 
ATOM     10  C   UNL     1      -0.230  -0.769  -4.693  1.00  0.00     0.146 A 
ATOM     11  O   UNL     1      -0.302   0.554  -4.593  1.00  0.00    -0.452 OA
ENDROOT
BRANCH   1  12
ATOM     12  C   UNL     1      -1.087   2.659  -3.719  1.00  0.00     0.025 A 
ATOM     13  C   UNL     1      -1.884   3.375  -4.627  1.00  0.00     0.016 A 
ATOM     14  C   UNL     1      -1.864   4.772  -4.638  1.00  0.00     0.051 A 
ATOM     15  C   UNL     1      -1.037   5.474  -3.755  1.00  0.00     0.157 A 
ATOM     16  C   UNL     1      -0.241   3.367  -2.846  1.00  0.00     0.062 A 
ATOM     17  C   UNL     1      -0.218   4.770  -2.858  1.00  0.00     0.158 A 
BRANCH  15  18
ATOM     18  O   UNL     1      -1.040   6.868  -3.788  1.00  0.00    -0.504 OA
ATOM     19  H   UNL     1      -0.473   7.392  -4.443  1.00  0.00     0.293 HD
ENDBRANCH  15  18
BRANCH  17  20
ATOM     20  O   UNL     1       0.619   5.463  -1.985  1.00  0.00    -0.504 OA
ATOM     21  H   UNL     1       0.248   6.055  -1.250  1.00  0.00     0.293 HD
ENDBRANCH  17  20
ENDBRANCH   1  12
BRANCH   2  22
ATOM     22  O   UNL     1      -2.860   1.076  -2.054  1.00  0.00    -0.502 OA
ATOM     23  H   UNL     1      -2.594   1.870  -1.486  1.00  0.00     0.293 HD
ENDBRANCH   2  22
BRANCH   6  24
ATOM     24  O   UNL     1      -1.699  -3.858  -3.217  1.00  0.00    -0.507 OA
ATOM     25  H   UNL     1      -2.119  -3.548  -2.348  1.00  0.00     0.293 HD
ENDBRANCH   6  24
BRANCH   8  26
ATOM     26  O   UNL     1       1.635  -3.294  -6.658  1.00  0.00    -0.508 OA
ATOM     27  H   UNL     1       2.626  -3.375  -6.461  1.00  0.00     0.293 HD
ENDBRANCH   8  26
TORSDOF 6
ENDMDL
MODEL 8
REMARK VINA RESULT:    -7.051      5.994      7.121
REMARK INTER + INTRA:          -8.745
REMARK INTER:                  -8.426
REMARK INTRA:                  -0.319
REMARK UNBOUND:                -0.252
REMARK SMILES O=c1c(O)c(-c2ccc(O)c(O)c2)oc2cc(O)cc(O)c12
REMARK SMILES IDX 5 1 3 2 2 3 1 4 22 5 20 6 19 7 17 8 16 9 15 10 14 11 6 12
REMARK SMILES IDX 7 13 8 14 9 15 13 16 11 17 10 18 12 20 4 22 21 24 18 26
REMARK H PARENT 10 19 12 21 4 23 21 25 18 27
REMARK Flexibility Score: inf
ROOT
ATOM      1  C   UNL     1       1.146   1.594  -3.221  1.00  0.00     0.180 A 
ATOM      2  C   UNL     1       1.742   2.360  -2.200  1.00  0.00     0.208 A 
ATOM      3  C   UNL     1       3.143   2.456  -2.155  1.00  0.00     0.238 A 
ATOM      4  O   UNL     1       3.688   3.147  -1.254  1.00  0.00    -0.285 OA
ATOM      5  C   UNL     1       3.919   1.772  -3.114  1.00  0.00     0.111 A 
ATOM      6  C   UNL     1       5.334   1.815  -3.136  1.00  0.00     0.134 A 
ATOM      7  C   UNL     1       6.036   1.099  -4.117  1.00  0.00     0.093 A 
ATOM      8  C   UNL     1       5.353   0.344  -5.074  1.00  0.00     0.123 A 
ATOM      9  C   UNL     1       3.955   0.299  -5.057  1.00  0.00     0.094 A 
ATOM     10  C   UNL     1       3.237   1.007  -4.088  1.00  0.00     0.146 A 
ATOM     11  O   UNL     1       1.910   0.951  -4.098  1.00  0.00    -0.452 OA
ENDROOT
BRANCH   1  12
ATOM     12  C   UNL     1      -0.323   1.459  -3.346  1.00  0.00     0.025 A 
ATOM     13  C   UNL     1      -1.052   2.447  -4.026  1.00  0.00     0.016 A 
ATOM     14  C   UNL     1      -2.441   2.351  -4.137  1.00  0.00     0.051 A 
ATOM     15  C   UNL     1      -3.124   1.277  -3.559  1.00  0.00     0.157 A 
ATOM     16  C   UNL     1      -1.015   0.390  -2.748  1.00  0.00     0.062 A 
ATOM     17  C   UNL     1      -2.410   0.294  -2.857  1.00  0.00     0.158 A 
BRANCH  15  18
ATOM     18  O   UNL     1      -4.511   1.207  -3.690  1.00  0.00    -0.504 OA
ATOM     19  H   UNL     1      -4.961   1.067  -4.586  1.00  0.00     0.293 HD
ENDBRANCH  15  18
BRANCH  17  20
ATOM     20  O   UNL     1      -3.086  -0.773  -2.266  1.00  0.00    -0.504 OA
ATOM     21  H   UNL     1      -4.093  -0.767  -2.152  1.00  0.00     0.293 HD
ENDBRANCH  17  20
ENDBRANCH   1  12
BRANCH   2  22
ATOM     22  O   UNL     1       0.953   2.987  -1.234  1.00  0.00    -0.502 OA
ATOM     23  H   UNL     1       1.080   3.958  -0.975  1.00  0.00     0.293 HD
ENDBRANCH   2  22
BRANCH   6  24
ATOM     24  O   UNL     1       6.046   2.559  -2.195  1.00  0.00    -0.507 OA
ATOM     25  H   UNL     1       6.955   2.955  -2.404  1.00  0.00     0.293 HD
ENDBRANCH   6  24
BRANCH   8  26
ATOM     26  O   UNL     1       6.075  -0.358  -6.037  1.00  0.00    -0.508 OA
ATOM     27  H   UNL     1       6.041  -0.100  -7.017  1.00  0.00     0.293 HD
ENDBRANCH   8  26
TORSDOF 6
ENDMDL
MODEL 9
REMARK VINA RESULT:    -7.039      1.422      2.108
REMARK INTER + INTRA:          -8.731
REMARK INTER:                  -8.443
REMARK INTRA:                  -0.288
REMARK UNBOUND:                -0.252
REMARK SMILES O=c1c(O)c(-c2ccc(O)c(O)c2)oc2cc(O)cc(O)c12
REMARK SMILES IDX 5 1 3 2 2 3 1 4 22 5 20 6 19 7 17 8 16 9 15 10 14 11 6 12
REMARK SMILES IDX 7 13 8 14 9 15 13 16 11 17 10 18 12 20 4 22 21 24 18 26
REMARK H PARENT 10 19 12 21 4 23 21 25 18 27
REMARK Flexibility Score: inf
ROOT
ATOM      1  C   UNL     1      -2.976  -0.102  -3.227  1.00  0.00     0.180 A 
ATOM      2  C   UNL     1      -4.011  -0.437  -2.333  1.00  0.00     0.208 A 
ATOM      3  C   UNL     1      -4.150  -1.774  -1.927  1.00  0.00     0.238 A 
ATOM      4  O   UNL     1      -5.066  -2.084  -1.119  1.00  0.00    -0.285 OA
ATOM      5  C   UNL     1      -3.270  -2.751  -2.435  1.00  0.00     0.111 A 
ATOM      6  C   UNL     1      -3.344  -4.120  -2.079  1.00  0.00     0.134 A 
ATOM      7  C   UNL     1      -2.436  -5.033  -2.635  1.00  0.00     0.093 A 
ATOM      8  C   UNL     1      -1.458  -4.607  -3.538  1.00  0.00     0.123 A 
ATOM      9  C   UNL     1      -1.379  -3.256  -3.892  1.00  0.00     0.094 A 
ATOM     10  C   UNL     1      -2.275  -2.330  -3.347  1.00  0.00     0.146 A 
ATOM     11  O   UNL     1      -2.175  -1.052  -3.697  1.00  0.00    -0.452 OA
ENDROOT
BRANCH   1  12
ATOM     12  C   UNL     1      -2.754   1.288  -3.687  1.00  0.00     0.025 A 
ATOM     13  C   UNL     1      -3.558   1.814  -4.710  1.00  0.00     0.016 A 
ATOM     14  C   UNL     1      -3.352   3.115  -5.174  1.00  0.00     0.051 A 
ATOM     15  C   UNL     1      -2.332   3.905  -4.635  1.00  0.00     0.157 A 
ATOM     16  C   UNL     1      -1.715   2.077  -3.160  1.00  0.00     0.062 A 
ATOM     17  C   UNL     1      -1.506   3.383  -3.627  1.00  0.00     0.158 A 
BRANCH  15  18
ATOM     18  O   UNL     1      -2.152   5.201  -5.116  1.00  0.00    -0.504 OA
ATOM     19  H   UNL     1      -2.724   5.584  -5.860  1.00  0.00     0.293 HD
ENDBRANCH  15  18
BRANCH  17  20
ATOM     20  O   UNL     1      -0.477   4.160  -3.095  1.00  0.00    -0.504 OA
ATOM     21  H   UNL     1       0.481   3.832  -3.075  1.00  0.00     0.293 HD
ENDBRANCH  17  20
ENDBRANCH   1  12
BRANCH   2  22
ATOM     22  O   UNL     1      -4.901   0.541  -1.883  1.00  0.00    -0.502 OA
ATOM     23  H   UNL     1      -4.950   0.825  -0.912  1.00  0.00     0.293 HD
ENDBRANCH   2  22
BRANCH   6  24
ATOM     24  O   UNL     1      -4.309  -4.578  -1.182  1.00  0.00    -0.507 OA
ATOM     25  H   UNL     1      -4.669  -5.524  -1.223  1.00  0.00     0.293 HD
ENDBRANCH   6  24
BRANCH   8  26
ATOM     26  O   UNL     1      -0.570  -5.535  -4.076  1.00  0.00    -0.508 OA
ATOM     27  H   UNL     1      -0.886  -6.438  -4.411  1.00  0.00     0.293 HD
ENDBRANCH   8  26
TORSDOF 6
ENDMDL
