MODEL 1
REMARK VINA RESULT:    -4.537      0.000      0.000
REMARK INTER + INTRA:          -5.772
REMARK INTER:                  -5.466
REMARK INTRA:                  -0.306
REMARK UNBOUND:                -0.306
REMARK SMILES O=c1c(O)c(-c2ccc(O)c(O)c2)oc2cc(O)cc(O)c12
REMARK SMILES IDX 5 1 3 2 2 3 1 4 22 5 20 6 19 7 17 8 16 9 15 10 14 11 6 12
REMARK SMILES IDX 7 13 8 14 9 15 13 16 11 17 10 18 12 20 4 22 21 24 18 26
REMARK H PARENT 10 19 12 21 4 23 21 25 18 27
REMARK Flexibility Score: inf
ROOT
ATOM      1  C   UNL     1      -0.292   3.267   3.551  1.00  0.00     0.180 A 
ATOM      2  C   UNL     1      -1.569   2.864   3.125  1.00  0.00     0.208 A 
ATOM      3  C   UNL     1      -2.078   1.632   3.568  1.00  0.00     0.238 A 
ATOM      4  O   UNL     1      -3.199   1.252   3.139  1.00  0.00    -0.285 OA
ATOM      5  C   UNL     1      -1.310   0.827   4.444  1.00  0.00     0.111 A 
ATOM      6  C   UNL     1      -1.743  -0.419   4.987  1.00  0.00     0.134 A 
ATOM      7  C   UNL     1      -0.850  -1.192   5.739  1.00  0.00     0.093 A 
ATOM      8  C   UNL     1       0.440  -0.734   6.021  1.00  0.00     0.123 A 
ATOM      9  C   UNL     1       0.850   0.509   5.545  1.00  0.00     0.094 A 
ATOM     10  C   UNL     1      -0.006   1.287   4.762  1.00  0.00     0.146 A 
ATOM     11  O   UNL     1       0.431   2.460   4.320  1.00  0.00    -0.452 OA
ENDROOT
BRANCH   1  12
ATOM     12  C   UNL     1       0.301   4.563   3.146  1.00  0.00     0.025 A 
ATOM     13  C   UNL     1       0.254   5.685   3.992  1.00  0.00     0.016 A 
ATOM     14  C   UNL     1       0.843   6.890   3.599  1.00  0.00     0.051 A 
ATOM     15  C   UNL     1       1.495   6.991   2.368  1.00  0.00     0.157 A 
ATOM     16  C   UNL     1       0.977   4.660   1.918  1.00  0.00     0.062 A 
ATOM     17  C   UNL     1       1.566   5.870   1.522  1.00  0.00     0.158 A 
BRANCH  15  18
ATOM     18  O   UNL     1       2.071   8.207   2.002  1.00  0.00    -0.504 OA
ATOM     19  H   UNL     1       1.761   8.726   1.189  1.00  0.00     0.293 HD
ENDBRANCH  15  18
BRANCH  17  20
ATOM     20  O   UNL     1       2.222   5.961   0.296  1.00  0.00    -0.504 OA
ATOM     21  H   UNL     1       2.842   5.229  -0.031  1.00  0.00     0.293 HD
ENDBRANCH  17  20
ENDBRANCH   1  12
BRANCH   2  22
ATOM     22  O   UNL     1      -2.301   3.664   2.242  1.00  0.00    -0.502 OA
ATOM     23  H   UNL     1      -3.305   3.776   2.315  1.00  0.00     0.293 HD
ENDBRANCH   2  22
BRANCH   6  24
ATOM     24  O   UNL     1      -3.038  -0.926   4.842  1.00  0.00    -0.507 OA
ATOM     25  H   UNL     1      -3.882  -0.386   4.954  1.00  0.00     0.293 HD
ENDBRANCH   6  24
BRANCH   8  26
ATOM     26  O   UNL     1       1.317  -1.502   6.783  1.00  0.00    -0.508 OA
ATOM     27  H   UNL     1       1.319  -2.514   6.729  1.00  0.00     0.293 HD
ENDBRANCH   8  26
TORSDOF 6
ENDMDL
MODEL 2
REMARK VINA RESULT:    -4.352      9.629     11.956
REMARK INTER + INTRA:          -5.549
REMARK INTER:                  -5.227
REMARK INTRA:                  -0.322
REMARK UNBOUND:                -0.306
REMARK SMILES O=c1c(O)c(-c2ccc(O)c(O)c2)oc2cc(O)cc(O)c12
REMARK SMILES IDX 5 1 3 2 2 3 1 4 22 5 20 6 19 7 17 8 16 9 15 10 14 11 6 12
REMARK SMILES IDX 7 13 8 14 9 15 13 16 11 17 10 18 12 20 4 22 21 24 18 26
REMARK H PARENT 10 19 12 21 4 23 21 25 18 27
REMARK Flexibility Score: inf
ROOT
ATOM      1  C   UNL     1      -6.376   8.218  -3.248  1.00  0.00     0.180 A 
ATOM      2  C   UNL     1      -5.841   7.210  -2.427  1.00  0.00     0.208 A 
ATOM      3  C   UNL     1      -4.822   6.388  -2.934  1.00  0.00     0.238 A 
ATOM      4  O   UNL     1      -4.385   5.454  -2.213  1.00  0.00    -0.285 OA
ATOM      5  C   UNL     1      -4.340   6.594  -4.249  1.00  0.00     0.111 A 
ATOM      6  C   UNL     1      -3.283   5.847  -4.851  1.00  0.00     0.134 A 
ATOM      7  C   UNL     1      -2.977   6.050  -6.202  1.00  0.00     0.093 A 
ATOM      8  C   UNL     1      -3.645   7.018  -6.956  1.00  0.00     0.123 A 
ATOM      9  C   UNL     1      -4.638   7.793  -6.360  1.00  0.00     0.094 A 
ATOM     10  C   UNL     1      -4.990   7.589  -5.024  1.00  0.00     0.146 A 
ATOM     11  O   UNL     1      -5.949   8.343  -4.499  1.00  0.00    -0.452 OA
ENDROOT
BRANCH   1  12
ATOM     12  C   UNL     1      -7.435   9.140  -2.776  1.00  0.00     0.025 A 
ATOM     13  C   UNL     1      -8.797   8.812  -2.896  1.00  0.00     0.016 A 
ATOM     14  C   UNL     1      -9.778   9.687  -2.420  1.00  0.00     0.051 A 
ATOM     15  C   UNL     1      -9.416  10.891  -1.809  1.00  0.00     0.157 A 
ATOM     16  C   UNL     1      -7.074  10.340  -2.141  1.00  0.00     0.062 A 
ATOM     17  C   UNL     1      -8.058  11.220  -1.665  1.00  0.00     0.158 A 
BRANCH  15  18
ATOM     18  O   UNL     1     -10.417  11.745  -1.347  1.00  0.00    -0.504 OA
ATOM     19  H   UNL     1     -11.017  11.499  -0.568  1.00  0.00     0.293 HD
ENDBRANCH  15  18
BRANCH  17  20
ATOM     20  O   UNL     1      -7.690  12.415  -1.050  1.00  0.00    -0.504 OA
ATOM     21  H   UNL     1      -7.842  13.312  -1.498  1.00  0.00     0.293 HD
ENDBRANCH  17  20
ENDBRANCH   1  12
BRANCH   2  22
ATOM     22  O   UNL     1      -6.347   7.010  -1.139  1.00  0.00    -0.502 OA
ATOM     23  H   UNL     1      -5.750   6.948  -0.324  1.00  0.00     0.293 HD
ENDBRANCH   2  22
BRANCH   6  24
ATOM     24  O   UNL     1      -2.491   4.922  -4.163  1.00  0.00    -0.507 OA
ATOM     25  H   UNL     1      -2.737   4.500  -3.282  1.00  0.00     0.293 HD
ENDBRANCH   6  24
BRANCH   8  26
ATOM     26  O   UNL     1      -3.324   7.224  -8.295  1.00  0.00    -0.508 OA
ATOM     27  H   UNL     1      -2.371   7.141  -8.630  1.00  0.00     0.293 HD
ENDBRANCH   8  26
TORSDOF 6
ENDMDL
MODEL 3
REMARK VINA RESULT:    -4.336      1.474      3.041
REMARK INTER + INTRA:          -5.530
REMARK INTER:                  -5.248
REMARK INTRA:                  -0.282
REMARK UNBOUND:                -0.306
REMARK SMILES O=c1c(O)c(-c2ccc(O)c(O)c2)oc2cc(O)cc(O)c12
REMARK SMILES IDX 5 1 3 2 2 3 1 4 22 5 20 6 19 7 17 8 16 9 15 10 14 11 6 12
REMARK SMILES IDX 7 13 8 14 9 15 13 16 11 17 10 18 12 20 4 22 21 24 18 26
REMARK H PARENT 10 19 12 21 4 23 21 25 18 27
REMARK Flexibility Score: inf
ROOT
ATOM      1  C   UNL     1      -0.513   2.763   3.476  1.00  0.00     0.180 A 
ATOM      2  C   UNL     1       0.140   2.004   4.462  1.00  0.00     0.208 A 
ATOM      3  C   UNL     1      -0.317   0.705   4.735  1.00  0.00     0.238 A 
ATOM      4  O   UNL     1       0.237   0.051   5.657  1.00  0.00    -0.285 OA
ATOM      5  C   UNL     1      -1.412   0.177   4.009  1.00  0.00     0.111 A 
ATOM      6  C   UNL     1      -1.933  -1.141   4.176  1.00  0.00     0.134 A 
ATOM      7  C   UNL     1      -3.100  -1.513   3.496  1.00  0.00     0.093 A 
ATOM      8  C   UNL     1      -3.727  -0.636   2.607  1.00  0.00     0.123 A 
ATOM      9  C   UNL     1      -3.190   0.631   2.394  1.00  0.00     0.094 A 
ATOM     10  C   UNL     1      -2.048   1.044   3.084  1.00  0.00     0.146 A 
ATOM     11  O   UNL     1      -1.577   2.264   2.858  1.00  0.00    -0.452 OA
ENDROOT
BRANCH   1  12
ATOM     12  C   UNL     1      -0.072   4.131   3.114  1.00  0.00     0.025 A 
ATOM     13  C   UNL     1      -0.381   5.237   3.924  1.00  0.00     0.016 A 
ATOM     14  C   UNL     1       0.066   6.514   3.575  1.00  0.00     0.051 A 
ATOM     15  C   UNL     1       0.836   6.705   2.424  1.00  0.00     0.157 A 
ATOM     16  C   UNL     1       0.720   4.321   1.969  1.00  0.00     0.062 A 
ATOM     17  C   UNL     1       1.168   5.603   1.617  1.00  0.00     0.158 A 
BRANCH  15  18
ATOM     18  O   UNL     1       1.266   7.991   2.101  1.00  0.00    -0.504 OA
ATOM     19  H   UNL     1       2.150   8.362   2.428  1.00  0.00     0.293 HD
ENDBRANCH  15  18
BRANCH  17  20
ATOM     20  O   UNL     1       1.942   5.785   0.472  1.00  0.00    -0.504 OA
ATOM     21  H   UNL     1       2.703   5.157   0.240  1.00  0.00     0.293 HD
ENDBRANCH  17  20
ENDBRANCH   1  12
BRANCH   2  22
ATOM     22  O   UNL     1       1.205   2.554   5.182  1.00  0.00    -0.502 OA
ATOM     23  H   UNL     1       1.187   2.649   6.190  1.00  0.00     0.293 HD
ENDBRANCH   2  22
BRANCH   6  24
ATOM     24  O   UNL     1      -1.332  -2.125   4.968  1.00  0.00    -0.507 OA
ATOM     25  H   UNL     1      -0.510  -2.647   4.709  1.00  0.00     0.293 HD
ENDBRANCH   6  24
BRANCH   8  26
ATOM     26  O   UNL     1      -4.879  -1.019   1.923  1.00  0.00    -0.508 OA
ATOM     27  H   UNL     1      -5.182  -1.986   1.897  1.00  0.00     0.293 HD
ENDBRANCH   8  26
TORSDOF 6
ENDMDL
MODEL 4
REMARK VINA RESULT:    -4.275      9.301     11.679
REMARK INTER + INTRA:          -5.457
REMARK INTER:                  -5.177
REMARK INTRA:                  -0.280
REMARK UNBOUND:                -0.306
REMARK SMILES O=c1c(O)c(-c2ccc(O)c(O)c2)oc2cc(O)cc(O)c12
REMARK SMILES IDX 5 1 3 2 2 3 1 4 22 5 20 6 19 7 17 8 16 9 15 10 14 11 6 12
REMARK SMILES IDX 7 13 8 14 9 15 13 16 11 17 10 18 12 20 4 22 21 24 18 26
REMARK H PARENT 10 19 12 21 4 23 21 25 18 27
REMARK Flexibility Score: inf
ROOT
ATOM      1  C   UNL     1      -3.796  13.092   2.295  1.00  0.00     0.180 A 
ATOM      2  C   UNL     1      -3.499  11.809   2.786  1.00  0.00     0.208 A 
ATOM      3  C   UNL     1      -4.076  10.691   2.162  1.00  0.00     0.238 A 
ATOM      4  O   UNL     1      -3.850   9.549   2.640  1.00  0.00    -0.285 OA
ATOM      5  C   UNL     1      -4.929  10.869   1.046  1.00  0.00     0.111 A 
ATOM      6  C   UNL     1      -5.535   9.806   0.313  1.00  0.00     0.134 A 
ATOM      7  C   UNL     1      -6.464  10.102  -0.693  1.00  0.00     0.093 A 
ATOM      8  C   UNL     1      -6.759  11.424  -1.035  1.00  0.00     0.123 A 
ATOM      9  C   UNL     1      -6.126  12.469  -0.364  1.00  0.00     0.094 A 
ATOM     10  C   UNL     1      -5.223  12.205   0.668  1.00  0.00     0.146 A 
ATOM     11  O   UNL     1      -4.651  13.230   1.288  1.00  0.00    -0.452 OA
ENDROOT
BRANCH   1  12
ATOM     12  C   UNL     1      -3.207  14.317   2.884  1.00  0.00     0.025 A 
ATOM     13  C   UNL     1      -3.685  14.850   4.093  1.00  0.00     0.016 A 
ATOM     14  C   UNL     1      -3.097  15.993   4.642  1.00  0.00     0.051 A 
ATOM     15  C   UNL     1      -2.019  16.611   4.003  1.00  0.00     0.157 A 
ATOM     16  C   UNL     1      -2.109  14.928   2.254  1.00  0.00     0.062 A 
ATOM     17  C   UNL     1      -1.519  16.076   2.804  1.00  0.00     0.158 A 
BRANCH  15  18
ATOM     18  O   UNL     1      -1.455  17.751   4.574  1.00  0.00    -0.504 OA
ATOM     19  H   UNL     1      -1.120  17.766   5.530  1.00  0.00     0.293 HD
ENDBRANCH  15  18
BRANCH  17  20
ATOM     20  O   UNL     1      -0.440  16.683   2.165  1.00  0.00    -0.504 OA
ATOM     21  H   UNL     1      -0.206  17.656   2.325  1.00  0.00     0.293 HD
ENDBRANCH  17  20
ENDBRANCH   1  12
BRANCH   2  22
ATOM     22  O   UNL     1      -2.673  11.658   3.903  1.00  0.00    -0.502 OA
ATOM     23  H   UNL     1      -1.693  11.414   3.825  1.00  0.00     0.293 HD
ENDBRANCH   2  22
BRANCH   6  24
ATOM     24  O   UNL     1      -5.241   8.453   0.511  1.00  0.00    -0.507 OA
ATOM     25  H   UNL     1      -4.677   7.892  -0.107  1.00  0.00     0.293 HD
ENDBRANCH   6  24
BRANCH   8  26
ATOM     26  O   UNL     1      -7.672  11.711  -2.047  1.00  0.00    -0.508 OA
ATOM     27  H   UNL     1      -7.393  12.201  -2.888  1.00  0.00     0.293 HD
ENDBRANCH   8  26
TORSDOF 6
ENDMDL
MODEL 5
REMARK VINA RESULT:    -4.248      9.112     10.825
REMARK INTER + INTRA:          -5.424
REMARK INTER:                  -5.097
REMARK INTRA:                  -0.327
REMARK UNBOUND:                -0.306
REMARK SMILES O=c1c(O)c(-c2ccc(O)c(O)c2)oc2cc(O)cc(O)c12
REMARK SMILES IDX 5 1 3 2 2 3 1 4 22 5 20 6 19 7 17 8 16 9 15 10 14 11 6 12
REMARK SMILES IDX 7 13 8 14 9 15 13 16 11 17 10 18 12 20 4 22 21 24 18 26
REMARK H PARENT 10 19 12 21 4 23 21 25 18 27
REMARK Flexibility Score: inf
ROOT
ATOM      1  C   UNL     1      -6.232   9.547  -1.248  1.00  0.00     0.180 A 
ATOM      2  C   UNL     1      -7.164   9.851  -2.254  1.00  0.00     0.208 A 
ATOM      3  C   UNL     1      -7.311   8.968  -3.336  1.00  0.00     0.238 A 
ATOM      4  O   UNL     1      -8.109   9.273  -4.260  1.00  0.00    -0.285 OA
ATOM      5  C   UNL     1      -6.536   7.784  -3.389  1.00  0.00     0.111 A 
ATOM      6  C   UNL     1      -6.632   6.799  -4.417  1.00  0.00     0.134 A 
ATOM      7  C   UNL     1      -5.725   5.733  -4.438  1.00  0.00     0.093 A 
ATOM      8  C   UNL     1      -4.767   5.581  -3.432  1.00  0.00     0.123 A 
ATOM      9  C   UNL     1      -4.706   6.506  -2.392  1.00  0.00     0.094 A 
ATOM     10  C   UNL     1      -5.573   7.600  -2.363  1.00  0.00     0.146 A 
ATOM     11  O   UNL     1      -5.473   8.463  -1.360  1.00  0.00    -0.452 OA
ENDROOT
BRANCH   1  12
ATOM     12  C   UNL     1      -6.038  10.416  -0.064  1.00  0.00     0.025 A 
ATOM     13  C   UNL     1      -6.745  10.194   1.130  1.00  0.00     0.016 A 
ATOM     14  C   UNL     1      -6.527  11.013   2.242  1.00  0.00     0.051 A 
ATOM     15  C   UNL     1      -5.595  12.053   2.184  1.00  0.00     0.157 A 
ATOM     16  C   UNL     1      -5.086  11.449  -0.114  1.00  0.00     0.062 A 
ATOM     17  C   UNL     1      -4.868  12.272   1.001  1.00  0.00     0.158 A 
BRANCH  15  18
ATOM     18  O   UNL     1      -5.401  12.854   3.308  1.00  0.00    -0.504 OA
ATOM     19  H   UNL     1      -4.506  12.914   3.779  1.00  0.00     0.293 HD
ENDBRANCH  15  18
BRANCH  17  20
ATOM     20  O   UNL     1      -3.932  13.302   0.938  1.00  0.00    -0.504 OA
ATOM     21  H   UNL     1      -3.208  13.407   1.641  1.00  0.00     0.293 HD
ENDBRANCH  17  20
ENDBRANCH   1  12
BRANCH   2  22
ATOM     22  O   UNL     1      -7.903  11.036  -2.193  1.00  0.00    -0.502 OA
ATOM     23  H   UNL     1      -7.968  11.677  -2.974  1.00  0.00     0.293 HD
ENDBRANCH   2  22
BRANCH   6  24
ATOM     24  O   UNL     1      -7.610   6.806  -5.417  1.00  0.00    -0.507 OA
ATOM     25  H   UNL     1      -8.537   7.186  -5.310  1.00  0.00     0.293 HD
ENDBRANCH   6  24
BRANCH   8  26
ATOM     26  O   UNL     1      -3.879   4.508  -3.451  1.00  0.00    -0.508 OA
ATOM     27  H   UNL     1      -3.118   4.463  -4.119  1.00  0.00     0.293 HD
ENDBRANCH   8  26
TORSDOF 6
ENDMDL
MODEL 6
REMARK VINA RESULT:    -4.243      8.790     11.754
REMARK INTER + INTRA:          -5.417
REMARK INTER:                  -5.108
REMARK INTRA:                  -0.309
REMARK UNBOUND:                -0.306
REMARK SMILES O=c1c(O)c(-c2ccc(O)c(O)c2)oc2cc(O)cc(O)c12
REMARK SMILES IDX 5 1 3 2 2 3 1 4 22 5 20 6 19 7 17 8 16 9 15 10 14 11 6 12
REMARK SMILES IDX 7 13 8 14 9 15 13 16 11 17 10 18 12 20 4 22 21 24 18 26
REMARK H PARENT 10 19 12 21 4 23 21 25 18 27
REMARK Flexibility Score: inf
ROOT
ATOM      1  C   UNL     1      -4.919  11.747   2.021  1.00  0.00     0.180 A 
ATOM      2  C   UNL     1      -4.176  10.571   2.220  1.00  0.00     0.208 A 
ATOM      3  C   UNL     1      -2.924  10.654   2.851  1.00  0.00     0.238 A 
ATOM      4  O   UNL     1      -2.241   9.605   2.978  1.00  0.00    -0.285 OA
ATOM      5  C   UNL     1      -2.439  11.910   3.289  1.00  0.00     0.111 A 
ATOM      6  C   UNL     1      -1.203  12.106   3.976  1.00  0.00     0.134 A 
ATOM      7  C   UNL     1      -0.763  13.407   4.246  1.00  0.00     0.093 A 
ATOM      8  C   UNL     1      -1.544  14.517   3.914  1.00  0.00     0.123 A 
ATOM      9  C   UNL     1      -2.779  14.331   3.297  1.00  0.00     0.094 A 
ATOM     10  C   UNL     1      -3.229  13.048   2.981  1.00  0.00     0.146 A 
ATOM     11  O   UNL     1      -4.407  12.918   2.384  1.00  0.00    -0.452 OA
ENDROOT
BRANCH   1  12
ATOM     12  C   UNL     1      -6.257  11.736   1.386  1.00  0.00     0.025 A 
ATOM     13  C   UNL     1      -7.433  11.752   2.156  1.00  0.00     0.016 A 
ATOM     14  C   UNL     1      -8.684  11.766   1.534  1.00  0.00     0.051 A 
ATOM     15  C   UNL     1      -8.782  11.777   0.140  1.00  0.00     0.157 A 
ATOM     16  C   UNL     1      -6.357  11.769  -0.015  1.00  0.00     0.062 A 
ATOM     17  C   UNL     1      -7.613  11.781  -0.641  1.00  0.00     0.158 A 
BRANCH  15  18
ATOM     18  O   UNL     1     -10.044  11.789  -0.452  1.00  0.00    -0.504 OA
ATOM     19  H   UNL     1     -10.272  11.200  -1.244  1.00  0.00     0.293 HD
ENDBRANCH  15  18
BRANCH  17  20
ATOM     20  O   UNL     1      -7.702  11.800  -2.031  1.00  0.00    -0.504 OA
ATOM     21  H   UNL     1      -7.612  12.661  -2.558  1.00  0.00     0.293 HD
ENDBRANCH  17  20
ENDBRANCH   1  12
BRANCH   2  22
ATOM     22  O   UNL     1      -4.664   9.344   1.760  1.00  0.00    -0.502 OA
ATOM     23  H   UNL     1      -4.593   9.061   0.790  1.00  0.00     0.293 HD
ENDBRANCH   2  22
BRANCH   6  24
ATOM     24  O   UNL     1      -0.391  11.064   4.435  1.00  0.00    -0.507 OA
ATOM     25  H   UNL     1      -0.706  10.307   5.022  1.00  0.00     0.293 HD
ENDBRANCH   6  24
BRANCH   8  26
ATOM     26  O   UNL     1      -1.106  15.808   4.200  1.00  0.00    -0.508 OA
ATOM     27  H   UNL     1      -0.703  16.401   3.485  1.00  0.00     0.293 HD
ENDBRANCH   8  26
TORSDOF 6
ENDMDL
MODEL 7
REMARK VINA RESULT:    -4.213      9.192     11.601
REMARK INTER + INTRA:          -5.382
REMARK INTER:                  -5.100
REMARK INTRA:                  -0.281
REMARK UNBOUND:                -0.306
REMARK SMILES O=c1c(O)c(-c2ccc(O)c(O)c2)oc2cc(O)cc(O)c12
REMARK SMILES IDX 5 1 3 2 2 3 1 4 22 5 20 6 19 7 17 8 16 9 15 10 14 11 6 12
REMARK SMILES IDX 7 13 8 14 9 15 13 16 11 17 10 18 12 20 4 22 21 24 18 26
REMARK H PARENT 10 19 12 21 4 23 21 25 18 27
REMARK Flexibility Score: inf
ROOT
ATOM      1  C   UNL     1      -6.024   8.208  -2.690  1.00  0.00     0.180 A 
ATOM      2  C   UNL     1      -7.313   8.375  -3.224  1.00  0.00     0.208 A 
ATOM      3  C   UNL     1      -8.162   9.343  -2.664  1.00  0.00     0.238 A 
ATOM      4  O   UNL     1      -9.334   9.449  -3.111  1.00  0.00    -0.285 OA
ATOM      5  C   UNL     1      -7.706  10.142  -1.588  1.00  0.00     0.111 A 
ATOM      6  C   UNL     1      -8.467  11.179  -0.971  1.00  0.00     0.134 A 
ATOM      7  C   UNL     1      -7.965  11.818   0.170  1.00  0.00     0.093 A 
ATOM      8  C   UNL     1      -6.702  11.502   0.677  1.00  0.00     0.123 A 
ATOM      9  C   UNL     1      -5.927  10.532   0.044  1.00  0.00     0.094 A 
ATOM     10  C   UNL     1      -6.416   9.852  -1.074  1.00  0.00     0.146 A 
ATOM     11  O   UNL     1      -5.649   8.928  -1.638  1.00  0.00    -0.452 OA
ENDROOT
BRANCH   1  12
ATOM     12  C   UNL     1      -5.063   7.226  -3.243  1.00  0.00     0.025 A 
ATOM     13  C   UNL     1      -4.848   5.984  -2.622  1.00  0.00     0.016 A 
ATOM     14  C   UNL     1      -3.954   5.062  -3.176  1.00  0.00     0.051 A 
ATOM     15  C   UNL     1      -3.274   5.360  -4.359  1.00  0.00     0.157 A 
ATOM     16  C   UNL     1      -4.394   7.514  -4.445  1.00  0.00     0.062 A 
ATOM     17  C   UNL     1      -3.496   6.591  -5.000  1.00  0.00     0.158 A 
BRANCH  15  18
ATOM     18  O   UNL     1      -2.387   4.422  -4.887  1.00  0.00    -0.504 OA
ATOM     19  H   UNL     1      -2.538   3.425  -4.792  1.00  0.00     0.293 HD
ENDBRANCH  15  18
BRANCH  17  20
ATOM     20  O   UNL     1      -2.827   6.892  -6.185  1.00  0.00    -0.504 OA
ATOM     21  H   UNL     1      -2.902   6.298  -7.004  1.00  0.00     0.293 HD
ENDBRANCH  17  20
ENDBRANCH   1  12
BRANCH   2  22
ATOM     22  O   UNL     1      -7.751   7.559  -4.272  1.00  0.00    -0.502 OA
ATOM     23  H   UNL     1      -8.323   6.738  -4.118  1.00  0.00     0.293 HD
ENDBRANCH   2  22
BRANCH   6  24
ATOM     24  O   UNL     1      -9.699  11.637  -1.451  1.00  0.00    -0.507 OA
ATOM     25  H   UNL     1      -9.842  12.054  -2.357  1.00  0.00     0.293 HD
ENDBRANCH   6  24
BRANCH   8  26
ATOM     26  O   UNL     1      -6.203  12.154   1.803  1.00  0.00    -0.508 OA
ATOM     27  H   UNL     1      -5.760  13.062   1.735  1.00  0.00     0.293 HD
ENDBRANCH   8  26
TORSDOF 6
ENDMDL
MODEL 8
REMARK VINA RESULT:    -4.152      9.535     11.876
REMARK INTER + INTRA:          -5.308
REMARK INTER:                  -4.995
REMARK INTRA:                  -0.313
REMARK UNBOUND:                -0.306
REMARK SMILES O=c1c(O)c(-c2ccc(O)c(O)c2)oc2cc(O)cc(O)c12
REMARK SMILES IDX 5 1 3 2 2 3 1 4 22 5 20 6 19 7 17 8 16 9 15 10 14 11 6 12
REMARK SMILES IDX 7 13 8 14 9 15 13 16 11 17 10 18 12 20 4 22 21 24 18 26
REMARK H PARENT 10 19 12 21 4 23 21 25 18 27
REMARK Flexibility Score: inf
ROOT
ATOM      1  C   UNL     1      -5.351  12.279   1.687  1.00  0.00     0.180 A 
ATOM      2  C   UNL     1      -5.464  12.276   0.286  1.00  0.00     0.208 A 
ATOM      3  C   UNL     1      -6.715  12.013  -0.296  1.00  0.00     0.238 A 
ATOM      4  O   UNL     1      -6.798  11.959  -1.550  1.00  0.00    -0.285 OA
ATOM      5  C   UNL     1      -7.839  11.772   0.531  1.00  0.00     0.111 A 
ATOM      6  C   UNL     1      -9.161  11.535   0.049  1.00  0.00     0.134 A 
ATOM      7  C   UNL     1     -10.171  11.180   0.952  1.00  0.00     0.093 A 
ATOM      8  C   UNL     1      -9.921  11.117   2.325  1.00  0.00     0.123 A 
ATOM      9  C   UNL     1      -8.647  11.405   2.809  1.00  0.00     0.094 A 
ATOM     10  C   UNL     1      -7.611  11.727   1.930  1.00  0.00     0.146 A 
ATOM     11  O   UNL     1      -6.410  11.984   2.433  1.00  0.00    -0.452 OA
ENDROOT
BRANCH   1  12
ATOM     12  C   UNL     1      -4.072  12.572   2.374  1.00  0.00     0.025 A 
ATOM     13  C   UNL     1      -3.626  13.893   2.559  1.00  0.00     0.016 A 
ATOM     14  C   UNL     1      -2.428  14.146   3.232  1.00  0.00     0.051 A 
ATOM     15  C   UNL     1      -1.665  13.091   3.740  1.00  0.00     0.157 A 
ATOM     16  C   UNL     1      -3.314  11.515   2.905  1.00  0.00     0.062 A 
ATOM     17  C   UNL     1      -2.110  11.768   3.579  1.00  0.00     0.158 A 
BRANCH  15  18
ATOM     18  O   UNL     1      -0.472  13.374   4.404  1.00  0.00    -0.504 OA
ATOM     19  H   UNL     1      -0.249  14.305   4.737  1.00  0.00     0.293 HD
ENDBRANCH  15  18
BRANCH  17  20
ATOM     20  O   UNL     1      -1.358  10.711   4.089  1.00  0.00    -0.504 OA
ATOM     21  H   UNL     1      -1.564   9.748   3.849  1.00  0.00     0.293 HD
ENDBRANCH  17  20
ENDBRANCH   1  12
BRANCH   2  22
ATOM     22  O   UNL     1      -4.336  12.495  -0.510  1.00  0.00    -0.502 OA
ATOM     23  H   UNL     1      -4.326  12.298  -1.504  1.00  0.00     0.293 HD
ENDBRANCH   2  22
BRANCH   6  24
ATOM     24  O   UNL     1      -9.539  11.662  -1.291  1.00  0.00    -0.507 OA
ATOM     25  H   UNL     1      -9.296  12.439  -1.885  1.00  0.00     0.293 HD
ENDBRANCH   6  24
BRANCH   8  26
ATOM     26  O   UNL     1     -10.935  10.778   3.218  1.00  0.00    -0.508 OA
ATOM     27  H   UNL     1     -10.848  10.960   4.211  1.00  0.00     0.293 HD
ENDBRANCH   8  26
TORSDOF 6
ENDMDL
MODEL 9
REMARK VINA RESULT:    -4.067      9.607     11.124
REMARK INTER + INTRA:          -5.205
REMARK INTER:                  -4.887
REMARK INTRA:                  -0.318
REMARK UNBOUND:                -0.306
REMARK SMILES O=c1c(O)c(-c2ccc(O)c(O)c2)oc2cc(O)cc(O)c12
REMARK SMILES IDX 5 1 3 2 2 3 1 4 22 5 20 6 19 7 17 8 16 9 15 10 14 11 6 12
REMARK SMILES IDX 7 13 8 14 9 15 13 16 11 17 10 18 12 20 4 22 21 24 18 26
REMARK H PARENT 10 19 12 21 4 23 21 25 18 27
REMARK Flexibility Score: inf
ROOT
ATOM      1  C   UNL     1      -4.930   7.023  -3.532  1.00  0.00     0.180 A 
ATOM      2  C   UNL     1      -5.077   5.629  -3.642  1.00  0.00     0.208 A 
ATOM      3  C   UNL     1      -4.198   4.915  -4.472  1.00  0.00     0.238 A 
ATOM      4  O   UNL     1      -4.370   3.676  -4.609  1.00  0.00    -0.285 OA
ATOM      5  C   UNL     1      -3.174   5.601  -5.168  1.00  0.00     0.111 A 
ATOM      6  C   UNL     1      -2.203   4.973  -6.004  1.00  0.00     0.134 A 
ATOM      7  C   UNL     1      -1.316   5.764  -6.747  1.00  0.00     0.093 A 
ATOM      8  C   UNL     1      -1.324   7.156  -6.633  1.00  0.00     0.123 A 
ATOM      9  C   UNL     1      -2.229   7.774  -5.773  1.00  0.00     0.094 A 
ATOM     10  C   UNL     1      -3.150   7.015  -5.048  1.00  0.00     0.146 A 
ATOM     11  O   UNL     1      -4.002   7.645  -4.249  1.00  0.00    -0.452 OA
ENDROOT
BRANCH   1  12
ATOM     12  C   UNL     1      -5.803   7.840  -2.657  1.00  0.00     0.025 A 
ATOM     13  C   UNL     1      -5.560   7.950  -1.278  1.00  0.00     0.016 A 
ATOM     14  C   UNL     1      -6.382   8.748  -0.477  1.00  0.00     0.051 A 
ATOM     15  C   UNL     1      -7.448   9.455  -1.040  1.00  0.00     0.157 A 
ATOM     16  C   UNL     1      -6.862   8.569  -3.225  1.00  0.00     0.062 A 
ATOM     17  C   UNL     1      -7.689   9.369  -2.422  1.00  0.00     0.158 A 
BRANCH  15  18
ATOM     18  O   UNL     1      -8.252  10.240  -0.215  1.00  0.00    -0.504 OA
ATOM     19  H   UNL     1      -9.090  10.695  -0.556  1.00  0.00     0.293 HD
ENDBRANCH  15  18
BRANCH  17  20
ATOM     20  O   UNL     1      -8.745  10.077  -2.991  1.00  0.00    -0.504 OA
ATOM     21  H   UNL     1      -9.568  10.327  -2.455  1.00  0.00     0.293 HD
ENDBRANCH  17  20
ENDBRANCH   1  12
BRANCH   2  22
ATOM     22  O   UNL     1      -6.110   4.976  -2.963  1.00  0.00    -0.502 OA
ATOM     23  H   UNL     1      -7.066   4.976  -3.298  1.00  0.00     0.293 HD
ENDBRANCH   2  22
BRANCH   6  24
ATOM     24  O   UNL     1      -2.049   3.588  -6.119  1.00  0.00    -0.507 OA
ATOM     25  H   UNL     1      -2.319   2.921  -5.413  1.00  0.00     0.293 HD
ENDBRANCH   6  24
BRANCH   8  26
ATOM     26  O   UNL     1      -0.428   7.934  -7.363  1.00  0.00    -0.508 OA
ATOM     27  H   UNL     1       0.555   7.976  -7.122  1.00  0.00     0.293 HD
ENDBRANCH   8  26
TORSDOF 6
ENDMDL
