MODEL 1
REMARK VINA RESULT:    -2.586      0.000      0.000
REMARK INTER + INTRA:          -5.063
REMARK INTER:                  -4.401
REMARK INTRA:                  -0.662
REMARK UNBOUND:                -0.662
REMARK SMILES CCCCCCCCCCCCCC(=O)[O-]
REMARK SMILES IDX 8 1 9 2 10 3 11 4 12 5 13 6 14 7 15 8 16 9 7 10 6 11 5 12
REMARK SMILES IDX 4 13 3 14 2 15 1 16
REMARK H PARENT
REMARK Flexibility Score: inf
ROOT
ATOM      1  C   UNL     1       5.457  -8.272   6.060  1.00  0.00     0.000 C 
ENDROOT
BRANCH   1   2
ATOM      2  C   UNL     1       5.793  -7.193   7.105  1.00  0.00     0.000 C 
BRANCH   2   3
ATOM      3  C   UNL     1       6.642  -7.752   8.261  1.00  0.00     0.000 C 
BRANCH   3   4
ATOM      4  C   UNL     1       6.005  -8.986   8.939  1.00  0.00     0.000 C 
BRANCH   4   5
ATOM      5  C   UNL     1       4.685  -8.677   9.664  1.00  0.00     0.006 C 
BRANCH   5   6
ATOM      6  C   UNL     1       3.838  -9.929   9.917  1.00  0.00     0.053 C 
BRANCH   6   7
ATOM      7  C   UNL     1       2.660  -9.961   8.995  1.00  0.00     0.041 C 
ATOM      8  O   UNL     1       2.828 -10.125   7.758  1.00  0.00    -0.550 OA
ATOM      9  O   UNL     1       1.373  -9.865   9.509  1.00  0.00    -0.550 OA
ENDBRANCH   6   7
ENDBRANCH   5   6
ENDBRANCH   4   5
ENDBRANCH   3   4
ENDBRANCH   2   3
ENDBRANCH   1   2
BRANCH   1  10
ATOM     10  C   UNL     1       6.705  -8.789   5.320  1.00  0.00     0.000 C 
BRANCH  10  11
ATOM     11  C   UNL     1       7.627  -9.680   6.176  1.00  0.00    -0.000 C 
BRANCH  11  12
ATOM     12  C   UNL     1       9.096  -9.627   5.716  1.00  0.00    -0.000 C 
BRANCH  12  13
ATOM     13  C   UNL     1      10.086  -9.643   6.892  1.00  0.00    -0.000 C 
BRANCH  13  14
ATOM     14  C   UNL     1       9.441 -10.124   8.204  1.00  0.00    -0.000 C 
BRANCH  14  15
ATOM     15  C   UNL     1      10.122  -9.530   9.448  1.00  0.00    -0.003 C 
ATOM     16  C   UNL     1       9.961  -8.012   9.547  1.00  0.00     0.004 C 
ENDBRANCH  14  15
ENDBRANCH  13  14
ENDBRANCH  12  13
ENDBRANCH  11  12
ENDBRANCH  10  11
ENDBRANCH   1  10
TORSDOF 12
ENDMDL
MODEL 2
REMARK VINA RESULT:    -2.508      3.091      5.114
REMARK INTER + INTRA:          -4.930
REMARK INTER:                  -3.495
REMARK INTRA:                  -1.435
REMARK UNBOUND:                -0.662
REMARK SMILES CCCCCCCCCCCCCC(=O)[O-]
REMARK SMILES IDX 8 1 9 2 10 3 11 4 12 5 13 6 14 7 15 8 16 9 7 10 6 11 5 12
REMARK SMILES IDX 4 13 3 14 2 15 1 16
REMARK H PARENT
REMARK Flexibility Score: inf
ROOT
ATOM      1  C   UNL     1       3.674  -9.474   6.792  1.00  0.00     0.000 C 
ENDROOT
BRANCH   1   2
ATOM      2  C   UNL     1       3.321  -9.899   8.228  1.00  0.00     0.000 C 
BRANCH   2   3
ATOM      3  C   UNL     1       3.950  -8.968   9.279  1.00  0.00     0.000 C 
BRANCH   3   4
ATOM      4  C   UNL     1       5.078  -9.646  10.091  1.00  0.00     0.000 C 
BRANCH   4   5
ATOM      5  C   UNL     1       6.440  -8.945   9.955  1.00  0.00     0.006 C 
BRANCH   5   6
ATOM      6  C   UNL     1       7.548  -9.888   9.474  1.00  0.00     0.053 C 
BRANCH   6   7
ATOM      7  C   UNL     1       8.817  -9.130   9.238  1.00  0.00     0.041 C 
ATOM      8  O   UNL     1       9.514  -9.363   8.216  1.00  0.00    -0.550 OA
ATOM      9  O   UNL     1       9.201  -8.127  10.119  1.00  0.00    -0.550 OA
ENDBRANCH   6   7
ENDBRANCH   5   6
ENDBRANCH   4   5
ENDBRANCH   3   4
ENDBRANCH   2   3
ENDBRANCH   1   2
BRANCH   1  10
ATOM     10  C   UNL     1       5.093  -9.906   6.377  1.00  0.00     0.000 C 
BRANCH  10  11
ATOM     11  C   UNL     1       5.882  -8.833   5.601  1.00  0.00    -0.000 C 
BRANCH  11  12
ATOM     12  C   UNL     1       6.699  -7.912   6.525  1.00  0.00    -0.000 C 
BRANCH  12  13
ATOM     13  C   UNL     1       6.042  -6.536   6.722  1.00  0.00    -0.000 C 
BRANCH  13  14
ATOM     14  C   UNL     1       5.422  -5.985   5.426  1.00  0.00    -0.000 C 
BRANCH  14  15
ATOM     15  C   UNL     1       5.728  -4.493   5.215  1.00  0.00    -0.003 C 
ATOM     16  C   UNL     1       5.017  -3.906   3.994  1.00  0.00     0.004 C 
ENDBRANCH  14  15
ENDBRANCH  13  14
ENDBRANCH  12  13
ENDBRANCH  11  12
ENDBRANCH  10  11
ENDBRANCH   1  10
TORSDOF 12
ENDMDL
MODEL 3
REMARK VINA RESULT:    -2.461      2.449      5.418
REMARK INTER + INTRA:          -4.850
REMARK INTER:                  -3.941
REMARK INTRA:                  -0.909
REMARK UNBOUND:                -0.662
REMARK SMILES CCCCCCCCCCCCCC(=O)[O-]
REMARK SMILES IDX 8 1 9 2 10 3 11 4 12 5 13 6 14 7 15 8 16 9 7 10 6 11 5 12
REMARK SMILES IDX 4 13 3 14 2 15 1 16
REMARK H PARENT
REMARK Flexibility Score: inf
ROOT
ATOM      1  C   UNL     1       5.981  -8.799   5.296  1.00  0.00     0.000 C 
ENDROOT
BRANCH   1   2
ATOM      2  C   UNL     1       7.509  -8.649   5.195  1.00  0.00     0.000 C 
BRANCH   2   3
ATOM      3  C   UNL     1       8.247  -9.922   5.645  1.00  0.00     0.000 C 
BRANCH   3   4
ATOM      4  C   UNL     1       9.647  -9.636   6.232  1.00  0.00     0.000 C 
BRANCH   4   5
ATOM      5  C   UNL     1       9.609  -9.010   7.637  1.00  0.00     0.006 C 
BRANCH   5   6
ATOM      6  C   UNL     1       8.277  -9.247   8.358  1.00  0.00     0.053 C 
BRANCH   6   7
ATOM      7  C   UNL     1       7.731  -7.959   8.887  1.00  0.00     0.041 C 
ATOM      8  O   UNL     1       7.903  -7.647  10.095  1.00  0.00    -0.550 OA
ATOM      9  O   UNL     1       7.080  -7.077   8.034  1.00  0.00    -0.550 OA
ENDBRANCH   6   7
ENDBRANCH   5   6
ENDBRANCH   4   5
ENDBRANCH   3   4
ENDBRANCH   2   3
ENDBRANCH   1   2
BRANCH   1  10
ATOM     10  C   UNL     1       5.557 -10.125   5.955  1.00  0.00     0.000 C 
BRANCH  10  11
ATOM     11  C   UNL     1       4.134 -10.113   6.549  1.00  0.00    -0.000 C 
BRANCH  11  12
ATOM     12  C   UNL     1       3.931  -8.989   7.580  1.00  0.00    -0.000 C 
BRANCH  12  13
ATOM     13  C   UNL     1       4.589  -9.300   8.935  1.00  0.00    -0.000 C 
BRANCH  13  14
ATOM     14  C   UNL     1       3.583  -9.819   9.977  1.00  0.00    -0.000 C 
BRANCH  14  15
ATOM     15  C   UNL     1       2.206  -9.148   9.850  1.00  0.00    -0.003 C 
ATOM     16  C   UNL     1       1.125 -10.100   9.336  1.00  0.00     0.004 C 
ENDBRANCH  14  15
ENDBRANCH  13  14
ENDBRANCH  12  13
ENDBRANCH  11  12
ENDBRANCH  10  11
ENDBRANCH   1  10
TORSDOF 12
ENDMDL
MODEL 4
REMARK VINA RESULT:    -2.138      2.950      5.528
REMARK INTER + INTRA:          -4.299
REMARK INTER:                  -3.386
REMARK INTRA:                  -0.913
REMARK UNBOUND:                -0.662
REMARK SMILES CCCCCCCCCCCCCC(=O)[O-]
REMARK SMILES IDX 8 1 9 2 10 3 11 4 12 5 13 6 14 7 15 8 16 9 7 10 6 11 5 12
REMARK SMILES IDX 4 13 3 14 2 15 1 16
REMARK H PARENT
REMARK Flexibility Score: inf
ROOT
ATOM      1  C   UNL     1       6.215  -9.880   4.727  1.00  0.00     0.000 C 
ENDROOT
BRANCH   1   2
ATOM      2  C   UNL     1       7.721 -10.098   4.959  1.00  0.00     0.000 C 
BRANCH   2   3
ATOM      3  C   UNL     1       8.173  -9.592   6.341  1.00  0.00     0.000 C 
BRANCH   3   4
ATOM      4  C   UNL     1       9.695  -9.730   6.569  1.00  0.00     0.000 C 
BRANCH   4   5
ATOM      5  C   UNL     1      10.113  -9.577   8.041  1.00  0.00     0.006 C 
BRANCH   5   6
ATOM      6  C   UNL     1       8.916  -9.444   8.989  1.00  0.00     0.053 C 
BRANCH   6   7
ATOM      7  C   UNL     1       8.686  -8.010   9.346  1.00  0.00     0.041 C 
ATOM      8  O   UNL     1       9.651  -7.200   9.367  1.00  0.00    -0.550 OA
ATOM      9  O   UNL     1       7.399  -7.554   9.601  1.00  0.00    -0.550 OA
ENDBRANCH   6   7
ENDBRANCH   5   6
ENDBRANCH   4   5
ENDBRANCH   3   4
ENDBRANCH   2   3
ENDBRANCH   1   2
BRANCH   1  10
ATOM     10  C   UNL     1       5.391 -10.008   6.021  1.00  0.00     0.000 C 
BRANCH  10  11
ATOM     11  C   UNL     1       4.394  -8.856   6.256  1.00  0.00    -0.000 C 
BRANCH  11  12
ATOM     12  C   UNL     1       4.982  -7.731   7.127  1.00  0.00    -0.000 C 
BRANCH  12  13
ATOM     13  C   UNL     1       5.988  -6.854   6.362  1.00  0.00    -0.000 C 
BRANCH  13  14
ATOM     14  C   UNL     1       5.340  -6.091   5.193  1.00  0.00    -0.000 C 
BRANCH  14  15
ATOM     15  C   UNL     1       5.667  -4.589   5.218  1.00  0.00    -0.003 C 
ATOM     16  C   UNL     1       5.004  -3.817   4.076  1.00  0.00     0.004 C 
ENDBRANCH  14  15
ENDBRANCH  13  14
ENDBRANCH  12  13
ENDBRANCH  11  12
ENDBRANCH  10  11
ENDBRANCH   1  10
TORSDOF 12
ENDMDL
MODEL 5
REMARK VINA RESULT:    -1.887      3.405      5.254
REMARK INTER + INTRA:          -3.873
REMARK INTER:                  -2.274
REMARK INTRA:                  -1.599
REMARK UNBOUND:                -0.662
REMARK SMILES CCCCCCCCCCCCCC(=O)[O-]
REMARK SMILES IDX 8 1 9 2 10 3 11 4 12 5 13 6 14 7 15 8 16 9 7 10 6 11 5 12
REMARK SMILES IDX 4 13 3 14 2 15 1 16
REMARK H PARENT
REMARK Flexibility Score: inf
ROOT
ATOM      1  C   UNL     1       3.830  -9.371   6.523  1.00  0.00     0.000 C 
ENDROOT
BRANCH   1   2
ATOM      2  C   UNL     1       5.307  -9.744   6.305  1.00  0.00     0.000 C 
BRANCH   2   3
ATOM      3  C   UNL     1       6.110  -8.590   5.679  1.00  0.00     0.000 C 
BRANCH   3   4
ATOM      4  C   UNL     1       5.657  -7.198   6.175  1.00  0.00     0.000 C 
BRANCH   4   5
ATOM      5  C   UNL     1       5.352  -6.208   5.038  1.00  0.00     0.006 C 
BRANCH   5   6
ATOM      6  C   UNL     1       5.359  -4.748   5.503  1.00  0.00     0.053 C 
BRANCH   6   7
ATOM      7  C   UNL     1       5.221  -3.824   4.334  1.00  0.00     0.041 C 
ATOM      8  O   UNL     1       6.246  -3.406   3.733  1.00  0.00    -0.550 OA
ATOM      9  O   UNL     1       3.959  -3.471   3.873  1.00  0.00    -0.550 OA
ENDBRANCH   6   7
ENDBRANCH   5   6
ENDBRANCH   4   5
ENDBRANCH   3   4
ENDBRANCH   2   3
ENDBRANCH   1   2
BRANCH   1  10
ATOM     10  C   UNL     1       3.395  -9.508   7.994  1.00  0.00     0.000 C 
BRANCH  10  11
ATOM     11  C   UNL     1       4.482 -10.077   8.928  1.00  0.00    -0.000 C 
BRANCH  11  12
ATOM     12  C   UNL     1       5.033  -9.025   9.908  1.00  0.00    -0.000 C 
BRANCH  12  13
ATOM     13  C   UNL     1       6.569  -9.027   9.978  1.00  0.00    -0.000 C 
BRANCH  13  14
ATOM     14  C   UNL     1       7.188  -7.721   9.449  1.00  0.00    -0.000 C 
BRANCH  14  15
ATOM     15  C   UNL     1       8.477  -7.963   8.647  1.00  0.00    -0.003 C 
ATOM     16  C   UNL     1       8.631  -9.415   8.193  1.00  0.00     0.004 C 
ENDBRANCH  14  15
ENDBRANCH  13  14
ENDBRANCH  12  13
ENDBRANCH  11  12
ENDBRANCH  10  11
ENDBRANCH   1  10
TORSDOF 12
ENDMDL
MODEL 6
REMARK VINA RESULT:    -1.805      2.801      4.685
REMARK INTER + INTRA:          -3.733
REMARK INTER:                  -2.144
REMARK INTRA:                  -1.588
REMARK UNBOUND:                -0.662
REMARK SMILES CCCCCCCCCCCCCC(=O)[O-]
REMARK SMILES IDX 8 1 9 2 10 3 11 4 12 5 13 6 14 7 15 8 16 9 7 10 6 11 5 12
REMARK SMILES IDX 4 13 3 14 2 15 1 16
REMARK H PARENT
REMARK Flexibility Score: inf
ROOT
ATOM      1  C   UNL     1       5.470 -10.018   8.819  1.00  0.00     0.000 C 
ENDROOT
BRANCH   1   2
ATOM      2  C   UNL     1       4.287 -10.072   7.836  1.00  0.00     0.000 C 
BRANCH   2   3
ATOM      3  C   UNL     1       4.670  -9.550   6.440  1.00  0.00     0.000 C 
BRANCH   3   4
ATOM      4  C   UNL     1       4.517  -8.018   6.303  1.00  0.00     0.000 C 
BRANCH   4   5
ATOM      5  C   UNL     1       5.714  -7.339   5.616  1.00  0.00     0.006 C 
BRANCH   5   6
ATOM      6  C   UNL     1       5.889  -5.876   6.037  1.00  0.00     0.053 C 
BRANCH   6   7
ATOM      7  C   UNL     1       5.362  -4.958   4.979  1.00  0.00     0.041 C 
ATOM      8  O   UNL     1       5.834  -3.797   4.855  1.00  0.00    -0.550 OA
ATOM      9  O   UNL     1       4.388  -5.405   4.094  1.00  0.00    -0.550 OA
ENDBRANCH   6   7
ENDBRANCH   5   6
ENDBRANCH   4   5
ENDBRANCH   3   4
ENDBRANCH   2   3
ENDBRANCH   1   2
BRANCH   1  10
ATOM     10  C   UNL     1       5.337  -8.879   9.846  1.00  0.00     0.000 C 
BRANCH  10  11
ATOM     11  C   UNL     1       6.649  -8.118  10.125  1.00  0.00    -0.000 C 
BRANCH  11  12
ATOM     12  C   UNL     1       7.305  -7.576   8.842  1.00  0.00    -0.000 C 
BRANCH  12  13
ATOM     13  C   UNL     1       8.812  -7.873   8.776  1.00  0.00    -0.000 C 
BRANCH  13  14
ATOM     14  C   UNL     1       9.113  -9.370   8.583  1.00  0.00    -0.000 C 
BRANCH  14  15
ATOM     15  C   UNL     1       9.632  -9.688   7.171  1.00  0.00    -0.003 C 
ATOM     16  C   UNL     1       8.526  -9.682   6.115  1.00  0.00     0.004 C 
ENDBRANCH  14  15
ENDBRANCH  13  14
ENDBRANCH  12  13
ENDBRANCH  11  12
ENDBRANCH  10  11
ENDBRANCH   1  10
TORSDOF 12
ENDMDL
MODEL 7
REMARK VINA RESULT:    -1.802      2.720      5.399
REMARK INTER + INTRA:          -3.728
REMARK INTER:                  -2.499
REMARK INTRA:                  -1.229
REMARK UNBOUND:                -0.662
REMARK SMILES CCCCCCCCCCCCCC(=O)[O-]
REMARK SMILES IDX 8 1 9 2 10 3 11 4 12 5 13 6 14 7 15 8 16 9 7 10 6 11 5 12
REMARK SMILES IDX 4 13 3 14 2 15 1 16
REMARK H PARENT
REMARK Flexibility Score: inf
ROOT
ATOM      1  C   UNL     1       5.633  -9.210  10.123  1.00  0.00     0.000 C 
ENDROOT
BRANCH   1   2
ATOM      2  C   UNL     1       6.024  -7.780   9.711  1.00  0.00     0.000 C 
BRANCH   2   3
ATOM      3  C   UNL     1       7.500  -7.682   9.288  1.00  0.00     0.000 C 
BRANCH   3   4
ATOM      4  C   UNL     1       8.417  -8.660  10.056  1.00  0.00     0.000 C 
BRANCH   4   5
ATOM      5  C   UNL     1       8.833  -9.890   9.231  1.00  0.00     0.006 C 
BRANCH   5   6
ATOM      6  C   UNL     1       9.932  -9.576   8.210  1.00  0.00     0.053 C 
BRANCH   6   7
ATOM      7  C   UNL     1       9.389  -9.643   6.817  1.00  0.00     0.041 C 
ATOM      8  O   UNL     1       8.243 -10.121   6.607  1.00  0.00    -0.550 OA
ATOM      9  O   UNL     1      10.125  -9.126   5.759  1.00  0.00    -0.550 OA
ENDBRANCH   6   7
ENDBRANCH   5   6
ENDBRANCH   4   5
ENDBRANCH   3   4
ENDBRANCH   2   3
ENDBRANCH   1   2
BRANCH   1  10
ATOM     10  C   UNL     1       4.576  -9.829   9.189  1.00  0.00     0.000 C 
BRANCH  10  11
ATOM     11  C   UNL     1       4.997  -9.892   7.707  1.00  0.00    -0.000 C 
BRANCH  11  12
ATOM     12  C   UNL     1       3.831  -9.594   6.746  1.00  0.00    -0.000 C 
BRANCH  12  13
ATOM     13  C   UNL     1       4.157  -8.468   5.751  1.00  0.00    -0.000 C 
BRANCH  13  14
ATOM     14  C   UNL     1       5.659  -8.141   5.697  1.00  0.00    -0.000 C 
BRANCH  14  15
ATOM     15  C   UNL     1       5.967  -6.708   6.163  1.00  0.00    -0.003 C 
ATOM     16  C   UNL     1       5.481  -5.644   5.178  1.00  0.00     0.004 C 
ENDBRANCH  14  15
ENDBRANCH  13  14
ENDBRANCH  12  13
ENDBRANCH  11  12
ENDBRANCH  10  11
ENDBRANCH   1  10
TORSDOF 12
ENDMDL
MODEL 8
REMARK VINA RESULT:     0.287      2.313      4.967
REMARK INTER + INTRA:          -0.173
REMARK INTER:                   0.562
REMARK INTRA:                  -0.735
REMARK UNBOUND:                -0.662
REMARK SMILES CCCCCCCCCCCCCC(=O)[O-]
REMARK SMILES IDX 8 1 9 2 10 3 11 4 12 5 13 6 14 7 15 8 16 9 7 10 6 11 5 12
REMARK SMILES IDX 4 13 3 14 2 15 1 16
REMARK H PARENT
REMARK Flexibility Score: inf
ROOT
ATOM      1  C   UNL     1       7.589  -9.932   6.371  1.00  0.00     0.000 C 
ENDROOT
BRANCH   1   2
ATOM      2  C   UNL     1       8.984  -9.821   5.731  1.00  0.00     0.000 C 
BRANCH   2   3
ATOM      3  C   UNL     1      10.081  -9.553   6.776  1.00  0.00     0.000 C 
BRANCH   3   4
ATOM      4  C   UNL     1       9.736 -10.115   8.174  1.00  0.00     0.000 C 
BRANCH   4   5
ATOM      5  C   UNL     1       9.558  -9.028   9.248  1.00  0.00     0.006 C 
BRANCH   5   6
ATOM      6  C   UNL     1       8.217  -9.131   9.982  1.00  0.00     0.053 C 
BRANCH   6   7
ATOM      7  C   UNL     1       7.240  -8.140   9.432  1.00  0.00     0.041 C 
ATOM      8  O   UNL     1       6.059  -8.106   9.868  1.00  0.00    -0.550 OA
ATOM      9  O   UNL     1       7.649  -7.216   8.479  1.00  0.00    -0.550 OA
ENDBRANCH   6   7
ENDBRANCH   5   6
ENDBRANCH   4   5
ENDBRANCH   3   4
ENDBRANCH   2   3
ENDBRANCH   1   2
BRANCH   1  10
ATOM     10  C   UNL     1       6.464 -10.046   5.326  1.00  0.00     0.000 C 
BRANCH  10  11
ATOM     11  C   UNL     1       5.045 -10.125   5.925  1.00  0.00    -0.000 C 
BRANCH  11  12
ATOM     12  C   UNL     1       4.708  -8.914   6.813  1.00  0.00    -0.000 C 
BRANCH  12  13
ATOM     13  C   UNL     1       4.520  -7.620   6.004  1.00  0.00    -0.000 C 
BRANCH  13  14
ATOM     14  C   UNL     1       5.828  -6.826   5.843  1.00  0.00    -0.000 C 
BRANCH  14  15
ATOM     15  C   UNL     1       5.618  -5.310   5.987  1.00  0.00    -0.003 C 
ATOM     16  C   UNL     1       5.522  -4.591   4.641  1.00  0.00     0.004 C 
ENDBRANCH  14  15
ENDBRANCH  13  14
ENDBRANCH  12  13
ENDBRANCH  11  12
ENDBRANCH  10  11
ENDBRANCH   1  10
TORSDOF 12
ENDMDL
