MODEL 1
REMARK VINA RESULT:    -1.588      0.000      0.000
REMARK INTER + INTRA:          -4.464
REMARK INTER:                  -3.074
REMARK INTRA:                  -1.390
REMARK UNBOUND:                -1.390
REMARK SMILES CCCCCCCCCCCCCCCCCC(=O)[O-]
REMARK SMILES IDX 10 1 11 2 12 3 13 4 14 5 15 6 16 7 17 8 18 9 19 10 20 11
REMARK SMILES IDX 9 12 8 13 7 14 6 15 5 16 4 17 3 18 2 19 1 20
REMARK H PARENT
REMARK Flexibility Score: inf
ROOT
ATOM      1  C   UNL     1     -20.590  -2.481   7.185  1.00  0.00     0.000 C 
ENDROOT
BRANCH   1   2
ATOM      2  C   UNL     1     -20.471  -2.807   8.682  1.00  0.00     0.000 C 
BRANCH   2   3
ATOM      3  C   UNL     1     -20.681  -1.573   9.576  1.00  0.00     0.000 C 
BRANCH   3   4
ATOM      4  C   UNL     1     -20.275  -1.832  11.043  1.00  0.00     0.000 C 
BRANCH   4   5
ATOM      5  C   UNL     1     -21.416  -2.401  11.909  1.00  0.00     0.000 C 
BRANCH   5   6
ATOM      6  C   UNL     1     -21.322  -2.067  13.410  1.00  0.00     0.000 C 
BRANCH   6   7
ATOM      7  C   UNL     1     -22.126  -0.826  13.852  1.00  0.00     0.006 C 
BRANCH   7   8
ATOM      8  C   UNL     1     -21.284   0.443  14.052  1.00  0.00     0.053 C 
BRANCH   8   9
ATOM      9  C   UNL     1     -21.531   1.455  12.976  1.00  0.00     0.041 C 
ATOM     10  O   UNL     1     -21.165   2.650  13.133  1.00  0.00    -0.550 OA
ATOM     11  O   UNL     1     -22.193   1.084  11.813  1.00  0.00    -0.550 OA
ENDBRANCH   8   9
ENDBRANCH   7   8
ENDBRANCH   6   7
ENDBRANCH   5   6
ENDBRANCH   4   5
ENDBRANCH   3   4
ENDBRANCH   2   3
ENDBRANCH   1   2
BRANCH   1  12
ATOM     12  C   UNL     1     -21.392  -1.197   6.923  1.00  0.00     0.000 C 
BRANCH  12  13
ATOM     13  C   UNL     1     -20.578  -0.204   6.078  1.00  0.00    -0.000 C 
BRANCH  13  14
ATOM     14  C   UNL     1     -20.279   1.106   6.824  1.00  0.00    -0.000 C 
BRANCH  14  15
ATOM     15  C   UNL     1     -21.557   1.866   7.220  1.00  0.00    -0.000 C 
BRANCH  15  16
ATOM     16  C   UNL     1     -21.764   1.916   8.743  1.00  0.00    -0.000 C 
BRANCH  16  17
ATOM     17  C   UNL     1     -22.545   3.163   9.191  1.00  0.00    -0.000 C 
BRANCH  17  18
ATOM     18  C   UNL     1     -22.429   4.331   8.193  1.00  0.00    -0.000 C 
BRANCH  18  19
ATOM     19  C   UNL     1     -22.192   5.711   8.833  1.00  0.00    -0.003 C 
ATOM     20  C   UNL     1     -20.822   5.837   9.496  1.00  0.00     0.004 C 
ENDBRANCH  18  19
ENDBRANCH  17  18
ENDBRANCH  16  17
ENDBRANCH  15  16
ENDBRANCH  14  15
ENDBRANCH  13  14
ENDBRANCH  12  13
ENDBRANCH   1  12
TORSDOF 16
ENDMDL
MODEL 2
REMARK VINA RESULT:    -1.440      1.975      5.948
REMARK INTER + INTRA:          -4.178
REMARK INTER:                  -3.454
REMARK INTRA:                  -0.724
REMARK UNBOUND:                -1.390
REMARK SMILES CCCCCCCCCCCCCCCCCC(=O)[O-]
REMARK SMILES IDX 10 1 11 2 12 3 13 4 14 5 15 6 16 7 17 8 18 9 19 10 20 11
REMARK SMILES IDX 9 12 8 13 7 14 6 15 5 16 4 17 3 18 2 19 1 20
REMARK H PARENT
REMARK Flexibility Score: inf
ROOT
ATOM      1  C   UNL     1     -21.508   0.856   6.173  1.00  0.00     0.000 C 
ENDROOT
BRANCH   1   2
ATOM      2  C   UNL     1     -20.970   1.844   7.220  1.00  0.00     0.000 C 
BRANCH   2   3
ATOM      3  C   UNL     1     -22.008   2.907   7.622  1.00  0.00     0.000 C 
BRANCH   3   4
ATOM      4  C   UNL     1     -22.164   3.028   9.153  1.00  0.00     0.000 C 
BRANCH   4   5
ATOM      5  C   UNL     1     -22.672   1.740   9.828  1.00  0.00     0.000 C 
BRANCH   5   6
ATOM      6  C   UNL     1     -21.745   1.164  10.914  1.00  0.00     0.000 C 
BRANCH   6   7
ATOM      7  C   UNL     1     -22.112   1.558  12.360  1.00  0.00     0.006 C 
BRANCH   7   8
ATOM      8  C   UNL     1     -21.270   0.868  13.444  1.00  0.00     0.053 C 
BRANCH   8   9
ATOM      9  C   UNL     1     -21.649  -0.570  13.618  1.00  0.00     0.041 C 
ATOM     10  O   UNL     1     -22.435  -0.911  14.541  1.00  0.00    -0.550 OA
ATOM     11  O   UNL     1     -21.112  -1.537  12.779  1.00  0.00    -0.550 OA
ENDBRANCH   8   9
ENDBRANCH   7   8
ENDBRANCH   6   7
ENDBRANCH   5   6
ENDBRANCH   4   5
ENDBRANCH   3   4
ENDBRANCH   2   3
ENDBRANCH   1   2
BRANCH   1  12
ATOM     12  C   UNL     1     -20.687  -0.441   6.108  1.00  0.00     0.000 C 
BRANCH  12  13
ATOM     13  C   UNL     1     -21.197  -1.465   7.134  1.00  0.00    -0.000 C 
BRANCH  13  14
ATOM     14  C   UNL     1     -20.764  -1.134   8.571  1.00  0.00    -0.000 C 
BRANCH  14  15
ATOM     15  C   UNL     1     -20.739  -2.374   9.482  1.00  0.00    -0.000 C 
BRANCH  15  16
ATOM     16  C   UNL     1     -19.616  -3.356   9.107  1.00  0.00    -0.000 C 
BRANCH  16  17
ATOM     17  C   UNL     1     -19.976  -4.225   7.890  1.00  0.00    -0.000 C 
BRANCH  17  18
ATOM     18  C   UNL     1     -20.123  -5.717   8.244  1.00  0.00    -0.000 C 
BRANCH  18  19
ATOM     19  C   UNL     1     -21.502  -6.325   7.931  1.00  0.00    -0.003 C 
ATOM     20  C   UNL     1     -22.434  -6.350   9.141  1.00  0.00     0.004 C 
ENDBRANCH  18  19
ENDBRANCH  17  18
ENDBRANCH  16  17
ENDBRANCH  15  16
ENDBRANCH  14  15
ENDBRANCH  13  14
ENDBRANCH  12  13
ENDBRANCH   1  12
TORSDOF 16
ENDMDL
MODEL 3
REMARK VINA RESULT:    -1.388      2.520      7.188
REMARK INTER + INTRA:          -4.077
REMARK INTER:                  -2.279
REMARK INTRA:                  -1.798
REMARK UNBOUND:                -1.390
REMARK SMILES CCCCCCCCCCCCCCCCCC(=O)[O-]
REMARK SMILES IDX 10 1 11 2 12 3 13 4 14 5 15 6 16 7 17 8 18 9 19 10 20 11
REMARK SMILES IDX 9 12 8 13 7 14 6 15 5 16 4 17 3 18 2 19 1 20
REMARK H PARENT
REMARK Flexibility Score: inf
ROOT
ATOM      1  C   UNL     1     -22.172   0.092  13.640  1.00  0.00     0.000 C 
ENDROOT
BRANCH   1   2
ATOM      2  C   UNL     1     -21.408   1.424  13.577  1.00  0.00     0.000 C 
BRANCH   2   3
ATOM      3  C   UNL     1     -21.333   1.998  12.152  1.00  0.00     0.000 C 
BRANCH   3   4
ATOM      4  C   UNL     1     -22.428   1.424  11.227  1.00  0.00     0.000 C 
BRANCH   4   5
ATOM      5  C   UNL     1     -21.938   1.125   9.797  1.00  0.00     0.000 C 
BRANCH   5   6
ATOM      6  C   UNL     1     -21.929   2.337   8.846  1.00  0.00     0.000 C 
BRANCH   6   7
ATOM      7  C   UNL     1     -21.640   2.002   7.368  1.00  0.00     0.006 C 
BRANCH   7   8
ATOM      8  C   UNL     1     -20.476   1.022   7.151  1.00  0.00     0.053 C 
BRANCH   8   9
ATOM      9  C   UNL     1     -20.905  -0.201   6.400  1.00  0.00     0.041 C 
ATOM     10  O   UNL     1     -22.084  -0.630   6.508  1.00  0.00    -0.550 OA
ATOM     11  O   UNL     1     -19.994  -0.883   5.605  1.00  0.00    -0.550 OA
ENDBRANCH   8   9
ENDBRANCH   7   8
ENDBRANCH   6   7
ENDBRANCH   5   6
ENDBRANCH   4   5
ENDBRANCH   3   4
ENDBRANCH   2   3
ENDBRANCH   1   2
BRANCH   1  12
ATOM     12  C   UNL     1     -21.242  -1.111  13.867  1.00  0.00     0.000 C 
BRANCH  12  13
ATOM     13  C   UNL     1     -21.384  -2.135  12.729  1.00  0.00    -0.000 C 
BRANCH  13  14
ATOM     14  C   UNL     1     -20.365  -1.914  11.599  1.00  0.00    -0.000 C 
BRANCH  14  15
ATOM     15  C   UNL     1     -21.000  -2.020  10.202  1.00  0.00    -0.000 C 
BRANCH  15  16
ATOM     16  C   UNL     1     -19.977  -2.400   9.118  1.00  0.00    -0.000 C 
BRANCH  16  17
ATOM     17  C   UNL     1     -20.514  -3.470   8.152  1.00  0.00    -0.000 C 
BRANCH  17  18
ATOM     18  C   UNL     1     -19.611  -4.716   8.077  1.00  0.00    -0.000 C 
BRANCH  18  19
ATOM     19  C   UNL     1     -20.362  -6.058   8.002  1.00  0.00    -0.003 C 
ATOM     20  C   UNL     1     -21.695  -6.042   8.748  1.00  0.00     0.004 C 
ENDBRANCH  18  19
ENDBRANCH  17  18
ENDBRANCH  16  17
ENDBRANCH  15  16
ENDBRANCH  14  15
ENDBRANCH  13  14
ENDBRANCH  12  13
ENDBRANCH   1  12
TORSDOF 16
ENDMDL
MODEL 4
REMARK VINA RESULT:    -1.318      1.765      3.841
REMARK INTER + INTRA:          -3.942
REMARK INTER:                  -2.991
REMARK INTRA:                  -0.951
REMARK UNBOUND:                -1.390
REMARK SMILES CCCCCCCCCCCCCCCCCC(=O)[O-]
REMARK SMILES IDX 10 1 11 2 12 3 13 4 14 5 15 6 16 7 17 8 18 9 19 10 20 11
REMARK SMILES IDX 9 12 8 13 7 14 6 15 5 16 4 17 3 18 2 19 1 20
REMARK H PARENT
REMARK Flexibility Score: inf
ROOT
ATOM      1  C   UNL     1     -21.276   1.793   7.301  1.00  0.00     0.000 C 
ENDROOT
BRANCH   1   2
ATOM      2  C   UNL     1     -21.526   0.527   6.467  1.00  0.00     0.000 C 
BRANCH   2   3
ATOM      3  C   UNL     1     -20.434  -0.539   6.665  1.00  0.00     0.000 C 
BRANCH   3   4
ATOM      4  C   UNL     1     -20.987  -1.839   7.289  1.00  0.00     0.000 C 
BRANCH   4   5
ATOM      5  C   UNL     1     -20.382  -2.170   8.667  1.00  0.00     0.000 C 
BRANCH   5   6
ATOM      6  C   UNL     1     -20.969  -1.369   9.845  1.00  0.00     0.000 C 
BRANCH   6   7
ATOM      7  C   UNL     1     -20.314  -1.649  11.213  1.00  0.00     0.006 C 
BRANCH   7   8
ATOM      8  C   UNL     1     -21.304  -1.783  12.381  1.00  0.00     0.053 C 
BRANCH   8   9
ATOM      9  C   UNL     1     -21.352  -0.543  13.220  1.00  0.00     0.041 C 
ATOM     10  O   UNL     1     -21.785   0.535  12.733  1.00  0.00    -0.550 OA
ATOM     11  O   UNL     1     -20.892  -0.572  14.529  1.00  0.00    -0.550 OA
ENDBRANCH   8   9
ENDBRANCH   7   8
ENDBRANCH   6   7
ENDBRANCH   5   6
ENDBRANCH   4   5
ENDBRANCH   3   4
ENDBRANCH   2   3
ENDBRANCH   1   2
BRANCH   1  12
ATOM     12  C   UNL     1     -21.757   1.648   8.753  1.00  0.00     0.000 C 
BRANCH  12  13
ATOM     13  C   UNL     1     -22.555   2.885   9.193  1.00  0.00    -0.000 C 
BRANCH  13  14
ATOM     14  C   UNL     1     -22.375   4.079   8.242  1.00  0.00    -0.000 C 
BRANCH  14  15
ATOM     15  C   UNL     1     -22.154   5.405   8.991  1.00  0.00    -0.000 C 
BRANCH  15  16
ATOM     16  C   UNL     1     -20.760   6.000   8.734  1.00  0.00    -0.000 C 
BRANCH  16  17
ATOM     17  C   UNL     1     -20.029   6.368  10.037  1.00  0.00    -0.000 C 
BRANCH  17  18
ATOM     18  C   UNL     1     -18.546   6.720   9.812  1.00  0.00    -0.000 C 
BRANCH  18  19
ATOM     19  C   UNL     1     -18.258   8.220   9.618  1.00  0.00    -0.003 C 
ATOM     20  C   UNL     1     -16.775   8.524   9.412  1.00  0.00     0.004 C 
ENDBRANCH  18  19
ENDBRANCH  17  18
ENDBRANCH  16  17
ENDBRANCH  15  16
ENDBRANCH  14  15
ENDBRANCH  13  14
ENDBRANCH  12  13
ENDBRANCH   1  12
TORSDOF 16
ENDMDL
MODEL 5
REMARK VINA RESULT:    -1.282      2.053      5.000
REMARK INTER + INTRA:          -3.871
REMARK INTER:                  -2.543
REMARK INTRA:                  -1.328
REMARK UNBOUND:                -1.390
REMARK SMILES CCCCCCCCCCCCCCCCCC(=O)[O-]
REMARK SMILES IDX 10 1 11 2 12 3 13 4 14 5 15 6 16 7 17 8 18 9 19 10 20 11
REMARK SMILES IDX 9 12 8 13 7 14 6 15 5 16 4 17 3 18 2 19 1 20
REMARK H PARENT
REMARK Flexibility Score: inf
ROOT
ATOM      1  C   UNL     1     -21.971  -1.130  14.171  1.00  0.00     0.000 C 
ENDROOT
BRANCH   1   2
ATOM      2  C   UNL     1     -21.748  -2.227  13.119  1.00  0.00     0.000 C 
BRANCH   2   3
ATOM      3  C   UNL     1     -20.670  -1.849  12.088  1.00  0.00     0.000 C 
BRANCH   3   4
ATOM      4  C   UNL     1     -21.132  -2.092  10.635  1.00  0.00     0.000 C 
BRANCH   4   5
ATOM      5  C   UNL     1     -19.976  -2.146   9.618  1.00  0.00     0.000 C 
BRANCH   5   6
ATOM      6  C   UNL     1     -20.296  -2.891   8.308  1.00  0.00     0.000 C 
BRANCH   6   7
ATOM      7  C   UNL     1     -20.919  -2.019   7.198  1.00  0.00     0.006 C 
BRANCH   7   8
ATOM      8  C   UNL     1     -21.388  -0.632   7.664  1.00  0.00     0.053 C 
BRANCH   8   9
ATOM      9  C   UNL     1     -21.099   0.429   6.646  1.00  0.00     0.041 C 
ATOM     10  O   UNL     1     -21.812   0.527   5.613  1.00  0.00    -0.550 OA
ATOM     11  O   UNL     1     -20.024   1.289   6.825  1.00  0.00    -0.550 OA
ENDBRANCH   8   9
ENDBRANCH   7   8
ENDBRANCH   6   7
ENDBRANCH   5   6
ENDBRANCH   4   5
ENDBRANCH   3   4
ENDBRANCH   2   3
ENDBRANCH   1   2
BRANCH   1  12
ATOM     12  C   UNL     1     -21.010   0.056  14.000  1.00  0.00     0.000 C 
BRANCH  12  13
ATOM     13  C   UNL     1     -21.777   1.335  13.629  1.00  0.00    -0.000 C 
BRANCH  13  14
ATOM     14  C   UNL     1     -21.413   1.863  12.232  1.00  0.00    -0.000 C 
BRANCH  14  15
ATOM     15  C   UNL     1     -22.383   1.371  11.143  1.00  0.00    -0.000 C 
BRANCH  15  16
ATOM     16  C   UNL     1     -21.963   1.825   9.734  1.00  0.00    -0.000 C 
BRANCH  16  17
ATOM     17  C   UNL     1     -22.913   2.886   9.152  1.00  0.00    -0.000 C 
BRANCH  17  18
ATOM     18  C   UNL     1     -22.187   3.913   8.262  1.00  0.00    -0.000 C 
BRANCH  18  19
ATOM     19  C   UNL     1     -22.292   5.373   8.738  1.00  0.00    -0.003 C 
ATOM     20  C   UNL     1     -20.968   5.931   9.258  1.00  0.00     0.004 C 
ENDBRANCH  18  19
ENDBRANCH  17  18
ENDBRANCH  16  17
ENDBRANCH  15  16
ENDBRANCH  14  15
ENDBRANCH  13  14
ENDBRANCH  12  13
ENDBRANCH   1  12
TORSDOF 16
ENDMDL
MODEL 6
REMARK VINA RESULT:    -1.245      2.037      5.888
REMARK INTER + INTRA:          -3.801
REMARK INTER:                  -2.856
REMARK INTRA:                  -0.945
REMARK UNBOUND:                -1.390
REMARK SMILES CCCCCCCCCCCCCCCCCC(=O)[O-]
REMARK SMILES IDX 10 1 11 2 12 3 13 4 14 5 15 6 16 7 17 8 18 9 19 10 20 11
REMARK SMILES IDX 9 12 8 13 7 14 6 15 5 16 4 17 3 18 2 19 1 20
REMARK H PARENT
REMARK Flexibility Score: inf
ROOT
ATOM      1  C   UNL     1     -20.986   1.382   7.540  1.00  0.00     0.000 C 
ENDROOT
BRANCH   1   2
ATOM      2  C   UNL     1     -21.769   2.684   7.770  1.00  0.00     0.000 C 
BRANCH   2   3
ATOM      3  C   UNL     1     -22.492   2.709   9.128  1.00  0.00     0.000 C 
BRANCH   3   4
ATOM      4  C   UNL     1     -22.139   1.489  10.006  1.00  0.00     0.000 C 
BRANCH   4   5
ATOM      5  C   UNL     1     -21.591   1.865  11.396  1.00  0.00     0.000 C 
BRANCH   5   6
ATOM      6  C   UNL     1     -22.284   1.165  12.580  1.00  0.00     0.000 C 
BRANCH   6   7
ATOM      7  C   UNL     1     -21.330   0.474  13.577  1.00  0.00     0.006 C 
BRANCH   7   8
ATOM      8  C   UNL     1     -21.713  -0.972  13.929  1.00  0.00     0.053 C 
BRANCH   8   9
ATOM      9  C   UNL     1     -21.372  -1.927  12.827  1.00  0.00     0.041 C 
ATOM     10  O   UNL     1     -20.625  -1.563  11.881  1.00  0.00    -0.550 OA
ATOM     11  O   UNL     1     -21.904  -3.210  12.829  1.00  0.00    -0.550 OA
ENDBRANCH   8   9
ENDBRANCH   7   8
ENDBRANCH   6   7
ENDBRANCH   5   6
ENDBRANCH   4   5
ENDBRANCH   3   4
ENDBRANCH   2   3
ENDBRANCH   1   2
BRANCH   1  12
ATOM     12  C   UNL     1     -21.368   0.689   6.222  1.00  0.00     0.000 C 
BRANCH  12  13
ATOM     13  C   UNL     1     -21.928  -0.718   6.485  1.00  0.00    -0.000 C 
BRANCH  13  14
ATOM     14  C   UNL     1     -20.847  -1.716   6.927  1.00  0.00    -0.000 C 
BRANCH  14  15
ATOM     15  C   UNL     1     -20.627  -1.714   8.451  1.00  0.00    -0.000 C 
BRANCH  15  16
ATOM     16  C   UNL     1     -20.218  -3.095   8.988  1.00  0.00    -0.000 C 
BRANCH  16  17
ATOM     17  C   UNL     1     -20.041  -4.133   7.867  1.00  0.00    -0.000 C 
BRANCH  17  18
ATOM     18  C   UNL     1     -20.139  -5.585   8.374  1.00  0.00    -0.000 C 
BRANCH  18  19
ATOM     19  C   UNL     1     -21.403  -6.342   7.932  1.00  0.00    -0.003 C 
ATOM     20  C   UNL     1     -22.465  -6.426   9.027  1.00  0.00     0.004 C 
ENDBRANCH  18  19
ENDBRANCH  17  18
ENDBRANCH  16  17
ENDBRANCH  15  16
ENDBRANCH  14  15
ENDBRANCH  13  14
ENDBRANCH  12  13
ENDBRANCH   1  12
TORSDOF 16
ENDMDL
MODEL 7
REMARK VINA RESULT:    -1.189      1.763      5.671
REMARK INTER + INTRA:          -3.692
REMARK INTER:                  -2.633
REMARK INTRA:                  -1.059
REMARK UNBOUND:                -1.390
REMARK SMILES CCCCCCCCCCCCCCCCCC(=O)[O-]
REMARK SMILES IDX 10 1 11 2 12 3 13 4 14 5 15 6 16 7 17 8 18 9 19 10 20 11
REMARK SMILES IDX 9 12 8 13 7 14 6 15 5 16 4 17 3 18 2 19 1 20
REMARK H PARENT
REMARK Flexibility Score: inf
ROOT
ATOM      1  C   UNL     1     -20.655  -0.405   6.132  1.00  0.00     0.000 C 
ENDROOT
BRANCH   1   2
ATOM      2  C   UNL     1     -21.457   0.906   6.146  1.00  0.00     0.000 C 
BRANCH   2   3
ATOM      3  C   UNL     1     -21.058   1.832   7.309  1.00  0.00     0.000 C 
BRANCH   3   4
ATOM      4  C   UNL     1     -21.860   1.539   8.596  1.00  0.00     0.000 C 
BRANCH   4   5
ATOM      5  C   UNL     1     -22.590   2.771   9.164  1.00  0.00     0.000 C 
BRANCH   5   6
ATOM      6  C   UNL     1     -22.513   4.036   8.288  1.00  0.00     0.000 C 
BRANCH   6   7
ATOM      7  C   UNL     1     -22.144   5.330   9.043  1.00  0.00     0.006 C 
BRANCH   7   8
ATOM      8  C   UNL     1     -20.832   5.985   8.585  1.00  0.00     0.053 C 
BRANCH   8   9
ATOM      9  C   UNL     1     -19.929   6.298   9.739  1.00  0.00     0.041 C 
ATOM     10  O   UNL     1     -20.024   5.648  10.813  1.00  0.00    -0.550 OA
ATOM     11  O   UNL     1     -19.003   7.328   9.637  1.00  0.00    -0.550 OA
ENDBRANCH   8   9
ENDBRANCH   7   8
ENDBRANCH   6   7
ENDBRANCH   5   6
ENDBRANCH   4   5
ENDBRANCH   3   4
ENDBRANCH   2   3
ENDBRANCH   1   2
BRANCH   1  12
ATOM     12  C   UNL     1     -21.363  -1.537   6.892  1.00  0.00     0.000 C 
BRANCH  12  13
ATOM     13  C   UNL     1     -20.526  -1.994   8.098  1.00  0.00    -0.000 C 
BRANCH  13  14
ATOM     14  C   UNL     1     -20.914  -1.273   9.399  1.00  0.00    -0.000 C 
BRANCH  14  15
ATOM     15  C   UNL     1     -20.263  -1.905  10.642  1.00  0.00    -0.000 C 
BRANCH  15  16
ATOM     16  C   UNL     1     -21.285  -2.205  11.752  1.00  0.00    -0.000 C 
BRANCH  16  17
ATOM     17  C   UNL     1     -20.852  -1.642  13.117  1.00  0.00    -0.000 C 
BRANCH  17  18
ATOM     18  C   UNL     1     -21.944  -0.783  13.783  1.00  0.00    -0.000 C 
BRANCH  18  19
ATOM     19  C   UNL     1     -21.696   0.736  13.731  1.00  0.00    -0.003 C 
ATOM     20  C   UNL     1     -21.802   1.312  12.320  1.00  0.00     0.004 C 
ENDBRANCH  18  19
ENDBRANCH  17  18
ENDBRANCH  16  17
ENDBRANCH  15  16
ENDBRANCH  14  15
ENDBRANCH  13  14
ENDBRANCH  12  13
ENDBRANCH   1  12
TORSDOF 16
ENDMDL
MODEL 8
REMARK VINA RESULT:    -1.137      1.189      2.559
REMARK INTER + INTRA:          -3.590
REMARK INTER:                  -2.362
REMARK INTRA:                  -1.229
REMARK UNBOUND:                -1.390
REMARK SMILES CCCCCCCCCCCCCCCCCC(=O)[O-]
REMARK SMILES IDX 10 1 11 2 12 3 13 4 14 5 15 6 16 7 17 8 18 9 19 10 20 11
REMARK SMILES IDX 9 12 8 13 7 14 6 15 5 16 4 17 3 18 2 19 1 20
REMARK H PARENT
REMARK Flexibility Score: inf
ROOT
ATOM      1  C   UNL     1     -21.085  -0.082   6.386  1.00  0.00     0.000 C 
ENDROOT
BRANCH   1   2
ATOM      2  C   UNL     1     -21.579  -1.376   7.053  1.00  0.00     0.000 C 
BRANCH   2   3
ATOM      3  C   UNL     1     -20.561  -2.525   6.941  1.00  0.00     0.000 C 
BRANCH   3   4
ATOM      4  C   UNL     1     -20.291  -3.207   8.300  1.00  0.00     0.000 C 
BRANCH   4   5
ATOM      5  C   UNL     1     -20.142  -2.216   9.470  1.00  0.00     0.000 C 
BRANCH   5   6
ATOM      6  C   UNL     1     -21.094  -2.461  10.656  1.00  0.00     0.000 C 
BRANCH   6   7
ATOM      7  C   UNL     1     -20.614  -1.887  12.006  1.00  0.00     0.006 C 
BRANCH   7   8
ATOM      8  C   UNL     1     -21.742  -1.548  12.992  1.00  0.00     0.053 C 
BRANCH   8   9
ATOM      9  C   UNL     1     -21.501  -0.246  13.693  1.00  0.00     0.041 C 
ATOM     10  O   UNL     1     -21.058  -0.234  14.872  1.00  0.00    -0.550 OA
ATOM     11  O   UNL     1     -21.793   0.952  13.055  1.00  0.00    -0.550 OA
ENDBRANCH   8   9
ENDBRANCH   7   8
ENDBRANCH   6   7
ENDBRANCH   5   6
ENDBRANCH   4   5
ENDBRANCH   3   4
ENDBRANCH   2   3
ENDBRANCH   1   2
BRANCH   1  12
ATOM     12  C   UNL     1     -20.749   1.016   7.408  1.00  0.00     0.000 C 
BRANCH  12  13
ATOM     13  C   UNL     1     -21.431   0.738   8.757  1.00  0.00    -0.000 C 
BRANCH  13  14
ATOM     14  C   UNL     1     -22.153   1.970   9.324  1.00  0.00    -0.000 C 
BRANCH  14  15
ATOM     15  C   UNL     1     -21.844   3.253   8.533  1.00  0.00    -0.000 C 
BRANCH  15  16
ATOM     16  C   UNL     1     -22.989   4.278   8.603  1.00  0.00    -0.000 C 
BRANCH  16  17
ATOM     17  C   UNL     1     -22.478   5.727   8.678  1.00  0.00    -0.000 C 
BRANCH  17  18
ATOM     18  C   UNL     1     -20.941   5.822   8.628  1.00  0.00    -0.000 C 
BRANCH  18  19
ATOM     19  C   UNL     1     -20.268   6.153   9.973  1.00  0.00    -0.003 C 
ATOM     20  C   UNL     1     -18.921   6.855   9.812  1.00  0.00     0.004 C 
ENDBRANCH  18  19
ENDBRANCH  17  18
ENDBRANCH  16  17
ENDBRANCH  15  16
ENDBRANCH  14  15
ENDBRANCH  13  14
ENDBRANCH  12  13
ENDBRANCH   1  12
TORSDOF 16
ENDMDL
MODEL 9
REMARK VINA RESULT:    -0.899      3.081      6.436
REMARK INTER + INTRA:          -3.130
REMARK INTER:                  -1.792
REMARK INTRA:                  -1.338
REMARK UNBOUND:                -1.390
REMARK SMILES CCCCCCCCCCCCCCCCCC(=O)[O-]
REMARK SMILES IDX 10 1 11 2 12 3 13 4 14 5 15 6 16 7 17 8 18 9 19 10 20 11
REMARK SMILES IDX 9 12 8 13 7 14 6 15 5 16 4 17 3 18 2 19 1 20
REMARK H PARENT
REMARK Flexibility Score: inf
ROOT
ATOM      1  C   UNL     1     -21.640   2.775   7.547  1.00  0.00     0.000 C 
ENDROOT
BRANCH   1   2
ATOM      2  C   UNL     1     -20.927   1.444   7.259  1.00  0.00     0.000 C 
BRANCH   2   3
ATOM      3  C   UNL     1     -21.586   0.655   6.114  1.00  0.00     0.000 C 
BRANCH   3   4
ATOM      4  C   UNL     1     -21.855  -0.818   6.491  1.00  0.00     0.000 C 
BRANCH   4   5
ATOM      5  C   UNL     1     -20.634  -1.535   7.097  1.00  0.00     0.000 C 
BRANCH   5   6
ATOM      6  C   UNL     1     -20.732  -1.826   8.607  1.00  0.00     0.000 C 
BRANCH   6   7
ATOM      7  C   UNL     1     -20.257  -3.232   9.031  1.00  0.00     0.006 C 
BRANCH   7   8
ATOM      8  C   UNL     1     -20.099  -4.229   7.872  1.00  0.00     0.053 C 
BRANCH   8   9
ATOM      9  C   UNL     1     -20.417  -5.631   8.293  1.00  0.00     0.041 C 
ATOM     10  O   UNL     1     -19.522  -6.517   8.274  1.00  0.00    -0.550 OA
ATOM     11  O   UNL     1     -21.709  -5.965   8.678  1.00  0.00    -0.550 OA
ENDBRANCH   8   9
ENDBRANCH   7   8
ENDBRANCH   6   7
ENDBRANCH   5   6
ENDBRANCH   4   5
ENDBRANCH   3   4
ENDBRANCH   2   3
ENDBRANCH   1   2
BRANCH   1  12
ATOM     12  C   UNL     1     -22.492   2.723   8.825  1.00  0.00     0.000 C 
BRANCH  12  13
ATOM     13  C   UNL     1     -22.130   1.495   9.676  1.00  0.00    -0.000 C 
BRANCH  13  14
ATOM     14  C   UNL     1     -21.521   1.872  11.036  1.00  0.00    -0.000 C 
BRANCH  14  15
ATOM     15  C   UNL     1     -22.278   1.241  12.218  1.00  0.00    -0.000 C 
BRANCH  15  16
ATOM     16  C   UNL     1     -21.520   1.390  13.548  1.00  0.00    -0.000 C 
BRANCH  16  17
ATOM     17  C   UNL     1     -21.035   0.040  14.103  1.00  0.00    -0.000 C 
BRANCH  17  18
ATOM     18  C   UNL     1     -22.090  -1.075  13.970  1.00  0.00    -0.000 C 
BRANCH  18  19
ATOM     19  C   UNL     1     -21.749  -2.171  12.945  1.00  0.00    -0.003 C 
ATOM     20  C   UNL     1     -20.505  -1.853  12.118  1.00  0.00     0.004 C 
ENDBRANCH  18  19
ENDBRANCH  17  18
ENDBRANCH  16  17
ENDBRANCH  15  16
ENDBRANCH  14  15
ENDBRANCH  13  14
ENDBRANCH  12  13
ENDBRANCH   1  12
TORSDOF 16
ENDMDL
