MODEL 1
REMARK VINA RESULT:    -6.534      0.000      0.000
REMARK INTER + INTRA:         -19.556
REMARK INTER:                 -16.465
REMARK INTRA:                  -3.092
REMARK UNBOUND:                -3.092
REMARK SMILES CCCCCCCCCCCCCCCCCCCCCCCCCCCC(=O)[O-]
REMARK SMILES IDX 15 1 16 2 17 3 18 4 19 5 20 6 21 7 22 8 23 9 24 10 25 11
REMARK SMILES IDX 26 12 27 13 28 14 29 15 30 16 14 17 13 18 12 19 11 20 10 21
REMARK SMILES IDX 9 22 8 23 7 24 6 25 5 26 4 27 3 28 2 29 1 30
REMARK H PARENT
REMARK Flexibility Score: inf
ROOT
ATOM      1  C   UNL     1      12.875   2.224  17.105  1.00  0.00     0.000 C 
ENDROOT
BRANCH   1   2
ATOM      2  C   UNL     1      13.431   2.200  18.543  1.00  0.00     0.000 C 
BRANCH   2   3
ATOM      3  C   UNL     1      14.590   1.209  18.774  1.00  0.00     0.000 C 
BRANCH   3   4
ATOM      4  C   UNL     1      14.368   0.203  19.921  1.00  0.00     0.000 C 
BRANCH   4   5
ATOM      5  C   UNL     1      15.430  -0.906  20.025  1.00  0.00     0.000 C 
BRANCH   5   6
ATOM      6  C   UNL     1      16.351  -0.961  18.793  1.00  0.00     0.000 C 
BRANCH   6   7
ATOM      7  C   UNL     1      16.710  -2.401  18.392  1.00  0.00     0.000 C 
BRANCH   7   8
ATOM      8  C   UNL     1      15.923  -2.879  17.160  1.00  0.00     0.000 C 
BRANCH   8   9
ATOM      9  C   UNL     1      15.567  -1.723  16.211  1.00  0.00     0.000 C 
BRANCH   9  10
ATOM     10  C   UNL     1      16.290  -1.837  14.859  1.00  0.00     0.000 C 
BRANCH  10  11
ATOM     11  C   UNL     1      17.653  -1.127  14.859  1.00  0.00     0.000 C 
BRANCH  11  12
ATOM     12  C   UNL     1      18.814  -2.096  14.573  1.00  0.00     0.006 C 
BRANCH  12  13
ATOM     13  C   UNL     1      19.522  -2.557  15.855  1.00  0.00     0.053 C 
BRANCH  13  14
ATOM     14  C   UNL     1      20.810  -1.825  16.076  1.00  0.00     0.041 C 
ATOM     15  O   UNL     1      21.887  -2.464  16.208  1.00  0.00    -0.550 OA
ATOM     16  O   UNL     1      20.824  -0.436  16.125  1.00  0.00    -0.550 OA
ENDBRANCH  13  14
ENDBRANCH  12  13
ENDBRANCH  11  12
ENDBRANCH  10  11
ENDBRANCH   9  10
ENDBRANCH   8   9
ENDBRANCH   7   8
ENDBRANCH   6   7
ENDBRANCH   5   6
ENDBRANCH   4   5
ENDBRANCH   3   4
ENDBRANCH   2   3
ENDBRANCH   1   2
BRANCH   1  17
ATOM     17  C   UNL     1      13.403   1.107  16.182  1.00  0.00     0.000 C 
BRANCH  17  18
ATOM     18  C   UNL     1      13.592   1.512  14.708  1.00  0.00     0.000 C 
BRANCH  18  19
ATOM     19  C   UNL     1      15.061   1.488  14.267  1.00  0.00     0.000 C 
BRANCH  19  20
ATOM     20  C   UNL     1      15.188   1.785  12.765  1.00  0.00     0.000 C 
BRANCH  20  21
ATOM     21  C   UNL     1      15.422   0.521  11.918  1.00  0.00     0.000 C 
BRANCH  21  22
ATOM     22  C   UNL     1      16.784   0.459  11.197  1.00  0.00    -0.000 C 
BRANCH  22  23
ATOM     23  C   UNL     1      17.315  -0.962  10.929  1.00  0.00    -0.000 C 
BRANCH  23  24
ATOM     24  C   UNL     1      17.533  -1.303   9.441  1.00  0.00    -0.000 C 
BRANCH  24  25
ATOM     25  C   UNL     1      18.132  -0.139   8.622  1.00  0.00    -0.000 C 
BRANCH  25  26
ATOM     26  C   UNL     1      18.659  -0.595   7.251  1.00  0.00    -0.000 C 
BRANCH  26  27
ATOM     27  C   UNL     1      20.195  -0.635   7.185  1.00  0.00    -0.000 C 
BRANCH  27  28
ATOM     28  C   UNL     1      20.757  -2.024   6.816  1.00  0.00    -0.000 C 
BRANCH  28  29
ATOM     29  C   UNL     1      21.885  -1.931   5.779  1.00  0.00    -0.003 C 
ATOM     30  C   UNL     1      22.733  -3.199   5.770  1.00  0.00     0.004 C 
ENDBRANCH  28  29
ENDBRANCH  27  28
ENDBRANCH  26  27
ENDBRANCH  25  26
ENDBRANCH  24  25
ENDBRANCH  23  24
ENDBRANCH  22  23
ENDBRANCH  21  22
ENDBRANCH  20  21
ENDBRANCH  19  20
ENDBRANCH  18  19
ENDBRANCH  17  18
ENDBRANCH   1  17
TORSDOF 26
ENDMDL
MODEL 2
REMARK VINA RESULT:    -6.344      1.001      2.381
REMARK INTER + INTRA:         -19.078
REMARK INTER:                 -16.488
REMARK INTRA:                  -2.589
REMARK UNBOUND:                -3.092
REMARK SMILES CCCCCCCCCCCCCCCCCCCCCCCCCCCC(=O)[O-]
REMARK SMILES IDX 15 1 16 2 17 3 18 4 19 5 20 6 21 7 22 8 23 9 24 10 25 11
REMARK SMILES IDX 26 12 27 13 28 14 29 15 30 16 14 17 13 18 12 19 11 20 10 21
REMARK SMILES IDX 9 22 8 23 7 24 6 25 5 26 4 27 3 28 2 29 1 30
REMARK H PARENT
REMARK Flexibility Score: inf
ROOT
ATOM      1  C   UNL     1      13.594   0.932  14.785  1.00  0.00     0.000 C 
ENDROOT
BRANCH   1   2
ATOM      2  C   UNL     1      14.226   1.737  15.938  1.00  0.00     0.000 C 
BRANCH   2   3
ATOM      3  C   UNL     1      13.221   2.301  16.963  1.00  0.00     0.000 C 
BRANCH   3   4
ATOM      4  C   UNL     1      13.407   1.794  18.406  1.00  0.00     0.000 C 
BRANCH   4   5
ATOM      5  C   UNL     1      13.909   0.343  18.523  1.00  0.00     0.000 C 
BRANCH   5   6
ATOM      6  C   UNL     1      14.660   0.082  19.842  1.00  0.00     0.000 C 
BRANCH   6   7
ATOM      7  C   UNL     1      15.867  -0.851  19.654  1.00  0.00     0.000 C 
BRANCH   7   8
ATOM      8  C   UNL     1      15.456  -2.246  19.151  1.00  0.00     0.000 C 
BRANCH   8   9
ATOM      9  C   UNL     1      16.593  -2.949  18.391  1.00  0.00     0.000 C 
BRANCH   9  10
ATOM     10  C   UNL     1      16.202  -3.283  16.942  1.00  0.00     0.000 C 
BRANCH  10  11
ATOM     11  C   UNL     1      15.919  -2.025  16.104  1.00  0.00     0.000 C 
BRANCH  11  12
ATOM     12  C   UNL     1      17.175  -1.155  15.918  1.00  0.00     0.006 C 
BRANCH  12  13
ATOM     13  C   UNL     1      18.144  -1.740  14.879  1.00  0.00     0.053 C 
BRANCH  13  14
ATOM     14  C   UNL     1      19.387  -2.280  15.517  1.00  0.00     0.041 C 
ATOM     15  O   UNL     1      20.270  -1.494  15.950  1.00  0.00    -0.550 OA
ATOM     16  O   UNL     1      19.566  -3.652  15.645  1.00  0.00    -0.550 OA
ENDBRANCH  13  14
ENDBRANCH  12  13
ENDBRANCH  11  12
ENDBRANCH  10  11
ENDBRANCH   9  10
ENDBRANCH   8   9
ENDBRANCH   7   8
ENDBRANCH   6   7
ENDBRANCH   5   6
ENDBRANCH   4   5
ENDBRANCH   3   4
ENDBRANCH   2   3
ENDBRANCH   1   2
BRANCH   1  17
ATOM     17  C   UNL     1      14.583   0.464  13.696  1.00  0.00     0.000 C 
BRANCH  17  18
ATOM     18  C   UNL     1      15.077   1.569  12.745  1.00  0.00     0.000 C 
BRANCH  18  19
ATOM     19  C   UNL     1      16.181   1.088  11.794  1.00  0.00     0.000 C 
BRANCH  19  20
ATOM     20  C   UNL     1      16.746  -0.266  12.250  1.00  0.00     0.000 C 
BRANCH  20  21
ATOM     21  C   UNL     1      17.527  -0.997  11.142  1.00  0.00     0.000 C 
BRANCH  21  22
ATOM     22  C   UNL     1      17.062  -0.694   9.704  1.00  0.00    -0.000 C 
BRANCH  22  23
ATOM     23  C   UNL     1      18.085  -1.032   8.603  1.00  0.00    -0.000 C 
BRANCH  23  24
ATOM     24  C   UNL     1      18.526   0.167   7.738  1.00  0.00    -0.000 C 
BRANCH  24  25
ATOM     25  C   UNL     1      19.619  -0.185   6.706  1.00  0.00    -0.000 C 
BRANCH  25  26
ATOM     26  C   UNL     1      20.153  -1.617   6.880  1.00  0.00    -0.000 C 
BRANCH  26  27
ATOM     27  C   UNL     1      21.576  -1.794   6.322  1.00  0.00    -0.000 C 
BRANCH  27  28
ATOM     28  C   UNL     1      21.911  -3.254   5.950  1.00  0.00    -0.000 C 
BRANCH  28  29
ATOM     29  C   UNL     1      23.345  -3.399   5.421  1.00  0.00    -0.003 C 
ATOM     30  C   UNL     1      24.082  -2.063   5.450  1.00  0.00     0.004 C 
ENDBRANCH  28  29
ENDBRANCH  27  28
ENDBRANCH  26  27
ENDBRANCH  25  26
ENDBRANCH  24  25
ENDBRANCH  23  24
ENDBRANCH  22  23
ENDBRANCH  21  22
ENDBRANCH  20  21
ENDBRANCH  19  20
ENDBRANCH  18  19
ENDBRANCH  17  18
ENDBRANCH   1  17
TORSDOF 26
ENDMDL
MODEL 3
REMARK VINA RESULT:    -6.124      3.193      7.966
REMARK INTER + INTRA:         -18.524
REMARK INTER:                 -14.720
REMARK INTRA:                  -3.804
REMARK UNBOUND:                -3.092
REMARK SMILES CCCCCCCCCCCCCCCCCCCCCCCCCCCC(=O)[O-]
REMARK SMILES IDX 15 1 16 2 17 3 18 4 19 5 20 6 21 7 22 8 23 9 24 10 25 11
REMARK SMILES IDX 26 12 27 13 28 14 29 15 30 16 14 17 13 18 12 19 11 20 10 21
REMARK SMILES IDX 9 22 8 23 7 24 6 25 5 26 4 27 3 28 2 29 1 30
REMARK H PARENT
REMARK Flexibility Score: inf
ROOT
ATOM      1  C   UNL     1      16.980   0.712  11.434  1.00  0.00     0.000 C 
ENDROOT
BRANCH   1   2
ATOM      2  C   UNL     1      17.761  -0.611  11.564  1.00  0.00     0.000 C 
BRANCH   2   3
ATOM      3  C   UNL     1      17.229  -1.575  12.644  1.00  0.00     0.000 C 
BRANCH   3   4
ATOM      4  C   UNL     1      18.297  -2.122  13.612  1.00  0.00     0.000 C 
BRANCH   4   5
ATOM      5  C   UNL     1      18.610  -1.212  14.813  1.00  0.00     0.000 C 
BRANCH   5   6
ATOM      6  C   UNL     1      19.706  -1.792  15.724  1.00  0.00     0.000 C 
BRANCH   6   7
ATOM      7  C   UNL     1      19.834  -3.318  15.591  1.00  0.00     0.000 C 
BRANCH   7   8
ATOM      8  C   UNL     1      21.299  -3.786  15.599  1.00  0.00     0.000 C 
BRANCH   8   9
ATOM      9  C   UNL     1      22.237  -2.753  16.246  1.00  0.00     0.000 C 
BRANCH   9  10
ATOM     10  C   UNL     1      23.613  -3.350  16.584  1.00  0.00     0.000 C 
BRANCH  10  11
ATOM     11  C   UNL     1      24.724  -2.287  16.612  1.00  0.00     0.000 C 
BRANCH  11  12
ATOM     12  C   UNL     1      25.194  -1.900  15.199  1.00  0.00     0.006 C 
BRANCH  12  13
ATOM     13  C   UNL     1      24.711  -0.503  14.784  1.00  0.00     0.053 C 
BRANCH  13  14
ATOM     14  C   UNL     1      25.853   0.444  14.574  1.00  0.00     0.041 C 
ATOM     15  O   UNL     1      25.636   1.622  14.186  1.00  0.00    -0.550 OA
ATOM     16  O   UNL     1      27.157   0.029  14.817  1.00  0.00    -0.550 OA
ENDBRANCH  13  14
ENDBRANCH  12  13
ENDBRANCH  11  12
ENDBRANCH  10  11
ENDBRANCH   9  10
ENDBRANCH   8   9
ENDBRANCH   7   8
ENDBRANCH   6   7
ENDBRANCH   5   6
ENDBRANCH   4   5
ENDBRANCH   3   4
ENDBRANCH   2   3
ENDBRANCH   1   2
BRANCH   1  17
ATOM     17  C   UNL     1      15.495   0.638  11.844  1.00  0.00     0.000 C 
BRANCH  17  18
ATOM     18  C   UNL     1      15.126   1.437  13.108  1.00  0.00     0.000 C 
BRANCH  18  19
ATOM     19  C   UNL     1      14.083   0.725  13.980  1.00  0.00     0.000 C 
BRANCH  19  20
ATOM     20  C   UNL     1      14.756  -0.026  15.139  1.00  0.00     0.000 C 
BRANCH  20  21
ATOM     21  C   UNL     1      15.906   0.769  15.785  1.00  0.00     0.000 C 
BRANCH  21  22
ATOM     22  C   UNL     1      15.564   1.436  17.133  1.00  0.00    -0.000 C 
BRANCH  22  23
ATOM     23  C   UNL     1      14.199   2.149  17.178  1.00  0.00    -0.000 C 
BRANCH  23  24
ATOM     24  C   UNL     1      13.176   1.527  18.150  1.00  0.00    -0.000 C 
BRANCH  24  25
ATOM     25  C   UNL     1      13.724   0.313  18.930  1.00  0.00    -0.000 C 
BRANCH  25  26
ATOM     26  C   UNL     1      13.171  -1.023  18.404  1.00  0.00    -0.000 C 
BRANCH  26  27
ATOM     27  C   UNL     1      14.273  -2.064  18.145  1.00  0.00    -0.000 C 
BRANCH  27  28
ATOM     28  C   UNL     1      15.583  -1.772  18.909  1.00  0.00    -0.000 C 
BRANCH  28  29
ATOM     29  C   UNL     1      16.825  -2.095  18.065  1.00  0.00    -0.003 C 
ATOM     30  C   UNL     1      16.716  -3.475  17.426  1.00  0.00     0.004 C 
ENDBRANCH  28  29
ENDBRANCH  27  28
ENDBRANCH  26  27
ENDBRANCH  25  26
ENDBRANCH  24  25
ENDBRANCH  23  24
ENDBRANCH  22  23
ENDBRANCH  21  22
ENDBRANCH  20  21
ENDBRANCH  19  20
ENDBRANCH  18  19
ENDBRANCH  17  18
ENDBRANCH   1  17
TORSDOF 26
ENDMDL
MODEL 4
REMARK VINA RESULT:    -6.122      2.340      6.051
REMARK INTER + INTRA:         -18.519
REMARK INTER:                 -16.842
REMARK INTRA:                  -1.677
REMARK UNBOUND:                -3.092
REMARK SMILES CCCCCCCCCCCCCCCCCCCCCCCCCCCC(=O)[O-]
REMARK SMILES IDX 15 1 16 2 17 3 18 4 19 5 20 6 21 7 22 8 23 9 24 10 25 11
REMARK SMILES IDX 26 12 27 13 28 14 29 15 30 16 14 17 13 18 12 19 11 20 10 21
REMARK SMILES IDX 9 22 8 23 7 24 6 25 5 26 4 27 3 28 2 29 1 30
REMARK H PARENT
REMARK Flexibility Score: inf
ROOT
ATOM      1  C   UNL     1      16.870  -0.309  11.707  1.00  0.00     0.000 C 
ENDROOT
BRANCH   1   2
ATOM      2  C   UNL     1      15.816   0.764  11.369  1.00  0.00     0.000 C 
BRANCH   2   3
ATOM      3  C   UNL     1      15.140   1.418  12.591  1.00  0.00     0.000 C 
BRANCH   3   4
ATOM      4  C   UNL     1      14.646   0.431  13.668  1.00  0.00     0.000 C 
BRANCH   4   5
ATOM      5  C   UNL     1      13.733   1.049  14.742  1.00  0.00     0.000 C 
BRANCH   5   6
ATOM      6  C   UNL     1      14.505   1.461  16.009  1.00  0.00     0.000 C 
BRANCH   6   7
ATOM      7  C   UNL     1      13.598   1.543  17.248  1.00  0.00     0.000 C 
BRANCH   7   8
ATOM      8  C   UNL     1      13.742   0.314  18.161  1.00  0.00     0.000 C 
BRANCH   8   9
ATOM      9  C   UNL     1      14.123   0.698  19.600  1.00  0.00     0.000 C 
BRANCH   9  10
ATOM     10  C   UNL     1      15.135  -0.282  20.215  1.00  0.00     0.000 C 
BRANCH  10  11
ATOM     11  C   UNL     1      15.771  -1.208  19.164  1.00  0.00     0.000 C 
BRANCH  11  12
ATOM     12  C   UNL     1      17.257  -0.887  18.930  1.00  0.00     0.006 C 
BRANCH  12  13
ATOM     13  C   UNL     1      17.503  -0.205  17.576  1.00  0.00     0.053 C 
BRANCH  13  14
ATOM     14  C   UNL     1      17.895  -1.189  16.518  1.00  0.00     0.041 C 
ATOM     15  O   UNL     1      18.543  -2.225  16.824  1.00  0.00    -0.550 OA
ATOM     16  O   UNL     1      17.535  -0.970  15.193  1.00  0.00    -0.550 OA
ENDBRANCH  13  14
ENDBRANCH  12  13
ENDBRANCH  11  12
ENDBRANCH  10  11
ENDBRANCH   9  10
ENDBRANCH   8   9
ENDBRANCH   7   8
ENDBRANCH   6   7
ENDBRANCH   5   6
ENDBRANCH   4   5
ENDBRANCH   3   4
ENDBRANCH   2   3
ENDBRANCH   1   2
BRANCH   1  17
ATOM     17  C   UNL     1      17.360  -1.145  10.506  1.00  0.00     0.000 C 
BRANCH  17  18
ATOM     18  C   UNL     1      17.718  -0.333   9.248  1.00  0.00     0.000 C 
BRANCH  18  19
ATOM     19  C   UNL     1      18.377  -1.185   8.155  1.00  0.00     0.000 C 
BRANCH  19  20
ATOM     20  C   UNL     1      18.914  -0.301   7.019  1.00  0.00     0.000 C 
BRANCH  20  21
ATOM     21  C   UNL     1      20.436  -0.426   6.826  1.00  0.00     0.000 C 
BRANCH  21  22
ATOM     22  C   UNL     1      20.988  -1.865   6.889  1.00  0.00    -0.000 C 
BRANCH  22  23
ATOM     23  C   UNL     1      21.505  -2.424   5.550  1.00  0.00    -0.000 C 
BRANCH  23  24
ATOM     24  C   UNL     1      22.845  -3.183   5.639  1.00  0.00    -0.000 C 
BRANCH  24  25
ATOM     25  C   UNL     1      24.082  -2.258   5.609  1.00  0.00    -0.000 C 
BRANCH  25  26
ATOM     26  C   UNL     1      25.338  -2.936   6.180  1.00  0.00    -0.000 C 
BRANCH  26  27
ATOM     27  C   UNL     1      26.405  -1.926   6.637  1.00  0.00    -0.000 C 
BRANCH  27  28
ATOM     28  C   UNL     1      27.847  -2.463   6.517  1.00  0.00    -0.000 C 
BRANCH  28  29
ATOM     29  C   UNL     1      27.886  -3.884   5.936  1.00  0.00    -0.003 C 
ATOM     30  C   UNL     1      29.236  -4.548   6.190  1.00  0.00     0.004 C 
ENDBRANCH  28  29
ENDBRANCH  27  28
ENDBRANCH  26  27
ENDBRANCH  25  26
ENDBRANCH  24  25
ENDBRANCH  23  24
ENDBRANCH  22  23
ENDBRANCH  21  22
ENDBRANCH  20  21
ENDBRANCH  19  20
ENDBRANCH  18  19
ENDBRANCH  17  18
ENDBRANCH   1  17
TORSDOF 26
ENDMDL
MODEL 5
REMARK VINA RESULT:    -6.020      3.317      8.383
REMARK INTER + INTRA:         -18.261
REMARK INTER:                 -15.330
REMARK INTRA:                  -2.930
REMARK UNBOUND:                -3.092
REMARK SMILES CCCCCCCCCCCCCCCCCCCCCCCCCCCC(=O)[O-]
REMARK SMILES IDX 15 1 16 2 17 3 18 4 19 5 20 6 21 7 22 8 23 9 24 10 25 11
REMARK SMILES IDX 26 12 27 13 28 14 29 15 30 16 14 17 13 18 12 19 11 20 10 21
REMARK SMILES IDX 9 22 8 23 7 24 6 25 5 26 4 27 3 28 2 29 1 30
REMARK H PARENT
REMARK Flexibility Score: inf
ROOT
ATOM      1  C   UNL     1      17.612  -0.620  11.344  1.00  0.00     0.000 C 
ENDROOT
BRANCH   1   2
ATOM      2  C   UNL     1      17.316  -1.583  12.511  1.00  0.00     0.000 C 
BRANCH   2   3
ATOM      3  C   UNL     1      18.131  -1.319  13.794  1.00  0.00     0.000 C 
BRANCH   3   4
ATOM      4  C   UNL     1      18.941  -2.524  14.311  1.00  0.00     0.000 C 
BRANCH   4   5
ATOM      5  C   UNL     1      19.691  -2.281  15.633  1.00  0.00     0.000 C 
BRANCH   5   6
ATOM      6  C   UNL     1      19.799  -0.787  15.986  1.00  0.00     0.000 C 
BRANCH   6   7
ATOM      7  C   UNL     1      21.254  -0.336  16.192  1.00  0.00     0.000 C 
BRANCH   7   8
ATOM      8  C   UNL     1      22.239  -1.518  16.188  1.00  0.00     0.000 C 
BRANCH   8   9
ATOM      9  C   UNL     1      23.702  -1.056  16.091  1.00  0.00     0.000 C 
BRANCH   9  10
ATOM     10  C   UNL     1      23.829   0.477  16.091  1.00  0.00     0.000 C 
BRANCH  10  11
ATOM     11  C   UNL     1      25.136   0.959  15.442  1.00  0.00     0.000 C 
BRANCH  11  12
ATOM     12  C   UNL     1      25.904   1.942  16.342  1.00  0.00     0.006 C 
BRANCH  12  13
ATOM     13  C   UNL     1      25.046   2.466  17.503  1.00  0.00     0.053 C 
BRANCH  13  14
ATOM     14  C   UNL     1      25.333   3.905  17.805  1.00  0.00     0.041 C 
ATOM     15  O   UNL     1      26.231   4.519  17.170  1.00  0.00    -0.550 OA
ATOM     16  O   UNL     1      24.602   4.573  18.779  1.00  0.00    -0.550 OA
ENDBRANCH  13  14
ENDBRANCH  12  13
ENDBRANCH  11  12
ENDBRANCH  10  11
ENDBRANCH   9  10
ENDBRANCH   8   9
ENDBRANCH   7   8
ENDBRANCH   6   7
ENDBRANCH   5   6
ENDBRANCH   4   5
ENDBRANCH   3   4
ENDBRANCH   2   3
ENDBRANCH   1   2
BRANCH   1  17
ATOM     17  C   UNL     1      16.938   0.764  11.452  1.00  0.00     0.000 C 
BRANCH  17  18
ATOM     18  C   UNL     1      15.454   0.738  11.860  1.00  0.00     0.000 C 
BRANCH  18  19
ATOM     19  C   UNL     1      15.192   1.430  13.204  1.00  0.00     0.000 C 
BRANCH  19  20
ATOM     20  C   UNL     1      14.453   0.491  14.170  1.00  0.00     0.000 C 
BRANCH  20  21
ATOM     21  C   UNL     1      13.278   1.174  14.893  1.00  0.00     0.000 C 
BRANCH  21  22
ATOM     22  C   UNL     1      13.527   1.504  16.379  1.00  0.00    -0.000 C 
BRANCH  22  23
ATOM     23  C   UNL     1      13.455   0.298  17.335  1.00  0.00    -0.000 C 
BRANCH  23  24
ATOM     24  C   UNL     1      13.276   0.661  18.824  1.00  0.00    -0.000 C 
BRANCH  24  25
ATOM     25  C   UNL     1      14.562   0.486  19.661  1.00  0.00    -0.000 C 
BRANCH  25  26
ATOM     26  C   UNL     1      14.669  -0.914  20.289  1.00  0.00    -0.000 C 
BRANCH  26  27
ATOM     27  C   UNL     1      15.552  -1.869  19.468  1.00  0.00    -0.000 C 
BRANCH  27  28
ATOM     28  C   UNL     1      16.712  -1.158  18.739  1.00  0.00    -0.000 C 
BRANCH  28  29
ATOM     29  C   UNL     1      16.494  -1.108  17.220  1.00  0.00    -0.003 C 
ATOM     30  C   UNL     1      15.975  -2.442  16.692  1.00  0.00     0.004 C 
ENDBRANCH  28  29
ENDBRANCH  27  28
ENDBRANCH  26  27
ENDBRANCH  25  26
ENDBRANCH  24  25
ENDBRANCH  23  24
ENDBRANCH  22  23
ENDBRANCH  21  22
ENDBRANCH  20  21
ENDBRANCH  19  20
ENDBRANCH  18  19
ENDBRANCH  17  18
ENDBRANCH   1  17
TORSDOF 26
ENDMDL
MODEL 6
REMARK VINA RESULT:    -6.009      3.241      8.411
REMARK INTER + INTRA:         -18.233
REMARK INTER:                 -15.357
REMARK INTRA:                  -2.876
REMARK UNBOUND:                -3.092
REMARK SMILES CCCCCCCCCCCCCCCCCCCCCCCCCCCC(=O)[O-]
REMARK SMILES IDX 15 1 16 2 17 3 18 4 19 5 20 6 21 7 22 8 23 9 24 10 25 11
REMARK SMILES IDX 26 12 27 13 28 14 29 15 30 16 14 17 13 18 12 19 11 20 10 21
REMARK SMILES IDX 9 22 8 23 7 24 6 25 5 26 4 27 3 28 2 29 1 30
REMARK H PARENT
REMARK Flexibility Score: inf
ROOT
ATOM      1  C   UNL     1      16.876  -1.741  13.830  1.00  0.00     0.000 C 
ENDROOT
BRANCH   1   2
ATOM      2  C   UNL     1      16.962  -1.260  15.292  1.00  0.00     0.000 C 
BRANCH   2   3
ATOM      3  C   UNL     1      18.382  -1.262  15.894  1.00  0.00     0.000 C 
BRANCH   3   4
ATOM      4  C   UNL     1      18.943  -2.657  16.234  1.00  0.00     0.000 C 
BRANCH   4   5
ATOM      5  C   UNL     1      20.414  -2.878  15.837  1.00  0.00     0.000 C 
BRANCH   5   6
ATOM      6  C   UNL     1      21.300  -1.659  16.148  1.00  0.00     0.000 C 
BRANCH   6   7
ATOM      7  C   UNL     1      22.794  -2.016  16.198  1.00  0.00     0.000 C 
BRANCH   7   8
ATOM      8  C   UNL     1      23.030  -3.514  16.455  1.00  0.00     0.000 C 
BRANCH   8   9
ATOM      9  C   UNL     1      24.519  -3.845  16.650  1.00  0.00     0.000 C 
BRANCH   9  10
ATOM     10  C   UNL     1      25.371  -3.417  15.444  1.00  0.00     0.000 C 
BRANCH  10  11
ATOM     11  C   UNL     1      26.755  -2.891  15.858  1.00  0.00     0.000 C 
BRANCH  11  12
ATOM     12  C   UNL     1      26.794  -1.355  15.937  1.00  0.00     0.006 C 
BRANCH  12  13
ATOM     13  C   UNL     1      25.953  -0.691  14.837  1.00  0.00     0.053 C 
BRANCH  13  14
ATOM     14  C   UNL     1      26.763   0.262  14.013  1.00  0.00     0.041 C 
ATOM     15  O   UNL     1      26.431   1.475  13.938  1.00  0.00    -0.550 OA
ATOM     16  O   UNL     1      27.891  -0.185  13.336  1.00  0.00    -0.550 OA
ENDBRANCH  13  14
ENDBRANCH  12  13
ENDBRANCH  11  12
ENDBRANCH  10  11
ENDBRANCH   9  10
ENDBRANCH   8   9
ENDBRANCH   7   8
ENDBRANCH   6   7
ENDBRANCH   5   6
ENDBRANCH   4   5
ENDBRANCH   3   4
ENDBRANCH   2   3
ENDBRANCH   1   2
BRANCH   1  17
ATOM     17  C   UNL     1      17.927  -1.130  12.879  1.00  0.00     0.000 C 
BRANCH  17  18
ATOM     18  C   UNL     1      17.416  -0.806  11.463  1.00  0.00     0.000 C 
BRANCH  18  19
ATOM     19  C   UNL     1      17.015   0.666  11.296  1.00  0.00     0.000 C 
BRANCH  19  20
ATOM     20  C   UNL     1      15.511   0.856  11.543  1.00  0.00     0.000 C 
BRANCH  20  21
ATOM     21  C   UNL     1      15.205   1.655  12.822  1.00  0.00     0.000 C 
BRANCH  21  22
ATOM     22  C   UNL     1      14.375   0.903  13.882  1.00  0.00    -0.000 C 
BRANCH  22  23
ATOM     23  C   UNL     1      14.440   1.496  15.302  1.00  0.00    -0.000 C 
BRANCH  23  24
ATOM     24  C   UNL     1      13.089   1.551  16.044  1.00  0.00    -0.000 C 
BRANCH  24  25
ATOM     25  C   UNL     1      13.031   2.634  17.143  1.00  0.00    -0.000 C 
BRANCH  25  26
ATOM     26  C   UNL     1      13.588   2.136  18.488  1.00  0.00    -0.000 C 
BRANCH  26  27
ATOM     27  C   UNL     1      13.348   0.634  18.713  1.00  0.00    -0.000 C 
BRANCH  27  28
ATOM     28  C   UNL     1      14.398  -0.023  19.635  1.00  0.00    -0.000 C 
BRANCH  28  29
ATOM     29  C   UNL     1      15.739  -0.236  18.918  1.00  0.00    -0.003 C 
ATOM     30  C   UNL     1      16.098  -1.717  18.845  1.00  0.00     0.004 C 
ENDBRANCH  28  29
ENDBRANCH  27  28
ENDBRANCH  26  27
ENDBRANCH  25  26
ENDBRANCH  24  25
ENDBRANCH  23  24
ENDBRANCH  22  23
ENDBRANCH  21  22
ENDBRANCH  20  21
ENDBRANCH  19  20
ENDBRANCH  18  19
ENDBRANCH  17  18
ENDBRANCH   1  17
TORSDOF 26
ENDMDL
MODEL 7
REMARK VINA RESULT:    -6.005      3.629      8.706
REMARK INTER + INTRA:         -18.224
REMARK INTER:                 -14.853
REMARK INTRA:                  -3.370
REMARK UNBOUND:                -3.092
REMARK SMILES CCCCCCCCCCCCCCCCCCCCCCCCCCCC(=O)[O-]
REMARK SMILES IDX 15 1 16 2 17 3 18 4 19 5 20 6 21 7 22 8 23 9 24 10 25 11
REMARK SMILES IDX 26 12 27 13 28 14 29 15 30 16 14 17 13 18 12 19 11 20 10 21
REMARK SMILES IDX 9 22 8 23 7 24 6 25 5 26 4 27 3 28 2 29 1 30
REMARK H PARENT
REMARK Flexibility Score: inf
ROOT
ATOM      1  C   UNL     1      17.729  -0.359  11.582  1.00  0.00     0.000 C 
ENDROOT
BRANCH   1   2
ATOM      2  C   UNL     1      17.597  -1.506  12.605  1.00  0.00     0.000 C 
BRANCH   2   3
ATOM      3  C   UNL     1      18.469  -1.353  13.868  1.00  0.00     0.000 C 
BRANCH   3   4
ATOM      4  C   UNL     1      18.775  -2.668  14.611  1.00  0.00     0.000 C 
BRANCH   4   5
ATOM      5  C   UNL     1      19.702  -2.522  15.832  1.00  0.00     0.000 C 
BRANCH   5   6
ATOM      6  C   UNL     1      20.348  -1.128  15.920  1.00  0.00     0.000 C 
BRANCH   6   7
ATOM      7  C   UNL     1      21.840  -1.194  16.285  1.00  0.00     0.000 C 
BRANCH   7   8
ATOM      8  C   UNL     1      22.376  -2.635  16.295  1.00  0.00     0.000 C 
BRANCH   8   9
ATOM      9  C   UNL     1      23.874  -2.702  15.952  1.00  0.00     0.000 C 
BRANCH   9  10
ATOM     10  C   UNL     1      24.436  -4.127  16.079  1.00  0.00     0.000 C 
BRANCH  10  11
ATOM     11  C   UNL     1      24.056  -4.793  17.412  1.00  0.00     0.000 C 
BRANCH  11  12
ATOM     12  C   UNL     1      25.197  -5.657  17.976  1.00  0.00     0.006 C 
BRANCH  12  13
ATOM     13  C   UNL     1      24.684  -6.787  18.880  1.00  0.00     0.053 C 
BRANCH  13  14
ATOM     14  C   UNL     1      25.669  -7.911  18.982  1.00  0.00     0.041 C 
ATOM     15  O   UNL     1      26.208  -8.183  20.087  1.00  0.00    -0.550 OA
ATOM     16  O   UNL     1      25.984  -8.667  17.859  1.00  0.00    -0.550 OA
ENDBRANCH  13  14
ENDBRANCH  12  13
ENDBRANCH  11  12
ENDBRANCH  10  11
ENDBRANCH   9  10
ENDBRANCH   8   9
ENDBRANCH   7   8
ENDBRANCH   6   7
ENDBRANCH   5   6
ENDBRANCH   4   5
ENDBRANCH   3   4
ENDBRANCH   2   3
ENDBRANCH   1   2
BRANCH   1  17
ATOM     17  C   UNL     1      16.394   0.175  11.023  1.00  0.00     0.000 C 
BRANCH  17  18
ATOM     18  C   UNL     1      15.244   0.255  12.044  1.00  0.00     0.000 C 
BRANCH  18  19
ATOM     19  C   UNL     1      15.147   1.627  12.725  1.00  0.00     0.000 C 
BRANCH  19  20
ATOM     20  C   UNL     1      14.822   1.477  14.219  1.00  0.00     0.000 C 
BRANCH  20  21
ATOM     21  C   UNL     1      15.792   0.535  14.955  1.00  0.00     0.000 C 
BRANCH  21  22
ATOM     22  C   UNL     1      15.126  -0.643  15.694  1.00  0.00    -0.000 C 
BRANCH  22  23
ATOM     23  C   UNL     1      16.019  -1.348  16.733  1.00  0.00    -0.000 C 
BRANCH  23  24
ATOM     24  C   UNL     1      16.820  -0.399  17.649  1.00  0.00    -0.000 C 
BRANCH  24  25
ATOM     25  C   UNL     1      16.589  -0.653  19.154  1.00  0.00    -0.000 C 
BRANCH  25  26
ATOM     26  C   UNL     1      15.109  -0.904  19.489  1.00  0.00    -0.000 C 
BRANCH  26  27
ATOM     27  C   UNL     1      14.300   0.397  19.624  1.00  0.00    -0.000 C 
BRANCH  27  28
ATOM     28  C   UNL     1      13.271   0.601  18.491  1.00  0.00    -0.000 C 
BRANCH  28  29
ATOM     29  C   UNL     1      13.031   2.088  18.192  1.00  0.00    -0.003 C 
ATOM     30  C   UNL     1      14.282   2.745  17.617  1.00  0.00     0.004 C 
ENDBRANCH  28  29
ENDBRANCH  27  28
ENDBRANCH  26  27
ENDBRANCH  25  26
ENDBRANCH  24  25
ENDBRANCH  23  24
ENDBRANCH  22  23
ENDBRANCH  21  22
ENDBRANCH  20  21
ENDBRANCH  19  20
ENDBRANCH  18  19
ENDBRANCH  17  18
ENDBRANCH   1  17
TORSDOF 26
ENDMDL
MODEL 8
REMARK VINA RESULT:    -5.961      3.226      7.139
REMARK INTER + INTRA:         -18.113
REMARK INTER:                 -16.338
REMARK INTRA:                  -1.775
REMARK UNBOUND:                -3.092
REMARK SMILES CCCCCCCCCCCCCCCCCCCCCCCCCCCC(=O)[O-]
REMARK SMILES IDX 15 1 16 2 17 3 18 4 19 5 20 6 21 7 22 8 23 9 24 10 25 11
REMARK SMILES IDX 26 12 27 13 28 14 29 15 30 16 14 17 13 18 12 19 11 20 10 21
REMARK SMILES IDX 9 22 8 23 7 24 6 25 5 26 4 27 3 28 2 29 1 30
REMARK H PARENT
REMARK Flexibility Score: inf
ROOT
ATOM      1  C   UNL     1      17.380  -1.045  10.113  1.00  0.00     0.000 C 
ENDROOT
BRANCH   1   2
ATOM      2  C   UNL     1      17.071   0.382  10.609  1.00  0.00     0.000 C 
BRANCH   2   3
ATOM      3  C   UNL     1      16.663   0.478  12.093  1.00  0.00     0.000 C 
BRANCH   3   4
ATOM      4  C   UNL     1      15.144   0.500  12.352  1.00  0.00     0.000 C 
BRANCH   4   5
ATOM      5  C   UNL     1      14.718   1.197  13.657  1.00  0.00     0.000 C 
BRANCH   5   6
ATOM      6  C   UNL     1      15.572   0.766  14.863  1.00  0.00     0.000 C 
BRANCH   6   7
ATOM      7  C   UNL     1      15.211  -0.641  15.365  1.00  0.00     0.000 C 
BRANCH   7   8
ATOM      8  C   UNL     1      16.268  -1.689  14.979  1.00  0.00     0.000 C 
BRANCH   8   9
ATOM      9  C   UNL     1      17.662  -1.342  15.529  1.00  0.00     0.000 C 
BRANCH   9  10
ATOM     10  C   UNL     1      18.087  -2.282  16.668  1.00  0.00     0.000 C 
BRANCH  10  11
ATOM     11  C   UNL     1      17.054  -3.390  16.934  1.00  0.00     0.000 C 
BRANCH  11  12
ATOM     12  C   UNL     1      16.496  -3.334  18.366  1.00  0.00     0.006 C 
BRANCH  12  13
ATOM     13  C   UNL     1      15.159  -2.582  18.445  1.00  0.00     0.053 C 
BRANCH  13  14
ATOM     14  C   UNL     1      15.160  -1.554  19.534  1.00  0.00     0.041 C 
ATOM     15  O   UNL     1      14.244  -1.544  20.398  1.00  0.00    -0.550 OA
ATOM     16  O   UNL     1      16.179  -0.611  19.603  1.00  0.00    -0.550 OA
ENDBRANCH  13  14
ENDBRANCH  12  13
ENDBRANCH  11  12
ENDBRANCH  10  11
ENDBRANCH   9  10
ENDBRANCH   8   9
ENDBRANCH   7   8
ENDBRANCH   6   7
ENDBRANCH   5   6
ENDBRANCH   4   5
ENDBRANCH   3   4
ENDBRANCH   2   3
ENDBRANCH   1   2
BRANCH   1  17
ATOM     17  C   UNL     1      17.776  -1.148   8.625  1.00  0.00     0.000 C 
BRANCH  17  18
ATOM     18  C   UNL     1      18.444   0.110   8.039  1.00  0.00     0.000 C 
BRANCH  18  19
ATOM     19  C   UNL     1      19.365  -0.202   6.852  1.00  0.00     0.000 C 
BRANCH  19  20
ATOM     20  C   UNL     1      20.338  -1.340   7.195  1.00  0.00     0.000 C 
BRANCH  20  21
ATOM     21  C   UNL     1      21.421  -1.552   6.122  1.00  0.00     0.000 C 
BRANCH  21  22
ATOM     22  C   UNL     1      21.785  -3.024   5.841  1.00  0.00    -0.000 C 
BRANCH  22  23
ATOM     23  C   UNL     1      23.190  -3.246   5.251  1.00  0.00    -0.000 C 
BRANCH  23  24
ATOM     24  C   UNL     1      24.269  -2.271   5.763  1.00  0.00    -0.000 C 
BRANCH  24  25
ATOM     25  C   UNL     1      25.588  -2.965   6.167  1.00  0.00    -0.000 C 
BRANCH  25  26
ATOM     26  C   UNL     1      26.681  -1.962   6.573  1.00  0.00    -0.000 C 
BRANCH  26  27
ATOM     27  C   UNL     1      28.080  -2.598   6.634  1.00  0.00    -0.000 C 
BRANCH  27  28
ATOM     28  C   UNL     1      28.175  -3.945   5.886  1.00  0.00    -0.000 C 
BRANCH  28  29
ATOM     29  C   UNL     1      29.439  -4.728   6.270  1.00  0.00    -0.003 C 
ATOM     30  C   UNL     1      30.277  -3.961   7.288  1.00  0.00     0.004 C 
ENDBRANCH  28  29
ENDBRANCH  27  28
ENDBRANCH  26  27
ENDBRANCH  25  26
ENDBRANCH  24  25
ENDBRANCH  23  24
ENDBRANCH  22  23
ENDBRANCH  21  22
ENDBRANCH  20  21
ENDBRANCH  19  20
ENDBRANCH  18  19
ENDBRANCH  17  18
ENDBRANCH   1  17
TORSDOF 26
ENDMDL
MODEL 9
REMARK VINA RESULT:    -5.843      8.981     12.627
REMARK INTER + INTRA:         -17.815
REMARK INTER:                 -14.124
REMARK INTRA:                  -3.691
REMARK UNBOUND:                -3.092
REMARK SMILES CCCCCCCCCCCCCCCCCCCCCCCCCCCC(=O)[O-]
REMARK SMILES IDX 15 1 16 2 17 3 18 4 19 5 20 6 21 7 22 8 23 9 24 10 25 11
REMARK SMILES IDX 26 12 27 13 28 14 29 15 30 16 14 17 13 18 12 19 11 20 10 21
REMARK SMILES IDX 9 22 8 23 7 24 6 25 5 26 4 27 3 28 2 29 1 30
REMARK H PARENT
REMARK Flexibility Score: inf
ROOT
ATOM      1  C   UNL     1      28.352  -0.186  10.774  1.00  0.00     0.000 C 
ENDROOT
BRANCH   1   2
ATOM      2  C   UNL     1      28.336  -0.505  12.283  1.00  0.00     0.000 C 
BRANCH   2   3
ATOM      3  C   UNL     1      28.352  -2.008  12.629  1.00  0.00     0.000 C 
BRANCH   3   4
ATOM      4  C   UNL     1      27.555  -2.395  13.891  1.00  0.00     0.000 C 
BRANCH   4   5
ATOM      5  C   UNL     1      27.063  -1.206  14.736  1.00  0.00     0.000 C 
BRANCH   5   6
ATOM      6  C   UNL     1      25.533  -1.047  14.698  1.00  0.00     0.000 C 
BRANCH   6   7
ATOM      7  C   UNL     1      24.798  -2.362  15.002  1.00  0.00     0.000 C 
BRANCH   7   8
ATOM      8  C   UNL     1      24.388  -2.475  16.481  1.00  0.00     0.000 C 
BRANCH   8   9
ATOM      9  C   UNL     1      24.338  -3.934  16.962  1.00  0.00     0.000 C 
BRANCH   9  10
ATOM     10  C   UNL     1      25.344  -4.207  18.093  1.00  0.00     0.000 C 
BRANCH  10  11
ATOM     11  C   UNL     1      26.753  -3.686  17.766  1.00  0.00     0.000 C 
BRANCH  11  12
ATOM     12  C   UNL     1      27.550  -4.674  16.896  1.00  0.00     0.006 C 
BRANCH  12  13
ATOM     13  C   UNL     1      28.635  -5.413  17.694  1.00  0.00     0.053 C 
BRANCH  13  14
ATOM     14  C   UNL     1      28.091  -6.626  18.384  1.00  0.00     0.041 C 
ATOM     15  O   UNL     1      27.647  -7.593  17.709  1.00  0.00    -0.550 OA
ATOM     16  O   UNL     1      28.084  -6.696  19.771  1.00  0.00    -0.550 OA
ENDBRANCH  13  14
ENDBRANCH  12  13
ENDBRANCH  11  12
ENDBRANCH  10  11
ENDBRANCH   9  10
ENDBRANCH   8   9
ENDBRANCH   7   8
ENDBRANCH   6   7
ENDBRANCH   5   6
ENDBRANCH   4   5
ENDBRANCH   3   4
ENDBRANCH   2   3
ENDBRANCH   1   2
BRANCH   1  17
ATOM     17  C   UNL     1      28.764  -1.361   9.863  1.00  0.00     0.000 C 
BRANCH  17  18
ATOM     18  C   UNL     1      28.862  -1.021   8.364  1.00  0.00     0.000 C 
BRANCH  18  19
ATOM     19  C   UNL     1      27.534  -1.215   7.621  1.00  0.00     0.000 C 
BRANCH  19  20
ATOM     20  C   UNL     1      27.108  -2.691   7.632  1.00  0.00     0.000 C 
BRANCH  20  21
ATOM     21  C   UNL     1      27.189  -3.352   6.244  1.00  0.00     0.000 C 
BRANCH  21  22
ATOM     22  C   UNL     1      28.618  -3.635   5.736  1.00  0.00    -0.000 C 
BRANCH  22  23
ATOM     23  C   UNL     1      29.520  -4.400   6.722  1.00  0.00    -0.000 C 
BRANCH  23  24
ATOM     24  C   UNL     1      30.927  -3.798   6.913  1.00  0.00    -0.000 C 
BRANCH  24  25
ATOM     25  C   UNL     1      31.562  -4.133   8.281  1.00  0.00    -0.000 C 
BRANCH  25  26
ATOM     26  C   UNL     1      32.097  -2.884   9.002  1.00  0.00    -0.000 C 
BRANCH  26  27
ATOM     27  C   UNL     1      32.002  -2.995  10.533  1.00  0.00    -0.000 C 
BRANCH  27  28
ATOM     28  C   UNL     1      32.100  -1.633  11.253  1.00  0.00    -0.000 C 
BRANCH  28  29
ATOM     29  C   UNL     1      32.714  -0.550  10.354  1.00  0.00    -0.003 C 
ATOM     30  C   UNL     1      31.898   0.738  10.404  1.00  0.00     0.004 C 
ENDBRANCH  28  29
ENDBRANCH  27  28
ENDBRANCH  26  27
ENDBRANCH  25  26
ENDBRANCH  24  25
ENDBRANCH  23  24
ENDBRANCH  22  23
ENDBRANCH  21  22
ENDBRANCH  20  21
ENDBRANCH  19  20
ENDBRANCH  18  19
ENDBRANCH  17  18
ENDBRANCH   1  17
TORSDOF 26
ENDMDL
