MODEL 1
REMARK VINA RESULT:    -5.141      0.000      0.000
REMARK INTER + INTRA:         -17.393
REMARK INTER:                 -13.555
REMARK INTRA:                  -3.838
REMARK UNBOUND:                -3.838
REMARK SMILES CCCCCCCCCCCCCCCCCCCCCCCCCCCCCC(=O)[O-]
REMARK SMILES IDX 16 1 17 2 18 3 19 4 20 5 21 6 22 7 23 8 24 9 25 10 26 11
REMARK SMILES IDX 27 12 28 13 29 14 30 15 31 16 32 17 15 18 14 19 13 20 12 21
REMARK SMILES IDX 11 22 10 23 9 24 8 25 7 26 6 27 5 28 4 29 3 30 2 31 1 32
REMARK H PARENT
REMARK Flexibility Score: inf
ROOT
ATOM      1  C   UNL     1     -10.608 -24.923  27.290  1.00  0.00     0.000 C 
ENDROOT
BRANCH   1   2
ATOM      2  C   UNL     1     -10.373 -23.904  26.159  1.00  0.00     0.000 C 
BRANCH   2   3
ATOM      3  C   UNL     1     -11.166 -22.601  26.353  1.00  0.00     0.000 C 
BRANCH   3   4
ATOM      4  C   UNL     1     -12.534 -22.619  25.645  1.00  0.00     0.000 C 
BRANCH   4   5
ATOM      5  C   UNL     1     -12.777 -23.822  24.713  1.00  0.00     0.000 C 
BRANCH   5   6
ATOM      6  C   UNL     1     -14.225 -23.906  24.206  1.00  0.00     0.000 C 
BRANCH   6   7
ATOM      7  C   UNL     1     -14.424 -25.144  23.318  1.00  0.00     0.000 C 
BRANCH   7   8
ATOM      8  C   UNL     1     -13.704 -26.388  23.864  1.00  0.00     0.000 C 
BRANCH   8   9
ATOM      9  C   UNL     1     -14.679 -27.510  24.265  1.00  0.00     0.000 C 
BRANCH   9  10
ATOM     10  C   UNL     1     -15.167 -27.387  25.726  1.00  0.00     0.000 C 
BRANCH  10  11
ATOM     11  C   UNL     1     -16.625 -26.905  25.858  1.00  0.00     0.000 C 
BRANCH  11  12
ATOM     12  C   UNL     1     -17.085 -26.637  27.302  1.00  0.00     0.000 C 
BRANCH  12  13
ATOM     13  C   UNL     1     -16.765 -27.793  28.277  1.00  0.00     0.006 C 
BRANCH  13  14
ATOM     14  C   UNL     1     -16.808 -27.353  29.745  1.00  0.00     0.053 C 
BRANCH  14  15
ATOM     15  C   UNL     1     -15.562 -27.780  30.456  1.00  0.00     0.041 C 
ATOM     16  O   UNL     1     -15.206 -27.201  31.517  1.00  0.00    -0.550 OA
ATOM     17  O   UNL     1     -14.767 -28.788  29.922  1.00  0.00    -0.550 OA
ENDBRANCH  14  15
ENDBRANCH  13  14
ENDBRANCH  12  13
ENDBRANCH  11  12
ENDBRANCH  10  11
ENDBRANCH   9  10
ENDBRANCH   8   9
ENDBRANCH   7   8
ENDBRANCH   6   7
ENDBRANCH   5   6
ENDBRANCH   4   5
ENDBRANCH   3   4
ENDBRANCH   2   3
ENDBRANCH   1   2
BRANCH   1  18
ATOM     18  C   UNL     1     -11.295 -26.232  26.860  1.00  0.00     0.000 C 
BRANCH  18  19
ATOM     19  C   UNL     1     -11.573 -27.179  28.037  1.00  0.00     0.000 C 
BRANCH  19  20
ATOM     20  C   UNL     1     -10.605 -28.372  28.020  1.00  0.00     0.000 C 
BRANCH  20  21
ATOM     21  C   UNL     1      -9.681 -28.375  26.791  1.00  0.00     0.000 C 
BRANCH  21  22
ATOM     22  C   UNL     1      -8.221 -28.043  27.149  1.00  0.00     0.000 C 
BRANCH  22  23
ATOM     23  C   UNL     1      -8.085 -27.316  28.499  1.00  0.00     0.000 C 
BRANCH  23  24
ATOM     24  C   UNL     1      -6.639 -27.112  28.997  1.00  0.00    -0.000 C 
BRANCH  24  25
ATOM     25  C   UNL     1      -6.386 -27.489  30.468  1.00  0.00    -0.000 C 
BRANCH  25  26
ATOM     26  C   UNL     1      -5.264 -26.658  31.114  1.00  0.00    -0.000 C 
BRANCH  26  27
ATOM     27  C   UNL     1      -5.657 -25.185  31.320  1.00  0.00    -0.000 C 
BRANCH  27  28
ATOM     28  C   UNL     1      -6.392 -24.878  32.641  1.00  0.00    -0.000 C 
BRANCH  28  29
ATOM     29  C   UNL     1      -7.922 -25.039  32.590  1.00  0.00    -0.000 C 
BRANCH  29  30
ATOM     30  C   UNL     1      -8.542 -24.425  31.326  1.00  0.00    -0.000 C 
BRANCH  30  31
ATOM     31  C   UNL     1      -9.732 -25.259  30.839  1.00  0.00    -0.003 C 
ATOM     32  C   UNL     1      -9.899 -26.523  31.676  1.00  0.00     0.004 C 
ENDBRANCH  30  31
ENDBRANCH  29  30
ENDBRANCH  28  29
ENDBRANCH  27  28
ENDBRANCH  26  27
ENDBRANCH  25  26
ENDBRANCH  24  25
ENDBRANCH  23  24
ENDBRANCH  22  23
ENDBRANCH  21  22
ENDBRANCH  20  21
ENDBRANCH  19  20
ENDBRANCH  18  19
ENDBRANCH   1  18
TORSDOF 28
ENDMDL
MODEL 2
REMARK VINA RESULT:    -5.081      3.056      9.600
REMARK INTER + INTRA:         -17.237
REMARK INTER:                 -13.303
REMARK INTRA:                  -3.934
REMARK UNBOUND:                -3.838
REMARK SMILES CCCCCCCCCCCCCCCCCCCCCCCCCCCCCC(=O)[O-]
REMARK SMILES IDX 16 1 17 2 18 3 19 4 20 5 21 6 22 7 23 8 24 9 25 10 26 11
REMARK SMILES IDX 27 12 28 13 29 14 30 15 31 16 32 17 15 18 14 19 13 20 12 21
REMARK SMILES IDX 11 22 10 23 9 24 8 25 7 26 6 27 5 28 4 29 3 30 2 31 1 32
REMARK H PARENT
REMARK Flexibility Score: inf
ROOT
ATOM      1  C   UNL     1     -10.710 -25.235  27.281  1.00  0.00     0.000 C 
ENDROOT
BRANCH   1   2
ATOM      2  C   UNL     1     -11.044 -26.661  26.806  1.00  0.00     0.000 C 
BRANCH   2   3
ATOM      3  C   UNL     1     -10.318 -27.748  27.616  1.00  0.00     0.000 C 
BRANCH   3   4
ATOM      4  C   UNL     1      -8.792 -27.540  27.667  1.00  0.00     0.000 C 
BRANCH   4   5
ATOM      5  C   UNL     1      -8.232 -27.107  29.035  1.00  0.00     0.000 C 
BRANCH   5   6
ATOM      6  C   UNL     1      -9.111 -27.553  30.213  1.00  0.00     0.000 C 
BRANCH   6   7
ATOM      7  C   UNL     1      -9.501 -26.354  31.092  1.00  0.00     0.000 C 
BRANCH   7   8
ATOM      8  C   UNL     1      -9.028 -25.013  30.509  1.00  0.00     0.000 C 
BRANCH   8   9
ATOM      9  C   UNL     1      -8.126 -24.229  31.479  1.00  0.00     0.000 C 
BRANCH   9  10
ATOM     10  C   UNL     1      -6.678 -24.766  31.518  1.00  0.00     0.000 C 
BRANCH  10  11
ATOM     11  C   UNL     1      -6.306 -25.459  32.843  1.00  0.00     0.000 C 
BRANCH  11  12
ATOM     12  C   UNL     1      -5.315 -26.628  32.702  1.00  0.00     0.000 C 
BRANCH  12  13
ATOM     13  C   UNL     1      -5.762 -27.696  31.677  1.00  0.00     0.006 C 
BRANCH  13  14
ATOM     14  C   UNL     1      -4.582 -28.483  31.094  1.00  0.00     0.053 C 
BRANCH  14  15
ATOM     15  C   UNL     1      -3.977 -27.742  29.942  1.00  0.00     0.041 C 
ATOM     16  O   UNL     1      -2.763 -27.906  29.650  1.00  0.00    -0.550 OA
ATOM     17  O   UNL     1      -4.744 -26.837  29.219  1.00  0.00    -0.550 OA
ENDBRANCH  14  15
ENDBRANCH  13  14
ENDBRANCH  12  13
ENDBRANCH  11  12
ENDBRANCH  10  11
ENDBRANCH   9  10
ENDBRANCH   8   9
ENDBRANCH   7   8
ENDBRANCH   6   7
ENDBRANCH   5   6
ENDBRANCH   4   5
ENDBRANCH   3   4
ENDBRANCH   2   3
ENDBRANCH   1   2
BRANCH   1  18
ATOM     18  C   UNL     1     -10.390 -24.229  26.161  1.00  0.00     0.000 C 
BRANCH  18  19
ATOM     19  C   UNL     1     -11.015 -22.845  26.397  1.00  0.00     0.000 C 
BRANCH  19  20
ATOM     20  C   UNL     1     -12.332 -22.699  25.619  1.00  0.00     0.000 C 
BRANCH  20  21
ATOM     21  C   UNL     1     -12.687 -23.954  24.804  1.00  0.00     0.000 C 
BRANCH  21  22
ATOM     22  C   UNL     1     -14.189 -24.042  24.480  1.00  0.00     0.000 C 
BRANCH  22  23
ATOM     23  C   UNL     1     -14.495 -24.984  23.301  1.00  0.00     0.000 C 
BRANCH  23  24
ATOM     24  C   UNL     1     -13.904 -26.404  23.420  1.00  0.00    -0.000 C 
BRANCH  24  25
ATOM     25  C   UNL     1     -14.876 -27.485  23.929  1.00  0.00    -0.000 C 
BRANCH  25  26
ATOM     26  C   UNL     1     -14.499 -28.020  25.321  1.00  0.00    -0.000 C 
BRANCH  26  27
ATOM     27  C   UNL     1     -15.185 -27.248  26.461  1.00  0.00    -0.000 C 
BRANCH  27  28
ATOM     28  C   UNL     1     -16.701 -27.493  26.605  1.00  0.00    -0.000 C 
BRANCH  28  29
ATOM     29  C   UNL     1     -17.596 -26.314  26.183  1.00  0.00    -0.000 C 
BRANCH  29  30
ATOM     30  C   UNL     1     -18.772 -26.748  25.296  1.00  0.00    -0.000 C 
BRANCH  30  31
ATOM     31  C   UNL     1     -18.497 -26.422  23.824  1.00  0.00    -0.003 C 
ATOM     32  C   UNL     1     -17.993 -24.992  23.661  1.00  0.00     0.004 C 
ENDBRANCH  30  31
ENDBRANCH  29  30
ENDBRANCH  28  29
ENDBRANCH  27  28
ENDBRANCH  26  27
ENDBRANCH  25  26
ENDBRANCH  24  25
ENDBRANCH  23  24
ENDBRANCH  22  23
ENDBRANCH  21  22
ENDBRANCH  20  21
ENDBRANCH  19  20
ENDBRANCH  18  19
ENDBRANCH   1  18
TORSDOF 28
ENDMDL
MODEL 3
REMARK VINA RESULT:    -4.986      1.318      2.102
REMARK INTER + INTRA:         -16.987
REMARK INTER:                 -13.672
REMARK INTRA:                  -3.315
REMARK UNBOUND:                -3.838
REMARK SMILES CCCCCCCCCCCCCCCCCCCCCCCCCCCCCC(=O)[O-]
REMARK SMILES IDX 16 1 17 2 18 3 19 4 20 5 21 6 22 7 23 8 24 9 25 10 26 11
REMARK SMILES IDX 27 12 28 13 29 14 30 15 31 16 32 17 15 18 14 19 13 20 12 21
REMARK SMILES IDX 11 22 10 23 9 24 8 25 7 26 6 27 5 28 4 29 3 30 2 31 1 32
REMARK H PARENT
REMARK Flexibility Score: inf
ROOT
ATOM      1  C   UNL     1     -10.035 -24.957  27.509  1.00  0.00     0.000 C 
ENDROOT
BRANCH   1   2
ATOM      2  C   UNL     1     -10.088 -24.037  26.276  1.00  0.00     0.000 C 
BRANCH   2   3
ATOM      3  C   UNL     1     -11.170 -22.950  26.386  1.00  0.00     0.000 C 
BRANCH   3   4
ATOM      4  C   UNL     1     -12.299 -23.118  25.351  1.00  0.00     0.000 C 
BRANCH   4   5
ATOM      5  C   UNL     1     -12.562 -24.565  24.893  1.00  0.00     0.000 C 
BRANCH   5   6
ATOM      6  C   UNL     1     -13.930 -24.742  24.216  1.00  0.00     0.000 C 
BRANCH   6   7
ATOM      7  C   UNL     1     -14.279 -26.231  24.066  1.00  0.00     0.000 C 
BRANCH   7   8
ATOM      8  C   UNL     1     -14.049 -27.027  25.361  1.00  0.00     0.000 C 
BRANCH   8   9
ATOM      9  C   UNL     1     -15.236 -27.940  25.715  1.00  0.00     0.000 C 
BRANCH   9  10
ATOM     10  C   UNL     1     -16.262 -27.257  26.646  1.00  0.00     0.000 C 
BRANCH  10  11
ATOM     11  C   UNL     1     -16.411 -27.940  28.019  1.00  0.00     0.000 C 
BRANCH  11  12
ATOM     12  C   UNL     1     -15.117 -27.999  28.852  1.00  0.00     0.000 C 
BRANCH  12  13
ATOM     13  C   UNL     1     -15.365 -28.211  30.363  1.00  0.00     0.006 C 
BRANCH  13  14
ATOM     14  C   UNL     1     -16.211 -27.094  30.983  1.00  0.00     0.053 C 
BRANCH  14  15
ATOM     15  C   UNL     1     -17.375 -27.670  31.728  1.00  0.00     0.041 C 
ATOM     16  O   UNL     1     -18.207 -28.406  31.134  1.00  0.00    -0.550 OA
ATOM     17  O   UNL     1     -17.566 -27.357  33.069  1.00  0.00    -0.550 OA
ENDBRANCH  14  15
ENDBRANCH  13  14
ENDBRANCH  12  13
ENDBRANCH  11  12
ENDBRANCH  10  11
ENDBRANCH   9  10
ENDBRANCH   8   9
ENDBRANCH   7   8
ENDBRANCH   6   7
ENDBRANCH   5   6
ENDBRANCH   4   5
ENDBRANCH   3   4
ENDBRANCH   2   3
ENDBRANCH   1   2
BRANCH   1  18
ATOM     18  C   UNL     1      -9.938 -26.463  27.201  1.00  0.00     0.000 C 
BRANCH  18  19
ATOM     19  C   UNL     1     -10.130 -27.345  28.444  1.00  0.00     0.000 C 
BRANCH  19  20
ATOM     20  C   UNL     1      -8.856 -27.366  29.302  1.00  0.00     0.000 C 
BRANCH  20  21
ATOM     21  C   UNL     1      -7.574 -27.187  28.474  1.00  0.00     0.000 C 
BRANCH  21  22
ATOM     22  C   UNL     1      -6.299 -27.290  29.330  1.00  0.00     0.000 C 
BRANCH  22  23
ATOM     23  C   UNL     1      -6.593 -27.592  30.811  1.00  0.00     0.000 C 
BRANCH  23  24
ATOM     24  C   UNL     1      -5.399 -27.415  31.772  1.00  0.00    -0.000 C 
BRANCH  24  25
ATOM     25  C   UNL     1      -5.763 -27.286  33.262  1.00  0.00    -0.000 C 
BRANCH  25  26
ATOM     26  C   UNL     1      -5.178 -26.021  33.913  1.00  0.00    -0.000 C 
BRANCH  26  27
ATOM     27  C   UNL     1      -5.424 -24.753  33.076  1.00  0.00    -0.000 C 
BRANCH  27  28
ATOM     28  C   UNL     1      -6.891 -24.284  33.006  1.00  0.00    -0.000 C 
BRANCH  28  29
ATOM     29  C   UNL     1      -7.472 -24.169  31.586  1.00  0.00    -0.000 C 
BRANCH  29  30
ATOM     30  C   UNL     1      -8.946 -24.594  31.510  1.00  0.00    -0.000 C 
BRANCH  30  31
ATOM     31  C   UNL     1      -9.264 -25.661  32.564  1.00  0.00    -0.003 C 
ATOM     32  C   UNL     1     -10.693 -26.173  32.416  1.00  0.00     0.004 C 
ENDBRANCH  30  31
ENDBRANCH  29  30
ENDBRANCH  28  29
ENDBRANCH  27  28
ENDBRANCH  26  27
ENDBRANCH  25  26
ENDBRANCH  24  25
ENDBRANCH  23  24
ENDBRANCH  22  23
ENDBRANCH  21  22
ENDBRANCH  20  21
ENDBRANCH  19  20
ENDBRANCH  18  19
ENDBRANCH   1  18
TORSDOF 28
ENDMDL
MODEL 4
REMARK VINA RESULT:    -4.973      4.994      6.626
REMARK INTER + INTRA:         -16.952
REMARK INTER:                 -13.562
REMARK INTRA:                  -3.390
REMARK UNBOUND:                -3.838
REMARK SMILES CCCCCCCCCCCCCCCCCCCCCCCCCCCCCC(=O)[O-]
REMARK SMILES IDX 16 1 17 2 18 3 19 4 20 5 21 6 22 7 23 8 24 9 25 10 26 11
REMARK SMILES IDX 27 12 28 13 29 14 30 15 31 16 32 17 15 18 14 19 13 20 12 21
REMARK SMILES IDX 11 22 10 23 9 24 8 25 7 26 6 27 5 28 4 29 3 30 2 31 1 32
REMARK H PARENT
REMARK Flexibility Score: inf
ROOT
ATOM      1  C   UNL     1     -10.521 -24.084  26.088  1.00  0.00     0.000 C 
ENDROOT
BRANCH   1   2
ATOM      2  C   UNL     1     -11.502 -22.998  25.608  1.00  0.00     0.000 C 
BRANCH   2   3
ATOM      3  C   UNL     1     -12.738 -23.577  24.900  1.00  0.00     0.000 C 
BRANCH   3   4
ATOM      4  C   UNL     1     -12.733 -25.117  24.847  1.00  0.00     0.000 C 
BRANCH   4   5
ATOM      5  C   UNL     1     -13.724 -25.744  23.847  1.00  0.00     0.000 C 
BRANCH   5   6
ATOM      6  C   UNL     1     -15.157 -25.213  24.009  1.00  0.00     0.000 C 
BRANCH   6   7
ATOM      7  C   UNL     1     -15.759 -24.837  22.646  1.00  0.00     0.000 C 
BRANCH   7   8
ATOM      8  C   UNL     1     -14.847 -23.906  21.831  1.00  0.00     0.000 C 
BRANCH   8   9
ATOM      9  C   UNL     1     -15.540 -23.345  20.576  1.00  0.00     0.000 C 
BRANCH   9  10
ATOM     10  C   UNL     1     -14.580 -22.541  19.670  1.00  0.00     0.000 C 
BRANCH  10  11
ATOM     11  C   UNL     1     -14.712 -21.013  19.823  1.00  0.00     0.000 C 
BRANCH  11  12
ATOM     12  C   UNL     1     -16.114 -20.526  20.230  1.00  0.00     0.000 C 
BRANCH  12  13
ATOM     13  C   UNL     1     -16.334 -19.013  19.999  1.00  0.00     0.006 C 
BRANCH  13  14
ATOM     14  C   UNL     1     -15.017 -18.230  19.944  1.00  0.00     0.053 C 
BRANCH  14  15
ATOM     15  C   UNL     1     -15.282 -16.757  19.984  1.00  0.00     0.041 C 
ATOM     16  O   UNL     1     -14.493 -15.986  20.592  1.00  0.00    -0.550 OA
ATOM     17  O   UNL     1     -16.427 -16.240  19.388  1.00  0.00    -0.550 OA
ENDBRANCH  14  15
ENDBRANCH  13  14
ENDBRANCH  12  13
ENDBRANCH  11  12
ENDBRANCH  10  11
ENDBRANCH   9  10
ENDBRANCH   8   9
ENDBRANCH   7   8
ENDBRANCH   6   7
ENDBRANCH   5   6
ENDBRANCH   4   5
ENDBRANCH   3   4
ENDBRANCH   2   3
ENDBRANCH   1   2
BRANCH   1  18
ATOM     18  C   UNL     1     -10.402 -24.230  27.616  1.00  0.00     0.000 C 
BRANCH  18  19
ATOM     19  C   UNL     1     -10.498 -25.688  28.090  1.00  0.00     0.000 C 
BRANCH  19  20
ATOM     20  C   UNL     1      -9.977 -26.650  27.012  1.00  0.00     0.000 C 
BRANCH  20  21
ATOM     21  C   UNL     1      -8.914 -27.625  27.543  1.00  0.00     0.000 C 
BRANCH  21  22
ATOM     22  C   UNL     1      -8.436 -27.264  28.960  1.00  0.00     0.000 C 
BRANCH  22  23
ATOM     23  C   UNL     1      -6.943 -26.892  29.014  1.00  0.00     0.000 C 
BRANCH  23  24
ATOM     24  C   UNL     1      -6.122 -27.609  30.106  1.00  0.00    -0.000 C 
BRANCH  24  25
ATOM     25  C   UNL     1      -6.835 -27.788  31.459  1.00  0.00    -0.000 C 
BRANCH  25  26
ATOM     26  C   UNL     1      -5.999 -27.282  32.647  1.00  0.00    -0.000 C 
BRANCH  26  27
ATOM     27  C   UNL     1      -5.686 -25.778  32.555  1.00  0.00    -0.000 C 
BRANCH  27  28
ATOM     28  C   UNL     1      -6.895 -24.840  32.747  1.00  0.00    -0.000 C 
BRANCH  28  29
ATOM     29  C   UNL     1      -7.448 -24.216  31.453  1.00  0.00    -0.000 C 
BRANCH  29  30
ATOM     30  C   UNL     1      -8.963 -24.414  31.298  1.00  0.00    -0.000 C 
BRANCH  30  31
ATOM     31  C   UNL     1      -9.486 -25.449  32.301  1.00  0.00    -0.003 C 
ATOM     32  C   UNL     1     -10.716 -26.170  31.758  1.00  0.00     0.004 C 
ENDBRANCH  30  31
ENDBRANCH  29  30
ENDBRANCH  28  29
ENDBRANCH  27  28
ENDBRANCH  26  27
ENDBRANCH  25  26
ENDBRANCH  24  25
ENDBRANCH  23  24
ENDBRANCH  22  23
ENDBRANCH  21  22
ENDBRANCH  20  21
ENDBRANCH  19  20
ENDBRANCH  18  19
ENDBRANCH   1  18
TORSDOF 28
ENDMDL
MODEL 5
REMARK VINA RESULT:    -4.952      2.742      8.906
REMARK INTER + INTRA:         -16.897
REMARK INTER:                 -12.772
REMARK INTRA:                  -4.125
REMARK UNBOUND:                -3.838
REMARK SMILES CCCCCCCCCCCCCCCCCCCCCCCCCCCCCC(=O)[O-]
REMARK SMILES IDX 16 1 17 2 18 3 19 4 20 5 21 6 22 7 23 8 24 9 25 10 26 11
REMARK SMILES IDX 27 12 28 13 29 14 30 15 31 16 32 17 15 18 14 19 13 20 12 21
REMARK SMILES IDX 11 22 10 23 9 24 8 25 7 26 6 27 5 28 4 29 3 30 2 31 1 32
REMARK H PARENT
REMARK Flexibility Score: inf
ROOT
ATOM      1  C   UNL     1     -12.238 -27.663  27.618  1.00  0.00     0.000 C 
ENDROOT
BRANCH   1   2
ATOM      2  C   UNL     1     -10.913 -28.440  27.505  1.00  0.00     0.000 C 
BRANCH   2   3
ATOM      3  C   UNL     1      -9.794 -27.621  26.841  1.00  0.00     0.000 C 
BRANCH   3   4
ATOM      4  C   UNL     1      -8.460 -27.693  27.608  1.00  0.00     0.000 C 
BRANCH   4   5
ATOM      5  C   UNL     1      -8.284 -26.645  28.723  1.00  0.00     0.000 C 
BRANCH   5   6
ATOM      6  C   UNL     1      -9.131 -25.383  28.501  1.00  0.00     0.000 C 
BRANCH   6   7
ATOM      7  C   UNL     1      -9.986 -25.070  29.740  1.00  0.00     0.000 C 
BRANCH   7   8
ATOM      8  C   UNL     1     -10.012 -26.229  30.749  1.00  0.00     0.000 C 
BRANCH   8   9
ATOM      9  C   UNL     1      -9.954 -25.746  32.210  1.00  0.00     0.000 C 
BRANCH   9  10
ATOM     10  C   UNL     1      -8.543 -25.872  32.827  1.00  0.00     0.000 C 
BRANCH  10  11
ATOM     11  C   UNL     1      -7.602 -24.701  32.479  1.00  0.00     0.000 C 
BRANCH  11  12
ATOM     12  C   UNL     1      -6.219 -24.766  33.152  1.00  0.00     0.000 C 
BRANCH  12  13
ATOM     13  C   UNL     1      -5.220 -25.693  32.422  1.00  0.00     0.006 C 
BRANCH  13  14
ATOM     14  C   UNL     1      -5.464 -25.747  30.910  1.00  0.00     0.053 C 
BRANCH  14  15
ATOM     15  C   UNL     1      -4.995 -27.053  30.350  1.00  0.00     0.041 C 
ATOM     16  O   UNL     1      -5.075 -28.104  31.039  1.00  0.00    -0.550 OA
ATOM     17  O   UNL     1      -4.428 -27.102  29.082  1.00  0.00    -0.550 OA
ENDBRANCH  14  15
ENDBRANCH  13  14
ENDBRANCH  12  13
ENDBRANCH  11  12
ENDBRANCH  10  11
ENDBRANCH   9  10
ENDBRANCH   8   9
ENDBRANCH   7   8
ENDBRANCH   6   7
ENDBRANCH   5   6
ENDBRANCH   4   5
ENDBRANCH   3   4
ENDBRANCH   2   3
ENDBRANCH   1   2
BRANCH   1  18
ATOM     18  C   UNL     1     -12.886 -27.672  29.015  1.00  0.00     0.000 C 
BRANCH  18  19
ATOM     19  C   UNL     1     -14.323 -28.216  29.008  1.00  0.00     0.000 C 
BRANCH  19  20
ATOM     20  C   UNL     1     -14.885 -28.298  30.435  1.00  0.00     0.000 C 
BRANCH  20  21
ATOM     21  C   UNL     1     -16.085 -27.364  30.661  1.00  0.00     0.000 C 
BRANCH  21  22
ATOM     22  C   UNL     1     -17.154 -27.501  29.563  1.00  0.00     0.000 C 
BRANCH  22  23
ATOM     23  C   UNL     1     -17.463 -26.167  28.858  1.00  0.00     0.000 C 
BRANCH  23  24
ATOM     24  C   UNL     1     -17.137 -26.125  27.350  1.00  0.00    -0.000 C 
BRANCH  24  25
ATOM     25  C   UNL     1     -16.961 -27.497  26.673  1.00  0.00    -0.000 C 
BRANCH  25  26
ATOM     26  C   UNL     1     -15.622 -27.628  25.928  1.00  0.00    -0.000 C 
BRANCH  26  27
ATOM     27  C   UNL     1     -15.314 -26.410  25.039  1.00  0.00    -0.000 C 
BRANCH  27  28
ATOM     28  C   UNL     1     -13.873 -26.339  24.495  1.00  0.00    -0.000 C 
BRANCH  28  29
ATOM     29  C   UNL     1     -13.171 -24.982  24.682  1.00  0.00    -0.000 C 
BRANCH  29  30
ATOM     30  C   UNL     1     -11.661 -25.122  24.922  1.00  0.00    -0.000 C 
BRANCH  30  31
ATOM     31  C   UNL     1     -11.157 -24.045  25.890  1.00  0.00    -0.003 C 
ATOM     32  C   UNL     1     -11.778 -22.688  25.576  1.00  0.00     0.004 C 
ENDBRANCH  30  31
ENDBRANCH  29  30
ENDBRANCH  28  29
ENDBRANCH  27  28
ENDBRANCH  26  27
ENDBRANCH  25  26
ENDBRANCH  24  25
ENDBRANCH  23  24
ENDBRANCH  22  23
ENDBRANCH  21  22
ENDBRANCH  20  21
ENDBRANCH  19  20
ENDBRANCH  18  19
ENDBRANCH   1  18
TORSDOF 28
ENDMDL
MODEL 6
REMARK VINA RESULT:    -4.934      6.123      8.438
REMARK INTER + INTRA:         -16.847
REMARK INTER:                 -13.275
REMARK INTRA:                  -3.573
REMARK UNBOUND:                -3.838
REMARK SMILES CCCCCCCCCCCCCCCCCCCCCCCCCCCCCC(=O)[O-]
REMARK SMILES IDX 16 1 17 2 18 3 19 4 20 5 21 6 22 7 23 8 24 9 25 10 26 11
REMARK SMILES IDX 27 12 28 13 29 14 30 15 31 16 32 17 15 18 14 19 13 20 12 21
REMARK SMILES IDX 11 22 10 23 9 24 8 25 7 26 6 27 5 28 4 29 3 30 2 31 1 32
REMARK H PARENT
REMARK Flexibility Score: inf
ROOT
ATOM      1  C   UNL     1     -15.852 -24.176  21.778  1.00  0.00     0.000 C 
ENDROOT
BRANCH   1   2
ATOM      2  C   UNL     1     -15.637 -23.661  20.343  1.00  0.00     0.000 C 
BRANCH   2   3
ATOM      3  C   UNL     1     -14.725 -22.423  20.282  1.00  0.00     0.000 C 
BRANCH   3   4
ATOM      4  C   UNL     1     -14.498 -21.915  18.846  1.00  0.00     0.000 C 
BRANCH   4   5
ATOM      5  C   UNL     1     -15.155 -22.758  17.737  1.00  0.00     0.000 C 
BRANCH   5   6
ATOM      6  C   UNL     1     -15.898 -21.907  16.696  1.00  0.00     0.000 C 
BRANCH   6   7
ATOM      7  C   UNL     1     -17.214 -22.581  16.274  1.00  0.00     0.000 C 
BRANCH   7   8
ATOM      8  C   UNL     1     -17.988 -23.167  17.466  1.00  0.00     0.000 C 
BRANCH   8   9
ATOM      9  C   UNL     1     -18.947 -22.150  18.110  1.00  0.00     0.000 C 
BRANCH   9  10
ATOM     10  C   UNL     1     -18.694 -21.960  19.622  1.00  0.00     0.000 C 
BRANCH  10  11
ATOM     11  C   UNL     1     -17.912 -20.678  19.968  1.00  0.00     0.000 C 
BRANCH  11  12
ATOM     12  C   UNL     1     -17.986 -19.572  18.901  1.00  0.00     0.000 C 
BRANCH  12  13
ATOM     13  C   UNL     1     -16.617 -18.928  18.582  1.00  0.00     0.006 C 
BRANCH  13  14
ATOM     14  C   UNL     1     -15.942 -18.335  19.823  1.00  0.00     0.053 C 
BRANCH  14  15
ATOM     15  C   UNL     1     -15.036 -17.207  19.438  1.00  0.00     0.041 C 
ATOM     16  O   UNL     1     -14.838 -16.938  18.224  1.00  0.00    -0.550 OA
ATOM     17  O   UNL     1     -14.375 -16.480  20.421  1.00  0.00    -0.550 OA
ENDBRANCH  14  15
ENDBRANCH  13  14
ENDBRANCH  12  13
ENDBRANCH  11  12
ENDBRANCH  10  11
ENDBRANCH   9  10
ENDBRANCH   8   9
ENDBRANCH   7   8
ENDBRANCH   6   7
ENDBRANCH   5   6
ENDBRANCH   4   5
ENDBRANCH   3   4
ENDBRANCH   2   3
ENDBRANCH   1   2
BRANCH   1  18
ATOM     18  C   UNL     1     -14.585 -24.239  22.650  1.00  0.00     0.000 C 
BRANCH  18  19
ATOM     19  C   UNL     1     -14.597 -25.408  23.647  1.00  0.00     0.000 C 
BRANCH  19  20
ATOM     20  C   UNL     1     -13.289 -25.456  24.450  1.00  0.00     0.000 C 
BRANCH  20  21
ATOM     21  C   UNL     1     -12.788 -24.063  24.863  1.00  0.00     0.000 C 
BRANCH  21  22
ATOM     22  C   UNL     1     -11.369 -24.096  25.456  1.00  0.00     0.000 C 
BRANCH  22  23
ATOM     23  C   UNL     1     -10.768 -25.514  25.495  1.00  0.00     0.000 C 
BRANCH  23  24
ATOM     24  C   UNL     1     -10.278 -25.987  26.879  1.00  0.00    -0.000 C 
BRANCH  24  25
ATOM     25  C   UNL     1     -10.028 -24.871  27.909  1.00  0.00    -0.000 C 
BRANCH  25  26
ATOM     26  C   UNL     1     -10.247 -25.336  29.359  1.00  0.00    -0.000 C 
BRANCH  26  27
ATOM     27  C   UNL     1     -10.257 -26.868  29.497  1.00  0.00    -0.000 C 
BRANCH  27  28
ATOM     28  C   UNL     1      -9.064 -27.469  30.268  1.00  0.00    -0.000 C 
BRANCH  28  29
ATOM     29  C   UNL     1      -7.703 -26.809  29.981  1.00  0.00    -0.000 C 
BRANCH  29  30
ATOM     30  C   UNL     1      -6.891 -26.540  31.256  1.00  0.00    -0.000 C 
BRANCH  30  31
ATOM     31  C   UNL     1      -6.466 -25.069  31.335  1.00  0.00    -0.003 C 
ATOM     32  C   UNL     1      -7.235 -24.332  32.427  1.00  0.00     0.004 C 
ENDBRANCH  30  31
ENDBRANCH  29  30
ENDBRANCH  28  29
ENDBRANCH  27  28
ENDBRANCH  26  27
ENDBRANCH  25  26
ENDBRANCH  24  25
ENDBRANCH  23  24
ENDBRANCH  22  23
ENDBRANCH  21  22
ENDBRANCH  20  21
ENDBRANCH  19  20
ENDBRANCH  18  19
ENDBRANCH   1  18
TORSDOF 28
ENDMDL
MODEL 7
REMARK VINA RESULT:    -4.930      5.633      7.603
REMARK INTER + INTRA:         -16.837
REMARK INTER:                 -13.604
REMARK INTRA:                  -3.233
REMARK UNBOUND:                -3.838
REMARK SMILES CCCCCCCCCCCCCCCCCCCCCCCCCCCCCC(=O)[O-]
REMARK SMILES IDX 16 1 17 2 18 3 19 4 20 5 21 6 22 7 23 8 24 9 25 10 26 11
REMARK SMILES IDX 27 12 28 13 29 14 30 15 31 16 32 17 15 18 14 19 13 20 12 21
REMARK SMILES IDX 11 22 10 23 9 24 8 25 7 26 6 27 5 28 4 29 3 30 2 31 1 32
REMARK H PARENT
REMARK Flexibility Score: inf
ROOT
ATOM      1  C   UNL     1     -14.438 -25.709  23.389  1.00  0.00     0.000 C 
ENDROOT
BRANCH   1   2
ATOM      2  C   UNL     1     -14.659 -24.264  22.906  1.00  0.00     0.000 C 
BRANCH   2   3
ATOM      3  C   UNL     1     -15.284 -24.190  21.503  1.00  0.00     0.000 C 
BRANCH   3   4
ATOM      4  C   UNL     1     -14.872 -22.925  20.726  1.00  0.00     0.000 C 
BRANCH   4   5
ATOM      5  C   UNL     1     -15.765 -22.571  19.523  1.00  0.00     0.000 C 
BRANCH   5   6
ATOM      6  C   UNL     1     -14.968 -22.338  18.230  1.00  0.00     0.000 C 
BRANCH   6   7
ATOM      7  C   UNL     1     -15.875 -22.462  16.996  1.00  0.00     0.000 C 
BRANCH   7   8
ATOM      8  C   UNL     1     -16.774 -23.708  17.043  1.00  0.00     0.000 C 
BRANCH   8   9
ATOM      9  C   UNL     1     -18.244 -23.393  16.715  1.00  0.00     0.000 C 
BRANCH   9  10
ATOM     10  C   UNL     1     -19.009 -22.784  17.911  1.00  0.00     0.000 C 
BRANCH  10  11
ATOM     11  C   UNL     1     -19.681 -21.433  17.599  1.00  0.00     0.000 C 
BRANCH  11  12
ATOM     12  C   UNL     1     -18.709 -20.246  17.470  1.00  0.00     0.000 C 
BRANCH  12  13
ATOM     13  C   UNL     1     -18.062 -19.829  18.810  1.00  0.00     0.006 C 
BRANCH  13  14
ATOM     14  C   UNL     1     -16.865 -18.891  18.619  1.00  0.00     0.053 C 
BRANCH  14  15
ATOM     15  C   UNL     1     -16.120 -18.723  19.906  1.00  0.00     0.041 C 
ATOM     16  O   UNL     1     -14.985 -19.248  20.056  1.00  0.00    -0.550 OA
ATOM     17  O   UNL     1     -16.699 -18.023  20.958  1.00  0.00    -0.550 OA
ENDBRANCH  14  15
ENDBRANCH  13  14
ENDBRANCH  12  13
ENDBRANCH  11  12
ENDBRANCH  10  11
ENDBRANCH   9  10
ENDBRANCH   8   9
ENDBRANCH   7   8
ENDBRANCH   6   7
ENDBRANCH   5   6
ENDBRANCH   4   5
ENDBRANCH   3   4
ENDBRANCH   2   3
ENDBRANCH   1   2
BRANCH   1  18
ATOM     18  C   UNL     1     -13.386 -25.875  24.501  1.00  0.00     0.000 C 
BRANCH  18  19
ATOM     19  C   UNL     1     -12.682 -24.559  24.864  1.00  0.00     0.000 C 
BRANCH  19  20
ATOM     20  C   UNL     1     -11.166 -24.769  25.001  1.00  0.00     0.000 C 
BRANCH  20  21
ATOM     21  C   UNL     1     -10.775 -25.467  26.314  1.00  0.00     0.000 C 
BRANCH  21  22
ATOM     22  C   UNL     1     -10.303 -24.476  27.393  1.00  0.00     0.000 C 
BRANCH  22  23
ATOM     23  C   UNL     1     -10.191 -25.117  28.788  1.00  0.00     0.000 C 
BRANCH  23  24
ATOM     24  C   UNL     1     -10.551 -26.615  28.858  1.00  0.00    -0.000 C 
BRANCH  24  25
ATOM     25  C   UNL     1      -9.360 -27.575  29.035  1.00  0.00    -0.000 C 
BRANCH  25  26
ATOM     26  C   UNL     1      -8.120 -27.141  28.236  1.00  0.00    -0.000 C 
BRANCH  26  27
ATOM     27  C   UNL     1      -6.820 -27.241  29.054  1.00  0.00    -0.000 C 
BRANCH  27  28
ATOM     28  C   UNL     1      -6.975 -26.999  30.569  1.00  0.00    -0.000 C 
BRANCH  28  29
ATOM     29  C   UNL     1      -7.043 -25.520  30.991  1.00  0.00    -0.000 C 
BRANCH  29  30
ATOM     30  C   UNL     1      -7.740 -25.318  32.344  1.00  0.00    -0.000 C 
BRANCH  30  31
ATOM     31  C   UNL     1      -9.226 -24.991  32.151  1.00  0.00    -0.003 C 
ATOM     32  C   UNL     1     -10.104 -26.181  32.522  1.00  0.00     0.004 C 
ENDBRANCH  30  31
ENDBRANCH  29  30
ENDBRANCH  28  29
ENDBRANCH  27  28
ENDBRANCH  26  27
ENDBRANCH  25  26
ENDBRANCH  24  25
ENDBRANCH  23  24
ENDBRANCH  22  23
ENDBRANCH  21  22
ENDBRANCH  20  21
ENDBRANCH  19  20
ENDBRANCH  18  19
ENDBRANCH   1  18
TORSDOF 28
ENDMDL
MODEL 8
REMARK VINA RESULT:    -4.928      6.010      8.508
REMARK INTER + INTRA:         -16.832
REMARK INTER:                 -13.362
REMARK INTRA:                  -3.470
REMARK UNBOUND:                -3.838
REMARK SMILES CCCCCCCCCCCCCCCCCCCCCCCCCCCCCC(=O)[O-]
REMARK SMILES IDX 16 1 17 2 18 3 19 4 20 5 21 6 22 7 23 8 24 9 25 10 26 11
REMARK SMILES IDX 27 12 28 13 29 14 30 15 31 16 32 17 15 18 14 19 13 20 12 21
REMARK SMILES IDX 11 22 10 23 9 24 8 25 7 26 6 27 5 28 4 29 3 30 2 31 1 32
REMARK H PARENT
REMARK Flexibility Score: inf
ROOT
ATOM      1  C   UNL     1     -14.761 -23.964  22.135  1.00  0.00     0.000 C 
ENDROOT
BRANCH   1   2
ATOM      2  C   UNL     1     -15.720 -23.887  20.933  1.00  0.00     0.000 C 
BRANCH   2   3
ATOM      3  C   UNL     1     -15.704 -22.513  20.242  1.00  0.00     0.000 C 
BRANCH   3   4
ATOM      4  C   UNL     1     -14.539 -22.354  19.247  1.00  0.00     0.000 C 
BRANCH   4   5
ATOM      5  C   UNL     1     -14.944 -21.941  17.819  1.00  0.00     0.000 C 
BRANCH   5   6
ATOM      6  C   UNL     1     -15.785 -23.007  17.101  1.00  0.00     0.000 C 
BRANCH   6   7
ATOM      7  C   UNL     1     -17.068 -22.393  16.519  1.00  0.00     0.000 C 
BRANCH   7   8
ATOM      8  C   UNL     1     -18.283 -23.326  16.646  1.00  0.00     0.000 C 
BRANCH   8   9
ATOM      9  C   UNL     1     -19.418 -22.714  17.486  1.00  0.00     0.000 C 
BRANCH   9  10
ATOM     10  C   UNL     1     -19.120 -22.737  19.003  1.00  0.00     0.000 C 
BRANCH  10  11
ATOM     11  C   UNL     1     -19.209 -21.354  19.677  1.00  0.00     0.000 C 
BRANCH  11  12
ATOM     12  C   UNL     1     -18.669 -20.189  18.828  1.00  0.00     0.000 C 
BRANCH  12  13
ATOM     13  C   UNL     1     -17.803 -19.190  19.630  1.00  0.00     0.006 C 
BRANCH  13  14
ATOM     14  C   UNL     1     -17.075 -18.186  18.728  1.00  0.00     0.053 C 
BRANCH  14  15
ATOM     15  C   UNL     1     -15.622 -18.122  19.082  1.00  0.00     0.041 C 
ATOM     16  O   UNL     1     -15.116 -18.987  19.845  1.00  0.00    -0.550 OA
ATOM     17  O   UNL     1     -14.836 -17.079  18.606  1.00  0.00    -0.550 OA
ENDBRANCH  14  15
ENDBRANCH  13  14
ENDBRANCH  12  13
ENDBRANCH  11  12
ENDBRANCH  10  11
ENDBRANCH   9  10
ENDBRANCH   8   9
ENDBRANCH   7   8
ENDBRANCH   6   7
ENDBRANCH   5   6
ENDBRANCH   4   5
ENDBRANCH   3   4
ENDBRANCH   2   3
ENDBRANCH   1   2
BRANCH   1  18
ATOM     18  C   UNL     1     -15.201 -24.912  23.265  1.00  0.00     0.000 C 
BRANCH  18  19
ATOM     19  C   UNL     1     -14.075 -25.840  23.745  1.00  0.00     0.000 C 
BRANCH  19  20
ATOM     20  C   UNL     1     -14.631 -27.218  24.137  1.00  0.00     0.000 C 
BRANCH  20  21
ATOM     21  C   UNL     1     -14.401 -27.556  25.619  1.00  0.00     0.000 C 
BRANCH  21  22
ATOM     22  C   UNL     1     -12.916 -27.490  26.018  1.00  0.00     0.000 C 
BRANCH  22  23
ATOM     23  C   UNL     1     -12.694 -27.654  27.532  1.00  0.00     0.000 C 
BRANCH  23  24
ATOM     24  C   UNL     1     -11.408 -28.407  27.934  1.00  0.00    -0.000 C 
BRANCH  24  25
ATOM     25  C   UNL     1     -10.337 -28.520  26.834  1.00  0.00    -0.000 C 
BRANCH  25  26
ATOM     26  C   UNL     1      -9.039 -27.772  27.186  1.00  0.00    -0.000 C 
BRANCH  26  27
ATOM     27  C   UNL     1      -9.204 -26.829  28.391  1.00  0.00    -0.000 C 
BRANCH  27  28
ATOM     28  C   UNL     1      -9.250 -25.325  28.050  1.00  0.00    -0.000 C 
BRANCH  28  29
ATOM     29  C   UNL     1     -10.601 -24.820  27.512  1.00  0.00    -0.000 C 
BRANCH  29  30
ATOM     30  C   UNL     1     -10.591 -24.598  25.993  1.00  0.00    -0.000 C 
BRANCH  30  31
ATOM     31  C   UNL     1     -11.519 -23.442  25.601  1.00  0.00    -0.003 C 
ATOM     32  C   UNL     1     -11.152 -22.164  26.348  1.00  0.00     0.004 C 
ENDBRANCH  30  31
ENDBRANCH  29  30
ENDBRANCH  28  29
ENDBRANCH  27  28
ENDBRANCH  26  27
ENDBRANCH  25  26
ENDBRANCH  24  25
ENDBRANCH  23  24
ENDBRANCH  22  23
ENDBRANCH  21  22
ENDBRANCH  20  21
ENDBRANCH  19  20
ENDBRANCH  18  19
ENDBRANCH   1  18
TORSDOF 28
ENDMDL
MODEL 9
REMARK VINA RESULT:    -4.914      6.518      9.324
REMARK INTER + INTRA:         -16.796
REMARK INTER:                 -13.252
REMARK INTRA:                  -3.544
REMARK UNBOUND:                -3.838
REMARK SMILES CCCCCCCCCCCCCCCCCCCCCCCCCCCCCC(=O)[O-]
REMARK SMILES IDX 16 1 17 2 18 3 19 4 20 5 21 6 22 7 23 8 24 9 25 10 26 11
REMARK SMILES IDX 27 12 28 13 29 14 30 15 31 16 32 17 15 18 14 19 13 20 12 21
REMARK SMILES IDX 11 22 10 23 9 24 8 25 7 26 6 27 5 28 4 29 3 30 2 31 1 32
REMARK H PARENT
REMARK Flexibility Score: inf
ROOT
ATOM      1  C   UNL     1     -14.492 -22.551  21.102  1.00  0.00     0.000 C 
ENDROOT
BRANCH   1   2
ATOM      2  C   UNL     1     -14.661 -21.432  20.059  1.00  0.00     0.000 C 
BRANCH   2   3
ATOM      3  C   UNL     1     -14.627 -21.951  18.612  1.00  0.00     0.000 C 
BRANCH   3   4
ATOM      4  C   UNL     1     -15.265 -20.973  17.607  1.00  0.00     0.000 C 
BRANCH   4   5
ATOM      5  C   UNL     1     -16.107 -21.628  16.495  1.00  0.00     0.000 C 
BRANCH   5   6
ATOM      6  C   UNL     1     -16.425 -23.105  16.774  1.00  0.00     0.000 C 
BRANCH   6   7
ATOM      7  C   UNL     1     -17.940 -23.359  16.723  1.00  0.00     0.000 C 
BRANCH   7   8
ATOM      8  C   UNL     1     -18.733 -22.396  17.620  1.00  0.00     0.000 C 
BRANCH   8   9
ATOM      9  C   UNL     1     -18.329 -22.495  19.102  1.00  0.00     0.000 C 
BRANCH   9  10
ATOM     10  C   UNL     1     -18.440 -21.145  19.846  1.00  0.00     0.000 C 
BRANCH  10  11
ATOM     11  C   UNL     1     -18.855 -19.968  18.943  1.00  0.00     0.000 C 
BRANCH  11  12
ATOM     12  C   UNL     1     -18.460 -18.578  19.475  1.00  0.00     0.000 C 
BRANCH  12  13
ATOM     13  C   UNL     1     -17.200 -17.993  18.798  1.00  0.00     0.006 C 
BRANCH  13  14
ATOM     14  C   UNL     1     -16.699 -16.719  19.487  1.00  0.00     0.053 C 
BRANCH  14  15
ATOM     15  C   UNL     1     -15.220 -16.572  19.307  1.00  0.00     0.041 C 
ATOM     16  O   UNL     1     -14.474 -16.388  20.304  1.00  0.00    -0.550 OA
ATOM     17  O   UNL     1     -14.671 -16.594  18.030  1.00  0.00    -0.550 OA
ENDBRANCH  14  15
ENDBRANCH  13  14
ENDBRANCH  12  13
ENDBRANCH  11  12
ENDBRANCH  10  11
ENDBRANCH   9  10
ENDBRANCH   8   9
ENDBRANCH   7   8
ENDBRANCH   6   7
ENDBRANCH   5   6
ENDBRANCH   4   5
ENDBRANCH   3   4
ENDBRANCH   2   3
ENDBRANCH   1   2
BRANCH   1  18
ATOM     18  C   UNL     1     -15.416 -23.768  20.913  1.00  0.00     0.000 C 
BRANCH  18  19
ATOM     19  C   UNL     1     -15.497 -24.662  22.161  1.00  0.00     0.000 C 
BRANCH  19  20
ATOM     20  C   UNL     1     -14.446 -24.245  23.201  1.00  0.00     0.000 C 
BRANCH  20  21
ATOM     21  C   UNL     1     -13.873 -25.437  23.984  1.00  0.00     0.000 C 
BRANCH  21  22
ATOM     22  C   UNL     1     -14.961 -26.427  24.434  1.00  0.00     0.000 C 
BRANCH  22  23
ATOM     23  C   UNL     1     -14.478 -27.390  25.534  1.00  0.00     0.000 C 
BRANCH  23  24
ATOM     24  C   UNL     1     -13.012 -27.205  25.978  1.00  0.00    -0.000 C 
BRANCH  24  25
ATOM     25  C   UNL     1     -12.694 -27.657  27.415  1.00  0.00    -0.000 C 
BRANCH  25  26
ATOM     26  C   UNL     1     -11.305 -28.306  27.543  1.00  0.00    -0.000 C 
BRANCH  26  27
ATOM     27  C   UNL     1     -10.377 -27.540  28.502  1.00  0.00    -0.000 C 
BRANCH  27  28
ATOM     28  C   UNL     1     -10.612 -26.018  28.572  1.00  0.00    -0.000 C 
BRANCH  28  29
ATOM     29  C   UNL     1      -9.685 -25.173  27.679  1.00  0.00    -0.000 C 
BRANCH  29  30
ATOM     30  C   UNL     1     -10.389 -24.650  26.418  1.00  0.00    -0.000 C 
BRANCH  30  31
ATOM     31  C   UNL     1     -10.775 -23.175  26.578  1.00  0.00    -0.003 C 
ATOM     32  C   UNL     1     -11.845 -22.773  25.568  1.00  0.00     0.004 C 
ENDBRANCH  30  31
ENDBRANCH  29  30
ENDBRANCH  28  29
ENDBRANCH  27  28
ENDBRANCH  26  27
ENDBRANCH  25  26
ENDBRANCH  24  25
ENDBRANCH  23  24
ENDBRANCH  22  23
ENDBRANCH  21  22
ENDBRANCH  20  21
ENDBRANCH  19  20
ENDBRANCH  18  19
ENDBRANCH   1  18
TORSDOF 28
ENDMDL
