MODEL 1
REMARK VINA RESULT:    -4.156      0.000      0.000
REMARK INTER + INTRA:          -7.587
REMARK INTER:                  -6.586
REMARK INTRA:                  -1.000
REMARK UNBOUND:                -1.000
REMARK SMILES CCCCCCCCCCCC(=O)[O-]
REMARK SMILES IDX 7 1 8 2 9 3 10 4 11 5 12 6 13 7 14 8 6 9 5 10 4 11 3 12 2 13
REMARK SMILES IDX 1 14
REMARK H PARENT
REMARK Flexibility Score: inf
ROOT
ATOM      1  C   UNL     1     -10.913  -3.677   3.838  1.00  0.00     0.000 C 
ENDROOT
BRANCH   1   2
ATOM      2  C   UNL     1     -10.133  -3.110   2.643  1.00  0.00     0.000 C 
BRANCH   2   3
ATOM      3  C   UNL     1     -10.748  -1.787   2.164  1.00  0.00     0.000 C 
BRANCH   3   4
ATOM      4  C   UNL     1      -9.739  -0.629   2.167  1.00  0.00     0.006 C 
BRANCH   4   5
ATOM      5  C   UNL     1      -9.815   0.220   3.443  1.00  0.00     0.053 C 
BRANCH   5   6
ATOM      6  C   UNL     1     -10.491   1.525   3.163  1.00  0.00     0.041 C 
ATOM      7  O   UNL     1     -11.075   1.712   2.064  1.00  0.00    -0.550 OA
ATOM      8  O   UNL     1     -10.432   2.554   4.095  1.00  0.00    -0.550 OA
ENDBRANCH   5   6
ENDBRANCH   4   5
ENDBRANCH   3   4
ENDBRANCH   2   3
ENDBRANCH   1   2
BRANCH   1   9
ATOM      9  C   UNL     1     -10.271  -3.322   5.189  1.00  0.00     0.000 C 
BRANCH   9  10
ATOM     10  C   UNL     1      -8.744  -3.487   5.181  1.00  0.00    -0.000 C 
BRANCH  10  11
ATOM     11  C   UNL     1      -8.280  -4.362   6.351  1.00  0.00    -0.000 C 
BRANCH  11  12
ATOM     12  C   UNL     1      -9.357  -5.390   6.729  1.00  0.00    -0.000 C 
BRANCH  12  13
ATOM     13  C   UNL     1      -9.023  -6.805   6.232  1.00  0.00    -0.003 C 
ATOM     14  C   UNL     1      -9.638  -7.113   4.867  1.00  0.00     0.004 C 
ENDBRANCH  12  13
ENDBRANCH  11  12
ENDBRANCH  10  11
ENDBRANCH   9  10
ENDBRANCH   1   9
TORSDOF 10
ENDMDL
MODEL 2
REMARK VINA RESULT:    -4.106      4.148      6.090
REMARK INTER + INTRA:          -7.506
REMARK INTER:                  -6.320
REMARK INTRA:                  -1.187
REMARK UNBOUND:                -1.000
REMARK SMILES CCCCCCCCCCCC(=O)[O-]
REMARK SMILES IDX 7 1 8 2 9 3 10 4 11 5 12 6 13 7 14 8 6 9 5 10 4 11 3 12 2 13
REMARK SMILES IDX 1 14
REMARK H PARENT
REMARK Flexibility Score: inf
ROOT
ATOM      1  C   UNL     1      -8.938  -2.059   3.634  1.00  0.00     0.000 C 
ENDROOT
BRANCH   1   2
ATOM      2  C   UNL     1      -8.676  -3.462   4.199  1.00  0.00     0.000 C 
BRANCH   2   3
ATOM      3  C   UNL     1      -9.141  -3.561   5.660  1.00  0.00     0.000 C 
BRANCH   3   4
ATOM      4  C   UNL     1      -8.604  -4.813   6.370  1.00  0.00     0.006 C 
BRANCH   4   5
ATOM      5  C   UNL     1      -9.634  -5.949   6.426  1.00  0.00     0.053 C 
BRANCH   5   6
ATOM      6  C   UNL     1      -9.123  -7.154   5.700  1.00  0.00     0.041 C 
ATOM      7  O   UNL     1      -9.480  -7.377   4.514  1.00  0.00    -0.550 OA
ATOM      8  O   UNL     1      -8.293  -8.058   6.351  1.00  0.00    -0.550 OA
ENDBRANCH   5   6
ENDBRANCH   4   5
ENDBRANCH   3   4
ENDBRANCH   2   3
ENDBRANCH   1   2
BRANCH   1   9
ATOM      9  C   UNL     1      -9.768  -2.085   2.340  1.00  0.00     0.000 C 
BRANCH   9  10
ATOM     10  C   UNL     1     -11.002  -2.993   2.446  1.00  0.00    -0.000 C 
BRANCH  10  11
ATOM     11  C   UNL     1     -12.086  -2.348   3.317  1.00  0.00    -0.000 C 
BRANCH  11  12
ATOM     12  C   UNL     1     -12.641  -3.353   4.337  1.00  0.00    -0.000 C 
BRANCH  12  13
ATOM     13  C   UNL     1     -12.270  -4.804   3.998  1.00  0.00    -0.003 C 
ATOM     14  C   UNL     1     -13.452  -5.605   3.450  1.00  0.00     0.004 C 
ENDBRANCH  12  13
ENDBRANCH  11  12
ENDBRANCH  10  11
ENDBRANCH   9  10
ENDBRANCH   1   9
TORSDOF 10
ENDMDL
MODEL 3
REMARK VINA RESULT:    -4.074      4.356      7.007
REMARK INTER + INTRA:          -7.455
REMARK INTER:                  -6.607
REMARK INTRA:                  -0.848
REMARK UNBOUND:                -1.000
REMARK SMILES CCCCCCCCCCCC(=O)[O-]
REMARK SMILES IDX 7 1 8 2 9 3 10 4 11 5 12 6 13 7 14 8 6 9 5 10 4 11 3 12 2 13
REMARK SMILES IDX 1 14
REMARK H PARENT
REMARK Flexibility Score: inf
ROOT
ATOM      1  C   UNL     1      -8.746  -3.196   4.300  1.00  0.00     0.000 C 
ENDROOT
BRANCH   1   2
ATOM      2  C   UNL     1      -9.202  -3.937   5.565  1.00  0.00     0.000 C 
BRANCH   2   3
ATOM      3  C   UNL     1     -10.441  -4.799   5.280  1.00  0.00     0.000 C 
BRANCH   3   4
ATOM      4  C   UNL     1     -10.135  -6.304   5.304  1.00  0.00     0.006 C 
BRANCH   4   5
ATOM      5  C   UNL     1      -9.015  -6.664   6.290  1.00  0.00     0.053 C 
BRANCH   5   6
ATOM      6  C   UNL     1      -9.558  -7.478   7.422  1.00  0.00     0.041 C 
ATOM      7  O   UNL     1     -10.215  -8.526   7.189  1.00  0.00    -0.550 OA
ATOM      8  O   UNL     1      -9.382  -7.053   8.732  1.00  0.00    -0.550 OA
ENDBRANCH   5   6
ENDBRANCH   4   5
ENDBRANCH   3   4
ENDBRANCH   2   3
ENDBRANCH   1   2
BRANCH   1   9
ATOM      9  C   UNL     1      -9.677  -3.438   3.101  1.00  0.00     0.000 C 
BRANCH   9  10
ATOM     10  C   UNL     1     -10.258  -2.137   2.529  1.00  0.00    -0.000 C 
BRANCH  10  11
ATOM     11  C   UNL     1     -10.271  -1.029   3.589  1.00  0.00    -0.000 C 
BRANCH  11  12
ATOM     12  C   UNL     1      -9.360   0.137   3.176  1.00  0.00    -0.000 C 
BRANCH  12  13
ATOM     13  C   UNL     1      -8.592  -0.146   1.876  1.00  0.00    -0.003 C 
ATOM     14  C   UNL     1      -7.076  -0.152   2.073  1.00  0.00     0.004 C 
ENDBRANCH  12  13
ENDBRANCH  11  12
ENDBRANCH  10  11
ENDBRANCH   9  10
ENDBRANCH   1   9
TORSDOF 10
ENDMDL
MODEL 4
REMARK VINA RESULT:    -4.057      3.598      5.822
REMARK INTER + INTRA:          -7.430
REMARK INTER:                  -5.886
REMARK INTRA:                  -1.544
REMARK UNBOUND:                -1.000
REMARK SMILES CCCCCCCCCCCC(=O)[O-]
REMARK SMILES IDX 7 1 8 2 9 3 10 4 11 5 12 6 13 7 14 8 6 9 5 10 4 11 3 12 2 13
REMARK SMILES IDX 1 14
REMARK H PARENT
REMARK Flexibility Score: inf
ROOT
ATOM      1  C   UNL     1      -8.593  -1.245   2.767  1.00  0.00     0.000 C 
ENDROOT
BRANCH   1   2
ATOM      2  C   UNL     1      -9.689  -2.128   2.151  1.00  0.00     0.000 C 
BRANCH   2   3
ATOM      3  C   UNL     1     -10.023  -3.310   3.074  1.00  0.00     0.000 C 
BRANCH   3   4
ATOM      4  C   UNL     1      -9.148  -3.341   4.337  1.00  0.00     0.006 C 
BRANCH   4   5
ATOM      5  C   UNL     1      -9.914  -3.829   5.574  1.00  0.00     0.053 C 
BRANCH   5   6
ATOM      6  C   UNL     1      -9.511  -5.229   5.919  1.00  0.00     0.041 C 
ATOM      7  O   UNL     1      -8.991  -5.480   7.038  1.00  0.00    -0.550 OA
ATOM      8  O   UNL     1      -9.662  -6.247   4.986  1.00  0.00    -0.550 OA
ENDBRANCH   5   6
ENDBRANCH   4   5
ENDBRANCH   3   4
ENDBRANCH   2   3
ENDBRANCH   1   2
BRANCH   1   9
ATOM      9  C   UNL     1      -8.905   0.255   2.652  1.00  0.00     0.000 C 
BRANCH   9  10
ATOM     10  C   UNL     1     -10.385   0.574   2.913  1.00  0.00    -0.000 C 
BRANCH  10  11
ATOM     11  C   UNL     1     -10.670   0.670   4.417  1.00  0.00    -0.000 C 
BRANCH  11  12
ATOM     12  C   UNL     1     -11.627  -0.443   4.867  1.00  0.00    -0.000 C 
BRANCH  12  13
ATOM     13  C   UNL     1     -12.735  -0.720   3.839  1.00  0.00    -0.003 C 
ATOM     14  C   UNL     1     -13.395  -2.085   4.033  1.00  0.00     0.004 C 
ENDBRANCH  12  13
ENDBRANCH  11  12
ENDBRANCH  10  11
ENDBRANCH   9  10
ENDBRANCH   1   9
TORSDOF 10
ENDMDL
MODEL 5
REMARK VINA RESULT:    -4.055      3.781      6.248
REMARK INTER + INTRA:          -7.427
REMARK INTER:                  -6.257
REMARK INTRA:                  -1.170
REMARK UNBOUND:                -1.000
REMARK SMILES CCCCCCCCCCCC(=O)[O-]
REMARK SMILES IDX 7 1 8 2 9 3 10 4 11 5 12 6 13 7 14 8 6 9 5 10 4 11 3 12 2 13
REMARK SMILES IDX 1 14
REMARK H PARENT
REMARK Flexibility Score: inf
ROOT
ATOM      1  C   UNL     1      -9.729  -2.131   2.178  1.00  0.00     0.000 C 
ENDROOT
BRANCH   1   2
ATOM      2  C   UNL     1      -9.903  -3.316   3.139  1.00  0.00     0.000 C 
BRANCH   2   3
ATOM      3  C   UNL     1      -8.816  -3.305   4.225  1.00  0.00     0.000 C 
BRANCH   3   4
ATOM      4  C   UNL     1      -9.380  -3.568   5.630  1.00  0.00     0.006 C 
BRANCH   4   5
ATOM      5  C   UNL     1      -8.546  -4.584   6.421  1.00  0.00     0.053 C 
BRANCH   5   6
ATOM      6  C   UNL     1      -9.248  -5.904   6.480  1.00  0.00     0.041 C 
ATOM      7  O   UNL     1      -8.603  -6.972   6.309  1.00  0.00    -0.550 OA
ATOM      8  O   UNL     1     -10.623  -5.954   6.672  1.00  0.00    -0.550 OA
ENDBRANCH   5   6
ENDBRANCH   4   5
ENDBRANCH   3   4
ENDBRANCH   2   3
ENDBRANCH   1   2
BRANCH   1   9
ATOM      9  C   UNL     1      -8.617  -1.167   2.618  1.00  0.00     0.000 C 
BRANCH   9  10
ATOM     10  C   UNL     1      -8.940   0.299   2.292  1.00  0.00    -0.000 C 
BRANCH  10  11
ATOM     11  C   UNL     1     -10.397   0.631   2.638  1.00  0.00    -0.000 C 
BRANCH  11  12
ATOM     12  C   UNL     1     -10.560   0.878   4.145  1.00  0.00    -0.000 C 
BRANCH  12  13
ATOM     13  C   UNL     1     -11.345  -0.242   4.845  1.00  0.00    -0.003 C 
ATOM     14  C   UNL     1     -12.599  -0.657   4.074  1.00  0.00     0.004 C 
ENDBRANCH  12  13
ENDBRANCH  11  12
ENDBRANCH  10  11
ENDBRANCH   9  10
ENDBRANCH   1   9
TORSDOF 10
ENDMDL
MODEL 6
REMARK VINA RESULT:    -4.031      2.357      3.308
REMARK INTER + INTRA:          -7.387
REMARK INTER:                  -6.295
REMARK INTRA:                  -1.092
REMARK UNBOUND:                -1.000
REMARK SMILES CCCCCCCCCCCC(=O)[O-]
REMARK SMILES IDX 7 1 8 2 9 3 10 4 11 5 12 6 13 7 14 8 6 9 5 10 4 11 3 12 2 13
REMARK SMILES IDX 1 14
REMARK H PARENT
REMARK Flexibility Score: inf
ROOT
ATOM      1  C   UNL     1      -8.741  -3.540   5.787  1.00  0.00     0.000 C 
ENDROOT
BRANCH   1   2
ATOM      2  C   UNL     1      -8.543  -3.425   4.268  1.00  0.00     0.000 C 
BRANCH   2   3
ATOM      3  C   UNL     1      -9.348  -2.247   3.697  1.00  0.00     0.000 C 
BRANCH   3   4
ATOM      4  C   UNL     1     -10.349  -2.683   2.616  1.00  0.00     0.006 C 
BRANCH   4   5
ATOM      5  C   UNL     1     -11.566  -3.415   3.197  1.00  0.00     0.053 C 
BRANCH   5   6
ATOM      6  C   UNL     1     -12.412  -2.472   3.993  1.00  0.00     0.041 C 
ATOM      7  O   UNL     1     -12.995  -1.511   3.424  1.00  0.00    -0.550 OA
ATOM      8  O   UNL     1     -12.517  -2.622   5.370  1.00  0.00    -0.550 OA
ENDBRANCH   5   6
ENDBRANCH   4   5
ENDBRANCH   3   4
ENDBRANCH   2   3
ENDBRANCH   1   2
BRANCH   1   9
ATOM      9  C   UNL     1      -8.935  -4.991   6.253  1.00  0.00     0.000 C 
BRANCH   9  10
ATOM     10  C   UNL     1     -10.400  -5.448   6.173  1.00  0.00    -0.000 C 
BRANCH  10  11
ATOM     11  C   UNL     1     -10.590  -6.493   5.068  1.00  0.00    -0.000 C 
BRANCH  11  12
ATOM     12  C   UNL     1     -10.254  -7.902   5.580  1.00  0.00    -0.000 C 
BRANCH  12  13
ATOM     13  C   UNL     1      -9.018  -8.501   4.892  1.00  0.00    -0.003 C 
ATOM     14  C   UNL     1      -7.862  -8.747   5.862  1.00  0.00     0.004 C 
ENDBRANCH  12  13
ENDBRANCH  11  12
ENDBRANCH  10  11
ENDBRANCH   9  10
ENDBRANCH   1   9
TORSDOF 10
ENDMDL
MODEL 7
REMARK VINA RESULT:    -4.018      2.138      3.485
REMARK INTER + INTRA:          -7.367
REMARK INTER:                  -6.158
REMARK INTRA:                  -1.209
REMARK UNBOUND:                -1.000
REMARK SMILES CCCCCCCCCCCC(=O)[O-]
REMARK SMILES IDX 7 1 8 2 9 3 10 4 11 5 12 6 13 7 14 8 6 9 5 10 4 11 3 12 2 13
REMARK SMILES IDX 1 14
REMARK H PARENT
REMARK Flexibility Score: inf
ROOT
ATOM      1  C   UNL     1      -8.842   0.100   2.365  1.00  0.00     0.000 C 
ENDROOT
BRANCH   1   2
ATOM      2  C   UNL     1     -10.273   0.596   2.620  1.00  0.00     0.000 C 
BRANCH   2   3
ATOM      3  C   UNL     1     -10.490   0.902   4.110  1.00  0.00     0.000 C 
BRANCH   3   4
ATOM      4  C   UNL     1     -11.676   0.130   4.707  1.00  0.00     0.006 C 
BRANCH   4   5
ATOM      5  C   UNL     1     -12.714  -0.270   3.650  1.00  0.00     0.053 C 
BRANCH   5   6
ATOM      6  C   UNL     1     -13.851   0.702   3.640  1.00  0.00     0.041 C 
ATOM      7  O   UNL     1     -14.817   0.554   4.435  1.00  0.00    -0.550 OA
ATOM      8  O   UNL     1     -13.870   1.743   2.720  1.00  0.00    -0.550 OA
ENDBRANCH   5   6
ENDBRANCH   4   5
ENDBRANCH   3   4
ENDBRANCH   2   3
ENDBRANCH   1   2
BRANCH   1   9
ATOM      9  C   UNL     1      -8.610  -1.332   2.873  1.00  0.00     0.000 C 
BRANCH   9  10
ATOM     10  C   UNL     1      -9.734  -2.296   2.464  1.00  0.00    -0.000 C 
BRANCH  10  11
ATOM     11  C   UNL     1      -9.854  -3.455   3.460  1.00  0.00    -0.000 C 
BRANCH  11  12
ATOM     12  C   UNL     1      -9.605  -2.972   4.897  1.00  0.00    -0.000 C 
BRANCH  12  13
ATOM     13  C   UNL     1      -8.594  -3.852   5.648  1.00  0.00    -0.003 C 
ATOM     14  C   UNL     1      -9.190  -5.187   6.097  1.00  0.00     0.004 C 
ENDBRANCH  12  13
ENDBRANCH  11  12
ENDBRANCH  10  11
ENDBRANCH   9  10
ENDBRANCH   1   9
TORSDOF 10
ENDMDL
MODEL 8
REMARK VINA RESULT:    -4.018      3.402      6.260
REMARK INTER + INTRA:          -7.367
REMARK INTER:                  -6.551
REMARK INTRA:                  -0.815
REMARK UNBOUND:                -1.000
REMARK SMILES CCCCCCCCCCCC(=O)[O-]
REMARK SMILES IDX 7 1 8 2 9 3 10 4 11 5 12 6 13 7 14 8 6 9 5 10 4 11 3 12 2 13
REMARK SMILES IDX 1 14
REMARK H PARENT
REMARK Flexibility Score: inf
ROOT
ATOM      1  C   UNL     1      -8.738  -3.445   5.297  1.00  0.00     0.000 C 
ENDROOT
BRANCH   1   2
ATOM      2  C   UNL     1      -8.709  -4.599   6.310  1.00  0.00     0.000 C 
BRANCH   2   3
ATOM      3  C   UNL     1      -9.381  -5.854   5.730  1.00  0.00     0.000 C 
BRANCH   3   4
ATOM      4  C   UNL     1     -10.832  -6.022   6.207  1.00  0.00     0.006 C 
BRANCH   4   5
ATOM      5  C   UNL     1     -11.692  -6.816   5.215  1.00  0.00     0.053 C 
BRANCH   5   6
ATOM      6  C   UNL     1     -12.752  -5.939   4.625  1.00  0.00     0.041 C 
ATOM      7  O   UNL     1     -12.434  -4.983   3.869  1.00  0.00    -0.550 OA
ATOM      8  O   UNL     1     -14.087  -6.145   4.950  1.00  0.00    -0.550 OA
ENDBRANCH   5   6
ENDBRANCH   4   5
ENDBRANCH   3   4
ENDBRANCH   2   3
ENDBRANCH   1   2
BRANCH   1   9
ATOM      9  C   UNL     1      -9.145  -3.901   3.887  1.00  0.00     0.000 C 
BRANCH   9  10
ATOM     10  C   UNL     1      -9.646  -2.743   3.011  1.00  0.00    -0.000 C 
BRANCH  10  11
ATOM     11  C   UNL     1      -9.890  -1.484   3.852  1.00  0.00    -0.000 C 
BRANCH  11  12
ATOM     12  C   UNL     1      -9.281  -0.246   3.177  1.00  0.00    -0.000 C 
BRANCH  12  13
ATOM     13  C   UNL     1      -8.540  -0.588   1.875  1.00  0.00    -0.003 C 
ATOM     14  C   UNL     1      -7.078  -0.141   1.891  1.00  0.00     0.004 C 
ENDBRANCH  12  13
ENDBRANCH  11  12
ENDBRANCH  10  11
ENDBRANCH   9  10
ENDBRANCH   1   9
TORSDOF 10
ENDMDL
MODEL 9
REMARK VINA RESULT:    -4.009      1.661      2.733
REMARK INTER + INTRA:          -7.353
REMARK INTER:                  -5.868
REMARK INTRA:                  -1.484
REMARK UNBOUND:                -1.000
REMARK SMILES CCCCCCCCCCCC(=O)[O-]
REMARK SMILES IDX 7 1 8 2 9 3 10 4 11 5 12 6 13 7 14 8 6 9 5 10 4 11 3 12 2 13
REMARK SMILES IDX 1 14
REMARK H PARENT
REMARK Flexibility Score: inf
ROOT
ATOM      1  C   UNL     1      -8.377  -3.198   4.451  1.00  0.00     0.000 C 
ENDROOT
BRANCH   1   2
ATOM      2  C   UNL     1      -9.037  -2.229   3.459  1.00  0.00     0.000 C 
BRANCH   2   3
ATOM      3  C   UNL     1     -10.046  -2.965   2.564  1.00  0.00     0.000 C 
BRANCH   3   4
ATOM      4  C   UNL     1     -11.248  -2.088   2.182  1.00  0.00     0.006 C 
BRANCH   4   5
ATOM      5  C   UNL     1     -11.569  -1.028   3.245  1.00  0.00     0.053 C 
BRANCH   5   6
ATOM      6  C   UNL     1     -11.660   0.328   2.620  1.00  0.00     0.041 C 
ATOM      7  O   UNL     1     -10.613   0.978   2.362  1.00  0.00    -0.550 OA
ATOM      8  O   UNL     1     -12.902   0.897   2.369  1.00  0.00    -0.550 OA
ENDBRANCH   5   6
ENDBRANCH   4   5
ENDBRANCH   3   4
ENDBRANCH   2   3
ENDBRANCH   1   2
BRANCH   1   9
ATOM      9  C   UNL     1      -9.335  -3.651   5.565  1.00  0.00     0.000 C 
BRANCH   9  10
ATOM     10  C   UNL     1      -9.557  -5.171   5.574  1.00  0.00    -0.000 C 
BRANCH  10  11
ATOM     11  C   UNL     1     -10.958  -5.524   5.063  1.00  0.00    -0.000 C 
BRANCH  11  12
ATOM     12  C   UNL     1     -12.002  -4.525   5.586  1.00  0.00    -0.000 C 
BRANCH  12  13
ATOM     13  C   UNL     1     -13.105  -4.232   4.558  1.00  0.00    -0.003 C 
ATOM     14  C   UNL     1     -13.189  -5.293   3.461  1.00  0.00     0.004 C 
ENDBRANCH  12  13
ENDBRANCH  11  12
ENDBRANCH  10  11
ENDBRANCH   9  10
ENDBRANCH   1   9
TORSDOF 10
ENDMDL
