MODEL 1
REMARK VINA RESULT:    -3.794      0.000      0.000
REMARK INTER + INTRA:          -7.769
REMARK INTER:                  -6.456
REMARK INTRA:                  -1.313
REMARK UNBOUND:                -1.313
REMARK SMILES CCCCCCCCCCCCCC(=O)[O-]
REMARK SMILES IDX 8 1 9 2 10 3 11 4 12 5 13 6 14 7 15 8 16 9 7 10 6 11 5 12
REMARK SMILES IDX 4 13 3 14 2 15 1 16
REMARK H PARENT
REMARK Flexibility Score: inf
ROOT
ATOM      1  C   UNL     1      -5.805  22.999 -13.166  1.00  0.00     0.000 C 
ENDROOT
BRANCH   1   2
ATOM      2  C   UNL     1      -6.978  23.143 -12.180  1.00  0.00     0.000 C 
BRANCH   2   3
ATOM      3  C   UNL     1      -6.847  22.315 -10.886  1.00  0.00     0.000 C 
BRANCH   3   4
ATOM      4  C   UNL     1      -5.726  21.260 -10.890  1.00  0.00     0.000 C 
BRANCH   4   5
ATOM      5  C   UNL     1      -6.094  19.906 -10.251  1.00  0.00     0.006 C 
BRANCH   5   6
ATOM      6  C   UNL     1      -7.380  19.943  -9.405  1.00  0.00     0.053 C 
BRANCH   6   7
ATOM      7  C   UNL     1      -7.231  19.230  -8.096  1.00  0.00     0.041 C 
ATOM      8  O   UNL     1      -6.401  18.290  -7.976  1.00  0.00    -0.550 OA
ATOM      9  O   UNL     1      -7.983  19.625  -6.997  1.00  0.00    -0.550 OA
ENDBRANCH   6   7
ENDBRANCH   5   6
ENDBRANCH   4   5
ENDBRANCH   3   4
ENDBRANCH   2   3
ENDBRANCH   1   2
BRANCH   1  10
ATOM     10  C   UNL     1      -5.838  24.046 -14.290  1.00  0.00     0.000 C 
BRANCH  10  11
ATOM     11  C   UNL     1      -4.516  24.824 -14.354  1.00  0.00    -0.000 C 
BRANCH  11  12
ATOM     12  C   UNL     1      -4.294  25.727 -13.126  1.00  0.00    -0.000 C 
BRANCH  12  13
ATOM     13  C   UNL     1      -5.394  26.782 -12.884  1.00  0.00    -0.000 C 
BRANCH  13  14
ATOM     14  C   UNL     1      -6.122  26.666 -11.533  1.00  0.00    -0.000 C 
BRANCH  14  15
ATOM     15  C   UNL     1      -7.632  26.920 -11.646  1.00  0.00    -0.003 C 
ATOM     16  C   UNL     1      -8.120  26.711 -13.077  1.00  0.00     0.004 C 
ENDBRANCH  14  15
ENDBRANCH  13  14
ENDBRANCH  12  13
ENDBRANCH  11  12
ENDBRANCH  10  11
ENDBRANCH   1  10
TORSDOF 12
ENDMDL
MODEL 2
REMARK VINA RESULT:    -3.740      2.606      6.292
REMARK INTER + INTRA:          -7.677
REMARK INTER:                  -6.660
REMARK INTRA:                  -1.017
REMARK UNBOUND:                -1.313
REMARK SMILES CCCCCCCCCCCCCC(=O)[O-]
REMARK SMILES IDX 8 1 9 2 10 3 11 4 12 5 13 6 14 7 15 8 16 9 7 10 6 11 5 12
REMARK SMILES IDX 4 13 3 14 2 15 1 16
REMARK H PARENT
REMARK Flexibility Score: inf
ROOT
ATOM      1  C   UNL     1      -4.483  23.591 -13.460  1.00  0.00     0.000 C 
ENDROOT
BRANCH   1   2
ATOM      2  C   UNL     1      -4.014  25.013 -13.817  1.00  0.00     0.000 C 
BRANCH   2   3
ATOM      3  C   UNL     1      -4.649  26.140 -12.978  1.00  0.00     0.000 C 
BRANCH   3   4
ATOM      4  C   UNL     1      -6.066  26.562 -13.407  1.00  0.00     0.000 C 
BRANCH   4   5
ATOM      5  C   UNL     1      -7.113  26.595 -12.277  1.00  0.00     0.006 C 
BRANCH   5   6
ATOM      6  C   UNL     1      -6.527  26.921 -10.891  1.00  0.00     0.053 C 
BRANCH   6   7
ATOM      7  C   UNL     1      -6.755  25.825  -9.894  1.00  0.00     0.041 C 
ATOM      8  O   UNL     1      -7.894  25.299  -9.779  1.00  0.00    -0.550 OA
ATOM      9  O   UNL     1      -5.703  25.359  -9.117  1.00  0.00    -0.550 OA
ENDBRANCH   6   7
ENDBRANCH   5   6
ENDBRANCH   4   5
ENDBRANCH   3   4
ENDBRANCH   2   3
ENDBRANCH   1   2
BRANCH   1  10
ATOM     10  C   UNL     1      -4.822  23.431 -11.970  1.00  0.00     0.000 C 
BRANCH  10  11
ATOM     11  C   UNL     1      -5.752  22.231 -11.745  1.00  0.00    -0.000 C 
BRANCH  11  12
ATOM     12  C   UNL     1      -6.258  22.129 -10.294  1.00  0.00    -0.000 C 
BRANCH  12  13
ATOM     13  C   UNL     1      -6.910  20.781  -9.923  1.00  0.00    -0.000 C 
BRANCH  13  14
ATOM     14  C   UNL     1      -5.949  19.732  -9.335  1.00  0.00    -0.000 C 
BRANCH  14  15
ATOM     15  C   UNL     1      -6.669  18.673  -8.487  1.00  0.00    -0.003 C 
ATOM     16  C   UNL     1      -7.562  19.324  -7.435  1.00  0.00     0.004 C 
ENDBRANCH  14  15
ENDBRANCH  13  14
ENDBRANCH  12  13
ENDBRANCH  11  12
ENDBRANCH  10  11
ENDBRANCH   1  10
TORSDOF 12
ENDMDL
MODEL 3
REMARK VINA RESULT:    -3.738      3.317      6.930
REMARK INTER + INTRA:          -7.672
REMARK INTER:                  -6.813
REMARK INTRA:                  -0.859
REMARK UNBOUND:                -1.313
REMARK SMILES CCCCCCCCCCCCCC(=O)[O-]
REMARK SMILES IDX 8 1 9 2 10 3 11 4 12 5 13 6 14 7 15 8 16 9 7 10 6 11 5 12
REMARK SMILES IDX 4 13 3 14 2 15 1 16
REMARK H PARENT
REMARK Flexibility Score: inf
ROOT
ATOM      1  C   UNL     1      -4.444  23.441 -11.611  1.00  0.00     0.000 C 
ENDROOT
BRANCH   1   2
ATOM      2  C   UNL     1      -4.608  24.102 -12.991  1.00  0.00     0.000 C 
BRANCH   2   3
ATOM      3  C   UNL     1      -4.295  25.611 -13.033  1.00  0.00     0.000 C 
BRANCH   3   4
ATOM      4  C   UNL     1      -5.523  26.539 -13.021  1.00  0.00     0.000 C 
BRANCH   4   5
ATOM      5  C   UNL     1      -6.155  26.775 -11.635  1.00  0.00     0.006 C 
BRANCH   5   6
ATOM      6  C   UNL     1      -7.496  26.046 -11.428  1.00  0.00     0.053 C 
BRANCH   6   7
ATOM      7  C   UNL     1      -8.577  26.956 -10.926  1.00  0.00     0.041 C 
ATOM      8  O   UNL     1      -9.777  26.575 -10.928  1.00  0.00    -0.550 OA
ATOM      9  O   UNL     1      -8.255  28.210 -10.423  1.00  0.00    -0.550 OA
ENDBRANCH   6   7
ENDBRANCH   5   6
ENDBRANCH   4   5
ENDBRANCH   3   4
ENDBRANCH   2   3
ENDBRANCH   1   2
BRANCH   1  10
ATOM     10  C   UNL     1      -5.197  22.108 -11.493  1.00  0.00     0.000 C 
BRANCH  10  11
ATOM     11  C   UNL     1      -6.539  22.299 -10.773  1.00  0.00    -0.000 C 
BRANCH  11  12
ATOM     12  C   UNL     1      -7.232  20.966 -10.435  1.00  0.00    -0.000 C 
BRANCH  12  13
ATOM     13  C   UNL     1      -6.322  19.722 -10.499  1.00  0.00    -0.000 C 
BRANCH  13  14
ATOM     14  C   UNL     1      -6.019  19.065  -9.140  1.00  0.00    -0.000 C 
BRANCH  14  15
ATOM     15  C   UNL     1      -7.252  18.398  -8.512  1.00  0.00    -0.003 C 
ATOM     16  C   UNL     1      -7.684  19.126  -7.243  1.00  0.00     0.004 C 
ENDBRANCH  14  15
ENDBRANCH  13  14
ENDBRANCH  12  13
ENDBRANCH  11  12
ENDBRANCH  10  11
ENDBRANCH   1  10
TORSDOF 12
ENDMDL
MODEL 4
REMARK VINA RESULT:    -3.729      3.053      6.812
REMARK INTER + INTRA:          -7.658
REMARK INTER:                  -6.576
REMARK INTRA:                  -1.082
REMARK UNBOUND:                -1.313
REMARK SMILES CCCCCCCCCCCCCC(=O)[O-]
REMARK SMILES IDX 8 1 9 2 10 3 11 4 12 5 13 6 14 7 15 8 16 9 7 10 6 11 5 12
REMARK SMILES IDX 4 13 3 14 2 15 1 16
REMARK H PARENT
REMARK Flexibility Score: inf
ROOT
ATOM      1  C   UNL     1      -5.082  24.386 -11.176  1.00  0.00     0.000 C 
ENDROOT
BRANCH   1   2
ATOM      2  C   UNL     1      -4.594  25.100 -12.449  1.00  0.00     0.000 C 
BRANCH   2   3
ATOM      3  C   UNL     1      -5.258  26.464 -12.727  1.00  0.00     0.000 C 
BRANCH   3   4
ATOM      4  C   UNL     1      -6.408  26.842 -11.775  1.00  0.00     0.000 C 
BRANCH   4   5
ATOM      5  C   UNL     1      -7.816  26.810 -12.401  1.00  0.00     0.006 C 
BRANCH   5   6
ATOM      6  C   UNL     1      -7.888  26.058 -13.742  1.00  0.00     0.053 C 
BRANCH   6   7
ATOM      7  C   UNL     1      -8.223  24.608 -13.575  1.00  0.00     0.041 C 
ATOM      8  O   UNL     1      -9.204  24.261 -12.864  1.00  0.00    -0.550 OA
ATOM      9  O   UNL     1      -7.477  23.639 -14.232  1.00  0.00    -0.550 OA
ENDBRANCH   6   7
ENDBRANCH   5   6
ENDBRANCH   4   5
ENDBRANCH   3   4
ENDBRANCH   2   3
ENDBRANCH   1   2
BRANCH   1  10
ATOM     10  C   UNL     1      -5.445  22.913 -11.419  1.00  0.00     0.000 C 
BRANCH  10  11
ATOM     11  C   UNL     1      -6.779  22.560 -10.746  1.00  0.00    -0.000 C 
BRANCH  11  12
ATOM     12  C   UNL     1      -6.960  21.045 -10.536  1.00  0.00    -0.000 C 
BRANCH  12  13
ATOM     13  C   UNL     1      -6.234  20.465  -9.304  1.00  0.00    -0.000 C 
BRANCH  13  14
ATOM     14  C   UNL     1      -6.132  18.930  -9.271  1.00  0.00    -0.000 C 
BRANCH  14  15
ATOM     15  C   UNL     1      -7.282  18.272  -8.493  1.00  0.00    -0.003 C 
ATOM     16  C   UNL     1      -7.688  19.119  -7.291  1.00  0.00     0.004 C 
ENDBRANCH  14  15
ENDBRANCH  13  14
ENDBRANCH  12  13
ENDBRANCH  11  12
ENDBRANCH  10  11
ENDBRANCH   1  10
TORSDOF 12
ENDMDL
MODEL 5
REMARK VINA RESULT:    -3.714      3.063      6.641
REMARK INTER + INTRA:          -7.632
REMARK INTER:                  -6.515
REMARK INTRA:                  -1.117
REMARK UNBOUND:                -1.313
REMARK SMILES CCCCCCCCCCCCCC(=O)[O-]
REMARK SMILES IDX 8 1 9 2 10 3 11 4 12 5 13 6 14 7 15 8 16 9 7 10 6 11 5 12
REMARK SMILES IDX 4 13 3 14 2 15 1 16
REMARK H PARENT
REMARK Flexibility Score: inf
ROOT
ATOM      1  C   UNL     1      -4.922  22.289 -13.683  1.00  0.00     0.000 C 
ENDROOT
BRANCH   1   2
ATOM      2  C   UNL     1      -6.041  23.271 -14.077  1.00  0.00     0.000 C 
BRANCH   2   3
ATOM      3  C   UNL     1      -5.576  24.498 -14.886  1.00  0.00     0.000 C 
BRANCH   3   4
ATOM      4  C   UNL     1      -4.284  25.168 -14.382  1.00  0.00     0.000 C 
BRANCH   4   5
ATOM      5  C   UNL     1      -4.352  25.737 -12.952  1.00  0.00     0.006 C 
BRANCH   5   6
ATOM      6  C   UNL     1      -5.494  26.747 -12.735  1.00  0.00     0.053 C 
BRANCH   6   7
ATOM      7  C   UNL     1      -6.474  26.298 -11.694  1.00  0.00     0.041 C 
ATOM      8  O   UNL     1      -6.214  26.448 -10.471  1.00  0.00    -0.550 OA
ATOM      9  O   UNL     1      -7.691  25.747 -12.075  1.00  0.00    -0.550 OA
ENDBRANCH   6   7
ENDBRANCH   5   6
ENDBRANCH   4   5
ENDBRANCH   3   4
ENDBRANCH   2   3
ENDBRANCH   1   2
BRANCH   1  10
ATOM     10  C   UNL     1      -4.980  21.879 -12.204  1.00  0.00     0.000 C 
BRANCH  10  11
ATOM     11  C   UNL     1      -6.274  22.382 -11.547  1.00  0.00    -0.000 C 
BRANCH  11  12
ATOM     12  C   UNL     1      -6.970  21.305 -10.694  1.00  0.00    -0.000 C 
BRANCH  12  13
ATOM     13  C   UNL     1      -6.187  19.984 -10.544  1.00  0.00    -0.000 C 
BRANCH  13  14
ATOM     14  C   UNL     1      -5.993  19.502  -9.096  1.00  0.00    -0.000 C 
BRANCH  14  15
ATOM     15  C   UNL     1      -7.116  18.567  -8.623  1.00  0.00    -0.003 C 
ATOM     16  C   UNL     1      -7.607  18.955  -7.232  1.00  0.00     0.004 C 
ENDBRANCH  14  15
ENDBRANCH  13  14
ENDBRANCH  12  13
ENDBRANCH  11  12
ENDBRANCH  10  11
ENDBRANCH   1  10
TORSDOF 12
ENDMDL
MODEL 6
REMARK VINA RESULT:    -3.663      3.316      6.965
REMARK INTER + INTRA:          -7.545
REMARK INTER:                  -6.641
REMARK INTRA:                  -0.904
REMARK UNBOUND:                -1.313
REMARK SMILES CCCCCCCCCCCCCC(=O)[O-]
REMARK SMILES IDX 8 1 9 2 10 3 11 4 12 5 13 6 14 7 15 8 16 9 7 10 6 11 5 12
REMARK SMILES IDX 4 13 3 14 2 15 1 16
REMARK H PARENT
REMARK Flexibility Score: inf
ROOT
ATOM      1  C   UNL     1      -8.348  23.903 -11.529  1.00  0.00     0.000 C 
ENDROOT
BRANCH   1   2
ATOM      2  C   UNL     1      -7.744  24.843 -10.471  1.00  0.00     0.000 C 
BRANCH   2   3
ATOM      3  C   UNL     1      -7.169  26.163 -11.024  1.00  0.00     0.000 C 
BRANCH   3   4
ATOM      4  C   UNL     1      -7.632  26.540 -12.443  1.00  0.00     0.000 C 
BRANCH   4   5
ATOM      5  C   UNL     1      -6.509  26.659 -13.492  1.00  0.00     0.006 C 
BRANCH   5   6
ATOM      6  C   UNL     1      -5.091  26.528 -12.907  1.00  0.00     0.053 C 
BRANCH   6   7
ATOM      7  C   UNL     1      -4.404  25.266 -13.333  1.00  0.00     0.041 C 
ATOM      8  O   UNL     1      -3.887  24.504 -12.475  1.00  0.00    -0.550 OA
ATOM      9  O   UNL     1      -4.366  24.913 -14.676  1.00  0.00    -0.550 OA
ENDBRANCH   6   7
ENDBRANCH   5   6
ENDBRANCH   4   5
ENDBRANCH   3   4
ENDBRANCH   2   3
ENDBRANCH   1   2
BRANCH   1  10
ATOM     10  C   UNL     1      -7.638  22.543 -11.596  1.00  0.00     0.000 C 
BRANCH  10  11
ATOM     11  C   UNL     1      -6.466  22.488 -10.605  1.00  0.00    -0.000 C 
BRANCH  11  12
ATOM     12  C   UNL     1      -5.716  21.143 -10.639  1.00  0.00    -0.000 C 
BRANCH  12  13
ATOM     13  C   UNL     1      -6.566  19.912 -10.262  1.00  0.00    -0.000 C 
BRANCH  13  14
ATOM     14  C   UNL     1      -5.995  19.049  -9.123  1.00  0.00    -0.000 C 
BRANCH  14  15
ATOM     15  C   UNL     1      -7.088  18.413  -8.251  1.00  0.00    -0.003 C 
ATOM     16  C   UNL     1      -7.606  19.402  -7.210  1.00  0.00     0.004 C 
ENDBRANCH  14  15
ENDBRANCH  13  14
ENDBRANCH  12  13
ENDBRANCH  11  12
ENDBRANCH  10  11
ENDBRANCH   1  10
TORSDOF 12
ENDMDL
MODEL 7
REMARK VINA RESULT:    -3.623      1.267      1.773
REMARK INTER + INTRA:          -7.478
REMARK INTER:                  -6.553
REMARK INTRA:                  -0.925
REMARK UNBOUND:                -1.313
REMARK SMILES CCCCCCCCCCCCCC(=O)[O-]
REMARK SMILES IDX 8 1 9 2 10 3 11 4 12 5 13 6 14 7 15 8 16 9 7 10 6 11 5 12
REMARK SMILES IDX 4 13 3 14 2 15 1 16
REMARK H PARENT
REMARK Flexibility Score: inf
ROOT
ATOM      1  C   UNL     1      -4.180  23.104 -12.836  1.00  0.00     0.000 C 
ENDROOT
BRANCH   1   2
ATOM      2  C   UNL     1      -4.722  22.422 -11.566  1.00  0.00     0.000 C 
BRANCH   2   3
ATOM      3  C   UNL     1      -6.130  22.877 -11.132  1.00  0.00     0.000 C 
BRANCH   3   4
ATOM      4  C   UNL     1      -7.155  21.746 -10.932  1.00  0.00     0.000 C 
BRANCH   4   5
ATOM      5  C   UNL     1      -6.583  20.433 -10.362  1.00  0.00     0.006 C 
BRANCH   5   6
ATOM      6  C   UNL     1      -6.508  20.400  -8.825  1.00  0.00     0.053 C 
BRANCH   6   7
ATOM      7  C   UNL     1      -7.254  19.242  -8.234  1.00  0.00     0.041 C 
ATOM      8  O   UNL     1      -7.291  18.137  -8.837  1.00  0.00    -0.550 OA
ATOM      9  O   UNL     1      -7.878  19.372  -7.000  1.00  0.00    -0.550 OA
ENDBRANCH   6   7
ENDBRANCH   5   6
ENDBRANCH   4   5
ENDBRANCH   3   4
ENDBRANCH   2   3
ENDBRANCH   1   2
BRANCH   1  10
ATOM     10  C   UNL     1      -5.081  24.246 -13.330  1.00  0.00     0.000 C 
BRANCH  10  11
ATOM     11  C   UNL     1      -4.403  25.607 -13.121  1.00  0.00    -0.000 C 
BRANCH  11  12
ATOM     12  C   UNL     1      -5.410  26.741 -12.851  1.00  0.00    -0.000 C 
BRANCH  12  13
ATOM     13  C   UNL     1      -6.773  26.285 -12.292  1.00  0.00    -0.000 C 
BRANCH  13  14
ATOM     14  C   UNL     1      -7.391  27.219 -11.236  1.00  0.00    -0.000 C 
BRANCH  14  15
ATOM     15  C   UNL     1      -6.569  27.281  -9.940  1.00  0.00    -0.003 C 
ATOM     16  C   UNL     1      -6.612  28.678  -9.328  1.00  0.00     0.004 C 
ENDBRANCH  14  15
ENDBRANCH  13  14
ENDBRANCH  12  13
ENDBRANCH  11  12
ENDBRANCH  10  11
ENDBRANCH   1  10
TORSDOF 12
ENDMDL
MODEL 8
REMARK VINA RESULT:    -3.575      0.927      2.629
REMARK INTER + INTRA:          -7.395
REMARK INTER:                  -5.984
REMARK INTRA:                  -1.412
REMARK UNBOUND:                -1.313
REMARK SMILES CCCCCCCCCCCCCC(=O)[O-]
REMARK SMILES IDX 8 1 9 2 10 3 11 4 12 5 13 6 14 7 15 8 16 9 7 10 6 11 5 12
REMARK SMILES IDX 4 13 3 14 2 15 1 16
REMARK H PARENT
REMARK Flexibility Score: inf
ROOT
ATOM      1  C   UNL     1      -7.448  24.722 -11.944  1.00  0.00     0.000 C 
ENDROOT
BRANCH   1   2
ATOM      2  C   UNL     1      -6.676  23.733 -11.053  1.00  0.00     0.000 C 
BRANCH   2   3
ATOM      3  C   UNL     1      -6.977  22.244 -11.319  1.00  0.00     0.000 C 
BRANCH   3   4
ATOM      4  C   UNL     1      -5.779  21.291 -11.157  1.00  0.00     0.000 C 
BRANCH   4   5
ATOM      5  C   UNL     1      -5.913  20.251 -10.027  1.00  0.00     0.006 C 
BRANCH   5   6
ATOM      6  C   UNL     1      -7.267  20.297  -9.294  1.00  0.00     0.053 C 
BRANCH   6   7
ATOM      7  C   UNL     1      -7.394  19.231  -8.248  1.00  0.00     0.041 C 
ATOM      8  O   UNL     1      -7.686  19.537  -7.062  1.00  0.00    -0.550 OA
ATOM      9  O   UNL     1      -7.226  17.895  -8.591  1.00  0.00    -0.550 OA
ENDBRANCH   6   7
ENDBRANCH   5   6
ENDBRANCH   4   5
ENDBRANCH   3   4
ENDBRANCH   2   3
ENDBRANCH   1   2
BRANCH   1  10
ATOM     10  C   UNL     1      -6.949  26.168 -11.804  1.00  0.00     0.000 C 
BRANCH  10  11
ATOM     11  C   UNL     1      -6.142  26.591 -13.039  1.00  0.00    -0.000 C 
BRANCH  11  12
ATOM     12  C   UNL     1      -4.665  26.161 -12.965  1.00  0.00    -0.000 C 
BRANCH  12  13
ATOM     13  C   UNL     1      -4.158  25.353 -14.179  1.00  0.00    -0.000 C 
BRANCH  13  14
ATOM     14  C   UNL     1      -4.124  23.828 -13.978  1.00  0.00    -0.000 C 
BRANCH  14  15
ATOM     15  C   UNL     1      -5.341  23.119 -14.590  1.00  0.00    -0.003 C 
ATOM     16  C   UNL     1      -5.940  23.938 -15.730  1.00  0.00     0.004 C 
ENDBRANCH  14  15
ENDBRANCH  13  14
ENDBRANCH  12  13
ENDBRANCH  11  12
ENDBRANCH  10  11
ENDBRANCH   1  10
TORSDOF 12
ENDMDL
MODEL 9
REMARK VINA RESULT:    -3.549      1.671      2.975
REMARK INTER + INTRA:          -7.351
REMARK INTER:                  -5.673
REMARK INTRA:                  -1.678
REMARK UNBOUND:                -1.313
REMARK SMILES CCCCCCCCCCCCCC(=O)[O-]
REMARK SMILES IDX 8 1 9 2 10 3 11 4 12 5 13 6 14 7 15 8 16 9 7 10 6 11 5 12
REMARK SMILES IDX 4 13 3 14 2 15 1 16
REMARK H PARENT
REMARK Flexibility Score: inf
ROOT
ATOM      1  C   UNL     1      -4.233  25.765 -13.268  1.00  0.00     0.000 C 
ENDROOT
BRANCH   1   2
ATOM      2  C   UNL     1      -4.083  24.564 -12.317  1.00  0.00     0.000 C 
BRANCH   2   3
ATOM      3  C   UNL     1      -4.619  23.227 -12.867  1.00  0.00     0.000 C 
BRANCH   3   4
ATOM      4  C   UNL     1      -5.134  22.237 -11.806  1.00  0.00     0.000 C 
BRANCH   4   5
ATOM      5  C   UNL     1      -5.972  21.064 -12.352  1.00  0.00     0.006 C 
BRANCH   5   6
ATOM      6  C   UNL     1      -5.800  19.753 -11.563  1.00  0.00     0.053 C 
BRANCH   6   7
ATOM      7  C   UNL     1      -6.388  19.825 -10.186  1.00  0.00     0.041 C 
ATOM      8  O   UNL     1      -5.766  19.341  -9.205  1.00  0.00    -0.550 OA
ATOM      9  O   UNL     1      -7.606  20.460  -9.981  1.00  0.00    -0.550 OA
ENDBRANCH   6   7
ENDBRANCH   5   6
ENDBRANCH   4   5
ENDBRANCH   3   4
ENDBRANCH   2   3
ENDBRANCH   1   2
BRANCH   1  10
ATOM     10  C   UNL     1      -5.322  26.751 -12.819  1.00  0.00     0.000 C 
BRANCH  10  11
ATOM     11  C   UNL     1      -6.630  26.508 -13.585  1.00  0.00    -0.000 C 
BRANCH  11  12
ATOM     12  C   UNL     1      -7.867  26.490 -12.667  1.00  0.00    -0.000 C 
BRANCH  12  13
ATOM     13  C   UNL     1      -8.437  25.089 -12.367  1.00  0.00    -0.000 C 
BRANCH  13  14
ATOM     14  C   UNL     1      -7.850  24.398 -11.124  1.00  0.00    -0.000 C 
BRANCH  14  15
ATOM     15  C   UNL     1      -7.415  25.393 -10.039  1.00  0.00    -0.003 C 
ATOM     16  C   UNL     1      -6.155  24.913  -9.324  1.00  0.00     0.004 C 
ENDBRANCH  14  15
ENDBRANCH  13  14
ENDBRANCH  12  13
ENDBRANCH  11  12
ENDBRANCH  10  11
ENDBRANCH   1  10
TORSDOF 12
ENDMDL
