MODEL 1
REMARK VINA RESULT:    -4.088      0.000      0.000
REMARK INTER + INTRA:          -7.906
REMARK INTER:                  -6.478
REMARK INTRA:                  -1.427
REMARK UNBOUND:                -1.427
REMARK SMILES CCCCCCCCCCCC(=O)[O-]
REMARK SMILES IDX 7 1 8 2 9 3 10 4 11 5 12 6 13 7 14 8 6 9 5 10 4 11 3 12 2 13
REMARK SMILES IDX 1 14
REMARK H PARENT
REMARK Flexibility Score: inf
ROOT
ATOM      1  C   UNL     1      14.048 -22.140  19.632  1.00  0.00     0.000 C 
ENDROOT
BRANCH   1   2
ATOM      2  C   UNL     1      14.289 -23.181  20.739  1.00  0.00     0.000 C 
BRANCH   2   3
ATOM      3  C   UNL     1      13.376 -22.968  21.958  1.00  0.00     0.000 C 
BRANCH   3   4
ATOM      4  C   UNL     1      12.235 -21.976  21.677  1.00  0.00     0.006 C 
BRANCH   4   5
ATOM      5  C   UNL     1      12.324 -20.725  22.562  1.00  0.00     0.053 C 
BRANCH   5   6
ATOM      6  C   UNL     1      11.750 -19.520  21.880  1.00  0.00     0.041 C 
ATOM      7  O   UNL     1      11.835 -19.397  20.630  1.00  0.00    -0.550 OA
ATOM      8  O   UNL     1      11.148 -18.518  22.631  1.00  0.00    -0.550 OA
ENDBRANCH   5   6
ENDBRANCH   4   5
ENDBRANCH   3   4
ENDBRANCH   2   3
ENDBRANCH   1   2
BRANCH   1   9
ATOM      9  C   UNL     1      15.217 -21.151  19.472  1.00  0.00     0.000 C 
BRANCH   9  10
ATOM     10  C   UNL     1      15.359 -20.107  20.596  1.00  0.00    -0.000 C 
BRANCH  10  11
ATOM     11  C   UNL     1      16.689 -20.225  21.360  1.00  0.00    -0.000 C 
BRANCH  11  12
ATOM     12  C   UNL     1      16.618 -21.213  22.538  1.00  0.00    -0.000 C 
BRANCH  12  13
ATOM     13  C   UNL     1      15.769 -20.745  23.732  1.00  0.00    -0.003 C 
ATOM     14  C   UNL     1      16.075 -21.505  25.022  1.00  0.00     0.004 C 
ENDBRANCH  12  13
ENDBRANCH  11  12
ENDBRANCH  10  11
ENDBRANCH   9  10
ENDBRANCH   1   9
TORSDOF 10
ENDMDL
MODEL 2
REMARK VINA RESULT:    -4.009      1.857      4.206
REMARK INTER + INTRA:          -7.780
REMARK INTER:                  -6.367
REMARK INTRA:                  -1.413
REMARK UNBOUND:                -1.427
REMARK SMILES CCCCCCCCCCCC(=O)[O-]
REMARK SMILES IDX 7 1 8 2 9 3 10 4 11 5 12 6 13 7 14 8 6 9 5 10 4 11 3 12 2 13
REMARK SMILES IDX 1 14
REMARK H PARENT
REMARK Flexibility Score: inf
ROOT
ATOM      1  C   UNL     1      16.656 -21.155  24.144  1.00  0.00     0.000 C 
ENDROOT
BRANCH   1   2
ATOM      2  C   UNL     1      16.971 -21.423  22.663  1.00  0.00     0.000 C 
BRANCH   2   3
ATOM      3  C   UNL     1      15.752 -21.943  21.884  1.00  0.00     0.000 C 
BRANCH   3   4
ATOM      4  C   UNL     1      15.476 -21.133  20.606  1.00  0.00     0.006 C 
BRANCH   4   5
ATOM      5  C   UNL     1      16.120 -19.740  20.652  1.00  0.00     0.053 C 
BRANCH   5   6
ATOM      6  C   UNL     1      15.156 -18.669  20.241  1.00  0.00     0.041 C 
ATOM      7  O   UNL     1      14.417 -18.831  19.236  1.00  0.00    -0.550 OA
ATOM      8  O   UNL     1      15.096 -17.478  20.955  1.00  0.00    -0.550 OA
ENDBRANCH   5   6
ENDBRANCH   4   5
ENDBRANCH   3   4
ENDBRANCH   2   3
ENDBRANCH   1   2
BRANCH   1   9
ATOM      9  C   UNL     1      15.145 -21.143  24.444  1.00  0.00     0.000 C 
BRANCH   9  10
ATOM     10  C   UNL     1      14.422 -19.817  24.145  1.00  0.00    -0.000 C 
BRANCH  10  11
ATOM     11  C   UNL     1      12.929 -20.005  23.828  1.00  0.00    -0.000 C 
BRANCH  11  12
ATOM     12  C   UNL     1      12.537 -19.462  22.442  1.00  0.00    -0.000 C 
BRANCH  12  13
ATOM     13  C   UNL     1      11.892 -20.490  21.496  1.00  0.00    -0.003 C 
ATOM     14  C   UNL     1      12.053 -21.932  21.976  1.00  0.00     0.004 C 
ENDBRANCH  12  13
ENDBRANCH  11  12
ENDBRANCH  10  11
ENDBRANCH   9  10
ENDBRANCH   1   9
TORSDOF 10
ENDMDL
MODEL 3
REMARK VINA RESULT:    -3.951      2.371      4.553
REMARK INTER + INTRA:          -7.688
REMARK INTER:                  -6.375
REMARK INTRA:                  -1.313
REMARK UNBOUND:                -1.427
REMARK SMILES CCCCCCCCCCCC(=O)[O-]
REMARK SMILES IDX 7 1 8 2 9 3 10 4 11 5 12 6 13 7 14 8 6 9 5 10 4 11 3 12 2 13
REMARK SMILES IDX 1 14
REMARK H PARENT
REMARK Flexibility Score: inf
ROOT
ATOM      1  C   UNL     1      12.764 -21.756  22.228  1.00  0.00     0.000 C 
ENDROOT
BRANCH   1   2
ATOM      2  C   UNL     1      13.695 -22.397  21.185  1.00  0.00     0.000 C 
BRANCH   2   3
ATOM      3  C   UNL     1      15.132 -22.568  21.705  1.00  0.00     0.000 C 
BRANCH   3   4
ATOM      4  C   UNL     1      15.829 -21.223  21.972  1.00  0.00     0.006 C 
BRANCH   4   5
ATOM      5  C   UNL     1      16.628 -21.235  23.283  1.00  0.00     0.053 C 
BRANCH   5   6
ATOM      6  C   UNL     1      15.755 -20.957  24.469  1.00  0.00     0.041 C 
ATOM      7  O   UNL     1      15.853 -21.660  25.508  1.00  0.00    -0.550 OA
ATOM      8  O   UNL     1      14.812 -19.938  24.413  1.00  0.00    -0.550 OA
ENDBRANCH   5   6
ENDBRANCH   4   5
ENDBRANCH   3   4
ENDBRANCH   2   3
ENDBRANCH   1   2
BRANCH   1   9
ATOM      9  C   UNL     1      11.343 -21.502  21.690  1.00  0.00     0.000 C 
BRANCH   9  10
ATOM     10  C   UNL     1      10.822 -20.061  21.850  1.00  0.00    -0.000 C 
BRANCH  10  11
ATOM     11  C   UNL     1      11.942 -19.048  22.146  1.00  0.00    -0.000 C 
BRANCH  11  12
ATOM     12  C   UNL     1      12.433 -18.313  20.886  1.00  0.00    -0.000 C 
BRANCH  12  13
ATOM     13  C   UNL     1      13.929 -18.483  20.573  1.00  0.00    -0.003 C 
ATOM     14  C   UNL     1      14.188 -19.218  19.258  1.00  0.00     0.004 C 
ENDBRANCH  12  13
ENDBRANCH  11  12
ENDBRANCH  10  11
ENDBRANCH   9  10
ENDBRANCH   1   9
TORSDOF 10
ENDMDL
MODEL 4
REMARK VINA RESULT:    -3.881      2.645      4.250
REMARK INTER + INTRA:          -7.578
REMARK INTER:                  -6.141
REMARK INTRA:                  -1.437
REMARK UNBOUND:                -1.427
REMARK SMILES CCCCCCCCCCCC(=O)[O-]
REMARK SMILES IDX 7 1 8 2 9 3 10 4 11 5 12 6 13 7 14 8 6 9 5 10 4 11 3 12 2 13
REMARK SMILES IDX 1 14
REMARK H PARENT
REMARK Flexibility Score: inf
ROOT
ATOM      1  C   UNL     1      15.344 -20.748  19.377  1.00  0.00     0.000 C 
ENDROOT
BRANCH   1   2
ATOM      2  C   UNL     1      14.310 -21.887  19.377  1.00  0.00     0.000 C 
BRANCH   2   3
ATOM      3  C   UNL     1      14.284 -22.659  20.707  1.00  0.00     0.000 C 
BRANCH   3   4
ATOM      4  C   UNL     1      15.443 -22.268  21.641  1.00  0.00     0.006 C 
BRANCH   4   5
ATOM      5  C   UNL     1      14.948 -21.595  22.928  1.00  0.00     0.053 C 
BRANCH   5   6
ATOM      6  C   UNL     1      16.070 -21.334  23.886  1.00  0.00     0.041 C 
ATOM      7  O   UNL     1      15.861 -21.340  25.127  1.00  0.00    -0.550 OA
ATOM      8  O   UNL     1      17.344 -21.056  23.404  1.00  0.00    -0.550 OA
ENDBRANCH   5   6
ENDBRANCH   4   5
ENDBRANCH   3   4
ENDBRANCH   2   3
ENDBRANCH   1   2
BRANCH   1   9
ATOM      9  C   UNL     1      14.701 -19.353  19.262  1.00  0.00     0.000 C 
BRANCH   9  10
ATOM     10  C   UNL     1      14.244 -18.724  20.592  1.00  0.00    -0.000 C 
BRANCH  10  11
ATOM     11  C   UNL     1      12.832 -18.118  20.515  1.00  0.00    -0.000 C 
BRANCH  11  12
ATOM     12  C   UNL     1      11.719 -19.171  20.665  1.00  0.00    -0.000 C 
BRANCH  12  13
ATOM     13  C   UNL     1      11.813 -20.045  21.928  1.00  0.00    -0.003 C 
ATOM     14  C   UNL     1      11.061 -21.370  21.799  1.00  0.00     0.004 C 
ENDBRANCH  12  13
ENDBRANCH  11  12
ENDBRANCH  10  11
ENDBRANCH   9  10
ENDBRANCH   1   9
TORSDOF 10
ENDMDL
MODEL 5
REMARK VINA RESULT:    -3.586      1.272      2.635
REMARK INTER + INTRA:          -7.110
REMARK INTER:                  -5.999
REMARK INTRA:                  -1.111
REMARK UNBOUND:                -1.427
REMARK SMILES CCCCCCCCCCCC(=O)[O-]
REMARK SMILES IDX 7 1 8 2 9 3 10 4 11 5 12 6 13 7 14 8 6 9 5 10 4 11 3 12 2 13
REMARK SMILES IDX 1 14
REMARK H PARENT
REMARK Flexibility Score: inf
ROOT
ATOM      1  C   UNL     1      15.191 -21.080  19.016  1.00  0.00     0.000 C 
ENDROOT
BRANCH   1   2
ATOM      2  C   UNL     1      14.856 -19.579  19.037  1.00  0.00     0.000 C 
BRANCH   2   3
ATOM      3  C   UNL     1      14.791 -19.009  20.464  1.00  0.00     0.000 C 
BRANCH   3   4
ATOM      4  C   UNL     1      13.524 -18.172  20.710  1.00  0.00     0.006 C 
BRANCH   4   5
ATOM      5  C   UNL     1      12.242 -18.956  20.398  1.00  0.00     0.053 C 
BRANCH   5   6
ATOM      6  C   UNL     1      11.675 -19.605  21.624  1.00  0.00     0.041 C 
ATOM      7  O   UNL     1      11.501 -18.934  22.675  1.00  0.00    -0.550 OA
ATOM      8  O   UNL     1      11.366 -20.960  21.614  1.00  0.00    -0.550 OA
ENDBRANCH   5   6
ENDBRANCH   4   5
ENDBRANCH   3   4
ENDBRANCH   2   3
ENDBRANCH   1   2
BRANCH   1   9
ATOM      9  C   UNL     1      14.027 -21.963  19.502  1.00  0.00     0.000 C 
BRANCH   9  10
ATOM     10  C   UNL     1      14.364 -22.923  20.658  1.00  0.00    -0.000 C 
BRANCH  10  11
ATOM     11  C   UNL     1      14.733 -22.190  21.959  1.00  0.00    -0.000 C 
BRANCH  11  12
ATOM     12  C   UNL     1      16.251 -22.147  22.212  1.00  0.00    -0.000 C 
BRANCH  12  13
ATOM     13  C   UNL     1      16.718 -21.058  23.194  1.00  0.00    -0.003 C 
ATOM     14  C   UNL     1      16.060 -21.166  24.570  1.00  0.00     0.004 C 
ENDBRANCH  12  13
ENDBRANCH  11  12
ENDBRANCH  10  11
ENDBRANCH   9  10
ENDBRANCH   1   9
TORSDOF 10
ENDMDL
MODEL 6
REMARK VINA RESULT:    -3.535      2.419      4.160
REMARK INTER + INTRA:          -7.028
REMARK INTER:                  -5.754
REMARK INTRA:                  -1.274
REMARK UNBOUND:                -1.427
REMARK SMILES CCCCCCCCCCCC(=O)[O-]
REMARK SMILES IDX 7 1 8 2 9 3 10 4 11 5 12 6 13 7 14 8 6 9 5 10 4 11 3 12 2 13
REMARK SMILES IDX 1 14
REMARK H PARENT
REMARK Flexibility Score: inf
ROOT
ATOM      1  C   UNL     1      12.135 -20.186  22.283  1.00  0.00     0.000 C 
ENDROOT
BRANCH   1   2
ATOM      2  C   UNL     1      11.376 -19.143  21.444  1.00  0.00     0.000 C 
BRANCH   2   3
ATOM      3  C   UNL     1      12.288 -18.418  20.440  1.00  0.00     0.000 C 
BRANCH   3   4
ATOM      4  C   UNL     1      13.756 -18.378  20.895  1.00  0.00     0.006 C 
BRANCH   4   5
ATOM      5  C   UNL     1      14.732 -18.502  19.716  1.00  0.00     0.053 C 
BRANCH   5   6
ATOM      6  C   UNL     1      16.090 -17.970  20.060  1.00  0.00     0.041 C 
ATOM      7  O   UNL     1      17.097 -18.724  20.018  1.00  0.00    -0.550 OA
ATOM      8  O   UNL     1      16.237 -16.646  20.456  1.00  0.00    -0.550 OA
ENDBRANCH   5   6
ENDBRANCH   4   5
ENDBRANCH   3   4
ENDBRANCH   2   3
ENDBRANCH   1   2
BRANCH   1   9
ATOM      9  C   UNL     1      11.874 -21.632  21.824  1.00  0.00     0.000 C 
BRANCH   9  10
ATOM     10  C   UNL     1      13.093 -22.573  21.878  1.00  0.00    -0.000 C 
BRANCH  10  11
ATOM     11  C   UNL     1      13.998 -22.456  20.640  1.00  0.00    -0.000 C 
BRANCH  11  12
ATOM     12  C   UNL     1      15.337 -21.761  20.940  1.00  0.00    -0.000 C 
BRANCH  12  13
ATOM     13  C   UNL     1      15.710 -21.679  22.431  1.00  0.00    -0.003 C 
ATOM     14  C   UNL     1      17.109 -21.112  22.670  1.00  0.00     0.004 C 
ENDBRANCH  12  13
ENDBRANCH  11  12
ENDBRANCH  10  11
ENDBRANCH   9  10
ENDBRANCH   1   9
TORSDOF 10
ENDMDL
MODEL 7
REMARK VINA RESULT:    -3.486      2.556      3.763
REMARK INTER + INTRA:          -6.951
REMARK INTER:                  -5.863
REMARK INTRA:                  -1.088
REMARK UNBOUND:                -1.427
REMARK SMILES CCCCCCCCCCCC(=O)[O-]
REMARK SMILES IDX 7 1 8 2 9 3 10 4 11 5 12 6 13 7 14 8 6 9 5 10 4 11 3 12 2 13
REMARK SMILES IDX 1 14
REMARK H PARENT
REMARK Flexibility Score: inf
ROOT
ATOM      1  C   UNL     1      13.996 -21.204  19.614  1.00  0.00     0.000 C 
ENDROOT
BRANCH   1   2
ATOM      2  C   UNL     1      14.332 -22.646  20.032  1.00  0.00     0.000 C 
BRANCH   2   3
ATOM      3  C   UNL     1      13.760 -23.007  21.413  1.00  0.00     0.000 C 
BRANCH   3   4
ATOM      4  C   UNL     1      13.831 -21.836  22.408  1.00  0.00     0.006 C 
BRANCH   4   5
ATOM      5  C   UNL     1      15.243 -21.645  22.978  1.00  0.00     0.053 C 
BRANCH   5   6
ATOM      6  C   UNL     1      15.215 -20.990  24.326  1.00  0.00     0.041 C 
ATOM      7  O   UNL     1      15.741 -21.557  25.319  1.00  0.00    -0.550 OA
ATOM      8  O   UNL     1      14.580 -19.765  24.489  1.00  0.00    -0.550 OA
ENDBRANCH   5   6
ENDBRANCH   4   5
ENDBRANCH   3   4
ENDBRANCH   2   3
ENDBRANCH   1   2
BRANCH   1   9
ATOM      9  C   UNL     1      15.165 -20.496  18.904  1.00  0.00     0.000 C 
BRANCH   9  10
ATOM     10  C   UNL     1      16.191 -19.821  19.832  1.00  0.00    -0.000 C 
BRANCH  10  11
ATOM     11  C   UNL     1      15.550 -18.816  20.804  1.00  0.00    -0.000 C 
BRANCH  11  12
ATOM     12  C   UNL     1      15.369 -17.418  20.187  1.00  0.00    -0.000 C 
BRANCH  12  13
ATOM     13  C   UNL     1      13.985 -16.782  20.406  1.00  0.00    -0.003 C 
ATOM     14  C   UNL     1      12.833 -17.770  20.221  1.00  0.00     0.004 C 
ENDBRANCH  12  13
ENDBRANCH  11  12
ENDBRANCH  10  11
ENDBRANCH   9  10
ENDBRANCH   1   9
TORSDOF 10
ENDMDL
MODEL 8
REMARK VINA RESULT:    -3.431      2.429      4.870
REMARK INTER + INTRA:          -6.864
REMARK INTER:                  -5.837
REMARK INTRA:                  -1.027
REMARK UNBOUND:                -1.427
REMARK SMILES CCCCCCCCCCCC(=O)[O-]
REMARK SMILES IDX 7 1 8 2 9 3 10 4 11 5 12 6 13 7 14 8 6 9 5 10 4 11 3 12 2 13
REMARK SMILES IDX 1 14
REMARK H PARENT
REMARK Flexibility Score: inf
ROOT
ATOM      1  C   UNL     1      14.089 -18.633  21.088  1.00  0.00     0.000 C 
ENDROOT
BRANCH   1   2
ATOM      2  C   UNL     1      14.680 -19.996  20.689  1.00  0.00     0.000 C 
BRANCH   2   3
ATOM      3  C   UNL     1      16.139 -20.162  21.145  1.00  0.00     0.000 C 
BRANCH   3   4
ATOM      4  C   UNL     1      16.340 -21.390  22.051  1.00  0.00     0.006 C 
BRANCH   4   5
ATOM      5  C   UNL     1      15.087 -21.711  22.877  1.00  0.00     0.053 C 
BRANCH   5   6
ATOM      6  C   UNL     1      15.108 -21.023  24.208  1.00  0.00     0.041 C 
ATOM      7  O   UNL     1      14.482 -19.944  24.376  1.00  0.00    -0.550 OA
ATOM      8  O   UNL     1      15.844 -21.562  25.257  1.00  0.00    -0.550 OA
ENDBRANCH   5   6
ENDBRANCH   4   5
ENDBRANCH   3   4
ENDBRANCH   2   3
ENDBRANCH   1   2
BRANCH   1   9
ATOM      9  C   UNL     1      12.764 -18.318  20.369  1.00  0.00     0.000 C 
BRANCH   9  10
ATOM     10  C   UNL     1      11.773 -17.446  21.161  1.00  0.00    -0.000 C 
BRANCH  10  11
ATOM     11  C   UNL     1      10.698 -18.271  21.890  1.00  0.00    -0.000 C 
BRANCH  11  12
ATOM     12  C   UNL     1      10.228 -19.492  21.079  1.00  0.00    -0.000 C 
BRANCH  12  13
ATOM     13  C   UNL     1      10.177 -20.816  21.863  1.00  0.00    -0.003 C 
ATOM     14  C   UNL     1      11.510 -21.564  21.865  1.00  0.00     0.004 C 
ENDBRANCH  12  13
ENDBRANCH  11  12
ENDBRANCH  10  11
ENDBRANCH   9  10
ENDBRANCH   1   9
TORSDOF 10
ENDMDL
MODEL 9
REMARK VINA RESULT:    -3.420      2.613      4.734
REMARK INTER + INTRA:          -6.846
REMARK INTER:                  -5.929
REMARK INTRA:                  -0.917
REMARK UNBOUND:                -1.427
REMARK SMILES CCCCCCCCCCCC(=O)[O-]
REMARK SMILES IDX 7 1 8 2 9 3 10 4 11 5 12 6 13 7 14 8 6 9 5 10 4 11 3 12 2 13
REMARK SMILES IDX 1 14
REMARK H PARENT
REMARK Flexibility Score: inf
ROOT
ATOM      1  C   UNL     1      13.170 -21.505  22.109  1.00  0.00     0.000 C 
ENDROOT
BRANCH   1   2
ATOM      2  C   UNL     1      13.979 -22.793  21.878  1.00  0.00     0.000 C 
BRANCH   2   3
ATOM      3  C   UNL     1      15.450 -22.510  21.530  1.00  0.00     0.000 C 
BRANCH   3   4
ATOM      4  C   UNL     1      15.938 -21.157  22.077  1.00  0.00     0.006 C 
BRANCH   4   5
ATOM      5  C   UNL     1      16.748 -21.315  23.371  1.00  0.00     0.053 C 
BRANCH   5   6
ATOM      6  C   UNL     1      15.920 -21.018  24.584  1.00  0.00     0.041 C 
ATOM      7  O   UNL     1      16.007 -21.748  25.606  1.00  0.00    -0.550 OA
ATOM      8  O   UNL     1      15.031 -19.950  24.574  1.00  0.00    -0.550 OA
ENDBRANCH   5   6
ENDBRANCH   4   5
ENDBRANCH   3   4
ENDBRANCH   2   3
ENDBRANCH   1   2
BRANCH   1   9
ATOM      9  C   UNL     1      12.471 -20.997  20.834  1.00  0.00     0.000 C 
BRANCH   9  10
ATOM     10  C   UNL     1      13.209 -19.876  20.078  1.00  0.00    -0.000 C 
BRANCH  10  11
ATOM     11  C   UNL     1      12.768 -18.468  20.513  1.00  0.00    -0.000 C 
BRANCH  11  12
ATOM     12  C   UNL     1      11.344 -18.116  20.047  1.00  0.00    -0.000 C 
BRANCH  12  13
ATOM     13  C   UNL     1      10.425 -17.539  21.138  1.00  0.00    -0.003 C 
ATOM     14  C   UNL     1      10.655 -18.167  22.513  1.00  0.00     0.004 C 
ENDBRANCH  12  13
ENDBRANCH  11  12
ENDBRANCH  10  11
ENDBRANCH   9  10
ENDBRANCH   1   9
TORSDOF 10
ENDMDL
