MODEL 1
REMARK VINA RESULT:    -4.257      0.000      0.000
REMARK INTER + INTRA:         -13.061
REMARK INTER:                  -9.732
REMARK INTRA:                  -3.329
REMARK UNBOUND:                -3.329
REMARK SMILES CCCCCCCCCCCCCCCCCCCCCCCC(=O)[O-]
REMARK SMILES IDX 13 1 14 2 15 3 16 4 17 5 18 6 19 7 20 8 21 9 22 10 23 11
REMARK SMILES IDX 24 12 25 13 26 14 12 15 11 16 10 17 9 18 8 19 7 20 6 21 5 22
REMARK SMILES IDX 4 23 3 24 2 25 1 26
REMARK H PARENT
REMARK Flexibility Score: inf
ROOT
ATOM      1  C   UNL     1      22.283 -13.037   0.902  1.00  0.00     0.000 C 
ENDROOT
BRANCH   1   2
ATOM      2  C   UNL     1      21.572 -14.145   1.692  1.00  0.00     0.000 C 
BRANCH   2   3
ATOM      3  C   UNL     1      22.178 -15.520   1.373  1.00  0.00     0.000 C 
BRANCH   3   4
ATOM      4  C   UNL     1      21.874 -16.568   2.457  1.00  0.00     0.000 C 
BRANCH   4   5
ATOM      5  C   UNL     1      23.106 -17.055   3.245  1.00  0.00     0.000 C 
BRANCH   5   6
ATOM      6  C   UNL     1      24.402 -16.293   2.897  1.00  0.00     0.000 C 
BRANCH   6   7
ATOM      7  C   UNL     1      24.883 -15.404   4.059  1.00  0.00     0.000 C 
BRANCH   7   8
ATOM      8  C   UNL     1      23.972 -15.495   5.294  1.00  0.00     0.000 C 
BRANCH   8   9
ATOM      9  C   UNL     1      23.214 -14.188   5.570  1.00  0.00     0.000 C 
BRANCH   9  10
ATOM     10  C   UNL     1      21.808 -14.420   6.153  1.00  0.00     0.006 C 
BRANCH  10  11
ATOM     11  C   UNL     1      21.557 -15.863   6.627  1.00  0.00     0.053 C 
BRANCH  11  12
ATOM     12  C   UNL     1      21.891 -16.063   8.074  1.00  0.00     0.041 C 
ATOM     13  O   UNL     1      21.517 -15.223   8.935  1.00  0.00    -0.550 OA
ATOM     14  O   UNL     1      22.576 -17.202   8.481  1.00  0.00    -0.550 OA
ENDBRANCH  11  12
ENDBRANCH  10  11
ENDBRANCH   9  10
ENDBRANCH   8   9
ENDBRANCH   7   8
ENDBRANCH   6   7
ENDBRANCH   5   6
ENDBRANCH   4   5
ENDBRANCH   3   4
ENDBRANCH   2   3
ENDBRANCH   1   2
BRANCH   1  15
ATOM     15  C   UNL     1      23.814 -13.159   0.963  1.00  0.00     0.000 C 
BRANCH  15  16
ATOM     16  C   UNL     1      24.486 -11.878   1.487  1.00  0.00     0.000 C 
BRANCH  16  17
ATOM     17  C   UNL     1      24.626 -11.856   3.019  1.00  0.00     0.000 C 
BRANCH  17  18
ATOM     18  C   UNL     1      25.826 -11.026   3.522  1.00  0.00    -0.000 C 
BRANCH  18  19
ATOM     19  C   UNL     1      26.813 -11.865   4.354  1.00  0.00    -0.000 C 
BRANCH  19  20
ATOM     20  C   UNL     1      26.219 -12.322   5.696  1.00  0.00    -0.000 C 
BRANCH  20  21
ATOM     21  C   UNL     1      25.881 -11.147   6.628  1.00  0.00    -0.000 C 
BRANCH  21  22
ATOM     22  C   UNL     1      24.929 -11.593   7.745  1.00  0.00    -0.000 C 
BRANCH  22  23
ATOM     23  C   UNL     1      24.166 -10.395   8.330  1.00  0.00    -0.000 C 
BRANCH  23  24
ATOM     24  C   UNL     1      24.556  -9.066   7.650  1.00  0.00    -0.000 C 
BRANCH  24  25
ATOM     25  C   UNL     1      23.592  -7.908   7.963  1.00  0.00    -0.003 C 
ATOM     26  C   UNL     1      23.880  -6.652   7.144  1.00  0.00     0.004 C 
ENDBRANCH  24  25
ENDBRANCH  23  24
ENDBRANCH  22  23
ENDBRANCH  21  22
ENDBRANCH  20  21
ENDBRANCH  19  20
ENDBRANCH  18  19
ENDBRANCH  17  18
ENDBRANCH  16  17
ENDBRANCH  15  16
ENDBRANCH   1  15
TORSDOF 22
ENDMDL
MODEL 2
REMARK VINA RESULT:    -4.250      2.134      5.468
REMARK INTER + INTRA:         -13.045
REMARK INTER:                  -9.039
REMARK INTRA:                  -4.006
REMARK UNBOUND:                -3.329
REMARK SMILES CCCCCCCCCCCCCCCCCCCCCCCC(=O)[O-]
REMARK SMILES IDX 13 1 14 2 15 3 16 4 17 5 18 6 19 7 20 8 21 9 22 10 23 11
REMARK SMILES IDX 24 12 25 13 26 14 12 15 11 16 10 17 9 18 8 19 7 20 6 21 5 22
REMARK SMILES IDX 4 23 3 24 2 25 1 26
REMARK H PARENT
REMARK Flexibility Score: inf
ROOT
ATOM      1  C   UNL     1      23.337 -13.561   2.635  1.00  0.00     0.000 C 
ENDROOT
BRANCH   1   2
ATOM      2  C   UNL     1      23.799 -12.802   1.382  1.00  0.00     0.000 C 
BRANCH   2   3
ATOM      3  C   UNL     1      25.283 -13.075   1.092  1.00  0.00     0.000 C 
BRANCH   3   4
ATOM      4  C   UNL     1      25.769 -14.403   1.697  1.00  0.00     0.000 C 
BRANCH   4   5
ATOM      5  C   UNL     1      27.023 -14.285   2.585  1.00  0.00     0.000 C 
BRANCH   5   6
ATOM      6  C   UNL     1      26.712 -13.903   4.047  1.00  0.00     0.000 C 
BRANCH   6   7
ATOM      7  C   UNL     1      27.418 -12.602   4.472  1.00  0.00     0.000 C 
BRANCH   7   8
ATOM      8  C   UNL     1      26.466 -11.395   4.509  1.00  0.00     0.000 C 
BRANCH   8   9
ATOM      9  C   UNL     1      25.192 -11.668   5.323  1.00  0.00     0.000 C 
BRANCH   9  10
ATOM     10  C   UNL     1      25.408 -11.528   6.841  1.00  0.00     0.006 C 
BRANCH  10  11
ATOM     11  C   UNL     1      25.383 -10.074   7.345  1.00  0.00     0.053 C 
BRANCH  11  12
ATOM     12  C   UNL     1      24.140  -9.751   8.119  1.00  0.00     0.041 C 
ATOM     13  O   UNL     1      23.678  -8.579   8.119  1.00  0.00    -0.550 OA
ATOM     14  O   UNL     1      23.465 -10.753   8.805  1.00  0.00    -0.550 OA
ENDBRANCH  11  12
ENDBRANCH  10  11
ENDBRANCH   9  10
ENDBRANCH   8   9
ENDBRANCH   7   8
ENDBRANCH   6   7
ENDBRANCH   5   6
ENDBRANCH   4   5
ENDBRANCH   3   4
ENDBRANCH   2   3
ENDBRANCH   1   2
BRANCH   1  15
ATOM     15  C   UNL     1      21.865 -13.993   2.554  1.00  0.00     0.000 C 
BRANCH  15  16
ATOM     16  C   UNL     1      21.572 -14.857   1.315  1.00  0.00     0.000 C 
BRANCH  16  17
ATOM     17  C   UNL     1      21.178 -16.301   1.668  1.00  0.00     0.000 C 
BRANCH  17  18
ATOM     18  C   UNL     1      22.214 -17.355   1.224  1.00  0.00    -0.000 C 
BRANCH  18  19
ATOM     19  C   UNL     1      23.509 -17.292   2.055  1.00  0.00    -0.000 C 
BRANCH  19  20
ATOM     20  C   UNL     1      23.253 -17.433   3.564  1.00  0.00    -0.000 C 
BRANCH  20  21
ATOM     21  C   UNL     1      24.289 -16.683   4.416  1.00  0.00    -0.000 C 
BRANCH  21  22
ATOM     22  C   UNL     1      23.702 -16.306   5.783  1.00  0.00    -0.000 C 
BRANCH  22  23
ATOM     23  C   UNL     1      23.516 -14.786   5.904  1.00  0.00    -0.000 C 
BRANCH  23  24
ATOM     24  C   UNL     1      22.064 -14.404   6.262  1.00  0.00    -0.000 C 
BRANCH  24  25
ATOM     25  C   UNL     1      21.928 -13.721   7.634  1.00  0.00    -0.003 C 
ATOM     26  C   UNL     1      21.596 -14.700   8.758  1.00  0.00     0.004 C 
ENDBRANCH  24  25
ENDBRANCH  23  24
ENDBRANCH  22  23
ENDBRANCH  21  22
ENDBRANCH  20  21
ENDBRANCH  19  20
ENDBRANCH  18  19
ENDBRANCH  17  18
ENDBRANCH  16  17
ENDBRANCH  15  16
ENDBRANCH   1  15
TORSDOF 22
ENDMDL
MODEL 3
REMARK VINA RESULT:    -4.222      1.557      4.082
REMARK INTER + INTRA:         -12.980
REMARK INTER:                  -9.685
REMARK INTRA:                  -3.295
REMARK UNBOUND:                -3.329
REMARK SMILES CCCCCCCCCCCCCCCCCCCCCCCC(=O)[O-]
REMARK SMILES IDX 13 1 14 2 15 3 16 4 17 5 18 6 19 7 20 8 21 9 22 10 23 11
REMARK SMILES IDX 24 12 25 13 26 14 12 15 11 16 10 17 9 18 8 19 7 20 6 21 5 22
REMARK SMILES IDX 4 23 3 24 2 25 1 26
REMARK H PARENT
REMARK Flexibility Score: inf
ROOT
ATOM      1  C   UNL     1      24.905 -12.414   4.433  1.00  0.00     0.000 C 
ENDROOT
BRANCH   1   2
ATOM      2  C   UNL     1      24.879 -11.463   3.227  1.00  0.00     0.000 C 
BRANCH   2   3
ATOM      3  C   UNL     1      24.119 -12.094   2.050  1.00  0.00     0.000 C 
BRANCH   3   4
ATOM      4  C   UNL     1      23.659 -13.532   2.344  1.00  0.00     0.000 C 
BRANCH   4   5
ATOM      5  C   UNL     1      22.134 -13.744   2.290  1.00  0.00     0.000 C 
BRANCH   5   6
ATOM      6  C   UNL     1      21.721 -15.108   1.697  1.00  0.00     0.000 C 
BRANCH   6   7
ATOM      7  C   UNL     1      21.869 -16.253   2.716  1.00  0.00     0.000 C 
BRANCH   7   8
ATOM      8  C   UNL     1      21.526 -15.821   4.151  1.00  0.00     0.000 C 
BRANCH   8   9
ATOM      9  C   UNL     1      22.683 -16.054   5.135  1.00  0.00     0.000 C 
BRANCH   9  10
ATOM     10  C   UNL     1      22.895 -14.875   6.102  1.00  0.00     0.006 C 
BRANCH  10  11
ATOM     11  C   UNL     1      21.590 -14.213   6.578  1.00  0.00     0.053 C 
BRANCH  11  12
ATOM     12  C   UNL     1      21.511 -14.094   8.070  1.00  0.00     0.041 C 
ATOM     13  O   UNL     1      21.217 -12.991   8.606  1.00  0.00    -0.550 OA
ATOM     14  O   UNL     1      21.719 -15.210   8.871  1.00  0.00    -0.550 OA
ENDBRANCH  11  12
ENDBRANCH  10  11
ENDBRANCH   9  10
ENDBRANCH   8   9
ENDBRANCH   7   8
ENDBRANCH   6   7
ENDBRANCH   5   6
ENDBRANCH   4   5
ENDBRANCH   3   4
ENDBRANCH   2   3
ENDBRANCH   1   2
BRANCH   1  15
ATOM     15  C   UNL     1      26.176 -12.255   5.281  1.00  0.00     0.000 C 
BRANCH  15  16
ATOM     16  C   UNL     1      25.928 -11.457   6.573  1.00  0.00     0.000 C 
BRANCH  16  17
ATOM     17  C   UNL     1      24.830 -12.072   7.458  1.00  0.00     0.000 C 
BRANCH  17  18
ATOM     18  C   UNL     1      24.021 -11.029   8.259  1.00  0.00    -0.000 C 
BRANCH  18  19
ATOM     19  C   UNL     1      24.707  -9.651   8.289  1.00  0.00    -0.000 C 
BRANCH  19  20
ATOM     20  C   UNL     1      23.762  -8.509   7.884  1.00  0.00    -0.000 C 
BRANCH  20  21
ATOM     21  C   UNL     1      24.500  -7.329   7.229  1.00  0.00    -0.000 C 
BRANCH  21  22
ATOM     22  C   UNL     1      25.832  -7.787   6.622  1.00  0.00    -0.000 C 
BRANCH  22  23
ATOM     23  C   UNL     1      25.669  -8.141   5.136  1.00  0.00    -0.000 C 
BRANCH  23  24
ATOM     24  C   UNL     1      26.984  -8.653   4.511  1.00  0.00    -0.000 C 
BRANCH  24  25
ATOM     25  C   UNL     1      27.082  -8.405   2.996  1.00  0.00    -0.003 C 
ATOM     26  C   UNL     1      27.863  -9.492   2.262  1.00  0.00     0.004 C 
ENDBRANCH  24  25
ENDBRANCH  23  24
ENDBRANCH  22  23
ENDBRANCH  21  22
ENDBRANCH  20  21
ENDBRANCH  19  20
ENDBRANCH  18  19
ENDBRANCH  17  18
ENDBRANCH  16  17
ENDBRANCH  15  16
ENDBRANCH   1  15
TORSDOF 22
ENDMDL
MODEL 4
REMARK VINA RESULT:    -4.179      2.871      6.101
REMARK INTER + INTRA:         -12.882
REMARK INTER:                  -9.037
REMARK INTRA:                  -3.844
REMARK UNBOUND:                -3.329
REMARK SMILES CCCCCCCCCCCCCCCCCCCCCCCC(=O)[O-]
REMARK SMILES IDX 13 1 14 2 15 3 16 4 17 5 18 6 19 7 20 8 21 9 22 10 23 11
REMARK SMILES IDX 24 12 25 13 26 14 12 15 11 16 10 17 9 18 8 19 7 20 6 21 5 22
REMARK SMILES IDX 4 23 3 24 2 25 1 26
REMARK H PARENT
REMARK Flexibility Score: inf
ROOT
ATOM      1  C   UNL     1      22.214 -13.748   1.345  1.00  0.00     0.000 C 
ENDROOT
BRANCH   1   2
ATOM      2  C   UNL     1      23.461 -12.856   1.451  1.00  0.00     0.000 C 
BRANCH   2   3
ATOM      3  C   UNL     1      24.038 -12.889   2.874  1.00  0.00     0.000 C 
BRANCH   3   4
ATOM      4  C   UNL     1      25.535 -13.242   2.897  1.00  0.00     0.000 C 
BRANCH   4   5
ATOM      5  C   UNL     1      26.249 -12.934   4.228  1.00  0.00     0.000 C 
BRANCH   5   6
ATOM      6  C   UNL     1      26.595 -11.442   4.411  1.00  0.00     0.000 C 
BRANCH   6   7
ATOM      7  C   UNL     1      26.661 -11.038   5.896  1.00  0.00     0.000 C 
BRANCH   7   8
ATOM      8  C   UNL     1      25.823 -11.958   6.799  1.00  0.00     0.000 C 
BRANCH   8   9
ATOM      9  C   UNL     1      24.783 -11.188   7.628  1.00  0.00     0.000 C 
BRANCH   9  10
ATOM     10  C   UNL     1      25.107  -9.689   7.757  1.00  0.00     0.006 C 
BRANCH  10  11
ATOM     11  C   UNL     1      23.889  -8.812   8.099  1.00  0.00     0.053 C 
BRANCH  11  12
ATOM     12  C   UNL     1      23.982  -7.436   7.512  1.00  0.00     0.041 C 
ATOM     13  O   UNL     1      25.045  -7.054   6.953  1.00  0.00    -0.550 OA
ATOM     14  O   UNL     1      22.881  -6.589   7.540  1.00  0.00    -0.550 OA
ENDBRANCH  11  12
ENDBRANCH  10  11
ENDBRANCH   9  10
ENDBRANCH   8   9
ENDBRANCH   7   8
ENDBRANCH   6   7
ENDBRANCH   5   6
ENDBRANCH   4   5
ENDBRANCH   3   4
ENDBRANCH   2   3
ENDBRANCH   1   2
BRANCH   1  15
ATOM     15  C   UNL     1      21.824 -14.376   2.692  1.00  0.00     0.000 C 
BRANCH  15  16
ATOM     16  C   UNL     1      21.283 -15.808   2.540  1.00  0.00     0.000 C 
BRANCH  16  17
ATOM     17  C   UNL     1      22.051 -16.633   1.493  1.00  0.00     0.000 C 
BRANCH  17  18
ATOM     18  C   UNL     1      23.091 -17.597   2.101  1.00  0.00    -0.000 C 
BRANCH  18  19
ATOM     19  C   UNL     1      24.448 -16.913   2.353  1.00  0.00    -0.000 C 
BRANCH  19  20
ATOM     20  C   UNL     1      24.687 -16.598   3.838  1.00  0.00    -0.000 C 
BRANCH  20  21
ATOM     21  C   UNL     1      23.770 -17.403   4.773  1.00  0.00    -0.000 C 
BRANCH  21  22
ATOM     22  C   UNL     1      23.209 -16.512   5.888  1.00  0.00    -0.000 C 
BRANCH  22  23
ATOM     23  C   UNL     1      23.819 -15.103   5.829  1.00  0.00    -0.000 C 
BRANCH  23  24
ATOM     24  C   UNL     1      22.812 -14.014   6.257  1.00  0.00    -0.000 C 
BRANCH  24  25
ATOM     25  C   UNL     1      21.450 -14.575   6.699  1.00  0.00    -0.003 C 
ATOM     26  C   UNL     1      21.314 -14.689   8.215  1.00  0.00     0.004 C 
ENDBRANCH  24  25
ENDBRANCH  23  24
ENDBRANCH  22  23
ENDBRANCH  21  22
ENDBRANCH  20  21
ENDBRANCH  19  20
ENDBRANCH  18  19
ENDBRANCH  17  18
ENDBRANCH  16  17
ENDBRANCH  15  16
ENDBRANCH   1  15
TORSDOF 22
ENDMDL
MODEL 5
REMARK VINA RESULT:    -4.164      2.203      5.494
REMARK INTER + INTRA:         -12.848
REMARK INTER:                  -8.503
REMARK INTRA:                  -4.345
REMARK UNBOUND:                -3.329
REMARK SMILES CCCCCCCCCCCCCCCCCCCCCCCC(=O)[O-]
REMARK SMILES IDX 13 1 14 2 15 3 16 4 17 5 18 6 19 7 20 8 21 9 22 10 23 11
REMARK SMILES IDX 24 12 25 13 26 14 12 15 11 16 10 17 9 18 8 19 7 20 6 21 5 22
REMARK SMILES IDX 4 23 3 24 2 25 1 26
REMARK H PARENT
REMARK Flexibility Score: inf
ROOT
ATOM      1  C   UNL     1      23.704 -13.057   1.032  1.00  0.00     0.000 C 
ENDROOT
BRANCH   1   2
ATOM      2  C   UNL     1      24.112 -11.770   1.764  1.00  0.00     0.000 C 
BRANCH   2   3
ATOM      3  C   UNL     1      25.630 -11.732   1.999  1.00  0.00     0.000 C 
BRANCH   3   4
ATOM      4  C   UNL     1      26.348 -12.965   1.423  1.00  0.00     0.000 C 
BRANCH   4   5
ATOM      5  C   UNL     1      27.582 -13.423   2.225  1.00  0.00     0.000 C 
BRANCH   5   6
ATOM      6  C   UNL     1      28.430 -12.256   2.775  1.00  0.00     0.000 C 
BRANCH   6   7
ATOM      7  C   UNL     1      28.920 -12.520   4.211  1.00  0.00     0.000 C 
BRANCH   7   8
ATOM      8  C   UNL     1      27.793 -12.420   5.252  1.00  0.00     0.000 C 
BRANCH   8   9
ATOM      9  C   UNL     1      27.252 -10.990   5.405  1.00  0.00     0.000 C 
BRANCH   9  10
ATOM     10  C   UNL     1      25.733 -10.945   5.645  1.00  0.00     0.006 C 
BRANCH  10  11
ATOM     11  C   UNL     1      25.313 -11.330   7.075  1.00  0.00     0.053 C 
BRANCH  11  12
ATOM     12  C   UNL     1      24.841 -10.154   7.877  1.00  0.00     0.041 C 
ATOM     13  O   UNL     1      24.811  -9.005   7.362  1.00  0.00    -0.550 OA
ATOM     14  O   UNL     1      24.391 -10.334   9.179  1.00  0.00    -0.550 OA
ENDBRANCH  11  12
ENDBRANCH  10  11
ENDBRANCH   9  10
ENDBRANCH   8   9
ENDBRANCH   7   8
ENDBRANCH   6   7
ENDBRANCH   5   6
ENDBRANCH   4   5
ENDBRANCH   3   4
ENDBRANCH   2   3
ENDBRANCH   1   2
BRANCH   1  15
ATOM     15  C   UNL     1      22.181 -13.260   1.004  1.00  0.00     0.000 C 
BRANCH  15  16
ATOM     16  C   UNL     1      21.745 -14.552   1.718  1.00  0.00     0.000 C 
BRANCH  16  17
ATOM     17  C   UNL     1      22.743 -15.707   1.532  1.00  0.00     0.000 C 
BRANCH  17  18
ATOM     18  C   UNL     1      22.626 -16.809   2.607  1.00  0.00    -0.000 C 
BRANCH  18  19
ATOM     19  C   UNL     1      23.928 -16.985   3.411  1.00  0.00    -0.000 C 
BRANCH  19  20
ATOM     20  C   UNL     1      24.916 -15.827   3.202  1.00  0.00    -0.000 C 
BRANCH  20  21
ATOM     21  C   UNL     1      25.135 -14.994   4.475  1.00  0.00    -0.000 C 
BRANCH  21  22
ATOM     22  C   UNL     1      24.008 -13.970   4.659  1.00  0.00    -0.000 C 
BRANCH  22  23
ATOM     23  C   UNL     1      23.246 -14.219   5.970  1.00  0.00    -0.000 C 
BRANCH  23  24
ATOM     24  C   UNL     1      21.876 -14.889   5.730  1.00  0.00    -0.000 C 
BRANCH  24  25
ATOM     25  C   UNL     1      21.003 -14.973   6.993  1.00  0.00    -0.003 C 
ATOM     26  C   UNL     1      21.465 -14.032   8.103  1.00  0.00     0.004 C 
ENDBRANCH  24  25
ENDBRANCH  23  24
ENDBRANCH  22  23
ENDBRANCH  21  22
ENDBRANCH  20  21
ENDBRANCH  19  20
ENDBRANCH  18  19
ENDBRANCH  17  18
ENDBRANCH  16  17
ENDBRANCH  15  16
ENDBRANCH   1  15
TORSDOF 22
ENDMDL
MODEL 6
REMARK VINA RESULT:    -4.145      1.519      2.568
REMARK INTER + INTRA:         -12.805
REMARK INTER:                  -8.393
REMARK INTRA:                  -4.411
REMARK UNBOUND:                -3.329
REMARK SMILES CCCCCCCCCCCCCCCCCCCCCCCC(=O)[O-]
REMARK SMILES IDX 13 1 14 2 15 3 16 4 17 5 18 6 19 7 20 8 21 9 22 10 23 11
REMARK SMILES IDX 24 12 25 13 26 14 12 15 11 16 10 17 9 18 8 19 7 20 6 21 5 22
REMARK SMILES IDX 4 23 3 24 2 25 1 26
REMARK H PARENT
REMARK Flexibility Score: inf
ROOT
ATOM      1  C   UNL     1      23.674 -12.573   2.173  1.00  0.00     0.000 C 
ENDROOT
BRANCH   1   2
ATOM      2  C   UNL     1      23.064 -13.516   1.126  1.00  0.00     0.000 C 
BRANCH   2   3
ATOM      3  C   UNL     1      21.642 -13.934   1.529  1.00  0.00     0.000 C 
BRANCH   3   4
ATOM      4  C   UNL     1      21.548 -15.420   1.914  1.00  0.00     0.000 C 
BRANCH   4   5
ATOM      5  C   UNL     1      22.595 -16.327   1.239  1.00  0.00     0.000 C 
BRANCH   5   6
ATOM      6  C   UNL     1      23.395 -17.195   2.234  1.00  0.00     0.000 C 
BRANCH   6   7
ATOM      7  C   UNL     1      22.963 -16.954   3.693  1.00  0.00     0.000 C 
BRANCH   7   8
ATOM      8  C   UNL     1      24.156 -16.854   4.657  1.00  0.00     0.000 C 
BRANCH   8   9
ATOM      9  C   UNL     1      23.817 -16.087   5.944  1.00  0.00     0.000 C 
BRANCH   9  10
ATOM     10  C   UNL     1      22.391 -15.505   5.939  1.00  0.00     0.006 C 
BRANCH  10  11
ATOM     11  C   UNL     1      22.292 -14.085   6.523  1.00  0.00     0.053 C 
BRANCH  11  12
ATOM     12  C   UNL     1      21.781 -14.072   7.932  1.00  0.00     0.041 C 
ATOM     13  O   UNL     1      21.328 -13.009   8.435  1.00  0.00    -0.550 OA
ATOM     14  O   UNL     1      21.763 -15.244   8.678  1.00  0.00    -0.550 OA
ENDBRANCH  11  12
ENDBRANCH  10  11
ENDBRANCH   9  10
ENDBRANCH   8   9
ENDBRANCH   7   8
ENDBRANCH   6   7
ENDBRANCH   5   6
ENDBRANCH   4   5
ENDBRANCH   3   4
ENDBRANCH   2   3
ENDBRANCH   1   2
BRANCH   1  15
ATOM     15  C   UNL     1      24.305 -13.330   3.352  1.00  0.00     0.000 C 
BRANCH  15  16
ATOM     16  C   UNL     1      25.579 -14.092   2.950  1.00  0.00     0.000 C 
BRANCH  16  17
ATOM     17  C   UNL     1      26.697 -13.992   4.002  1.00  0.00     0.000 C 
BRANCH  17  18
ATOM     18  C   UNL     1      27.843 -13.038   3.602  1.00  0.00    -0.000 C 
BRANCH  18  19
ATOM     19  C   UNL     1      27.553 -12.290   2.287  1.00  0.00    -0.000 C 
BRANCH  19  20
ATOM     20  C   UNL     1      27.190 -10.813   2.512  1.00  0.00    -0.000 C 
BRANCH  20  21
ATOM     21  C   UNL     1      27.270 -10.398   3.990  1.00  0.00    -0.000 C 
BRANCH  21  22
ATOM     22  C   UNL     1      25.869 -10.172   4.571  1.00  0.00    -0.000 C 
BRANCH  22  23
ATOM     23  C   UNL     1      25.870 -10.346   6.097  1.00  0.00    -0.000 C 
BRANCH  23  24
ATOM     24  C   UNL     1      25.240 -11.686   6.532  1.00  0.00    -0.000 C 
BRANCH  24  25
ATOM     25  C   UNL     1      24.777 -11.702   7.999  1.00  0.00    -0.003 C 
ATOM     26  C   UNL     1      23.896 -10.509   8.360  1.00  0.00     0.004 C 
ENDBRANCH  24  25
ENDBRANCH  23  24
ENDBRANCH  22  23
ENDBRANCH  21  22
ENDBRANCH  20  21
ENDBRANCH  19  20
ENDBRANCH  18  19
ENDBRANCH  17  18
ENDBRANCH  16  17
ENDBRANCH  15  16
ENDBRANCH   1  15
TORSDOF 22
ENDMDL
MODEL 7
REMARK VINA RESULT:    -4.053      2.098      5.974
REMARK INTER + INTRA:         -12.594
REMARK INTER:                  -8.943
REMARK INTRA:                  -3.651
REMARK UNBOUND:                -3.329
REMARK SMILES CCCCCCCCCCCCCCCCCCCCCCCC(=O)[O-]
REMARK SMILES IDX 13 1 14 2 15 3 16 4 17 5 18 6 19 7 20 8 21 9 22 10 23 11
REMARK SMILES IDX 24 12 25 13 26 14 12 15 11 16 10 17 9 18 8 19 7 20 6 21 5 22
REMARK SMILES IDX 4 23 3 24 2 25 1 26
REMARK H PARENT
REMARK Flexibility Score: inf
ROOT
ATOM      1  C   UNL     1      24.556 -12.237   2.817  1.00  0.00     0.000 C 
ENDROOT
BRANCH   1   2
ATOM      2  C   UNL     1      24.536 -12.899   4.204  1.00  0.00     0.000 C 
BRANCH   2   3
ATOM      3  C   UNL     1      25.851 -13.648   4.470  1.00  0.00     0.000 C 
BRANCH   3   4
ATOM      4  C   UNL     1      27.088 -12.851   4.023  1.00  0.00     0.000 C 
BRANCH   4   5
ATOM      5  C   UNL     1      27.978 -12.344   5.175  1.00  0.00     0.000 C 
BRANCH   5   6
ATOM      6  C   UNL     1      28.450 -10.886   4.994  1.00  0.00     0.000 C 
BRANCH   6   7
ATOM      7  C   UNL     1      27.838 -10.227   3.743  1.00  0.00     0.000 C 
BRANCH   7   8
ATOM      8  C   UNL     1      26.973  -9.002   4.081  1.00  0.00     0.000 C 
BRANCH   8   9
ATOM      9  C   UNL     1      25.710  -9.369   4.877  1.00  0.00     0.000 C 
BRANCH   9  10
ATOM     10  C   UNL     1      25.647  -8.682   6.253  1.00  0.00     0.006 C 
BRANCH  10  11
ATOM     11  C   UNL     1      26.033  -9.599   7.428  1.00  0.00     0.053 C 
BRANCH  11  12
ATOM     12  C   UNL     1      24.977 -10.616   7.741  1.00  0.00     0.041 C 
ATOM     13  O   UNL     1      25.188 -11.839   7.523  1.00  0.00    -0.550 OA
ATOM     14  O   UNL     1      23.775 -10.219   8.315  1.00  0.00    -0.550 OA
ENDBRANCH  11  12
ENDBRANCH  10  11
ENDBRANCH   9  10
ENDBRANCH   8   9
ENDBRANCH   7   8
ENDBRANCH   6   7
ENDBRANCH   5   6
ENDBRANCH   4   5
ENDBRANCH   3   4
ENDBRANCH   2   3
ENDBRANCH   1   2
BRANCH   1  15
ATOM     15  C   UNL     1      24.427 -13.258   1.676  1.00  0.00     0.000 C 
BRANCH  15  16
ATOM     16  C   UNL     1      23.085 -13.146   0.933  1.00  0.00     0.000 C 
BRANCH  16  17
ATOM     17  C   UNL     1      21.896 -13.668   1.758  1.00  0.00     0.000 C 
BRANCH  17  18
ATOM     18  C   UNL     1      21.553 -15.149   1.488  1.00  0.00    -0.000 C 
BRANCH  18  19
ATOM     19  C   UNL     1      21.572 -15.999   2.772  1.00  0.00    -0.000 C 
BRANCH  19  20
ATOM     20  C   UNL     1      22.990 -16.200   3.330  1.00  0.00    -0.000 C 
BRANCH  20  21
ATOM     21  C   UNL     1      23.024 -16.253   4.866  1.00  0.00    -0.000 C 
BRANCH  21  22
ATOM     22  C   UNL     1      21.661 -16.675   5.428  1.00  0.00    -0.000 C 
BRANCH  22  23
ATOM     23  C   UNL     1      21.058 -15.567   6.305  1.00  0.00    -0.000 C 
BRANCH  23  24
ATOM     24  C   UNL     1      21.875 -14.259   6.236  1.00  0.00    -0.000 C 
BRANCH  24  25
ATOM     25  C   UNL     1      22.181 -13.651   7.615  1.00  0.00    -0.003 C 
ATOM     26  C   UNL     1      21.158 -14.040   8.680  1.00  0.00     0.004 C 
ENDBRANCH  24  25
ENDBRANCH  23  24
ENDBRANCH  22  23
ENDBRANCH  21  22
ENDBRANCH  20  21
ENDBRANCH  19  20
ENDBRANCH  18  19
ENDBRANCH  17  18
ENDBRANCH  16  17
ENDBRANCH  15  16
ENDBRANCH   1  15
TORSDOF 22
ENDMDL
MODEL 8
REMARK VINA RESULT:    -4.048      2.228      6.125
REMARK INTER + INTRA:         -12.582
REMARK INTER:                  -8.750
REMARK INTRA:                  -3.832
REMARK UNBOUND:                -3.329
REMARK SMILES CCCCCCCCCCCCCCCCCCCCCCCC(=O)[O-]
REMARK SMILES IDX 13 1 14 2 15 3 16 4 17 5 18 6 19 7 20 8 21 9 22 10 23 11
REMARK SMILES IDX 24 12 25 13 26 14 12 15 11 16 10 17 9 18 8 19 7 20 6 21 5 22
REMARK SMILES IDX 4 23 3 24 2 25 1 26
REMARK H PARENT
REMARK Flexibility Score: inf
ROOT
ATOM      1  C   UNL     1      24.583 -13.279   3.439  1.00  0.00     0.000 C 
ENDROOT
BRANCH   1   2
ATOM      2  C   UNL     1      25.939 -13.998   3.500  1.00  0.00     0.000 C 
BRANCH   2   3
ATOM      3  C   UNL     1      26.775 -13.695   2.246  1.00  0.00     0.000 C 
BRANCH   3   4
ATOM      4  C   UNL     1      28.288 -13.752   2.515  1.00  0.00     0.000 C 
BRANCH   4   5
ATOM      5  C   UNL     1      29.027 -12.414   2.318  1.00  0.00     0.000 C 
BRANCH   5   6
ATOM      6  C   UNL     1      28.263 -11.197   2.880  1.00  0.00     0.000 C 
BRANCH   6   7
ATOM      7  C   UNL     1      28.425 -11.062   4.406  1.00  0.00     0.000 C 
BRANCH   7   8
ATOM      8  C   UNL     1      27.108 -10.705   5.114  1.00  0.00     0.000 C 
BRANCH   8   9
ATOM      9  C   UNL     1      26.703 -11.742   6.173  1.00  0.00     0.000 C 
BRANCH   9  10
ATOM     10  C   UNL     1      25.369 -11.406   6.863  1.00  0.00     0.006 C 
BRANCH  10  11
ATOM     11  C   UNL     1      25.307  -9.984   7.449  1.00  0.00     0.053 C 
BRANCH  11  12
ATOM     12  C   UNL     1      24.031  -9.718   8.190  1.00  0.00     0.041 C 
ATOM     13  O   UNL     1      23.561  -8.550   8.247  1.00  0.00    -0.550 OA
ATOM     14  O   UNL     1      23.336 -10.766   8.780  1.00  0.00    -0.550 OA
ENDBRANCH  11  12
ENDBRANCH  10  11
ENDBRANCH   9  10
ENDBRANCH   8   9
ENDBRANCH   7   8
ENDBRANCH   6   7
ENDBRANCH   5   6
ENDBRANCH   4   5
ENDBRANCH   3   4
ENDBRANCH   2   3
ENDBRANCH   1   2
BRANCH   1  15
ATOM     15  C   UNL     1      24.651 -11.957   2.658  1.00  0.00     0.000 C 
BRANCH  15  16
ATOM     16  C   UNL     1      23.691 -11.932   1.457  1.00  0.00     0.000 C 
BRANCH  16  17
ATOM     17  C   UNL     1      23.254 -13.336   1.006  1.00  0.00     0.000 C 
BRANCH  17  18
ATOM     18  C   UNL     1      21.763 -13.637   1.263  1.00  0.00    -0.000 C 
BRANCH  18  19
ATOM     19  C   UNL     1      21.503 -15.131   1.534  1.00  0.00    -0.000 C 
BRANCH  19  20
ATOM     20  C   UNL     1      22.781 -15.980   1.449  1.00  0.00    -0.000 C 
BRANCH  20  21
ATOM     21  C   UNL     1      22.787 -17.150   2.446  1.00  0.00    -0.000 C 
BRANCH  21  22
ATOM     22  C   UNL     1      23.638 -16.815   3.677  1.00  0.00    -0.000 C 
BRANCH  22  23
ATOM     23  C   UNL     1      22.815 -16.938   4.968  1.00  0.00    -0.000 C 
BRANCH  23  24
ATOM     24  C   UNL     1      21.573 -16.021   4.958  1.00  0.00    -0.000 C 
BRANCH  24  25
ATOM     25  C   UNL     1      21.875 -14.571   5.372  1.00  0.00    -0.003 C 
ATOM     26  C   UNL     1      22.754 -14.475   6.617  1.00  0.00     0.004 C 
ENDBRANCH  24  25
ENDBRANCH  23  24
ENDBRANCH  22  23
ENDBRANCH  21  22
ENDBRANCH  20  21
ENDBRANCH  19  20
ENDBRANCH  18  19
ENDBRANCH  17  18
ENDBRANCH  16  17
ENDBRANCH  15  16
ENDBRANCH   1  15
TORSDOF 22
ENDMDL
MODEL 9
REMARK VINA RESULT:    -3.974      1.621      3.409
REMARK INTER + INTRA:         -12.415
REMARK INTER:                  -8.113
REMARK INTRA:                  -4.302
REMARK UNBOUND:                -3.329
REMARK SMILES CCCCCCCCCCCCCCCCCCCCCCCC(=O)[O-]
REMARK SMILES IDX 13 1 14 2 15 3 16 4 17 5 18 6 19 7 20 8 21 9 22 10 23 11
REMARK SMILES IDX 24 12 25 13 26 14 12 15 11 16 10 17 9 18 8 19 7 20 6 21 5 22
REMARK SMILES IDX 4 23 3 24 2 25 1 26
REMARK H PARENT
REMARK Flexibility Score: inf
ROOT
ATOM      1  C   UNL     1      24.874 -12.307   4.175  1.00  0.00     0.000 C 
ENDROOT
BRANCH   1   2
ATOM      2  C   UNL     1      24.606 -12.034   2.688  1.00  0.00     0.000 C 
BRANCH   2   3
ATOM      3  C   UNL     1      25.094 -13.204   1.820  1.00  0.00     0.000 C 
BRANCH   3   4
ATOM      4  C   UNL     1      24.003 -13.736   0.875  1.00  0.00     0.000 C 
BRANCH   4   5
ATOM      5  C   UNL     1      22.589 -13.187   1.150  1.00  0.00     0.000 C 
BRANCH   5   6
ATOM      6  C   UNL     1      21.846 -13.933   2.277  1.00  0.00     0.000 C 
BRANCH   6   7
ATOM      7  C   UNL     1      21.750 -15.447   2.008  1.00  0.00     0.000 C 
BRANCH   7   8
ATOM      8  C   UNL     1      22.210 -16.293   3.206  1.00  0.00     0.000 C 
BRANCH   8   9
ATOM      9  C   UNL     1      23.349 -15.632   3.998  1.00  0.00     0.000 C 
BRANCH   9  10
ATOM     10  C   UNL     1      23.057 -15.537   5.506  1.00  0.00     0.006 C 
BRANCH  10  11
ATOM     11  C   UNL     1      21.832 -14.672   5.854  1.00  0.00     0.053 C 
BRANCH  11  12
ATOM     12  C   UNL     1      21.956 -14.003   7.190  1.00  0.00     0.041 C 
ATOM     13  O   UNL     1      21.070 -14.172   8.070  1.00  0.00    -0.550 OA
ATOM     14  O   UNL     1      23.072 -13.229   7.481  1.00  0.00    -0.550 OA
ENDBRANCH  11  12
ENDBRANCH  10  11
ENDBRANCH   9  10
ENDBRANCH   8   9
ENDBRANCH   7   8
ENDBRANCH   6   7
ENDBRANCH   5   6
ENDBRANCH   4   5
ENDBRANCH   3   4
ENDBRANCH   2   3
ENDBRANCH   1   2
BRANCH   1  15
ATOM     15  C   UNL     1      26.168 -13.104   4.404  1.00  0.00     0.000 C 
BRANCH  15  16
ATOM     16  C   UNL     1      27.041 -12.504   5.520  1.00  0.00     0.000 C 
BRANCH  16  17
ATOM     17  C   UNL     1      28.267 -11.747   4.982  1.00  0.00     0.000 C 
BRANCH  17  18
ATOM     18  C   UNL     1      28.445 -11.857   3.453  1.00  0.00    -0.000 C 
BRANCH  18  19
ATOM     19  C   UNL     1      28.125 -10.536   2.729  1.00  0.00    -0.000 C 
BRANCH  19  20
ATOM     20  C   UNL     1      27.818  -9.386   3.700  1.00  0.00    -0.000 C 
BRANCH  20  21
ATOM     21  C   UNL     1      26.392  -8.835   3.541  1.00  0.00    -0.000 C 
BRANCH  21  22
ATOM     22  C   UNL     1      25.700  -8.707   4.904  1.00  0.00    -0.000 C 
BRANCH  22  23
ATOM     23  C   UNL     1      26.723  -8.444   6.020  1.00  0.00    -0.000 C 
BRANCH  23  24
ATOM     24  C   UNL     1      26.435  -9.281   7.284  1.00  0.00    -0.000 C 
BRANCH  24  25
ATOM     25  C   UNL     1      25.041  -9.932   7.286  1.00  0.00    -0.003 C 
ATOM     26  C   UNL     1      24.035  -9.187   8.160  1.00  0.00     0.004 C 
ENDBRANCH  24  25
ENDBRANCH  23  24
ENDBRANCH  22  23
ENDBRANCH  21  22
ENDBRANCH  20  21
ENDBRANCH  19  20
ENDBRANCH  18  19
ENDBRANCH  17  18
ENDBRANCH  16  17
ENDBRANCH  15  16
ENDBRANCH   1  15
TORSDOF 22
ENDMDL
