MODEL 1
REMARK VINA RESULT:    18.621      0.000      0.000
REMARK INTER + INTRA:          39.361
REMARK INTER:                  40.392
REMARK INTRA:                  -1.031
REMARK UNBOUND:                -1.031
REMARK SMILES CCCCCCCCCCCCCCCCCCCCCC(=O)[O-]
REMARK SMILES IDX 12 1 11 2 10 3 9 4 8 5 7 6 6 7 5 8 4 9 3 10 2 11 1 12 13 13
REMARK SMILES IDX 14 14 15 15 16 16 17 17 18 18 19 19 20 20 21 21 22 22 23 23
REMARK SMILES IDX 24 24
REMARK H PARENT
REMARK Flexibility Score: inf
ROOT
ATOM      1  C   UNL     1      -8.641 -17.734  27.540  1.00  0.00     0.000 C 
ENDROOT
BRANCH   1   2
ATOM      2  C   UNL     1      -9.773 -16.713  27.733  1.00  0.00     0.000 C 
BRANCH   2   3
ATOM      3  C   UNL     1      -9.509 -15.386  27.000  1.00  0.00     0.000 C 
BRANCH   3   4
ATOM      4  C   UNL     1     -10.798 -14.597  26.706  1.00  0.00    -0.000 C 
BRANCH   4   5
ATOM      5  C   UNL     1     -10.603 -13.081  26.518  1.00  0.00    -0.000 C 
BRANCH   5   6
ATOM      6  C   UNL     1     -11.401 -12.244  27.533  1.00  0.00    -0.000 C 
BRANCH   6   7
ATOM      7  C   UNL     1     -10.692 -10.932  27.903  1.00  0.00    -0.000 C 
BRANCH   7   8
ATOM      8  C   UNL     1      -9.917 -10.329  26.718  1.00  0.00    -0.000 C 
BRANCH   8   9
ATOM      9  C   UNL     1      -8.940  -9.223  27.150  1.00  0.00    -0.000 C 
BRANCH   9  10
ATOM     10  C   UNL     1      -7.550  -9.772  27.512  1.00  0.00    -0.000 C 
BRANCH  10  11
ATOM     11  C   UNL     1      -6.655  -9.968  26.277  1.00  0.00    -0.003 C 
ATOM     12  C   UNL     1      -5.380 -10.753  26.587  1.00  0.00     0.004 C 
ENDBRANCH  10  11
ENDBRANCH   9  10
ENDBRANCH   8   9
ENDBRANCH   7   8
ENDBRANCH   6   7
ENDBRANCH   5   6
ENDBRANCH   4   5
ENDBRANCH   3   4
ENDBRANCH   2   3
ENDBRANCH   1   2
BRANCH   1  13
ATOM     13  C   UNL     1      -7.401 -17.129  26.861  1.00  0.00     0.000 C 
BRANCH  13  14
ATOM     14  C   UNL     1      -6.386 -18.224  26.499  1.00  0.00     0.000 C 
BRANCH  14  15
ATOM     15  C   UNL     1      -6.000 -18.206  25.010  1.00  0.00     0.000 C 
BRANCH  15  16
ATOM     16  C   UNL     1      -5.031 -19.344  24.641  1.00  0.00     0.000 C 
BRANCH  16  17
ATOM     17  C   UNL     1      -4.564 -19.277  23.178  1.00  0.00     0.000 C 
BRANCH  17  18
ATOM     18  C   UNL     1      -4.180 -20.656  22.613  1.00  0.00     0.000 C 
BRANCH  18  19
ATOM     19  C   UNL     1      -2.684 -20.965  22.783  1.00  0.00     0.000 C 
BRANCH  19  20
ATOM     20  C   UNL     1      -1.805 -19.705  22.676  1.00  0.00     0.006 C 
BRANCH  20  21
ATOM     21  C   UNL     1      -0.771 -19.621  23.807  1.00  0.00     0.053 C 
BRANCH  21  22
ATOM     22  C   UNL     1      -0.682 -18.241  24.382  1.00  0.00     0.041 C 
ATOM     23  O   UNL     1      -1.213 -17.983  25.495  1.00  0.00    -0.550 OA
ATOM     24  O   UNL     1      -0.040 -17.231  23.676  1.00  0.00    -0.550 OA
ENDBRANCH  21  22
ENDBRANCH  20  21
ENDBRANCH  19  20
ENDBRANCH  18  19
ENDBRANCH  17  18
ENDBRANCH  16  17
ENDBRANCH  15  16
ENDBRANCH  14  15
ENDBRANCH  13  14
ENDBRANCH   1  13
TORSDOF 20
ENDMDL
MODEL 2
REMARK VINA RESULT:    18.789      2.426      9.511
REMARK INTER + INTRA:          39.727
REMARK INTER:                  40.940
REMARK INTRA:                  -1.213
REMARK UNBOUND:                -1.031
REMARK SMILES CCCCCCCCCCCCCCCCCCCCCC(=O)[O-]
REMARK SMILES IDX 12 1 11 2 10 3 9 4 8 5 7 6 6 7 5 8 4 9 3 10 2 11 1 12 13 13
REMARK SMILES IDX 14 14 15 15 16 16 17 17 18 18 19 19 20 20 21 21 22 22 23 23
REMARK SMILES IDX 24 24
REMARK H PARENT
REMARK Flexibility Score: inf
ROOT
ATOM      1  C   UNL     1      -9.503 -15.488  27.078  1.00  0.00     0.000 C 
ENDROOT
BRANCH   1   2
ATOM      2  C   UNL     1      -9.765 -16.832  27.777  1.00  0.00     0.000 C 
BRANCH   2   3
ATOM      3  C   UNL     1      -8.551 -17.777  27.723  1.00  0.00     0.000 C 
BRANCH   3   4
ATOM      4  C   UNL     1      -7.358 -17.176  26.958  1.00  0.00    -0.000 C 
BRANCH   4   5
ATOM      5  C   UNL     1      -6.018 -17.903  27.170  1.00  0.00    -0.000 C 
BRANCH   5   6
ATOM      6  C   UNL     1      -5.534 -18.648  25.914  1.00  0.00    -0.000 C 
BRANCH   6   7
ATOM      7  C   UNL     1      -6.248 -18.177  24.638  1.00  0.00    -0.000 C 
BRANCH   7   8
ATOM      8  C   UNL     1      -5.451 -18.509  23.364  1.00  0.00    -0.000 C 
BRANCH   8   9
ATOM      9  C   UNL     1      -4.347 -19.551  23.610  1.00  0.00    -0.000 C 
BRANCH   9  10
ATOM     10  C   UNL     1      -4.223 -20.562  22.457  1.00  0.00    -0.000 C 
BRANCH  10  11
ATOM     11  C   UNL     1      -2.769 -20.760  22.002  1.00  0.00    -0.003 C 
ATOM     12  C   UNL     1      -1.814 -21.026  23.166  1.00  0.00     0.004 C 
ENDBRANCH  10  11
ENDBRANCH   9  10
ENDBRANCH   8   9
ENDBRANCH   7   8
ENDBRANCH   6   7
ENDBRANCH   5   6
ENDBRANCH   4   5
ENDBRANCH   3   4
ENDBRANCH   2   3
ENDBRANCH   1   2
BRANCH   1  13
ATOM     13  C   UNL     1     -10.770 -14.881  26.457  1.00  0.00     0.000 C 
BRANCH  13  14
ATOM     14  C   UNL     1     -10.703 -13.346  26.463  1.00  0.00     0.000 C 
BRANCH  14  15
ATOM     15  C   UNL     1     -11.783 -12.708  27.353  1.00  0.00     0.000 C 
BRANCH  15  16
ATOM     16  C   UNL     1     -11.294 -11.419  28.037  1.00  0.00     0.000 C 
BRANCH  16  17
ATOM     17  C   UNL     1     -10.344 -10.598  27.149  1.00  0.00     0.000 C 
BRANCH  17  18
ATOM     18  C   UNL     1     -10.044  -9.205  27.728  1.00  0.00     0.000 C 
BRANCH  18  19
ATOM     19  C   UNL     1      -8.552  -8.846  27.654  1.00  0.00     0.000 C 
BRANCH  19  20
ATOM     20  C   UNL     1      -7.737  -9.871  26.844  1.00  0.00     0.006 C 
BRANCH  20  21
ATOM     21  C   UNL     1      -6.282  -9.965  27.321  1.00  0.00     0.053 C 
BRANCH  21  22
ATOM     22  C   UNL     1      -5.418 -10.698  26.342  1.00  0.00     0.041 C 
ATOM     23  O   UNL     1      -5.148 -11.915  26.522  1.00  0.00    -0.550 OA
ATOM     24  O   UNL     1      -4.886 -10.030  25.246  1.00  0.00    -0.550 OA
ENDBRANCH  21  22
ENDBRANCH  20  21
ENDBRANCH  19  20
ENDBRANCH  18  19
ENDBRANCH  17  18
ENDBRANCH  16  17
ENDBRANCH  15  16
ENDBRANCH  14  15
ENDBRANCH  13  14
ENDBRANCH   1  13
TORSDOF 20
ENDMDL
MODEL 3
REMARK VINA RESULT:    18.794      2.543      9.743
REMARK INTER + INTRA:          39.738
REMARK INTER:                  40.641
REMARK INTRA:                  -0.903
REMARK UNBOUND:                -1.031
REMARK SMILES CCCCCCCCCCCCCCCCCCCCCC(=O)[O-]
REMARK SMILES IDX 12 1 11 2 10 3 9 4 8 5 7 6 6 7 5 8 4 9 3 10 2 11 1 12 13 13
REMARK SMILES IDX 14 14 15 15 16 16 17 17 18 18 19 19 20 20 21 21 22 22 23 23
REMARK SMILES IDX 24 24
REMARK H PARENT
REMARK Flexibility Score: inf
ROOT
ATOM      1  C   UNL     1      -9.649 -16.519  27.802  1.00  0.00     0.000 C 
ENDROOT
BRANCH   1   2
ATOM      2  C   UNL     1      -8.444 -17.472  27.785  1.00  0.00     0.000 C 
BRANCH   2   3
ATOM      3  C   UNL     1      -7.329 -17.004  26.833  1.00  0.00     0.000 C 
BRANCH   3   4
ATOM      4  C   UNL     1      -6.131 -17.970  26.792  1.00  0.00    -0.000 C 
BRANCH   4   5
ATOM      5  C   UNL     1      -6.215 -19.063  25.712  1.00  0.00    -0.000 C 
BRANCH   5   6
ATOM      6  C   UNL     1      -5.675 -18.600  24.347  1.00  0.00    -0.000 C 
BRANCH   6   7
ATOM      7  C   UNL     1      -4.328 -19.250  23.994  1.00  0.00    -0.000 C 
BRANCH   7   8
ATOM      8  C   UNL     1      -4.412 -20.123  22.729  1.00  0.00    -0.000 C 
BRANCH   8   9
ATOM      9  C   UNL     1      -3.141 -20.959  22.502  1.00  0.00    -0.000 C 
BRANCH   9  10
ATOM     10  C   UNL     1      -1.887 -20.088  22.319  1.00  0.00    -0.000 C 
BRANCH  10  11
ATOM     11  C   UNL     1      -1.129 -19.864  23.637  1.00  0.00    -0.003 C 
ATOM     12  C   UNL     1      -0.244 -18.617  23.609  1.00  0.00     0.004 C 
ENDBRANCH  10  11
ENDBRANCH   9  10
ENDBRANCH   8   9
ENDBRANCH   7   8
ENDBRANCH   6   7
ENDBRANCH   5   6
ENDBRANCH   4   5
ENDBRANCH   3   4
ENDBRANCH   2   3
ENDBRANCH   1   2
BRANCH   1  13
ATOM     13  C   UNL     1      -9.478 -15.323  26.852  1.00  0.00     0.000 C 
BRANCH  13  14
ATOM     14  C   UNL     1     -10.838 -14.700  26.503  1.00  0.00     0.000 C 
BRANCH  14  15
ATOM     15  C   UNL     1     -10.798 -13.163  26.480  1.00  0.00     0.000 C 
BRANCH  15  16
ATOM     16  C   UNL     1     -11.575 -12.539  27.654  1.00  0.00     0.000 C 
BRANCH  16  17
ATOM     17  C   UNL     1     -11.140 -11.095  27.954  1.00  0.00     0.000 C 
BRANCH  17  18
ATOM     18  C   UNL     1     -10.056 -10.588  26.988  1.00  0.00     0.000 C 
BRANCH  18  19
ATOM     19  C   UNL     1      -9.428  -9.264  27.451  1.00  0.00     0.000 C 
BRANCH  19  20
ATOM     20  C   UNL     1      -7.889  -9.301  27.432  1.00  0.00     0.006 C 
BRANCH  20  21
ATOM     21  C   UNL     1      -7.346 -10.350  26.453  1.00  0.00     0.053 C 
BRANCH  21  22
ATOM     22  C   UNL     1      -5.856 -10.479  26.540  1.00  0.00     0.041 C 
ATOM     23  O   UNL     1      -5.174 -10.669  25.498  1.00  0.00    -0.550 OA
ATOM     24  O   UNL     1      -5.223 -10.421  27.775  1.00  0.00    -0.550 OA
ENDBRANCH  21  22
ENDBRANCH  20  21
ENDBRANCH  19  20
ENDBRANCH  18  19
ENDBRANCH  17  18
ENDBRANCH  16  17
ENDBRANCH  15  16
ENDBRANCH  14  15
ENDBRANCH  13  14
ENDBRANCH   1  13
TORSDOF 20
ENDMDL
MODEL 4
REMARK VINA RESULT:    19.067      0.797      1.553
REMARK INTER + INTRA:          40.330
REMARK INTER:                  41.454
REMARK INTRA:                  -1.125
REMARK UNBOUND:                -1.031
REMARK SMILES CCCCCCCCCCCCCCCCCCCCCC(=O)[O-]
REMARK SMILES IDX 12 1 11 2 10 3 9 4 8 5 7 6 6 7 5 8 4 9 3 10 2 11 1 12 13 13
REMARK SMILES IDX 14 14 15 15 16 16 17 17 18 18 19 19 20 20 21 21 22 22 23 23
REMARK SMILES IDX 24 24
REMARK H PARENT
REMARK Flexibility Score: inf
ROOT
ATOM      1  C   UNL     1      -7.910 -17.576  26.630  1.00  0.00     0.000 C 
ENDROOT
BRANCH   1   2
ATOM      2  C   UNL     1      -8.964 -17.883  27.706  1.00  0.00     0.000 C 
BRANCH   2   3
ATOM      3  C   UNL     1      -9.789 -16.646  28.101  1.00  0.00     0.000 C 
BRANCH   3   4
ATOM      4  C   UNL     1     -10.318 -15.865  26.884  1.00  0.00    -0.000 C 
BRANCH   4   5
ATOM      5  C   UNL     1     -10.025 -14.354  26.903  1.00  0.00    -0.000 C 
BRANCH   5   6
ATOM      6  C   UNL     1     -11.123 -13.522  26.218  1.00  0.00    -0.000 C 
BRANCH   6   7
ATOM      7  C   UNL     1     -11.810 -12.543  27.183  1.00  0.00    -0.000 C 
BRANCH   7   8
ATOM      8  C   UNL     1     -10.810 -11.593  27.866  1.00  0.00    -0.000 C 
BRANCH   8   9
ATOM      9  C   UNL     1     -10.069 -10.694  26.863  1.00  0.00    -0.000 C 
BRANCH   9  10
ATOM     10  C   UNL     1      -9.869  -9.263  27.390  1.00  0.00    -0.000 C 
BRANCH  10  11
ATOM     11  C   UNL     1      -8.396  -8.947  27.692  1.00  0.00    -0.003 C 
ATOM     12  C   UNL     1      -7.427  -9.881  26.965  1.00  0.00     0.004 C 
ENDBRANCH  10  11
ENDBRANCH   9  10
ENDBRANCH   8   9
ENDBRANCH   7   8
ENDBRANCH   6   7
ENDBRANCH   5   6
ENDBRANCH   4   5
ENDBRANCH   3   4
ENDBRANCH   2   3
ENDBRANCH   1   2
BRANCH   1  13
ATOM     13  C   UNL     1      -6.478 -17.547  27.188  1.00  0.00     0.000 C 
BRANCH  13  14
ATOM     14  C   UNL     1      -5.508 -18.275  26.246  1.00  0.00     0.000 C 
BRANCH  14  15
ATOM     15  C   UNL     1      -6.144 -18.617  24.888  1.00  0.00     0.000 C 
BRANCH  15  16
ATOM     16  C   UNL     1      -5.098 -18.743  23.765  1.00  0.00     0.000 C 
BRANCH  16  17
ATOM     17  C   UNL     1      -4.501 -20.156  23.664  1.00  0.00     0.000 C 
BRANCH  17  18
ATOM     18  C   UNL     1      -3.759 -20.395  22.337  1.00  0.00     0.000 C 
BRANCH  18  19
ATOM     19  C   UNL     1      -2.319 -20.887  22.549  1.00  0.00     0.000 C 
BRANCH  19  20
ATOM     20  C   UNL     1      -1.308 -19.731  22.652  1.00  0.00     0.006 C 
BRANCH  20  21
ATOM     21  C   UNL     1      -0.741 -19.581  24.070  1.00  0.00     0.053 C 
BRANCH  21  22
ATOM     22  C   UNL     1      -0.755 -18.156  24.530  1.00  0.00     0.041 C 
ATOM     23  O   UNL     1      -0.251 -17.252  23.812  1.00  0.00    -0.550 OA
ATOM     24  O   UNL     1      -1.298 -17.828  25.767  1.00  0.00    -0.550 OA
ENDBRANCH  21  22
ENDBRANCH  20  21
ENDBRANCH  19  20
ENDBRANCH  18  19
ENDBRANCH  17  18
ENDBRANCH  16  17
ENDBRANCH  15  16
ENDBRANCH  14  15
ENDBRANCH  13  14
ENDBRANCH   1  13
TORSDOF 20
ENDMDL
MODEL 5
REMARK VINA RESULT:    19.120      1.639      2.796
REMARK INTER + INTRA:          40.444
REMARK INTER:                  41.268
REMARK INTRA:                  -0.824
REMARK UNBOUND:                -1.031
REMARK SMILES CCCCCCCCCCCCCCCCCCCCCC(=O)[O-]
REMARK SMILES IDX 12 1 11 2 10 3 9 4 8 5 7 6 6 7 5 8 4 9 3 10 2 11 1 12 13 13
REMARK SMILES IDX 14 14 15 15 16 16 17 17 18 18 19 19 20 20 21 21 22 22 23 23
REMARK SMILES IDX 24 24
REMARK H PARENT
REMARK Flexibility Score: inf
ROOT
ATOM      1  C   UNL     1      -9.488 -15.589  26.897  1.00  0.00     0.000 C 
ENDROOT
BRANCH   1   2
ATOM      2  C   UNL     1     -10.736 -14.833  26.414  1.00  0.00     0.000 C 
BRANCH   2   3
ATOM      3  C   UNL     1     -10.594 -13.306  26.546  1.00  0.00     0.000 C 
BRANCH   3   4
ATOM      4  C   UNL     1     -11.575 -12.699  27.565  1.00  0.00    -0.000 C 
BRANCH   4   5
ATOM      5  C   UNL     1     -11.372 -11.199  27.849  1.00  0.00    -0.000 C 
BRANCH   5   6
ATOM      6  C   UNL     1     -10.094 -10.635  27.203  1.00  0.00    -0.000 C 
BRANCH   6   7
ATOM      7  C   UNL     1      -9.951  -9.119  27.406  1.00  0.00    -0.000 C 
BRANCH   7   8
ATOM      8  C   UNL     1      -8.497  -8.699  27.685  1.00  0.00    -0.000 C 
BRANCH   8   9
ATOM      9  C   UNL     1      -7.473  -9.647  27.038  1.00  0.00    -0.000 C 
BRANCH   9  10
ATOM     10  C   UNL     1      -6.293  -9.966  27.972  1.00  0.00    -0.000 C 
BRANCH  10  11
ATOM     11  C   UNL     1      -5.075 -10.517  27.215  1.00  0.00    -0.003 C 
ATOM     12  C   UNL     1      -5.447 -11.148  25.872  1.00  0.00     0.004 C 
ENDBRANCH  10  11
ENDBRANCH   9  10
ENDBRANCH   8   9
ENDBRANCH   7   8
ENDBRANCH   6   7
ENDBRANCH   5   6
ENDBRANCH   4   5
ENDBRANCH   3   4
ENDBRANCH   2   3
ENDBRANCH   1   2
BRANCH   1  13
ATOM     13  C   UNL     1      -9.825 -16.923  27.581  1.00  0.00     0.000 C 
BRANCH  13  14
ATOM     14  C   UNL     1      -8.584 -17.519  28.263  1.00  0.00     0.000 C 
BRANCH  14  15
ATOM     15  C   UNL     1      -7.290 -17.253  27.476  1.00  0.00     0.000 C 
BRANCH  15  16
ATOM     16  C   UNL     1      -7.278 -17.961  26.109  1.00  0.00     0.000 C 
BRANCH  16  17
ATOM     17  C   UNL     1      -5.909 -18.572  25.768  1.00  0.00     0.000 C 
BRANCH  17  18
ATOM     18  C   UNL     1      -5.528 -18.386  24.289  1.00  0.00     0.000 C 
BRANCH  18  19
ATOM     19  C   UNL     1      -4.425 -19.358  23.840  1.00  0.00     0.000 C 
BRANCH  19  20
ATOM     20  C   UNL     1      -4.829 -20.176  22.600  1.00  0.00     0.006 C 
BRANCH  20  21
ATOM     21  C   UNL     1      -3.861 -21.335  22.329  1.00  0.00     0.053 C 
BRANCH  21  22
ATOM     22  C   UNL     1      -2.430 -20.900  22.408  1.00  0.00     0.041 C 
ATOM     23  O   UNL     1      -1.997 -20.004  21.636  1.00  0.00    -0.550 OA
ATOM     24  O   UNL     1      -1.566 -21.504  23.313  1.00  0.00    -0.550 OA
ENDBRANCH  21  22
ENDBRANCH  20  21
ENDBRANCH  19  20
ENDBRANCH  18  19
ENDBRANCH  17  18
ENDBRANCH  16  17
ENDBRANCH  15  16
ENDBRANCH  14  15
ENDBRANCH  13  14
ENDBRANCH   1  13
TORSDOF 20
ENDMDL
MODEL 6
REMARK VINA RESULT:    19.225      2.874      9.337
REMARK INTER + INTRA:          40.672
REMARK INTER:                  41.793
REMARK INTRA:                  -1.121
REMARK UNBOUND:                -1.031
REMARK SMILES CCCCCCCCCCCCCCCCCCCCCC(=O)[O-]
REMARK SMILES IDX 12 1 11 2 10 3 9 4 8 5 7 6 6 7 5 8 4 9 3 10 2 11 1 12 13 13
REMARK SMILES IDX 14 14 15 15 16 16 17 17 18 18 19 19 20 20 21 21 22 22 23 23
REMARK SMILES IDX 24 24
REMARK H PARENT
REMARK Flexibility Score: inf
ROOT
ATOM      1  C   UNL     1      -9.704 -16.648  28.000  1.00  0.00     0.000 C 
ENDROOT
BRANCH   1   2
ATOM      2  C   UNL     1      -8.419 -17.492  27.988  1.00  0.00     0.000 C 
BRANCH   2   3
ATOM      3  C   UNL     1      -7.408 -17.021  26.929  1.00  0.00     0.000 C 
BRANCH   3   4
ATOM      4  C   UNL     1      -6.943 -18.154  25.997  1.00  0.00    -0.000 C 
BRANCH   4   5
ATOM      5  C   UNL     1      -5.444 -18.493  26.082  1.00  0.00    -0.000 C 
BRANCH   5   6
ATOM      6  C   UNL     1      -4.718 -17.722  27.199  1.00  0.00    -0.000 C 
BRANCH   6   7
ATOM      7  C   UNL     1      -3.205 -17.986  27.210  1.00  0.00    -0.000 C 
BRANCH   7   8
ATOM      8  C   UNL     1      -2.527 -17.573  25.892  1.00  0.00    -0.000 C 
BRANCH   8   9
ATOM      9  C   UNL     1      -1.012 -17.837  25.897  1.00  0.00    -0.000 C 
BRANCH   9  10
ATOM     10  C   UNL     1      -0.624 -19.062  25.052  1.00  0.00    -0.000 C 
BRANCH  10  11
ATOM     11  C   UNL     1      -0.380 -18.706  23.577  1.00  0.00    -0.003 C 
ATOM     12  C   UNL     1       0.150 -17.284  23.389  1.00  0.00     0.004 C 
ENDBRANCH  10  11
ENDBRANCH   9  10
ENDBRANCH   8   9
ENDBRANCH   7   8
ENDBRANCH   6   7
ENDBRANCH   5   6
ENDBRANCH   4   5
ENDBRANCH   3   4
ENDBRANCH   2   3
ENDBRANCH   1   2
BRANCH   1  13
ATOM     13  C   UNL     1      -9.895 -15.834  26.711  1.00  0.00     0.000 C 
BRANCH  13  14
ATOM     14  C   UNL     1     -11.052 -14.834  26.860  1.00  0.00     0.000 C 
BRANCH  14  15
ATOM     15  C   UNL     1     -10.620 -13.382  26.589  1.00  0.00     0.000 C 
BRANCH  15  16
ATOM     16  C   UNL     1     -11.520 -12.359  27.305  1.00  0.00     0.000 C 
BRANCH  16  17
ATOM     17  C   UNL     1     -10.720 -11.234  27.982  1.00  0.00     0.000 C 
BRANCH  17  18
ATOM     18  C   UNL     1     -10.396 -10.075  27.023  1.00  0.00     0.000 C 
BRANCH  18  19
ATOM     19  C   UNL     1      -9.189  -9.246  27.490  1.00  0.00     0.000 C 
BRANCH  19  20
ATOM     20  C   UNL     1      -7.904  -9.586  26.713  1.00  0.00     0.006 C 
BRANCH  20  21
ATOM     21  C   UNL     1      -6.682  -9.702  27.634  1.00  0.00     0.053 C 
BRANCH  21  22
ATOM     22  C   UNL     1      -5.579 -10.493  27.002  1.00  0.00     0.041 C 
ATOM     23  O   UNL     1      -4.605 -10.888  27.697  1.00  0.00    -0.550 OA
ATOM     24  O   UNL     1      -5.610 -10.770  25.641  1.00  0.00    -0.550 OA
ENDBRANCH  21  22
ENDBRANCH  20  21
ENDBRANCH  19  20
ENDBRANCH  18  19
ENDBRANCH  17  18
ENDBRANCH  16  17
ENDBRANCH  15  16
ENDBRANCH  14  15
ENDBRANCH  13  14
ENDBRANCH   1  13
TORSDOF 20
ENDMDL
MODEL 7
REMARK VINA RESULT:    19.287      2.752      9.844
REMARK INTER + INTRA:          40.806
REMARK INTER:                  41.972
REMARK INTRA:                  -1.166
REMARK UNBOUND:                -1.031
REMARK SMILES CCCCCCCCCCCCCCCCCCCCCC(=O)[O-]
REMARK SMILES IDX 12 1 11 2 10 3 9 4 8 5 7 6 6 7 5 8 4 9 3 10 2 11 1 12 13 13
REMARK SMILES IDX 14 14 15 15 16 16 17 17 18 18 19 19 20 20 21 21 22 22 23 23
REMARK SMILES IDX 24 24
REMARK H PARENT
REMARK Flexibility Score: inf
ROOT
ATOM      1  C   UNL     1      -8.346 -17.569  27.932  1.00  0.00     0.000 C 
ENDROOT
BRANCH   1   2
ATOM      2  C   UNL     1      -7.384 -17.063  26.845  1.00  0.00     0.000 C 
BRANCH   2   3
ATOM      3  C   UNL     1      -6.241 -18.051  26.556  1.00  0.00     0.000 C 
BRANCH   3   4
ATOM      4  C   UNL     1      -6.065 -18.342  25.054  1.00  0.00    -0.000 C 
BRANCH   4   5
ATOM      5  C   UNL     1      -4.995 -19.396  24.717  1.00  0.00    -0.000 C 
BRANCH   5   6
ATOM      6  C   UNL     1      -4.557 -19.355  23.242  1.00  0.00    -0.000 C 
BRANCH   6   7
ATOM      7  C   UNL     1      -4.218 -20.748  22.689  1.00  0.00    -0.000 C 
BRANCH   7   8
ATOM      8  C   UNL     1      -2.713 -20.921  22.418  1.00  0.00    -0.000 C 
BRANCH   8   9
ATOM      9  C   UNL     1      -1.914 -19.631  22.667  1.00  0.00    -0.000 C 
BRANCH   9  10
ATOM     10  C   UNL     1      -0.908 -19.775  23.821  1.00  0.00    -0.000 C 
BRANCH  10  11
ATOM     11  C   UNL     1      -0.408 -18.417  24.338  1.00  0.00    -0.003 C 
ATOM     12  C   UNL     1      -1.235 -17.887  25.511  1.00  0.00     0.004 C 
ENDBRANCH  10  11
ENDBRANCH   9  10
ENDBRANCH   8   9
ENDBRANCH   7   8
ENDBRANCH   6   7
ENDBRANCH   5   6
ENDBRANCH   4   5
ENDBRANCH   3   4
ENDBRANCH   2   3
ENDBRANCH   1   2
BRANCH   1  13
ATOM     13  C   UNL     1      -9.645 -16.752  28.008  1.00  0.00     0.000 C 
BRANCH  13  14
ATOM     14  C   UNL     1      -9.862 -15.946  26.718  1.00  0.00     0.000 C 
BRANCH  14  15
ATOM     15  C   UNL     1      -9.853 -14.427  26.959  1.00  0.00     0.000 C 
BRANCH  15  16
ATOM     16  C   UNL     1     -11.153 -13.751  26.490  1.00  0.00     0.000 C 
BRANCH  16  17
ATOM     17  C   UNL     1     -11.328 -12.335  27.063  1.00  0.00     0.000 C 
BRANCH  17  18
ATOM     18  C   UNL     1     -10.029 -11.511  27.017  1.00  0.00     0.000 C 
BRANCH  18  19
ATOM     19  C   UNL     1     -10.248 -10.044  27.419  1.00  0.00     0.000 C 
BRANCH  19  20
ATOM     20  C   UNL     1      -8.927  -9.267  27.562  1.00  0.00     0.006 C 
BRANCH  20  21
ATOM     21  C   UNL     1      -7.930  -9.606  26.446  1.00  0.00     0.053 C 
BRANCH  21  22
ATOM     22  C   UNL     1      -6.616 -10.073  26.993  1.00  0.00     0.041 C 
ATOM     23  O   UNL     1      -6.253  -9.730  28.149  1.00  0.00    -0.550 OA
ATOM     24  O   UNL     1      -5.778 -10.862  26.215  1.00  0.00    -0.550 OA
ENDBRANCH  21  22
ENDBRANCH  20  21
ENDBRANCH  19  20
ENDBRANCH  18  19
ENDBRANCH  17  18
ENDBRANCH  16  17
ENDBRANCH  15  16
ENDBRANCH  14  15
ENDBRANCH  13  14
ENDBRANCH   1  13
TORSDOF 20
ENDMDL
MODEL 8
REMARK VINA RESULT:    19.743      1.722      2.534
REMARK INTER + INTRA:          41.795
REMARK INTER:                  42.761
REMARK INTRA:                  -0.966
REMARK UNBOUND:                -1.031
REMARK SMILES CCCCCCCCCCCCCCCCCCCCCC(=O)[O-]
REMARK SMILES IDX 12 1 11 2 10 3 9 4 8 5 7 6 6 7 5 8 4 9 3 10 2 11 1 12 13 13
REMARK SMILES IDX 14 14 15 15 16 16 17 17 18 18 19 19 20 20 21 21 22 22 23 23
REMARK SMILES IDX 24 24
REMARK H PARENT
REMARK Flexibility Score: inf
ROOT
ATOM      1  C   UNL     1     -10.166 -16.440  28.191  1.00  0.00     0.000 C 
ENDROOT
BRANCH   1   2
ATOM      2  C   UNL     1     -10.425 -15.746  26.844  1.00  0.00     0.000 C 
BRANCH   2   3
ATOM      3  C   UNL     1     -10.026 -14.260  26.854  1.00  0.00     0.000 C 
BRANCH   3   4
ATOM      4  C   UNL     1     -11.238 -13.313  26.794  1.00  0.00    -0.000 C 
BRANCH   4   5
ATOM      5  C   UNL     1     -11.059 -11.980  27.544  1.00  0.00    -0.000 C 
BRANCH   5   6
ATOM      6  C   UNL     1     -10.112 -11.008  26.820  1.00  0.00    -0.000 C 
BRANCH   6   7
ATOM      7  C   UNL     1     -10.228  -9.569  27.347  1.00  0.00    -0.000 C 
BRANCH   7   8
ATOM      8  C   UNL     1      -8.858  -8.954  27.681  1.00  0.00    -0.000 C 
BRANCH   8   9
ATOM      9  C   UNL     1      -7.700  -9.661  26.958  1.00  0.00    -0.000 C 
BRANCH   9  10
ATOM     10  C   UNL     1      -6.411  -9.688  27.797  1.00  0.00    -0.000 C 
BRANCH  10  11
ATOM     11  C   UNL     1      -5.405 -10.737  27.296  1.00  0.00    -0.003 C 
ATOM     12  C   UNL     1      -5.357 -10.833  25.771  1.00  0.00     0.004 C 
ENDBRANCH  10  11
ENDBRANCH   9  10
ENDBRANCH   8   9
ENDBRANCH   7   8
ENDBRANCH   6   7
ENDBRANCH   5   6
ENDBRANCH   4   5
ENDBRANCH   3   4
ENDBRANCH   2   3
ENDBRANCH   1   2
BRANCH   1  13
ATOM     13  C   UNL     1      -9.271 -17.681  28.060  1.00  0.00     0.000 C 
BRANCH  13  14
ATOM     14  C   UNL     1      -7.788 -17.284  28.004  1.00  0.00     0.000 C 
BRANCH  14  15
ATOM     15  C   UNL     1      -7.287 -17.060  26.567  1.00  0.00     0.000 C 
BRANCH  15  16
ATOM     16  C   UNL     1      -6.734 -18.348  25.931  1.00  0.00     0.000 C 
BRANCH  16  17
ATOM     17  C   UNL     1      -5.198 -18.394  25.921  1.00  0.00     0.000 C 
BRANCH  17  18
ATOM     18  C   UNL     1      -4.582 -17.955  27.261  1.00  0.00     0.000 C 
BRANCH  18  19
ATOM     19  C   UNL     1      -3.160 -17.395  27.099  1.00  0.00     0.000 C 
BRANCH  19  20
ATOM     20  C   UNL     1      -2.387 -18.068  25.949  1.00  0.00     0.006 C 
BRANCH  20  21
ATOM     21  C   UNL     1      -1.249 -17.185  25.420  1.00  0.00     0.053 C 
BRANCH  21  22
ATOM     22  C   UNL     1      -0.430 -17.891  24.384  1.00  0.00     0.041 C 
ATOM     23  O   UNL     1       0.083 -17.243  23.433  1.00  0.00    -0.550 OA
ATOM     24  O   UNL     1      -0.257 -19.268  24.450  1.00  0.00    -0.550 OA
ENDBRANCH  21  22
ENDBRANCH  20  21
ENDBRANCH  19  20
ENDBRANCH  18  19
ENDBRANCH  17  18
ENDBRANCH  16  17
ENDBRANCH  15  16
ENDBRANCH  14  15
ENDBRANCH  13  14
ENDBRANCH   1  13
TORSDOF 20
ENDMDL
MODEL 9
REMARK VINA RESULT:    19.942      3.480     10.120
REMARK INTER + INTRA:          42.228
REMARK INTER:                  43.678
REMARK INTRA:                  -1.450
REMARK UNBOUND:                -1.031
REMARK SMILES CCCCCCCCCCCCCCCCCCCCCC(=O)[O-]
REMARK SMILES IDX 12 1 11 2 10 3 9 4 8 5 7 6 6 7 5 8 4 9 3 10 2 11 1 12 13 13
REMARK SMILES IDX 14 14 15 15 16 16 17 17 18 18 19 19 20 20 21 21 22 22 23 23
REMARK SMILES IDX 24 24
REMARK H PARENT
REMARK Flexibility Score: inf
ROOT
ATOM      1  C   UNL     1      -5.751 -17.973  26.821  1.00  0.00     0.000 C 
ENDROOT
BRANCH   1   2
ATOM      2  C   UNL     1      -6.205 -18.891  25.675  1.00  0.00     0.000 C 
BRANCH   2   3
ATOM      3  C   UNL     1      -5.721 -18.405  24.297  1.00  0.00     0.000 C 
BRANCH   3   4
ATOM      4  C   UNL     1      -4.450 -19.131  23.819  1.00  0.00    -0.000 C 
BRANCH   4   5
ATOM      5  C   UNL     1      -4.674 -20.161  22.697  1.00  0.00    -0.000 C 
BRANCH   5   6
ATOM      6  C   UNL     1      -3.443 -21.049  22.444  1.00  0.00    -0.000 C 
BRANCH   6   7
ATOM      7  C   UNL     1      -2.125 -20.262  22.502  1.00  0.00    -0.000 C 
BRANCH   7   8
ATOM      8  C   UNL     1      -1.128 -20.859  23.510  1.00  0.00    -0.000 C 
BRANCH   8   9
ATOM      9  C   UNL     1      -0.359 -19.782  24.293  1.00  0.00    -0.000 C 
BRANCH   9  10
ATOM     10  C   UNL     1      -0.323 -18.432  23.557  1.00  0.00    -0.000 C 
BRANCH  10  11
ATOM     11  C   UNL     1      -0.601 -17.244  24.492  1.00  0.00    -0.003 C 
ATOM     12  C   UNL     1      -1.596 -17.584  25.602  1.00  0.00     0.004 C 
ENDBRANCH  10  11
ENDBRANCH   9  10
ENDBRANCH   8   9
ENDBRANCH   7   8
ENDBRANCH   6   7
ENDBRANCH   5   6
ENDBRANCH   4   5
ENDBRANCH   3   4
ENDBRANCH   2   3
ENDBRANCH   1   2
BRANCH   1  13
ATOM     13  C   UNL     1      -6.850 -17.004  27.282  1.00  0.00     0.000 C 
BRANCH  13  14
ATOM     14  C   UNL     1      -8.229 -17.463  26.785  1.00  0.00     0.000 C 
BRANCH  14  15
ATOM     15  C   UNL     1      -9.267 -17.557  27.917  1.00  0.00     0.000 C 
BRANCH  15  16
ATOM     16  C   UNL     1     -10.188 -16.325  27.972  1.00  0.00     0.000 C 
BRANCH  16  17
ATOM     17  C   UNL     1      -9.928 -15.336  26.824  1.00  0.00     0.000 C 
BRANCH  17  18
ATOM     18  C   UNL     1     -10.966 -14.202  26.770  1.00  0.00     0.000 C 
BRANCH  18  19
ATOM     19  C   UNL     1     -10.336 -12.843  26.426  1.00  0.00     0.000 C 
BRANCH  19  20
ATOM     20  C   UNL     1     -10.726 -11.741  27.428  1.00  0.00     0.006 C 
BRANCH  20  21
ATOM     21  C   UNL     1     -10.610 -10.337  26.820  1.00  0.00     0.053 C 
BRANCH  21  22
ATOM     22  C   UNL     1      -9.343  -9.651  27.231  1.00  0.00     0.041 C 
ATOM     23  O   UNL     1      -8.271  -9.877  26.610  1.00  0.00    -0.550 OA
ATOM     24  O   UNL     1      -9.339  -8.787  28.318  1.00  0.00    -0.550 OA
ENDBRANCH  21  22
ENDBRANCH  20  21
ENDBRANCH  19  20
ENDBRANCH  18  19
ENDBRANCH  17  18
ENDBRANCH  16  17
ENDBRANCH  15  16
ENDBRANCH  14  15
ENDBRANCH  13  14
ENDBRANCH   1  13
TORSDOF 20
ENDMDL
