MODEL 1
REMARK VINA RESULT:    -7.326      0.000      0.000
REMARK INTER + INTRA:          -9.340
REMARK INTER:                  -9.039
REMARK INTRA:                  -0.301
REMARK UNBOUND:                -0.301
REMARK SMILES Oc1cc(O)c2cc(O)c(-c3cc(O)c(O)c(O)c3)[o+]c2c1
REMARK SMILES IDX 10 1 20 2 21 3 22 4 2 5 3 6 4 7 6 8 7 9 8 10 11 11 12 12
REMARK SMILES IDX 13 13 19 14 15 15 17 16 14 17 16 19 18 21 9 23 1 25 5 27
REMARK H PARENT 14 18 16 20 18 22 9 24 1 26 5 28
REMARK Flexibility Score: inf
ROOT
ATOM      1  C   UNL     1      14.589  17.787  30.610  1.00  0.00     0.402 A 
ATOM      2  O   UNL     1      15.042  18.690  29.745  1.00  0.00    -0.202 OA
ATOM      3  C   UNL     1      14.286  19.660  29.239  1.00  0.00     0.368 A 
ATOM      4  C   UNL     1      14.852  20.561  28.333  1.00  0.00     0.162 A 
ATOM      5  C   UNL     1      14.079  21.588  27.784  1.00  0.00     0.128 A 
ATOM      6  C   UNL     1      12.736  21.714  28.142  1.00  0.00     0.093 A 
ATOM      7  C   UNL     1      12.145  20.824  29.047  1.00  0.00     0.136 A 
ATOM      8  C   UNL     1      12.926  19.782  29.610  1.00  0.00     0.125 A 
ATOM      9  C   UNL     1      12.421  18.853  30.535  1.00  0.00     0.078 A 
ATOM     10  C   UNL     1      13.253  17.854  31.050  1.00  0.00     0.223 A 
ENDROOT
BRANCH   1  11
ATOM     11  C   UNL     1      15.527  16.749  31.094  1.00  0.00     0.091 A 
ATOM     12  C   UNL     1      15.949  15.699  30.261  1.00  0.00     0.068 A 
ATOM     13  C   UNL     1      16.856  14.738  30.730  1.00  0.00     0.162 A 
ATOM     14  C   UNL     1      16.051  16.843  32.392  1.00  0.00     0.068 A 
ATOM     15  C   UNL     1      17.358  14.828  32.040  1.00  0.00     0.200 A 
ATOM     16  C   UNL     1      16.954  15.888  32.869  1.00  0.00     0.162 A 
BRANCH  13  17
ATOM     17  O   UNL     1      17.264  13.698  29.897  1.00  0.00    -0.504 OA
ATOM     18  H   UNL     1      16.631  12.954  29.626  1.00  0.00     0.293 HD
ENDBRANCH  13  17
BRANCH  15  19
ATOM     19  O   UNL     1      18.257  13.876  32.524  1.00  0.00    -0.502 OA
ATOM     20  H   UNL     1      19.251  13.927  32.336  1.00  0.00     0.293 HD
ENDBRANCH  15  19
BRANCH  16  21
ATOM     21  O   UNL     1      17.440  16.009  34.170  1.00  0.00    -0.504 OA
ATOM     22  H   UNL     1      16.826  16.110  34.969  1.00  0.00     0.293 HD
ENDBRANCH  16  21
ENDBRANCH   1  11
BRANCH  10  23
ATOM     23  O   UNL     1      12.767  16.962  32.005  1.00  0.00    -0.500 OA
ATOM     24  H   UNL     1      12.347  17.283  32.870  1.00  0.00     0.294 HD
ENDBRANCH  10  23
BRANCH   5  25
ATOM     25  O   UNL     1      14.637  22.490  26.881  1.00  0.00    -0.507 OA
ATOM     26  H   UNL     1      14.099  23.260  26.499  1.00  0.00     0.293 HD
ENDBRANCH   5  25
BRANCH   7  27
ATOM     27  O   UNL     1      10.794  21.018  29.351  1.00  0.00    -0.507 OA
ATOM     28  H   UNL     1      10.386  21.909  29.594  1.00  0.00     0.293 HD
ENDBRANCH   7  27
TORSDOF 7
ENDMDL
MODEL 2
REMARK VINA RESULT:    -7.159      2.392      3.038
REMARK INTER + INTRA:          -9.134
REMARK INTER:                  -8.811
REMARK INTRA:                  -0.324
REMARK UNBOUND:                -0.301
REMARK SMILES Oc1cc(O)c2cc(O)c(-c3cc(O)c(O)c(O)c3)[o+]c2c1
REMARK SMILES IDX 10 1 20 2 21 3 22 4 2 5 3 6 4 7 6 8 7 9 8 10 11 11 12 12
REMARK SMILES IDX 13 13 19 14 15 15 17 16 14 17 16 19 18 21 9 23 1 25 5 27
REMARK H PARENT 14 18 16 20 18 22 9 24 1 26 5 28
REMARK Flexibility Score: inf
ROOT
ATOM      1  C   UNL     1      14.303  17.444  32.357  1.00  0.00     0.402 A 
ATOM      2  O   UNL     1      13.572  17.771  31.296  1.00  0.00    -0.202 OA
ATOM      3  C   UNL     1      13.161  19.011  31.046  1.00  0.00     0.368 A 
ATOM      4  C   UNL     1      12.393  19.255  29.904  1.00  0.00     0.162 A 
ATOM      5  C   UNL     1      11.947  20.549  29.619  1.00  0.00     0.128 A 
ATOM      6  C   UNL     1      12.269  21.601  30.479  1.00  0.00     0.093 A 
ATOM      7  C   UNL     1      13.036  21.382  31.629  1.00  0.00     0.136 A 
ATOM      8  C   UNL     1      13.495  20.071  31.921  1.00  0.00     0.125 A 
ATOM      9  C   UNL     1      14.281  19.761  33.044  1.00  0.00     0.078 A 
ATOM     10  C   UNL     1      14.699  18.445  33.264  1.00  0.00     0.223 A 
ENDROOT
BRANCH   1  11
ATOM     11  C   UNL     1      14.690  16.026  32.532  1.00  0.00     0.091 A 
ATOM     12  C   UNL     1      15.994  15.583  32.253  1.00  0.00     0.068 A 
ATOM     13  C   UNL     1      16.348  14.240  32.446  1.00  0.00     0.162 A 
ATOM     14  C   UNL     1      13.753  15.112  33.039  1.00  0.00     0.068 A 
ATOM     15  C   UNL     1      15.396  13.328  32.933  1.00  0.00     0.200 A 
ATOM     16  C   UNL     1      14.096  13.771  33.233  1.00  0.00     0.162 A 
BRANCH  13  17
ATOM     17  O   UNL     1      17.643  13.811  32.161  1.00  0.00    -0.504 OA
ATOM     18  H   UNL     1      18.277  13.511  32.892  1.00  0.00     0.293 HD
ENDBRANCH  13  17
BRANCH  15  19
ATOM     19  O   UNL     1      15.730  11.986  33.126  1.00  0.00    -0.502 OA
ATOM     20  H   UNL     1      15.231  11.234  32.668  1.00  0.00     0.293 HD
ENDBRANCH  15  19
BRANCH  16  21
ATOM     21  O   UNL     1      13.132  12.892  33.725  1.00  0.00    -0.504 OA
ATOM     22  H   UNL     1      12.153  12.969  33.477  1.00  0.00     0.293 HD
ENDBRANCH  16  21
ENDBRANCH   1  11
BRANCH  10  23
ATOM     23  O   UNL     1      15.520  18.145  34.351  1.00  0.00    -0.500 OA
ATOM     24  H   UNL     1      15.960  17.237  34.451  1.00  0.00     0.294 HD
ENDBRANCH  10  23
BRANCH   5  25
ATOM     25  O   UNL     1      11.181  20.800  28.483  1.00  0.00    -0.507 OA
ATOM     26  H   UNL     1      10.458  20.158  28.178  1.00  0.00     0.293 HD
ENDBRANCH   5  25
BRANCH   7  27
ATOM     27  O   UNL     1      13.313  22.487  32.439  1.00  0.00    -0.507 OA
ATOM     28  H   UNL     1      12.616  23.137  32.774  1.00  0.00     0.293 HD
ENDBRANCH   7  27
TORSDOF 7
ENDMDL
MODEL 3
REMARK VINA RESULT:    -7.157      6.906     10.412
REMARK INTER + INTRA:          -9.131
REMARK INTER:                  -8.749
REMARK INTRA:                  -0.382
REMARK UNBOUND:                -0.301
REMARK SMILES Oc1cc(O)c2cc(O)c(-c3cc(O)c(O)c(O)c3)[o+]c2c1
REMARK SMILES IDX 10 1 20 2 21 3 22 4 2 5 3 6 4 7 6 8 7 9 8 10 11 11 12 12
REMARK SMILES IDX 13 13 19 14 15 15 17 16 14 17 16 19 18 21 9 23 1 25 5 27
REMARK H PARENT 14 18 16 20 18 22 9 24 1 26 5 28
REMARK Flexibility Score: inf
ROOT
ATOM      1  C   UNL     1      18.200  25.826  30.364  1.00  0.00     0.402 A 
ATOM      2  O   UNL     1      17.792  24.948  29.453  1.00  0.00    -0.202 OA
ATOM      3  C   UNL     1      17.248  23.774  29.761  1.00  0.00     0.368 A 
ATOM      4  C   UNL     1      16.853  22.916  28.731  1.00  0.00     0.162 A 
ATOM      5  C   UNL     1      16.280  21.676  29.028  1.00  0.00     0.128 A 
ATOM      6  C   UNL     1      16.103  21.292  30.358  1.00  0.00     0.093 A 
ATOM      7  C   UNL     1      16.491  22.134  31.408  1.00  0.00     0.136 A 
ATOM      8  C   UNL     1      17.070  23.395  31.113  1.00  0.00     0.125 A 
ATOM      9  C   UNL     1      17.475  24.308  32.100  1.00  0.00     0.078 A 
ATOM     10  C   UNL     1      18.034  25.536  31.732  1.00  0.00     0.223 A 
ENDROOT
BRANCH   1  11
ATOM     11  C   UNL     1      18.800  27.095  29.895  1.00  0.00     0.091 A 
ATOM     12  C   UNL     1      20.193  27.250  29.788  1.00  0.00     0.068 A 
ATOM     13  C   UNL     1      20.742  28.452  29.320  1.00  0.00     0.162 A 
ATOM     14  C   UNL     1      17.964  28.147  29.495  1.00  0.00     0.068 A 
ATOM     15  C   UNL     1      19.896  29.509  28.942  1.00  0.00     0.200 A 
ATOM     16  C   UNL     1      18.502  29.351  29.029  1.00  0.00     0.162 A 
BRANCH  13  17
ATOM     17  O   UNL     1      22.125  28.597  29.222  1.00  0.00    -0.504 OA
ATOM     18  H   UNL     1      22.546  29.435  28.838  1.00  0.00     0.293 HD
ENDBRANCH  13  17
BRANCH  15  19
ATOM     19  O   UNL     1      20.427  30.714  28.479  1.00  0.00    -0.502 OA
ATOM     20  H   UNL     1      19.980  31.605  28.657  1.00  0.00     0.293 HD
ENDBRANCH  15  19
BRANCH  16  21
ATOM     21  O   UNL     1      17.637  30.378  28.654  1.00  0.00    -0.504 OA
ATOM     22  H   UNL     1      17.019  30.832  29.316  1.00  0.00     0.293 HD
ENDBRANCH  16  21
ENDBRANCH   1  11
BRANCH  10  23
ATOM     23  O   UNL     1      18.392  26.464  32.711  1.00  0.00    -0.500 OA
ATOM     24  H   UNL     1      17.947  26.476  33.621  1.00  0.00     0.294 HD
ENDBRANCH  10  23
BRANCH   5  25
ATOM     25  O   UNL     1      15.884  20.816  28.006  1.00  0.00    -0.507 OA
ATOM     26  H   UNL     1      15.309  21.136  27.236  1.00  0.00     0.293 HD
ENDBRANCH   5  25
BRANCH   7  27
ATOM     27  O   UNL     1      16.282  21.674  32.712  1.00  0.00    -0.507 OA
ATOM     28  H   UNL     1      16.625  22.136  33.541  1.00  0.00     0.293 HD
ENDBRANCH   7  27
TORSDOF 7
ENDMDL
MODEL 4
REMARK VINA RESULT:    -7.142      1.870      6.710
REMARK INTER + INTRA:          -9.112
REMARK INTER:                  -8.783
REMARK INTRA:                  -0.329
REMARK UNBOUND:                -0.301
REMARK SMILES Oc1cc(O)c2cc(O)c(-c3cc(O)c(O)c(O)c3)[o+]c2c1
REMARK SMILES IDX 10 1 20 2 21 3 22 4 2 5 3 6 4 7 6 8 7 9 8 10 11 11 12 12
REMARK SMILES IDX 13 13 19 14 15 15 17 16 14 17 16 19 18 21 9 23 1 25 5 27
REMARK H PARENT 14 18 16 20 18 22 9 24 1 26 5 28
REMARK Flexibility Score: inf
ROOT
ATOM      1  C   UNL     1      14.534  17.740  30.359  1.00  0.00     0.402 A 
ATOM      2  O   UNL     1      15.529  16.859  30.329  1.00  0.00    -0.202 OA
ATOM      3  C   UNL     1      15.531  15.735  31.039  1.00  0.00     0.368 A 
ATOM      4  C   UNL     1      16.626  14.872  30.943  1.00  0.00     0.162 A 
ATOM      5  C   UNL     1      16.655  13.685  31.681  1.00  0.00     0.128 A 
ATOM      6  C   UNL     1      15.585  13.360  32.517  1.00  0.00     0.093 A 
ATOM      7  C   UNL     1      14.476  14.208  32.631  1.00  0.00     0.136 A 
ATOM      8  C   UNL     1      14.441  15.413  31.882  1.00  0.00     0.125 A 
ATOM      9  C   UNL     1      13.365  16.315  31.923  1.00  0.00     0.078 A 
ATOM     10  C   UNL     1      13.400  17.482  31.153  1.00  0.00     0.223 A 
ENDROOT
BRANCH   1  11
ATOM     11  C   UNL     1      14.654  18.961  29.531  1.00  0.00     0.091 A 
ATOM     12  C   UNL     1      14.424  18.931  28.144  1.00  0.00     0.068 A 
ATOM     13  C   UNL     1      14.520  20.102  27.380  1.00  0.00     0.162 A 
ATOM     14  C   UNL     1      14.948  20.187  30.147  1.00  0.00     0.068 A 
ATOM     15  C   UNL     1      14.837  21.322  28.003  1.00  0.00     0.200 A 
ATOM     16  C   UNL     1      15.048  21.360  29.392  1.00  0.00     0.162 A 
BRANCH  13  17
ATOM     17  O   UNL     1      14.295  20.059  26.005  1.00  0.00    -0.504 OA
ATOM     18  H   UNL     1      14.937  19.592  25.376  1.00  0.00     0.293 HD
ENDBRANCH  13  17
BRANCH  15  19
ATOM     19  O   UNL     1      14.942  22.496  27.256  1.00  0.00    -0.502 OA
ATOM     20  H   UNL     1      15.528  22.562  26.433  1.00  0.00     0.293 HD
ENDBRANCH  15  19
BRANCH  16  21
ATOM     21  O   UNL     1      15.356  22.556  30.040  1.00  0.00    -0.504 OA
ATOM     22  H   UNL     1      14.924  23.435  29.784  1.00  0.00     0.293 HD
ENDBRANCH  16  21
ENDBRANCH   1  11
BRANCH  10  23
ATOM     23  O   UNL     1      12.312  18.355  31.155  1.00  0.00    -0.500 OA
ATOM     24  H   UNL     1      11.404  18.073  31.506  1.00  0.00     0.294 HD
ENDBRANCH  10  23
BRANCH   5  25
ATOM     25  O   UNL     1      17.743  12.820  31.590  1.00  0.00    -0.507 OA
ATOM     26  H   UNL     1      18.575  13.068  31.068  1.00  0.00     0.293 HD
ENDBRANCH   5  25
BRANCH   7  27
ATOM     27  O   UNL     1      13.448  13.811  33.491  1.00  0.00    -0.507 OA
ATOM     28  H   UNL     1      13.285  12.859  33.784  1.00  0.00     0.293 HD
ENDBRANCH   7  27
TORSDOF 7
ENDMDL
MODEL 5
REMARK VINA RESULT:    -7.049      2.605      3.411
REMARK INTER + INTRA:          -8.997
REMARK INTER:                  -8.613
REMARK INTRA:                  -0.384
REMARK UNBOUND:                -0.301
REMARK SMILES Oc1cc(O)c2cc(O)c(-c3cc(O)c(O)c(O)c3)[o+]c2c1
REMARK SMILES IDX 10 1 20 2 21 3 22 4 2 5 3 6 4 7 6 8 7 9 8 10 11 11 12 12
REMARK SMILES IDX 13 13 19 14 15 15 17 16 14 17 16 19 18 21 9 23 1 25 5 27
REMARK H PARENT 14 18 16 20 18 22 9 24 1 26 5 28
REMARK Flexibility Score: inf
ROOT
ATOM      1  C   UNL     1      14.990  18.594  30.789  1.00  0.00     0.402 A 
ATOM      2  O   UNL     1      16.212  19.117  30.837  1.00  0.00    -0.202 OA
ATOM      3  C   UNL     1      16.596  20.145  30.086  1.00  0.00     0.368 A 
ATOM      4  C   UNL     1      17.903  20.624  30.206  1.00  0.00     0.162 A 
ATOM      5  C   UNL     1      18.333  21.702  29.426  1.00  0.00     0.128 A 
ATOM      6  C   UNL     1      17.453  22.302  28.524  1.00  0.00     0.093 A 
ATOM      7  C   UNL     1      16.139  21.841  28.385  1.00  0.00     0.136 A 
ATOM      8  C   UNL     1      15.696  20.749  29.176  1.00  0.00     0.125 A 
ATOM      9  C   UNL     1      14.392  20.229  29.113  1.00  0.00     0.078 A 
ATOM     10  C   UNL     1      14.027  19.153  29.928  1.00  0.00     0.223 A 
ENDROOT
BRANCH   1  11
ATOM     11  C   UNL     1      14.687  17.442  31.668  1.00  0.00     0.091 A 
ATOM     12  C   UNL     1      14.893  16.120  31.240  1.00  0.00     0.068 A 
ATOM     13  C   UNL     1      14.621  15.043  32.096  1.00  0.00     0.162 A 
ATOM     14  C   UNL     1      14.237  17.673  32.977  1.00  0.00     0.068 A 
ATOM     15  C   UNL     1      14.149  15.284  33.398  1.00  0.00     0.200 A 
ATOM     16  C   UNL     1      13.961  16.605  33.836  1.00  0.00     0.162 A 
BRANCH  13  17
ATOM     17  O   UNL     1      14.825  13.735  31.659  1.00  0.00    -0.504 OA
ATOM     18  H   UNL     1      15.680  13.232  31.865  1.00  0.00     0.293 HD
ENDBRANCH  13  17
BRANCH  15  19
ATOM     19  O   UNL     1      13.869  14.223  34.260  1.00  0.00    -0.502 OA
ATOM     20  H   UNL     1      14.583  13.786  34.830  1.00  0.00     0.293 HD
ENDBRANCH  15  19
BRANCH  16  21
ATOM     21  O   UNL     1      13.502  16.877  35.125  1.00  0.00    -0.504 OA
ATOM     22  H   UNL     1      13.170  17.794  35.398  1.00  0.00     0.293 HD
ENDBRANCH  16  21
ENDBRANCH   1  11
BRANCH  10  23
ATOM     23  O   UNL     1      12.720  18.668  29.902  1.00  0.00    -0.500 OA
ATOM     24  H   UNL     1      11.926  19.264  30.106  1.00  0.00     0.294 HD
ENDBRANCH  10  23
BRANCH   5  25
ATOM     25  O   UNL     1      19.635  22.184  29.541  1.00  0.00    -0.507 OA
ATOM     26  H   UNL     1      20.307  21.755  30.167  1.00  0.00     0.293 HD
ENDBRANCH   5  25
BRANCH   7  27
ATOM     27  O   UNL     1      15.322  22.494  27.457  1.00  0.00    -0.507 OA
ATOM     28  H   UNL     1      15.225  22.221  26.490  1.00  0.00     0.293 HD
ENDBRANCH   7  27
TORSDOF 7
ENDMDL
MODEL 6
REMARK VINA RESULT:    -6.992      2.011      3.344
REMARK INTER + INTRA:          -8.927
REMARK INTER:                  -8.543
REMARK INTRA:                  -0.384
REMARK UNBOUND:                -0.301
REMARK SMILES Oc1cc(O)c2cc(O)c(-c3cc(O)c(O)c(O)c3)[o+]c2c1
REMARK SMILES IDX 10 1 20 2 21 3 22 4 2 5 3 6 4 7 6 8 7 9 8 10 11 11 12 12
REMARK SMILES IDX 13 13 19 14 15 15 17 16 14 17 16 19 18 21 9 23 1 25 5 27
REMARK H PARENT 14 18 16 20 18 22 9 24 1 26 5 28
REMARK Flexibility Score: inf
ROOT
ATOM      1  C   UNL     1      15.346  17.027  31.283  1.00  0.00     0.402 A 
ATOM      2  O   UNL     1      14.189  17.417  30.755  1.00  0.00    -0.202 OA
ATOM      3  C   UNL     1      13.960  18.657  30.333  1.00  0.00     0.368 A 
ATOM      4  C   UNL     1      12.709  18.972  29.796  1.00  0.00     0.162 A 
ATOM      5  C   UNL     1      12.440  20.268  29.347  1.00  0.00     0.128 A 
ATOM      6  C   UNL     1      13.426  21.253  29.439  1.00  0.00     0.093 A 
ATOM      7  C   UNL     1      14.686  20.963  29.974  1.00  0.00     0.136 A 
ATOM      8  C   UNL     1      14.965  19.648  30.428  1.00  0.00     0.125 A 
ATOM      9  C   UNL     1      16.205  19.264  30.966  1.00  0.00     0.078 A 
ATOM     10  C   UNL     1      16.407  17.946  31.388  1.00  0.00     0.223 A 
ENDROOT
BRANCH   1  11
ATOM     11  C   UNL     1      15.476  15.620  31.725  1.00  0.00     0.091 A 
ATOM     12  C   UNL     1      15.135  15.229  33.031  1.00  0.00     0.068 A 
ATOM     13  C   UNL     1      15.243  13.888  33.425  1.00  0.00     0.162 A 
ATOM     14  C   UNL     1      15.893  14.645  30.807  1.00  0.00     0.068 A 
ATOM     15  C   UNL     1      15.683  12.921  32.504  1.00  0.00     0.200 A 
ATOM     16  C   UNL     1      16.005  13.305  31.191  1.00  0.00     0.162 A 
BRANCH  13  17
ATOM     17  O   UNL     1      14.908  13.512  34.724  1.00  0.00    -0.504 OA
ATOM     18  H   UNL     1      14.063  12.991  34.926  1.00  0.00     0.293 HD
ENDBRANCH  13  17
BRANCH  15  19
ATOM     19  O   UNL     1      15.802  11.582  32.881  1.00  0.00    -0.502 OA
ATOM     20  H   UNL     1      15.594  11.265  33.820  1.00  0.00     0.293 HD
ENDBRANCH  15  19
BRANCH  16  21
ATOM     21  O   UNL     1      16.437  12.367  30.253  1.00  0.00    -0.504 OA
ATOM     22  H   UNL     1      17.350  12.420  29.818  1.00  0.00     0.293 HD
ENDBRANCH  16  21
ENDBRANCH   1  11
BRANCH  10  23
ATOM     23  O   UNL     1      17.653  17.551  31.877  1.00  0.00    -0.500 OA
ATOM     24  H   UNL     1      18.168  18.117  32.541  1.00  0.00     0.294 HD
ENDBRANCH  10  23
BRANCH   5  25
ATOM     25  O   UNL     1      11.196  20.589  28.810  1.00  0.00    -0.507 OA
ATOM     26  H   UNL     1      10.430  19.924  28.811  1.00  0.00     0.293 HD
ENDBRANCH   5  25
BRANCH   7  27
ATOM     27  O   UNL     1      15.616  22.006  30.033  1.00  0.00    -0.507 OA
ATOM     28  H   UNL     1      15.389  22.981  29.901  1.00  0.00     0.293 HD
ENDBRANCH   7  27
TORSDOF 7
ENDMDL
MODEL 7
REMARK VINA RESULT:    -6.956      2.160      3.124
REMARK INTER + INTRA:          -8.884
REMARK INTER:                  -8.511
REMARK INTRA:                  -0.372
REMARK UNBOUND:                -0.301
REMARK SMILES Oc1cc(O)c2cc(O)c(-c3cc(O)c(O)c(O)c3)[o+]c2c1
REMARK SMILES IDX 10 1 20 2 21 3 22 4 2 5 3 6 4 7 6 8 7 9 8 10 11 11 12 12
REMARK SMILES IDX 13 13 19 14 15 15 17 16 14 17 16 19 18 21 9 23 1 25 5 27
REMARK H PARENT 14 18 16 20 18 22 9 24 1 26 5 28
REMARK Flexibility Score: inf
ROOT
ATOM      1  C   UNL     1      15.813  17.124  31.032  1.00  0.00     0.402 A 
ATOM      2  O   UNL     1      15.093  17.714  30.082  1.00  0.00    -0.202 OA
ATOM      3  C   UNL     1      15.190  19.007  29.789  1.00  0.00     0.368 A 
ATOM      4  C   UNL     1      14.388  19.537  28.775  1.00  0.00     0.162 A 
ATOM      5  C   UNL     1      14.467  20.894  28.449  1.00  0.00     0.128 A 
ATOM      6  C   UNL     1      15.351  21.724  29.141  1.00  0.00     0.093 A 
ATOM      7  C   UNL     1      16.165  21.218  30.162  1.00  0.00     0.136 A 
ATOM      8  C   UNL     1      16.090  19.841  30.494  1.00  0.00     0.125 A 
ATOM      9  C   UNL     1      16.878  19.244  31.493  1.00  0.00     0.078 A 
ATOM     10  C   UNL     1      16.752  17.878  31.762  1.00  0.00     0.223 A 
ENDROOT
BRANCH   1  11
ATOM     11  C   UNL     1      15.608  15.678  31.270  1.00  0.00     0.091 A 
ATOM     12  C   UNL     1      16.422  14.711  30.655  1.00  0.00     0.068 A 
ATOM     13  C   UNL     1      16.227  13.347  30.911  1.00  0.00     0.162 A 
ATOM     14  C   UNL     1      14.618  15.261  32.172  1.00  0.00     0.068 A 
ATOM     15  C   UNL     1      15.217  12.938  31.799  1.00  0.00     0.200 A 
ATOM     16  C   UNL     1      14.414  13.902  32.432  1.00  0.00     0.162 A 
BRANCH  13  17
ATOM     17  O   UNL     1      17.037  12.397  30.291  1.00  0.00    -0.504 OA
ATOM     18  H   UNL     1      16.714  11.864  29.492  1.00  0.00     0.293 HD
ENDBRANCH  13  17
BRANCH  15  19
ATOM     19  O   UNL     1      15.005  11.583  32.061  1.00  0.00    -0.502 OA
ATOM     20  H   UNL     1      14.853  11.231  32.998  1.00  0.00     0.293 HD
ENDBRANCH  15  19
BRANCH  16  21
ATOM     21  O   UNL     1      13.410  13.528  33.325  1.00  0.00    -0.504 OA
ATOM     22  H   UNL     1      13.553  13.522  34.327  1.00  0.00     0.293 HD
ENDBRANCH  16  21
ENDBRANCH   1  11
BRANCH  10  23
ATOM     23  O   UNL     1      17.568  17.275  32.719  1.00  0.00    -0.500 OA
ATOM     24  H   UNL     1      17.678  16.269  32.767  1.00  0.00     0.294 HD
ENDBRANCH  10  23
BRANCH   5  25
ATOM     25  O   UNL     1      13.671  21.428  27.439  1.00  0.00    -0.507 OA
ATOM     26  H   UNL     1      12.663  21.488  27.533  1.00  0.00     0.293 HD
ENDBRANCH   5  25
BRANCH   7  27
ATOM     27  O   UNL     1      17.021  22.116  30.807  1.00  0.00    -0.507 OA
ATOM     28  H   UNL     1      16.950  23.120  30.739  1.00  0.00     0.293 HD
ENDBRANCH   7  27
TORSDOF 7
ENDMDL
MODEL 8
REMARK VINA RESULT:    -6.956      1.804      7.129
REMARK INTER + INTRA:          -8.883
REMARK INTER:                  -8.509
REMARK INTRA:                  -0.374
REMARK UNBOUND:                -0.301
REMARK SMILES Oc1cc(O)c2cc(O)c(-c3cc(O)c(O)c(O)c3)[o+]c2c1
REMARK SMILES IDX 10 1 20 2 21 3 22 4 2 5 3 6 4 7 6 8 7 9 8 10 11 11 12 12
REMARK SMILES IDX 13 13 19 14 15 15 17 16 14 17 16 19 18 21 9 23 1 25 5 27
REMARK H PARENT 14 18 16 20 18 22 9 24 1 26 5 28
REMARK Flexibility Score: inf
ROOT
ATOM      1  C   UNL     1      14.512  17.955  31.476  1.00  0.00     0.402 A 
ATOM      2  O   UNL     1      14.602  16.795  30.834  1.00  0.00    -0.202 OA
ATOM      3  C   UNL     1      14.987  15.664  31.418  1.00  0.00     0.368 A 
ATOM      4  C   UNL     1      15.054  14.493  30.658  1.00  0.00     0.162 A 
ATOM      5  C   UNL     1      15.458  13.292  31.247  1.00  0.00     0.128 A 
ATOM      6  C   UNL     1      15.797  13.262  32.601  1.00  0.00     0.093 A 
ATOM      7  C   UNL     1      15.740  14.421  33.385  1.00  0.00     0.136 A 
ATOM      8  C   UNL     1      15.327  15.642  32.792  1.00  0.00     0.125 A 
ATOM      9  C   UNL     1      15.226  16.850  33.503  1.00  0.00     0.078 A 
ATOM     10  C   UNL     1      14.808  18.014  32.852  1.00  0.00     0.223 A 
ENDROOT
BRANCH   1  11
ATOM     11  C   UNL     1      14.081  19.147  30.712  1.00  0.00     0.091 A 
ATOM     12  C   UNL     1      15.012  20.077  30.219  1.00  0.00     0.068 A 
ATOM     13  C   UNL     1      14.586  21.188  29.477  1.00  0.00     0.162 A 
ATOM     14  C   UNL     1      12.720  19.326  30.423  1.00  0.00     0.068 A 
ATOM     15  C   UNL     1      13.217  21.371  29.212  1.00  0.00     0.200 A 
ATOM     16  C   UNL     1      12.285  20.433  29.686  1.00  0.00     0.162 A 
BRANCH  13  17
ATOM     17  O   UNL     1      15.518  22.107  28.997  1.00  0.00    -0.504 OA
ATOM     18  H   UNL     1      15.987  21.973  28.109  1.00  0.00     0.293 HD
ENDBRANCH  13  17
BRANCH  15  19
ATOM     19  O   UNL     1      12.776  22.474  28.480  1.00  0.00    -0.502 OA
ATOM     20  H   UNL     1      12.564  23.362  28.917  1.00  0.00     0.293 HD
ENDBRANCH  15  19
BRANCH  16  21
ATOM     21  O   UNL     1      10.922  20.582  29.433  1.00  0.00    -0.504 OA
ATOM     22  H   UNL     1      10.441  20.038  28.726  1.00  0.00     0.293 HD
ENDBRANCH  16  21
ENDBRANCH   1  11
BRANCH  10  23
ATOM     23  O   UNL     1      14.660  19.202  33.567  1.00  0.00    -0.500 OA
ATOM     24  H   UNL     1      15.455  19.683  33.971  1.00  0.00     0.294 HD
ENDBRANCH  10  23
BRANCH   5  25
ATOM     25  O   UNL     1      15.526  12.121  30.495  1.00  0.00    -0.507 OA
ATOM     26  H   UNL     1      16.334  11.906  29.922  1.00  0.00     0.293 HD
ENDBRANCH   5  25
BRANCH   7  27
ATOM     27  O   UNL     1      16.099  14.306  34.731  1.00  0.00    -0.507 OA
ATOM     28  H   UNL     1      15.987  13.468  35.281  1.00  0.00     0.293 HD
ENDBRANCH   7  27
TORSDOF 7
ENDMDL
MODEL 9
REMARK VINA RESULT:    -6.905      2.440      3.021
REMARK INTER + INTRA:          -8.821
REMARK INTER:                  -8.437
REMARK INTRA:                  -0.384
REMARK UNBOUND:                -0.301
REMARK SMILES Oc1cc(O)c2cc(O)c(-c3cc(O)c(O)c(O)c3)[o+]c2c1
REMARK SMILES IDX 10 1 20 2 21 3 22 4 2 5 3 6 4 7 6 8 7 9 8 10 11 11 12 12
REMARK SMILES IDX 13 13 19 14 15 15 17 16 14 17 16 19 18 21 9 23 1 25 5 27
REMARK H PARENT 14 18 16 20 18 22 9 24 1 26 5 28
REMARK Flexibility Score: inf
ROOT
ATOM      1  C   UNL     1      15.284  17.164  30.619  1.00  0.00     0.402 A 
ATOM      2  O   UNL     1      15.944  18.105  31.289  1.00  0.00    -0.202 OA
ATOM      3  C   UNL     1      15.917  19.392  30.956  1.00  0.00     0.368 A 
ATOM      4  C   UNL     1      16.647  20.308  31.720  1.00  0.00     0.162 A 
ATOM      5  C   UNL     1      16.638  21.666  31.390  1.00  0.00     0.128 A 
ATOM      6  C   UNL     1      15.899  22.110  30.292  1.00  0.00     0.093 A 
ATOM      7  C   UNL     1      15.161  21.213  29.510  1.00  0.00     0.136 A 
ATOM      8  C   UNL     1      15.163  19.834  29.842  1.00  0.00     0.125 A 
ATOM      9  C   UNL     1      14.442  18.866  29.124  1.00  0.00     0.078 A 
ATOM     10  C   UNL     1      14.489  17.524  29.514  1.00  0.00     0.223 A 
ENDROOT
BRANCH   1  11
ATOM     11  C   UNL     1      15.401  15.763  31.083  1.00  0.00     0.091 A 
ATOM     12  C   UNL     1      16.409  14.913  30.596  1.00  0.00     0.068 A 
ATOM     13  C   UNL     1      16.518  13.596  31.064  1.00  0.00     0.162 A 
ATOM     14  C   UNL     1      14.525  15.288  32.070  1.00  0.00     0.068 A 
ATOM     15  C   UNL     1      15.621  13.121  32.037  1.00  0.00     0.200 A 
ATOM     16  C   UNL     1      14.625  13.975  32.541  1.00  0.00     0.162 A 
BRANCH  13  17
ATOM     17  O   UNL     1      17.517  12.759  30.570  1.00  0.00    -0.504 OA
ATOM     18  H   UNL     1      18.382  13.130  30.192  1.00  0.00     0.293 HD
ENDBRANCH  13  17
BRANCH  15  19
ATOM     19  O   UNL     1      15.712  11.811  32.510  1.00  0.00    -0.502 OA
ATOM     20  H   UNL     1      16.084  11.058  31.945  1.00  0.00     0.293 HD
ENDBRANCH  15  19
BRANCH  16  21
ATOM     21  O   UNL     1      13.726  13.536  33.513  1.00  0.00    -0.504 OA
ATOM     22  H   UNL     1      13.023  12.833  33.320  1.00  0.00     0.293 HD
ENDBRANCH  16  21
ENDBRANCH   1  11
BRANCH  10  23
ATOM     23  O   UNL     1      13.735  16.569  28.832  1.00  0.00    -0.500 OA
ATOM     24  H   UNL     1      13.667  16.567  27.821  1.00  0.00     0.294 HD
ENDBRANCH  10  23
BRANCH   5  25
ATOM     25  O   UNL     1      17.363  22.584  32.147  1.00  0.00    -0.507 OA
ATOM     26  H   UNL     1      16.959  23.040  32.957  1.00  0.00     0.293 HD
ENDBRANCH   5  25
BRANCH   7  27
ATOM     27  O   UNL     1      14.450  21.738  28.427  1.00  0.00    -0.507 OA
ATOM     28  H   UNL     1      13.492  21.506  28.207  1.00  0.00     0.293 HD
ENDBRANCH   7  27
TORSDOF 7
ENDMDL
