MODEL 1
REMARK VINA RESULT:    -4.627      0.000      0.000
REMARK INTER + INTRA:          -5.944
REMARK INTER:                  -5.574
REMARK INTRA:                  -0.370
REMARK UNBOUND:                -0.370
REMARK SMILES O=c1c(O)c(-c2ccc(O)cc2O)oc2cc(O)cc(O)c12
REMARK SMILES IDX 5 1 3 2 2 3 1 4 22 5 20 6 19 7 17 8 16 9 15 10 14 11 6 12
REMARK SMILES IDX 8 13 7 14 9 15 11 16 12 17 10 18 13 20 4 22 21 24 18 26
REMARK H PARENT 10 19 13 21 4 23 21 25 18 27
REMARK Flexibility Score: inf
ROOT
ATOM      1  C   UNL     1      42.175  28.131  10.048  1.00  0.00     0.184 A 
ATOM      2  C   UNL     1      42.603  28.873   8.933  1.00  0.00     0.208 A 
ATOM      3  C   UNL     1      43.615  28.346   8.116  1.00  0.00     0.238 A 
ATOM      4  O   UNL     1      43.999  28.997   7.107  1.00  0.00    -0.285 OA
ATOM      5  C   UNL     1      44.193  27.100   8.439  1.00  0.00     0.111 A 
ATOM      6  C   UNL     1      45.219  26.500   7.671  1.00  0.00     0.134 A 
ATOM      7  C   UNL     1      45.748  25.262   8.063  1.00  0.00     0.093 A 
ATOM      8  C   UNL     1      45.274  24.614   9.206  1.00  0.00     0.123 A 
ATOM      9  C   UNL     1      44.260  25.201   9.968  1.00  0.00     0.094 A 
ATOM     10  C   UNL     1      43.717  26.433   9.594  1.00  0.00     0.146 A 
ATOM     11  O   UNL     1      42.751  26.967  10.333  1.00  0.00    -0.451 OA
ENDROOT
BRANCH   1  12
ATOM     12  C   UNL     1      41.105  28.621  10.942  1.00  0.00     0.063 A 
ATOM     13  C   UNL     1      40.473  29.649  13.053  1.00  0.00     0.047 A 
ATOM     14  C   UNL     1      41.458  29.180  12.181  1.00  0.00     0.020 A 
ATOM     15  C   UNL     1      39.120  29.552  12.702  1.00  0.00     0.119 A 
ATOM     16  C   UNL     1      38.759  28.977  11.481  1.00  0.00     0.093 A 
ATOM     17  C   UNL     1      39.742  28.498  10.602  1.00  0.00     0.130 A 
BRANCH  15  18
ATOM     18  O   UNL     1      38.129  30.020  13.562  1.00  0.00    -0.508 OA
ATOM     19  H   UNL     1      38.344  30.654  14.323  1.00  0.00     0.293 HD
ENDBRANCH  15  18
BRANCH  17  20
ATOM     20  O   UNL     1      39.366  27.881   9.409  1.00  0.00    -0.507 OA
ATOM     21  H   UNL     1      39.124  28.419   8.586  1.00  0.00     0.293 HD
ENDBRANCH  17  20
ENDBRANCH   1  12
BRANCH   2  22
ATOM     22  O   UNL     1      42.042  30.125   8.666  1.00  0.00    -0.502 OA
ATOM     23  H   UNL     1      41.810  30.782   9.401  1.00  0.00     0.293 HD
ENDBRANCH   2  22
BRANCH   6  24
ATOM     24  O   UNL     1      45.716  27.124   6.525  1.00  0.00    -0.507 OA
ATOM     25  H   UNL     1      46.678  27.440   6.465  1.00  0.00     0.293 HD
ENDBRANCH   6  24
BRANCH   8  26
ATOM     26  O   UNL     1      45.818  23.385   9.574  1.00  0.00    -0.508 OA
ATOM     27  H   UNL     1      46.011  22.665   8.888  1.00  0.00     0.293 HD
ENDBRANCH   8  26
TORSDOF 6
ENDMDL
MODEL 2
REMARK VINA RESULT:    -3.962     22.966     24.719
REMARK INTER + INTRA:          -5.142
REMARK INTER:                  -4.891
REMARK INTRA:                  -0.251
REMARK UNBOUND:                -0.370
REMARK SMILES O=c1c(O)c(-c2ccc(O)cc2O)oc2cc(O)cc(O)c12
REMARK SMILES IDX 5 1 3 2 2 3 1 4 22 5 20 6 19 7 17 8 16 9 15 10 14 11 6 12
REMARK SMILES IDX 8 13 7 14 9 15 11 16 12 17 10 18 13 20 4 22 21 24 18 26
REMARK H PARENT 10 19 13 21 4 23 21 25 18 27
REMARK Flexibility Score: inf
ROOT
ATOM      1  C   UNL     1      30.814  11.882  -3.959  1.00  0.00     0.184 A 
ATOM      2  C   UNL     1      29.720  11.806  -4.840  1.00  0.00     0.208 A 
ATOM      3  C   UNL     1      28.476  12.302  -4.421  1.00  0.00     0.238 A 
ATOM      4  O   UNL     1      27.491  12.250  -5.207  1.00  0.00    -0.285 OA
ATOM      5  C   UNL     1      28.343  12.845  -3.126  1.00  0.00     0.111 A 
ATOM      6  C   UNL     1      27.125  13.362  -2.625  1.00  0.00     0.134 A 
ATOM      7  C   UNL     1      27.072  13.877  -1.321  1.00  0.00     0.093 A 
ATOM      8  C   UNL     1      28.209  13.884  -0.510  1.00  0.00     0.123 A 
ATOM      9  C   UNL     1      29.416  13.375  -1.000  1.00  0.00     0.094 A 
ATOM     10  C   UNL     1      29.491  12.859  -2.297  1.00  0.00     0.146 A 
ATOM     11  O   UNL     1      30.650  12.386  -2.739  1.00  0.00    -0.451 OA
ENDROOT
BRANCH   1  12
ATOM     12  C   UNL     1      32.154  11.391  -4.341  1.00  0.00     0.063 A 
ATOM     13  C   UNL     1      34.007   9.875  -3.919  1.00  0.00     0.047 A 
ATOM     14  C   UNL     1      32.739  10.361  -3.589  1.00  0.00     0.020 A 
ATOM     15  C   UNL     1      34.711  10.424  -4.998  1.00  0.00     0.119 A 
ATOM     16  C   UNL     1      34.145  11.466  -5.738  1.00  0.00     0.093 A 
ATOM     17  C   UNL     1      32.875  11.963  -5.409  1.00  0.00     0.130 A 
BRANCH  15  18
ATOM     18  O   UNL     1      35.974   9.946  -5.339  1.00  0.00    -0.508 OA
ATOM     19  H   UNL     1      36.093   9.192  -6.006  1.00  0.00     0.293 HD
ENDBRANCH  15  18
BRANCH  17  20
ATOM     20  O   UNL     1      32.344  13.036  -6.125  1.00  0.00    -0.507 OA
ATOM     21  H   UNL     1      32.450  13.110  -7.129  1.00  0.00     0.293 HD
ENDBRANCH  17  20
ENDBRANCH   1  12
BRANCH   2  22
ATOM     22  O   UNL     1      29.874  11.222  -6.100  1.00  0.00    -0.502 OA
ATOM     23  H   UNL     1      30.511  11.593  -6.794  1.00  0.00     0.293 HD
ENDBRANCH   2  22
BRANCH   6  24
ATOM     24  O   UNL     1      25.970  13.367  -3.409  1.00  0.00    -0.507 OA
ATOM     25  H   UNL     1      25.953  13.790  -4.330  1.00  0.00     0.293 HD
ENDBRANCH   6  24
BRANCH   8  26
ATOM     26  O   UNL     1      28.128  14.400   0.781  1.00  0.00    -0.508 OA
ATOM     27  H   UNL     1      28.957  14.685   1.291  1.00  0.00     0.293 HD
ENDBRANCH   8  26
TORSDOF 6
ENDMDL
MODEL 3
REMARK VINA RESULT:    -3.822      2.101      5.893
REMARK INTER + INTRA:          -4.973
REMARK INTER:                  -4.570
REMARK INTRA:                  -0.403
REMARK UNBOUND:                -0.370
REMARK SMILES O=c1c(O)c(-c2ccc(O)cc2O)oc2cc(O)cc(O)c12
REMARK SMILES IDX 5 1 3 2 2 3 1 4 22 5 20 6 19 7 17 8 16 9 15 10 14 11 6 12
REMARK SMILES IDX 8 13 7 14 9 15 11 16 12 17 10 18 13 20 4 22 21 24 18 26
REMARK H PARENT 10 19 13 21 4 23 21 25 18 27
REMARK Flexibility Score: inf
ROOT
ATOM      1  C   UNL     1      44.089  26.470  10.057  1.00  0.00     0.184 A 
ATOM      2  C   UNL     1      44.846  27.008   9.001  1.00  0.00     0.208 A 
ATOM      3  C   UNL     1      44.286  28.027   8.215  1.00  0.00     0.238 A 
ATOM      4  O   UNL     1      44.959  28.525   7.273  1.00  0.00    -0.285 OA
ATOM      5  C   UNL     1      42.975  28.473   8.485  1.00  0.00     0.111 A 
ATOM      6  C   UNL     1      42.335  29.492   7.739  1.00  0.00     0.134 A 
ATOM      7  C   UNL     1      41.025  29.874   8.065  1.00  0.00     0.093 A 
ATOM      8  C   UNL     1      40.343  29.258   9.117  1.00  0.00     0.123 A 
ATOM      9  C   UNL     1      40.970  28.252   9.858  1.00  0.00     0.094 A 
ATOM     10  C   UNL     1      42.276  27.858   9.552  1.00  0.00     0.146 A 
ATOM     11  O   UNL     1      42.851  26.902  10.274  1.00  0.00    -0.451 OA
ENDROOT
BRANCH   1  12
ATOM     12  C   UNL     1      44.623  25.405  10.930  1.00  0.00     0.063 A 
ATOM     13  C   UNL     1      45.306  23.087  11.197  1.00  0.00     0.047 A 
ATOM     14  C   UNL     1      44.807  24.118  10.399  1.00  0.00     0.020 A 
ATOM     15  C   UNL     1      45.614  23.325  12.543  1.00  0.00     0.119 A 
ATOM     16  C   UNL     1      45.412  24.597  13.086  1.00  0.00     0.093 A 
ATOM     17  C   UNL     1      44.906  25.637  12.292  1.00  0.00     0.130 A 
BRANCH  15  18
ATOM     18  O   UNL     1      46.115  22.305  13.348  1.00  0.00    -0.508 OA
ATOM     19  H   UNL     1      47.110  22.121  13.412  1.00  0.00     0.293 HD
ENDBRANCH  15  18
BRANCH  17  20
ATOM     20  O   UNL     1      44.663  26.888  12.860  1.00  0.00    -0.507 OA
ATOM     21  H   UNL     1      44.858  27.746  12.358  1.00  0.00     0.293 HD
ENDBRANCH  17  20
ENDBRANCH   1  12
BRANCH   2  22
ATOM     22  O   UNL     1      46.125  26.513   8.731  1.00  0.00    -0.502 OA
ATOM     23  H   UNL     1      46.913  27.121   8.545  1.00  0.00     0.293 HD
ENDBRANCH   2  22
BRANCH   6  24
ATOM     24  O   UNL     1      42.988  30.124   6.680  1.00  0.00    -0.507 OA
ATOM     25  H   UNL     1      43.815  29.726   6.249  1.00  0.00     0.293 HD
ENDBRANCH   6  24
BRANCH   8  26
ATOM     26  O   UNL     1      39.043  29.656   9.419  1.00  0.00    -0.508 OA
ATOM     27  H   UNL     1      38.615  30.456   8.967  1.00  0.00     0.293 HD
ENDBRANCH   8  26
TORSDOF 6
ENDMDL
MODEL 4
REMARK VINA RESULT:    -3.414     22.565     24.399
REMARK INTER + INTRA:          -4.483
REMARK INTER:                  -4.477
REMARK INTRA:                  -0.006
REMARK UNBOUND:                -0.370
REMARK SMILES O=c1c(O)c(-c2ccc(O)cc2O)oc2cc(O)cc(O)c12
REMARK SMILES IDX 5 1 3 2 2 3 1 4 22 5 20 6 19 7 17 8 16 9 15 10 14 11 6 12
REMARK SMILES IDX 8 13 7 14 9 15 11 16 12 17 10 18 13 20 4 22 21 24 18 26
REMARK H PARENT 10 19 13 21 4 23 21 25 18 27
REMARK Flexibility Score: inf
ROOT
ATOM      1  C   UNL     1      31.321  12.026  -3.322  1.00  0.00     0.184 A 
ATOM      2  C   UNL     1      31.302  12.164  -1.922  1.00  0.00     0.208 A 
ATOM      3  C   UNL     1      30.149  12.678  -1.307  1.00  0.00     0.238 A 
ATOM      4  O   UNL     1      30.116  12.795  -0.053  1.00  0.00    -0.285 OA
ATOM      5  C   UNL     1      29.049  13.062  -2.102  1.00  0.00     0.111 A 
ATOM      6  C   UNL     1      27.852  13.591  -1.562  1.00  0.00     0.134 A 
ATOM      7  C   UNL     1      26.805  13.958  -2.420  1.00  0.00     0.093 A 
ATOM      8  C   UNL     1      26.930  13.808  -3.803  1.00  0.00     0.123 A 
ATOM      9  C   UNL     1      28.109  13.285  -4.342  1.00  0.00     0.094 A 
ATOM     10  C   UNL     1      29.164  12.911  -3.505  1.00  0.00     0.146 A 
ATOM     11  O   UNL     1      30.272  12.412  -4.042  1.00  0.00    -0.451 OA
ENDROOT
BRANCH   1  12
ATOM     12  C   UNL     1      32.496  11.481  -4.032  1.00  0.00     0.063 A 
ATOM     13  C   UNL     1      34.331   9.887  -4.089  1.00  0.00     0.047 A 
ATOM     14  C   UNL     1      33.212  10.424  -3.448  1.00  0.00     0.020 A 
ATOM     15  C   UNL     1      34.757  10.410  -5.316  1.00  0.00     0.119 A 
ATOM     16  C   UNL     1      34.063  11.478  -5.893  1.00  0.00     0.093 A 
ATOM     17  C   UNL     1      32.942  12.026  -5.253  1.00  0.00     0.130 A 
BRANCH  15  18
ATOM     18  O   UNL     1      35.869   9.880  -5.966  1.00  0.00    -0.508 OA
ATOM     19  H   UNL     1      36.170   8.925  -5.808  1.00  0.00     0.293 HD
ENDBRANCH  15  18
BRANCH  17  20
ATOM     20  O   UNL     1      32.290  13.123  -5.816  1.00  0.00    -0.507 OA
ATOM     21  H   UNL     1      31.279  13.175  -5.860  1.00  0.00     0.293 HD
ENDBRANCH  17  20
ENDBRANCH   1  12
BRANCH   2  22
ATOM     22  O   UNL     1      32.426  11.817  -1.168  1.00  0.00    -0.502 OA
ATOM     23  H   UNL     1      32.422  11.040  -0.518  1.00  0.00     0.293 HD
ENDBRANCH   2  22
BRANCH   6  24
ATOM     24  O   UNL     1      27.697  13.756  -0.184  1.00  0.00    -0.507 OA
ATOM     25  H   UNL     1      27.101  13.144   0.362  1.00  0.00     0.293 HD
ENDBRANCH   6  24
BRANCH   8  26
ATOM     26  O   UNL     1      25.875  14.181  -4.632  1.00  0.00    -0.508 OA
ATOM     27  H   UNL     1      25.972  14.191  -5.641  1.00  0.00     0.293 HD
ENDBRANCH   8  26
TORSDOF 6
ENDMDL
MODEL 5
REMARK VINA RESULT:    -3.402      1.605      7.007
REMARK INTER + INTRA:          -4.468
REMARK INTER:                  -4.077
REMARK INTRA:                  -0.390
REMARK UNBOUND:                -0.370
REMARK SMILES O=c1c(O)c(-c2ccc(O)cc2O)oc2cc(O)cc(O)c12
REMARK SMILES IDX 5 1 3 2 2 3 1 4 22 5 20 6 19 7 17 8 16 9 15 10 14 11 6 12
REMARK SMILES IDX 8 13 7 14 9 15 11 16 12 17 10 18 13 20 4 22 21 24 18 26
REMARK H PARENT 10 19 13 21 4 23 21 25 18 27
REMARK Flexibility Score: inf
ROOT
ATOM      1  C   UNL     1      42.085  27.965  10.609  1.00  0.00     0.184 A 
ATOM      2  C   UNL     1      42.315  28.259  11.965  1.00  0.00     0.208 A 
ATOM      3  C   UNL     1      41.287  28.853  12.713  1.00  0.00     0.238 A 
ATOM      4  O   UNL     1      41.477  29.110  13.932  1.00  0.00    -0.285 OA
ATOM      5  C   UNL     1      40.060  29.161  12.088  1.00  0.00     0.111 A 
ATOM      6  C   UNL     1      38.975  29.764  12.769  1.00  0.00     0.134 A 
ATOM      7  C   UNL     1      37.789  30.047  12.075  1.00  0.00     0.093 A 
ATOM      8  C   UNL     1      37.668  29.742  10.718  1.00  0.00     0.123 A 
ATOM      9  C   UNL     1      38.735  29.146  10.040  1.00  0.00     0.094 A 
ATOM     10  C   UNL     1      39.925  28.853  10.713  1.00  0.00     0.146 A 
ATOM     11  O   UNL     1      40.923  28.282  10.047  1.00  0.00    -0.451 OA
ENDROOT
BRANCH   1  12
ATOM     12  C   UNL     1      43.119  27.328   9.767  1.00  0.00     0.063 A 
ATOM     13  C   UNL     1      44.486  25.377   9.279  1.00  0.00     0.047 A 
ATOM     14  C   UNL     1      43.508  26.009  10.051  1.00  0.00     0.020 A 
ATOM     15  C   UNL     1      45.098  26.062   8.222  1.00  0.00     0.119 A 
ATOM     16  C   UNL     1      44.733  27.383   7.947  1.00  0.00     0.093 A 
ATOM     17  C   UNL     1      43.756  28.026   8.721  1.00  0.00     0.130 A 
BRANCH  15  18
ATOM     18  O   UNL     1      46.072  25.441   7.443  1.00  0.00    -0.508 OA
ATOM     19  H   UNL     1      46.461  25.892   6.623  1.00  0.00     0.293 HD
ENDBRANCH  15  18
BRANCH  17  20
ATOM     20  O   UNL     1      43.438  29.360   8.467  1.00  0.00    -0.507 OA
ATOM     21  H   UNL     1      44.031  29.949   7.895  1.00  0.00     0.293 HD
ENDBRANCH  17  20
ENDBRANCH   1  12
BRANCH   2  22
ATOM     22  O   UNL     1      43.557  27.982  12.542  1.00  0.00    -0.502 OA
ATOM     23  H   UNL     1      44.430  28.221  12.088  1.00  0.00     0.293 HD
ENDBRANCH   2  22
BRANCH   6  24
ATOM     24  O   UNL     1      39.066  30.084  14.125  1.00  0.00    -0.507 OA
ATOM     25  H   UNL     1      38.809  31.000  14.475  1.00  0.00     0.293 HD
ENDBRANCH   6  24
BRANCH   8  26
ATOM     26  O   UNL     1      36.480  30.035  10.052  1.00  0.00    -0.508 OA
ATOM     27  H   UNL     1      35.789  30.661  10.450  1.00  0.00     0.293 HD
ENDBRANCH   8  26
TORSDOF 6
ENDMDL
MODEL 6
REMARK VINA RESULT:    -3.298      2.390      4.090
REMARK INTER + INTRA:          -4.342
REMARK INTER:                  -3.927
REMARK INTRA:                  -0.416
REMARK UNBOUND:                -0.370
REMARK SMILES O=c1c(O)c(-c2ccc(O)cc2O)oc2cc(O)cc(O)c12
REMARK SMILES IDX 5 1 3 2 2 3 1 4 22 5 20 6 19 7 17 8 16 9 15 10 14 11 6 12
REMARK SMILES IDX 8 13 7 14 9 15 11 16 12 17 10 18 13 20 4 22 21 24 18 26
REMARK H PARENT 10 19 13 21 4 23 21 25 18 27
REMARK Flexibility Score: inf
ROOT
ATOM      1  C   UNL     1      42.858  27.417  10.630  1.00  0.00     0.184 A 
ATOM      2  C   UNL     1      43.235  27.917  11.890  1.00  0.00     0.208 A 
ATOM      3  C   UNL     1      44.161  27.195  12.657  1.00  0.00     0.238 A 
ATOM      4  O   UNL     1      44.515  27.640  13.782  1.00  0.00    -0.285 OA
ATOM      5  C   UNL     1      44.677  25.979  12.162  1.00  0.00     0.111 A 
ATOM      6  C   UNL     1      45.612  25.189  12.873  1.00  0.00     0.134 A 
ATOM      7  C   UNL     1      46.072  23.986  12.316  1.00  0.00     0.093 A 
ATOM      8  C   UNL     1      45.617  23.558  11.067  1.00  0.00     0.123 A 
ATOM      9  C   UNL     1      44.695  24.335  10.359  1.00  0.00     0.094 A 
ATOM     10  C   UNL     1      44.225  25.538  10.895  1.00  0.00     0.146 A 
ATOM     11  O   UNL     1      43.353  26.260  10.200  1.00  0.00    -0.451 OA
ENDROOT
BRANCH   1  12
ATOM     12  C   UNL     1      41.898  28.133   9.766  1.00  0.00     0.063 A 
ATOM     13  C   UNL     1      39.603  28.800   9.321  1.00  0.00     0.047 A 
ATOM     14  C   UNL     1      40.539  28.137  10.118  1.00  0.00     0.020 A 
ATOM     15  C   UNL     1      40.012  29.457   8.154  1.00  0.00     0.119 A 
ATOM     16  C   UNL     1      41.360  29.439   7.784  1.00  0.00     0.093 A 
ATOM     17  C   UNL     1      42.306  28.770   8.575  1.00  0.00     0.130 A 
BRANCH  15  18
ATOM     18  O   UNL     1      39.088  30.125   7.353  1.00  0.00    -0.508 OA
ATOM     19  H   UNL     1      38.327  30.659   7.757  1.00  0.00     0.293 HD
ENDBRANCH  15  18
BRANCH  17  20
ATOM     20  O   UNL     1      43.639  28.718   8.168  1.00  0.00    -0.507 OA
ATOM     21  H   UNL     1      43.943  28.101   7.425  1.00  0.00     0.293 HD
ENDBRANCH  17  20
ENDBRANCH   1  12
BRANCH   2  22
ATOM     22  O   UNL     1      42.670  29.102  12.370  1.00  0.00    -0.502 OA
ATOM     23  H   UNL     1      41.669  29.249  12.405  1.00  0.00     0.293 HD
ENDBRANCH   2  22
BRANCH   6  24
ATOM     24  O   UNL     1      46.084  25.586  14.125  1.00  0.00    -0.507 OA
ATOM     25  H   UNL     1      46.147  24.938  14.902  1.00  0.00     0.293 HD
ENDBRANCH   6  24
BRANCH   8  26
ATOM     26  O   UNL     1      46.089  22.360  10.538  1.00  0.00    -0.508 OA
ATOM     27  H   UNL     1      46.469  21.631  11.131  1.00  0.00     0.293 HD
ENDBRANCH   8  26
TORSDOF 6
ENDMDL
MODEL 7
REMARK VINA RESULT:    -3.232      2.282      4.256
REMARK INTER + INTRA:          -4.263
REMARK INTER:                  -3.972
REMARK INTRA:                  -0.291
REMARK UNBOUND:                -0.370
REMARK SMILES O=c1c(O)c(-c2ccc(O)cc2O)oc2cc(O)cc(O)c12
REMARK SMILES IDX 5 1 3 2 2 3 1 4 22 5 20 6 19 7 17 8 16 9 15 10 14 11 6 12
REMARK SMILES IDX 8 13 7 14 9 15 11 16 12 17 10 18 13 20 4 22 21 24 18 26
REMARK H PARENT 10 19 13 21 4 23 21 25 18 27
REMARK Flexibility Score: inf
ROOT
ATOM      1  C   UNL     1      39.568  28.810  11.495  1.00  0.00     0.184 A 
ATOM      2  C   UNL     1      40.342  29.109  12.631  1.00  0.00     0.208 A 
ATOM      3  C   UNL     1      41.737  28.966  12.558  1.00  0.00     0.238 A 
ATOM      4  O   UNL     1      42.441  29.242  13.566  1.00  0.00    -0.285 OA
ATOM      5  C   UNL     1      42.328  28.508  11.362  1.00  0.00     0.111 A 
ATOM      6  C   UNL     1      43.724  28.333  11.206  1.00  0.00     0.134 A 
ATOM      7  C   UNL     1      44.235  27.865   9.986  1.00  0.00     0.093 A 
ATOM      8  C   UNL     1      43.380  27.568   8.922  1.00  0.00     0.123 A 
ATOM      9  C   UNL     1      42.000  27.740   9.069  1.00  0.00     0.094 A 
ATOM     10  C   UNL     1      41.471  28.208  10.276  1.00  0.00     0.146 A 
ATOM     11  O   UNL     1      40.157  28.366  10.388  1.00  0.00    -0.451 OA
ENDROOT
BRANCH   1  12
ATOM     12  C   UNL     1      38.098  28.951  11.499  1.00  0.00     0.063 A 
ATOM     13  C   UNL     1      36.123  30.125  10.703  1.00  0.00     0.047 A 
ATOM     14  C   UNL     1      37.510  29.960  10.719  1.00  0.00     0.020 A 
ATOM     15  C   UNL     1      35.307  29.291  11.478  1.00  0.00     0.119 A 
ATOM     16  C   UNL     1      35.885  28.299  12.275  1.00  0.00     0.093 A 
ATOM     17  C   UNL     1      37.278  28.131  12.301  1.00  0.00     0.130 A 
BRANCH  15  18
ATOM     18  O   UNL     1      33.922  29.444  11.467  1.00  0.00    -0.508 OA
ATOM     19  H   UNL     1      33.484  30.323  11.722  1.00  0.00     0.293 HD
ENDBRANCH  15  18
BRANCH  17  20
ATOM     20  O   UNL     1      37.844  27.170  13.138  1.00  0.00    -0.507 OA
ATOM     21  H   UNL     1      38.730  26.730  12.920  1.00  0.00     0.293 HD
ENDBRANCH  17  20
ENDBRANCH   1  12
BRANCH   2  22
ATOM     22  O   UNL     1      39.722  29.516  13.814  1.00  0.00    -0.502 OA
ATOM     23  H   UNL     1      39.903  30.419  14.237  1.00  0.00     0.293 HD
ENDBRANCH   2  22
BRANCH   6  24
ATOM     24  O   UNL     1      44.604  28.618  12.251  1.00  0.00    -0.507 OA
ATOM     25  H   UNL     1      44.336  28.501  13.222  1.00  0.00     0.293 HD
ENDBRANCH   6  24
BRANCH   8  26
ATOM     26  O   UNL     1      43.913  27.105   7.722  1.00  0.00    -0.508 OA
ATOM     27  H   UNL     1      43.547  26.279   7.263  1.00  0.00     0.293 HD
ENDBRANCH   8  26
TORSDOF 6
ENDMDL
MODEL 8
REMARK VINA RESULT:    -3.212      2.093      3.716
REMARK INTER + INTRA:          -4.239
REMARK INTER:                  -4.019
REMARK INTRA:                  -0.220
REMARK UNBOUND:                -0.370
REMARK SMILES O=c1c(O)c(-c2ccc(O)cc2O)oc2cc(O)cc(O)c12
REMARK SMILES IDX 5 1 3 2 2 3 1 4 22 5 20 6 19 7 17 8 16 9 15 10 14 11 6 12
REMARK SMILES IDX 8 13 7 14 9 15 11 16 12 17 10 18 13 20 4 22 21 24 18 26
REMARK H PARENT 10 19 13 21 4 23 21 25 18 27
REMARK Flexibility Score: inf
ROOT
ATOM      1  C   UNL     1      40.150  28.719  11.400  1.00  0.00     0.184 A 
ATOM      2  C   UNL     1      40.982  29.035  12.490  1.00  0.00     0.208 A 
ATOM      3  C   UNL     1      42.367  28.849  12.361  1.00  0.00     0.238 A 
ATOM      4  O   UNL     1      43.123  29.139  13.327  1.00  0.00    -0.285 OA
ATOM      5  C   UNL     1      42.891  28.333  11.157  1.00  0.00     0.111 A 
ATOM      6  C   UNL     1      44.274  28.113  10.947  1.00  0.00     0.134 A 
ATOM      7  C   UNL     1      44.717  27.589   9.724  1.00  0.00     0.093 A 
ATOM      8  C   UNL     1      43.807  27.281   8.709  1.00  0.00     0.123 A 
ATOM      9  C   UNL     1      42.441  27.497   8.910  1.00  0.00     0.094 A 
ATOM     10  C   UNL     1      41.979  28.021  10.122  1.00  0.00     0.146 A 
ATOM     11  O   UNL     1      40.676  28.221  10.285  1.00  0.00    -0.451 OA
ENDROOT
BRANCH   1  12
ATOM     12  C   UNL     1      38.685  28.903  11.464  1.00  0.00     0.063 A 
ATOM     13  C   UNL     1      36.588  28.474  12.615  1.00  0.00     0.047 A 
ATOM     14  C   UNL     1      37.974  28.324  12.526  1.00  0.00     0.020 A 
ATOM     15  C   UNL     1      35.894  29.193  11.633  1.00  0.00     0.119 A 
ATOM     16  C   UNL     1      36.592  29.753  10.560  1.00  0.00     0.093 A 
ATOM     17  C   UNL     1      37.983  29.602  10.460  1.00  0.00     0.130 A 
BRANCH  15  18
ATOM     18  O   UNL     1      34.512  29.352  11.713  1.00  0.00    -0.508 OA
ATOM     19  H   UNL     1      33.878  28.590  11.501  1.00  0.00     0.293 HD
ENDBRANCH  15  18
BRANCH  17  20
ATOM     20  O   UNL     1      38.660  30.124   9.358  1.00  0.00    -0.507 OA
ATOM     21  H   UNL     1      39.395  30.813   9.462  1.00  0.00     0.293 HD
ENDBRANCH  17  20
ENDBRANCH   1  12
BRANCH   2  22
ATOM     22  O   UNL     1      40.426  29.501  13.684  1.00  0.00    -0.502 OA
ATOM     23  H   UNL     1      39.668  29.019  14.152  1.00  0.00     0.293 HD
ENDBRANCH   2  22
BRANCH   6  24
ATOM     24  O   UNL     1      45.208  28.408  11.942  1.00  0.00    -0.507 OA
ATOM     25  H   UNL     1      45.006  29.069  12.684  1.00  0.00     0.293 HD
ENDBRANCH   6  24
BRANCH   8  26
ATOM     26  O   UNL     1      44.274  26.761   7.505  1.00  0.00    -0.508 OA
ATOM     27  H   UNL     1      45.154  27.062   7.103  1.00  0.00     0.293 HD
ENDBRANCH   8  26
TORSDOF 6
ENDMDL
MODEL 9
REMARK VINA RESULT:    -3.148      2.659      4.128
REMARK INTER + INTRA:          -4.161
REMARK INTER:                  -3.839
REMARK INTRA:                  -0.322
REMARK UNBOUND:                -0.370
REMARK SMILES O=c1c(O)c(-c2ccc(O)cc2O)oc2cc(O)cc(O)c12
REMARK SMILES IDX 5 1 3 2 2 3 1 4 22 5 20 6 19 7 17 8 16 9 15 10 14 11 6 12
REMARK SMILES IDX 8 13 7 14 9 15 11 16 12 17 10 18 13 20 4 22 21 24 18 26
REMARK H PARENT 10 19 13 21 4 23 21 25 18 27
REMARK Flexibility Score: inf
ROOT
ATOM      1  C   UNL     1      39.985  28.959  10.986  1.00  0.00     0.184 A 
ATOM      2  C   UNL     1      40.541  28.402   9.820  1.00  0.00     0.208 A 
ATOM      3  C   UNL     1      41.935  28.271   9.730  1.00  0.00     0.238 A 
ATOM      4  O   UNL     1      42.444  27.762   8.695  1.00  0.00    -0.285 OA
ATOM      5  C   UNL     1      42.746  28.716  10.794  1.00  0.00     0.111 A 
ATOM      6  C   UNL     1      44.159  28.623  10.782  1.00  0.00     0.134 A 
ATOM      7  C   UNL     1      44.897  29.097  11.877  1.00  0.00     0.093 A 
ATOM      8  C   UNL     1      44.253  29.661  12.980  1.00  0.00     0.123 A 
ATOM      9  C   UNL     1      42.858  29.754  12.999  1.00  0.00     0.094 A 
ATOM     10  C   UNL     1      42.103  29.286  11.919  1.00  0.00     0.146 A 
ATOM     11  O   UNL     1      40.779  29.383  11.964  1.00  0.00    -0.451 OA
ENDROOT
BRANCH   1  12
ATOM     12  C   UNL     1      38.525  29.115  11.152  1.00  0.00     0.063 A 
ATOM     13  C   UNL     1      36.439  30.089  10.370  1.00  0.00     0.047 A 
ATOM     14  C   UNL     1      37.819  29.917  10.241  1.00  0.00     0.020 A 
ATOM     15  C   UNL     1      35.749  29.473  11.421  1.00  0.00     0.119 A 
ATOM     16  C   UNL     1      36.447  28.691  12.346  1.00  0.00     0.093 A 
ATOM     17  C   UNL     1      37.834  28.517  12.226  1.00  0.00     0.130 A 
BRANCH  15  18
ATOM     18  O   UNL     1      34.372  29.635  11.558  1.00  0.00    -0.508 OA
ATOM     19  H   UNL     1      33.980  30.310  12.206  1.00  0.00     0.293 HD
ENDBRANCH  15  18
BRANCH  17  20
ATOM     20  O   UNL     1      38.526  27.776  13.184  1.00  0.00    -0.507 OA
ATOM     21  H   UNL     1      39.070  26.959  12.933  1.00  0.00     0.293 HD
ENDBRANCH  17  20
ENDBRANCH   1  12
BRANCH   2  22
ATOM     22  O   UNL     1      39.712  28.012   8.765  1.00  0.00    -0.502 OA
ATOM     23  H   UNL     1      39.508  28.623   7.983  1.00  0.00     0.293 HD
ENDBRANCH   2  22
BRANCH   6  24
ATOM     24  O   UNL     1      44.833  28.067   9.693  1.00  0.00    -0.507 OA
ATOM     25  H   UNL     1      44.426  28.055   8.764  1.00  0.00     0.293 HD
ENDBRANCH   6  24
BRANCH   8  26
ATOM     26  O   UNL     1      45.009  30.125  14.054  1.00  0.00    -0.508 OA
ATOM     27  H   UNL     1      45.617  29.507  14.580  1.00  0.00     0.293 HD
ENDBRANCH   8  26
TORSDOF 6
ENDMDL
