MODEL 1
REMARK VINA RESULT:     8.260      0.000      0.000
REMARK INTER + INTRA:          22.630
REMARK INTER:                  21.781
REMARK INTRA:                   0.849
REMARK UNBOUND:                 0.849
REMARK SMILES CCCCCCCCCCCCCCCCCCCCCCCCCCCCCC(=O)[O-]
REMARK SMILES IDX 16 1 17 2 18 3 19 4 20 5 21 6 22 7 23 8 24 9 25 10 26 11
REMARK SMILES IDX 27 12 28 13 29 14 30 15 31 16 32 17 15 18 14 19 13 20 12 21
REMARK SMILES IDX 11 22 10 23 9 24 8 25 7 26 6 27 5 28 4 29 3 30 2 31 1 32
REMARK H PARENT
REMARK Flexibility Score: inf
ROOT
ATOM      1  C   UNL     1       3.821 -25.130  -5.143  1.00  0.00     0.000 C 
ENDROOT
BRANCH   1   2
ATOM      2  C   UNL     1       2.885 -23.967  -4.752  1.00  0.00     0.000 C 
BRANCH   2   3
ATOM      3  C   UNL     1       3.515 -23.031  -3.709  1.00  0.00     0.000 C 
BRANCH   3   4
ATOM      4  C   UNL     1       2.526 -22.732  -2.575  1.00  0.00     0.000 C 
BRANCH   4   5
ATOM      5  C   UNL     1       1.074 -22.848  -3.061  1.00  0.00     0.000 C 
BRANCH   5   6
ATOM      6  C   UNL     1       0.156 -21.777  -2.443  1.00  0.00     0.000 C 
BRANCH   6   7
ATOM      7  C   UNL     1      -1.345 -21.951  -2.757  1.00  0.00     0.000 C 
BRANCH   7   8
ATOM      8  C   UNL     1      -2.047 -20.703  -3.332  1.00  0.00     0.000 C 
BRANCH   8   9
ATOM      9  C   UNL     1      -2.259 -20.723  -4.857  1.00  0.00     0.000 C 
BRANCH   9  10
ATOM     10  C   UNL     1      -3.055 -19.508  -5.363  1.00  0.00     0.000 C 
BRANCH  10  11
ATOM     11  C   UNL     1      -4.262 -19.919  -6.227  1.00  0.00     0.000 C 
BRANCH  11  12
ATOM     12  C   UNL     1      -4.771 -21.344  -5.943  1.00  0.00     0.000 C 
BRANCH  12  13
ATOM     13  C   UNL     1      -4.288 -22.364  -6.990  1.00  0.00     0.006 C 
BRANCH  13  14
ATOM     14  C   UNL     1      -2.914 -21.994  -7.565  1.00  0.00     0.053 C 
BRANCH  14  15
ATOM     15  C   UNL     1      -1.807 -22.714  -6.856  1.00  0.00     0.041 C 
ATOM     16  O   UNL     1      -0.723 -22.955  -7.450  1.00  0.00    -0.550 OA
ATOM     17  O   UNL     1      -1.964 -23.097  -5.529  1.00  0.00    -0.550 OA
ENDBRANCH  14  15
ENDBRANCH  13  14
ENDBRANCH  12  13
ENDBRANCH  11  12
ENDBRANCH  10  11
ENDBRANCH   9  10
ENDBRANCH   8   9
ENDBRANCH   7   8
ENDBRANCH   6   7
ENDBRANCH   5   6
ENDBRANCH   4   5
ENDBRANCH   3   4
ENDBRANCH   2   3
ENDBRANCH   1   2
BRANCH   1  18
ATOM     18  C   UNL     1       3.329 -25.934  -6.360  1.00  0.00     0.000 C 
BRANCH  18  19
ATOM     19  C   UNL     1       3.155 -27.444  -6.112  1.00  0.00     0.000 C 
BRANCH  19  20
ATOM     20  C   UNL     1       1.962 -28.088  -6.844  1.00  0.00     0.000 C 
BRANCH  20  21
ATOM     21  C   UNL     1       2.305 -29.458  -7.456  1.00  0.00     0.000 C 
BRANCH  21  22
ATOM     22  C   UNL     1       3.321 -30.249  -6.615  1.00  0.00     0.000 C 
BRANCH  22  23
ATOM     23  C   UNL     1       2.684 -31.437  -5.875  1.00  0.00     0.000 C 
BRANCH  23  24
ATOM     24  C   UNL     1       1.286 -31.107  -5.324  1.00  0.00    -0.000 C 
BRANCH  24  25
ATOM     25  C   UNL     1       0.218 -32.121  -5.768  1.00  0.00    -0.000 C 
BRANCH  25  26
ATOM     26  C   UNL     1      -1.209 -31.530  -5.739  1.00  0.00    -0.000 C 
BRANCH  26  27
ATOM     27  C   UNL     1      -1.580 -30.873  -4.395  1.00  0.00    -0.000 C 
BRANCH  27  28
ATOM     28  C   UNL     1      -3.085 -30.866  -4.070  1.00  0.00    -0.000 C 
BRANCH  28  29
ATOM     29  C   UNL     1      -3.878 -32.071  -4.617  1.00  0.00    -0.000 C 
BRANCH  29  30
ATOM     30  C   UNL     1      -4.950 -31.726  -5.668  1.00  0.00    -0.000 C 
BRANCH  30  31
ATOM     31  C   UNL     1      -4.369 -31.563  -7.080  1.00  0.00    -0.003 C 
ATOM     32  C   UNL     1      -4.573 -30.141  -7.595  1.00  0.00     0.004 C 
ENDBRANCH  30  31
ENDBRANCH  29  30
ENDBRANCH  28  29
ENDBRANCH  27  28
ENDBRANCH  26  27
ENDBRANCH  25  26
ENDBRANCH  24  25
ENDBRANCH  23  24
ENDBRANCH  22  23
ENDBRANCH  21  22
ENDBRANCH  20  21
ENDBRANCH  19  20
ENDBRANCH  18  19
ENDBRANCH   1  18
TORSDOF 28
ENDMDL
MODEL 2
REMARK VINA RESULT:     8.528      2.390      9.524
REMARK INTER + INTRA:          23.336
REMARK INTER:                  24.190
REMARK INTRA:                  -0.854
REMARK UNBOUND:                 0.849
REMARK SMILES CCCCCCCCCCCCCCCCCCCCCCCCCCCCCC(=O)[O-]
REMARK SMILES IDX 16 1 17 2 18 3 19 4 20 5 21 6 22 7 23 8 24 9 25 10 26 11
REMARK SMILES IDX 27 12 28 13 29 14 30 15 31 16 32 17 15 18 14 19 13 20 12 21
REMARK SMILES IDX 11 22 10 23 9 24 8 25 7 26 6 27 5 28 4 29 3 30 2 31 1 32
REMARK H PARENT
REMARK Flexibility Score: inf
ROOT
ATOM      1  C   UNL     1       3.411 -23.474  -4.398  1.00  0.00     0.000 C 
ENDROOT
BRANCH   1   2
ATOM      2  C   UNL     1       3.214 -24.827  -5.115  1.00  0.00     0.000 C 
BRANCH   2   3
ATOM      3  C   UNL     1       4.318 -25.114  -6.144  1.00  0.00     0.000 C 
BRANCH   3   4
ATOM      4  C   UNL     1       3.900 -26.245  -7.092  1.00  0.00     0.000 C 
BRANCH   4   5
ATOM      5  C   UNL     1       2.515 -26.795  -6.723  1.00  0.00     0.000 C 
BRANCH   5   6
ATOM      6  C   UNL     1       2.220 -28.151  -7.391  1.00  0.00     0.000 C 
BRANCH   6   7
ATOM      7  C   UNL     1       2.065 -29.335  -6.412  1.00  0.00     0.000 C 
BRANCH   7   8
ATOM      8  C   UNL     1       2.648 -30.676  -6.903  1.00  0.00     0.000 C 
BRANCH   8   9
ATOM      9  C   UNL     1       2.622 -31.813  -5.864  1.00  0.00     0.000 C 
BRANCH   9  10
ATOM     10  C   UNL     1       1.278 -31.911  -5.122  1.00  0.00     0.000 C 
BRANCH  10  11
ATOM     11  C   UNL     1       1.369 -31.385  -3.677  1.00  0.00     0.000 C 
BRANCH  11  12
ATOM     12  C   UNL     1       0.002 -31.048  -3.053  1.00  0.00     0.000 C 
BRANCH  12  13
ATOM     13  C   UNL     1      -1.092 -30.825  -4.113  1.00  0.00     0.006 C 
BRANCH  13  14
ATOM     14  C   UNL     1      -2.168 -31.917  -4.072  1.00  0.00     0.053 C 
BRANCH  14  15
ATOM     15  C   UNL     1      -3.406 -31.501  -4.807  1.00  0.00     0.041 C 
ATOM     16  O   UNL     1      -4.518 -32.023  -4.527  1.00  0.00    -0.550 OA
ATOM     17  O   UNL     1      -3.335 -30.518  -5.786  1.00  0.00    -0.550 OA
ENDBRANCH  14  15
ENDBRANCH  13  14
ENDBRANCH  12  13
ENDBRANCH  11  12
ENDBRANCH  10  11
ENDBRANCH   9  10
ENDBRANCH   8   9
ENDBRANCH   7   8
ENDBRANCH   6   7
ENDBRANCH   5   6
ENDBRANCH   4   5
ENDBRANCH   3   4
ENDBRANCH   2   3
ENDBRANCH   1   2
BRANCH   1  18
ATOM     18  C   UNL     1       2.262 -23.109  -3.443  1.00  0.00     0.000 C 
BRANCH  18  19
ATOM     19  C   UNL     1       2.685 -22.313  -2.194  1.00  0.00     0.000 C 
BRANCH  19  20
ATOM     20  C   UNL     1       1.562 -22.071  -1.168  1.00  0.00     0.000 C 
BRANCH  20  21
ATOM     21  C   UNL     1       0.436 -21.174  -1.714  1.00  0.00     0.000 C 
BRANCH  21  22
ATOM     22  C   UNL     1      -0.604 -21.957  -2.532  1.00  0.00     0.000 C 
BRANCH  22  23
ATOM     23  C   UNL     1      -1.958 -21.233  -2.622  1.00  0.00     0.000 C 
BRANCH  23  24
ATOM     24  C   UNL     1      -2.890 -21.853  -3.677  1.00  0.00    -0.000 C 
BRANCH  24  25
ATOM     25  C   UNL     1      -2.125 -22.648  -4.750  1.00  0.00    -0.000 C 
BRANCH  25  26
ATOM     26  C   UNL     1      -1.546 -21.741  -5.859  1.00  0.00    -0.000 C 
BRANCH  26  27
ATOM     27  C   UNL     1      -2.602 -21.239  -6.863  1.00  0.00    -0.000 C 
BRANCH  27  28
ATOM     28  C   UNL     1      -3.734 -22.238  -7.166  1.00  0.00    -0.000 C 
BRANCH  28  29
ATOM     29  C   UNL     1      -5.111 -21.862  -6.580  1.00  0.00    -0.000 C 
BRANCH  29  30
ATOM     30  C   UNL     1      -5.121 -20.616  -5.676  1.00  0.00    -0.000 C 
BRANCH  30  31
ATOM     31  C   UNL     1      -5.121 -19.302  -6.471  1.00  0.00    -0.003 C 
ATOM     32  C   UNL     1      -3.872 -18.479  -6.169  1.00  0.00     0.004 C 
ENDBRANCH  30  31
ENDBRANCH  29  30
ENDBRANCH  28  29
ENDBRANCH  27  28
ENDBRANCH  26  27
ENDBRANCH  25  26
ENDBRANCH  24  25
ENDBRANCH  23  24
ENDBRANCH  22  23
ENDBRANCH  21  22
ENDBRANCH  20  21
ENDBRANCH  19  20
ENDBRANCH  18  19
ENDBRANCH   1  18
TORSDOF 28
ENDMDL
MODEL 3
REMARK VINA RESULT:     8.619      2.356      9.567
REMARK INTER + INTRA:          23.576
REMARK INTER:                  24.792
REMARK INTRA:                  -1.217
REMARK UNBOUND:                 0.849
REMARK SMILES CCCCCCCCCCCCCCCCCCCCCCCCCCCCCC(=O)[O-]
REMARK SMILES IDX 16 1 17 2 18 3 19 4 20 5 21 6 22 7 23 8 24 9 25 10 26 11
REMARK SMILES IDX 27 12 28 13 29 14 30 15 31 16 32 17 15 18 14 19 13 20 12 21
REMARK SMILES IDX 11 22 10 23 9 24 8 25 7 26 6 27 5 28 4 29 3 30 2 31 1 32
REMARK H PARENT
REMARK Flexibility Score: inf
ROOT
ATOM      1  C   UNL     1       3.773 -24.340  -4.816  1.00  0.00     0.000 C 
ENDROOT
BRANCH   1   2
ATOM      2  C   UNL     1       3.823 -25.146  -6.131  1.00  0.00     0.000 C 
BRANCH   2   3
ATOM      3  C   UNL     1       3.381 -26.605  -5.944  1.00  0.00     0.000 C 
BRANCH   3   4
ATOM      4  C   UNL     1       2.657 -27.122  -7.194  1.00  0.00     0.000 C 
BRANCH   4   5
ATOM      5  C   UNL     1       2.193 -28.573  -7.006  1.00  0.00     0.000 C 
BRANCH   5   6
ATOM      6  C   UNL     1       3.050 -29.576  -7.800  1.00  0.00     0.000 C 
BRANCH   6   7
ATOM      7  C   UNL     1       2.996 -31.029  -7.279  1.00  0.00     0.000 C 
BRANCH   7   8
ATOM      8  C   UNL     1       1.752 -31.836  -7.707  1.00  0.00     0.000 C 
BRANCH   8   9
ATOM      9  C   UNL     1       0.747 -32.125  -6.576  1.00  0.00     0.000 C 
BRANCH   9  10
ATOM     10  C   UNL     1       1.122 -31.430  -5.255  1.00  0.00     0.000 C 
BRANCH  10  11
ATOM     11  C   UNL     1      -0.032 -30.578  -4.696  1.00  0.00     0.000 C 
BRANCH  11  12
ATOM     12  C   UNL     1      -1.077 -31.390  -3.908  1.00  0.00     0.000 C 
BRANCH  12  13
ATOM     13  C   UNL     1      -2.205 -31.930  -4.806  1.00  0.00     0.006 C 
BRANCH  13  14
ATOM     14  C   UNL     1      -3.475 -31.075  -4.716  1.00  0.00     0.053 C 
BRANCH  14  15
ATOM     15  C   UNL     1      -4.135 -30.924  -6.053  1.00  0.00     0.041 C 
ATOM     16  O   UNL     1      -4.967 -29.999  -6.250  1.00  0.00    -0.550 OA
ATOM     17  O   UNL     1      -3.813 -31.792  -7.089  1.00  0.00    -0.550 OA
ENDBRANCH  14  15
ENDBRANCH  13  14
ENDBRANCH  12  13
ENDBRANCH  11  12
ENDBRANCH  10  11
ENDBRANCH   9  10
ENDBRANCH   8   9
ENDBRANCH   7   8
ENDBRANCH   6   7
ENDBRANCH   5   6
ENDBRANCH   4   5
ENDBRANCH   3   4
ENDBRANCH   2   3
ENDBRANCH   1   2
BRANCH   1  18
ATOM     18  C   UNL     1       2.820 -23.133  -4.868  1.00  0.00     0.000 C 
BRANCH  18  19
ATOM     19  C   UNL     1       1.341 -23.485  -5.120  1.00  0.00     0.000 C 
BRANCH  19  20
ATOM     20  C   UNL     1       0.656 -22.654  -6.222  1.00  0.00     0.000 C 
BRANCH  20  21
ATOM     21  C   UNL     1      -0.610 -23.329  -6.780  1.00  0.00     0.000 C 
BRANCH  21  22
ATOM     22  C   UNL     1      -1.747 -22.330  -7.051  1.00  0.00     0.000 C 
BRANCH  22  23
ATOM     23  C   UNL     1      -3.075 -22.749  -6.396  1.00  0.00     0.000 C 
BRANCH  23  24
ATOM     24  C   UNL     1      -4.298 -22.147  -7.108  1.00  0.00    -0.000 C 
BRANCH  24  25
ATOM     25  C   UNL     1      -4.509 -20.660  -6.773  1.00  0.00    -0.000 C 
BRANCH  25  26
ATOM     26  C   UNL     1      -3.306 -20.046  -6.022  1.00  0.00    -0.000 C 
BRANCH  26  27
ATOM     27  C   UNL     1      -3.204 -20.489  -4.549  1.00  0.00    -0.000 C 
BRANCH  27  28
ATOM     28  C   UNL     1      -1.779 -20.482  -3.967  1.00  0.00    -0.000 C 
BRANCH  28  29
ATOM     29  C   UNL     1      -1.335 -21.805  -3.309  1.00  0.00    -0.000 C 
BRANCH  29  30
ATOM     30  C   UNL     1      -0.651 -21.657  -1.937  1.00  0.00    -0.000 C 
BRANCH  30  31
ATOM     31  C   UNL     1       0.840 -21.306  -2.049  1.00  0.00    -0.003 C 
ATOM     32  C   UNL     1       1.713 -22.511  -1.712  1.00  0.00     0.004 C 
ENDBRANCH  30  31
ENDBRANCH  29  30
ENDBRANCH  28  29
ENDBRANCH  27  28
ENDBRANCH  26  27
ENDBRANCH  25  26
ENDBRANCH  24  25
ENDBRANCH  23  24
ENDBRANCH  22  23
ENDBRANCH  21  22
ENDBRANCH  20  21
ENDBRANCH  19  20
ENDBRANCH  18  19
ENDBRANCH   1  18
TORSDOF 28
ENDMDL
MODEL 4
REMARK VINA RESULT:     9.149      2.820      9.667
REMARK INTER + INTRA:          24.974
REMARK INTER:                  24.427
REMARK INTRA:                   0.547
REMARK UNBOUND:                 0.849
REMARK SMILES CCCCCCCCCCCCCCCCCCCCCCCCCCCCCC(=O)[O-]
REMARK SMILES IDX 16 1 17 2 18 3 19 4 20 5 21 6 22 7 23 8 24 9 25 10 26 11
REMARK SMILES IDX 27 12 28 13 29 14 30 15 31 16 32 17 15 18 14 19 13 20 12 21
REMARK SMILES IDX 11 22 10 23 9 24 8 25 7 26 6 27 5 28 4 29 3 30 2 31 1 32
REMARK H PARENT
REMARK Flexibility Score: inf
ROOT
ATOM      1  C   UNL     1       3.441 -23.737  -4.522  1.00  0.00     0.000 C 
ENDROOT
BRANCH   1   2
ATOM      2  C   UNL     1       3.191 -24.967  -5.419  1.00  0.00     0.000 C 
BRANCH   2   3
ATOM      3  C   UNL     1       4.280 -25.148  -6.487  1.00  0.00     0.000 C 
BRANCH   3   4
ATOM      4  C   UNL     1       3.821 -26.127  -7.576  1.00  0.00     0.000 C 
BRANCH   4   5
ATOM      5  C   UNL     1       2.571 -26.902  -7.133  1.00  0.00     0.000 C 
BRANCH   5   6
ATOM      6  C   UNL     1       2.749 -28.427  -7.249  1.00  0.00     0.000 C 
BRANCH   6   7
ATOM      7  C   UNL     1       1.614 -29.261  -6.617  1.00  0.00     0.000 C 
BRANCH   7   8
ATOM      8  C   UNL     1       2.003 -30.695  -6.201  1.00  0.00     0.000 C 
BRANCH   8   9
ATOM      9  C   UNL     1       1.487 -31.130  -4.817  1.00  0.00     0.000 C 
BRANCH   9  10
ATOM     10  C   UNL     1       0.043 -31.658  -4.860  1.00  0.00     0.000 C 
BRANCH  10  11
ATOM     11  C   UNL     1      -0.841 -31.035  -3.763  1.00  0.00     0.000 C 
BRANCH  11  12
ATOM     12  C   UNL     1      -0.049 -30.532  -2.541  1.00  0.00     0.000 C 
BRANCH  12  13
ATOM     13  C   UNL     1       0.156 -31.627  -1.479  1.00  0.00     0.006 C 
BRANCH  13  14
ATOM     14  C   UNL     1       1.249 -31.255  -0.469  1.00  0.00     0.053 C 
BRANCH  14  15
ATOM     15  C   UNL     1       1.467 -29.773  -0.413  1.00  0.00     0.041 C 
ATOM     16  O   UNL     1       1.790 -29.219   0.671  1.00  0.00    -0.550 OA
ATOM     17  O   UNL     1       1.338 -29.008  -1.565  1.00  0.00    -0.550 OA
ENDBRANCH  14  15
ENDBRANCH  13  14
ENDBRANCH  12  13
ENDBRANCH  11  12
ENDBRANCH  10  11
ENDBRANCH   9  10
ENDBRANCH   8   9
ENDBRANCH   7   8
ENDBRANCH   6   7
ENDBRANCH   5   6
ENDBRANCH   4   5
ENDBRANCH   3   4
ENDBRANCH   2   3
ENDBRANCH   1   2
BRANCH   1  18
ATOM     18  C   UNL     1       2.301 -23.456  -3.527  1.00  0.00     0.000 C 
BRANCH  18  19
ATOM     19  C   UNL     1       2.713 -22.648  -2.282  1.00  0.00     0.000 C 
BRANCH  19  20
ATOM     20  C   UNL     1       1.574 -22.379  -1.279  1.00  0.00     0.000 C 
BRANCH  20  21
ATOM     21  C   UNL     1       0.609 -21.276  -1.752  1.00  0.00     0.000 C 
BRANCH  21  22
ATOM     22  C   UNL     1      -0.529 -21.818  -2.632  1.00  0.00     0.000 C 
BRANCH  22  23
ATOM     23  C   UNL     1      -1.673 -20.807  -2.815  1.00  0.00     0.000 C 
BRANCH  23  24
ATOM     24  C   UNL     1      -2.543 -21.117  -4.045  1.00  0.00    -0.000 C 
BRANCH  24  25
ATOM     25  C   UNL     1      -2.175 -22.455  -4.710  1.00  0.00    -0.000 C 
BRANCH  25  26
ATOM     26  C   UNL     1      -1.548 -22.269  -6.110  1.00  0.00    -0.000 C 
BRANCH  26  27
ATOM     27  C   UNL     1      -2.586 -22.092  -7.235  1.00  0.00    -0.000 C 
BRANCH  27  28
ATOM     28  C   UNL     1      -4.043 -22.372  -6.823  1.00  0.00    -0.000 C 
BRANCH  28  29
ATOM     29  C   UNL     1      -4.753 -21.209  -6.098  1.00  0.00    -0.000 C 
BRANCH  29  30
ATOM     30  C   UNL     1      -5.075 -19.988  -6.979  1.00  0.00    -0.000 C 
BRANCH  30  31
ATOM     31  C   UNL     1      -5.125 -18.676  -6.183  1.00  0.00    -0.003 C 
ATOM     32  C   UNL     1      -5.121 -17.468  -7.116  1.00  0.00     0.004 C 
ENDBRANCH  30  31
ENDBRANCH  29  30
ENDBRANCH  28  29
ENDBRANCH  27  28
ENDBRANCH  26  27
ENDBRANCH  25  26
ENDBRANCH  24  25
ENDBRANCH  23  24
ENDBRANCH  22  23
ENDBRANCH  21  22
ENDBRANCH  20  21
ENDBRANCH  19  20
ENDBRANCH  18  19
ENDBRANCH   1  18
TORSDOF 28
ENDMDL
MODEL 5
REMARK VINA RESULT:     9.254      1.686      2.205
REMARK INTER + INTRA:          25.252
REMARK INTER:                  25.497
REMARK INTRA:                  -0.245
REMARK UNBOUND:                 0.849
REMARK SMILES CCCCCCCCCCCCCCCCCCCCCCCCCCCCCC(=O)[O-]
REMARK SMILES IDX 16 1 17 2 18 3 19 4 20 5 21 6 22 7 23 8 24 9 25 10 26 11
REMARK SMILES IDX 27 12 28 13 29 14 30 15 31 16 32 17 15 18 14 19 13 20 12 21
REMARK SMILES IDX 11 22 10 23 9 24 8 25 7 26 6 27 5 28 4 29 3 30 2 31 1 32
REMARK H PARENT
REMARK Flexibility Score: inf
ROOT
ATOM      1  C   UNL     1       3.734 -25.604  -5.374  1.00  0.00     0.000 C 
ENDROOT
BRANCH   1   2
ATOM      2  C   UNL     1       2.884 -24.338  -5.140  1.00  0.00     0.000 C 
BRANCH   2   3
ATOM      3  C   UNL     1       3.742 -23.099  -4.847  1.00  0.00     0.000 C 
BRANCH   3   4
ATOM      4  C   UNL     1       3.339 -22.457  -3.513  1.00  0.00     0.000 C 
BRANCH   4   5
ATOM      5  C   UNL     1       1.853 -22.698  -3.209  1.00  0.00     0.000 C 
BRANCH   5   6
ATOM      6  C   UNL     1       1.243 -21.590  -2.331  1.00  0.00     0.000 C 
BRANCH   6   7
ATOM      7  C   UNL     1      -0.071 -21.980  -1.618  1.00  0.00     0.000 C 
BRANCH   7   8
ATOM      8  C   UNL     1      -1.365 -21.581  -2.357  1.00  0.00     0.000 C 
BRANCH   8   9
ATOM      9  C   UNL     1      -1.421 -22.001  -3.838  1.00  0.00     0.000 C 
BRANCH   9  10
ATOM     10  C   UNL     1      -2.656 -22.857  -4.168  1.00  0.00     0.000 C 
BRANCH  10  11
ATOM     11  C   UNL     1      -2.947 -22.907  -5.679  1.00  0.00     0.000 C 
BRANCH  11  12
ATOM     12  C   UNL     1      -2.056 -21.967  -6.513  1.00  0.00     0.000 C 
BRANCH  12  13
ATOM     13  C   UNL     1      -2.770 -20.656  -6.890  1.00  0.00     0.006 C 
BRANCH  13  14
ATOM     14  C   UNL     1      -4.267 -20.698  -6.557  1.00  0.00     0.053 C 
BRANCH  14  15
ATOM     15  C   UNL     1      -4.820 -19.324  -6.326  1.00  0.00     0.041 C 
ATOM     16  O   UNL     1      -4.992 -18.897  -5.154  1.00  0.00    -0.550 OA
ATOM     17  O   UNL     1      -5.124 -18.506  -7.408  1.00  0.00    -0.550 OA
ENDBRANCH  14  15
ENDBRANCH  13  14
ENDBRANCH  12  13
ENDBRANCH  11  12
ENDBRANCH  10  11
ENDBRANCH   9  10
ENDBRANCH   8   9
ENDBRANCH   7   8
ENDBRANCH   6   7
ENDBRANCH   5   6
ENDBRANCH   4   5
ENDBRANCH   3   4
ENDBRANCH   2   3
ENDBRANCH   1   2
BRANCH   1  18
ATOM     18  C   UNL     1       3.216 -26.492  -6.520  1.00  0.00     0.000 C 
BRANCH  18  19
ATOM     19  C   UNL     1       3.387 -28.006  -6.294  1.00  0.00     0.000 C 
BRANCH  19  20
ATOM     20  C   UNL     1       2.153 -28.858  -6.647  1.00  0.00     0.000 C 
BRANCH  20  21
ATOM     21  C   UNL     1       2.465 -29.971  -7.663  1.00  0.00     0.000 C 
BRANCH  21  22
ATOM     22  C   UNL     1       3.179 -31.175  -7.028  1.00  0.00     0.000 C 
BRANCH  22  23
ATOM     23  C   UNL     1       2.816 -31.369  -5.546  1.00  0.00     0.000 C 
BRANCH  23  24
ATOM     24  C   UNL     1       1.309 -31.211  -5.283  1.00  0.00    -0.000 C 
BRANCH  24  25
ATOM     25  C   UNL     1       0.451 -32.123  -6.177  1.00  0.00    -0.000 C 
BRANCH  25  26
ATOM     26  C   UNL     1      -1.063 -31.950  -5.921  1.00  0.00    -0.000 C 
BRANCH  26  27
ATOM     27  C   UNL     1      -1.395 -30.842  -4.903  1.00  0.00    -0.000 C 
BRANCH  27  28
ATOM     28  C   UNL     1      -2.836 -30.870  -4.361  1.00  0.00    -0.000 C 
BRANCH  28  29
ATOM     29  C   UNL     1      -3.651 -32.125  -4.736  1.00  0.00    -0.000 C 
BRANCH  29  30
ATOM     30  C   UNL     1      -4.561 -31.971  -5.968  1.00  0.00    -0.000 C 
BRANCH  30  31
ATOM     31  C   UNL     1      -3.829 -31.375  -7.180  1.00  0.00    -0.003 C 
ATOM     32  C   UNL     1      -4.710 -30.367  -7.911  1.00  0.00     0.004 C 
ENDBRANCH  30  31
ENDBRANCH  29  30
ENDBRANCH  28  29
ENDBRANCH  27  28
ENDBRANCH  26  27
ENDBRANCH  25  26
ENDBRANCH  24  25
ENDBRANCH  23  24
ENDBRANCH  22  23
ENDBRANCH  21  22
ENDBRANCH  20  21
ENDBRANCH  19  20
ENDBRANCH  18  19
ENDBRANCH   1  18
TORSDOF 28
ENDMDL
MODEL 6
REMARK VINA RESULT:     9.386      2.727      9.721
REMARK INTER + INTRA:          25.598
REMARK INTER:                  24.685
REMARK INTRA:                   0.914
REMARK UNBOUND:                 0.849
REMARK SMILES CCCCCCCCCCCCCCCCCCCCCCCCCCCCCC(=O)[O-]
REMARK SMILES IDX 16 1 17 2 18 3 19 4 20 5 21 6 22 7 23 8 24 9 25 10 26 11
REMARK SMILES IDX 27 12 28 13 29 14 30 15 31 16 32 17 15 18 14 19 13 20 12 21
REMARK SMILES IDX 11 22 10 23 9 24 8 25 7 26 6 27 5 28 4 29 3 30 2 31 1 32
REMARK H PARENT
REMARK Flexibility Score: inf
ROOT
ATOM      1  C   UNL     1       3.612 -24.310  -4.783  1.00  0.00     0.000 C 
ENDROOT
BRANCH   1   2
ATOM      2  C   UNL     1       3.913 -25.368  -5.866  1.00  0.00     0.000 C 
BRANCH   2   3
ATOM      3  C   UNL     1       3.216 -26.708  -5.589  1.00  0.00     0.000 C 
BRANCH   3   4
ATOM      4  C   UNL     1       2.684 -27.327  -6.888  1.00  0.00     0.000 C 
BRANCH   4   5
ATOM      5  C   UNL     1       1.997 -28.674  -6.620  1.00  0.00     0.000 C 
BRANCH   5   6
ATOM      6  C   UNL     1       2.750 -29.858  -7.254  1.00  0.00     0.000 C 
BRANCH   6   7
ATOM      7  C   UNL     1       2.547 -31.211  -6.537  1.00  0.00     0.000 C 
BRANCH   7   8
ATOM      8  C   UNL     1       1.222 -31.934  -6.859  1.00  0.00     0.000 C 
BRANCH   8   9
ATOM      9  C   UNL     1       0.279 -32.125  -5.656  1.00  0.00     0.000 C 
BRANCH   9  10
ATOM     10  C   UNL     1      -1.128 -31.555  -5.908  1.00  0.00     0.000 C 
BRANCH  10  11
ATOM     11  C   UNL     1      -2.091 -31.842  -4.742  1.00  0.00     0.000 C 
BRANCH  11  12
ATOM     12  C   UNL     1      -1.530 -31.450  -3.362  1.00  0.00     0.000 C 
BRANCH  12  13
ATOM     13  C   UNL     1      -0.268 -30.574  -3.466  1.00  0.00     0.006 C 
BRANCH  13  14
ATOM     14  C   UNL     1       0.906 -31.157  -2.669  1.00  0.00     0.053 C 
BRANCH  14  15
ATOM     15  C   UNL     1       0.803 -30.825  -1.211  1.00  0.00     0.041 C 
ATOM     16  O   UNL     1       1.122 -29.679  -0.796  1.00  0.00    -0.550 OA
ATOM     17  O   UNL     1       0.333 -31.776  -0.314  1.00  0.00    -0.550 OA
ENDBRANCH  14  15
ENDBRANCH  13  14
ENDBRANCH  12  13
ENDBRANCH  11  12
ENDBRANCH  10  11
ENDBRANCH   9  10
ENDBRANCH   8   9
ENDBRANCH   7   8
ENDBRANCH   6   7
ENDBRANCH   5   6
ENDBRANCH   4   5
ENDBRANCH   3   4
ENDBRANCH   2   3
ENDBRANCH   1   2
BRANCH   1  18
ATOM     18  C   UNL     1       2.144 -23.848  -4.763  1.00  0.00     0.000 C 
BRANCH  18  19
ATOM     19  C   UNL     1       1.501 -23.677  -6.152  1.00  0.00     0.000 C 
BRANCH  19  20
ATOM     20  C   UNL     1       0.162 -22.915  -6.157  1.00  0.00     0.000 C 
BRANCH  20  21
ATOM     21  C   UNL     1      -0.682 -23.195  -7.414  1.00  0.00     0.000 C 
BRANCH  21  22
ATOM     22  C   UNL     1      -1.838 -22.197  -7.591  1.00  0.00     0.000 C 
BRANCH  22  23
ATOM     23  C   UNL     1      -3.073 -22.560  -6.749  1.00  0.00     0.000 C 
BRANCH  23  24
ATOM     24  C   UNL     1      -4.364 -21.928  -7.294  1.00  0.00    -0.000 C 
BRANCH  24  25
ATOM     25  C   UNL     1      -4.998 -20.929  -6.311  1.00  0.00    -0.000 C 
BRANCH  25  26
ATOM     26  C   UNL     1      -4.083 -19.716  -6.027  1.00  0.00    -0.000 C 
BRANCH  26  27
ATOM     27  C   UNL     1      -2.722 -20.098  -5.412  1.00  0.00    -0.000 C 
BRANCH  27  28
ATOM     28  C   UNL     1      -2.793 -21.119  -4.262  1.00  0.00    -0.000 C 
BRANCH  28  29
ATOM     29  C   UNL     1      -1.448 -21.776  -3.888  1.00  0.00    -0.000 C 
BRANCH  29  30
ATOM     30  C   UNL     1      -0.864 -21.345  -2.530  1.00  0.00    -0.000 C 
BRANCH  30  31
ATOM     31  C   UNL     1       0.512 -21.965  -2.248  1.00  0.00    -0.003 C 
ATOM     32  C   UNL     1       0.933 -21.730  -0.801  1.00  0.00     0.004 C 
ENDBRANCH  30  31
ENDBRANCH  29  30
ENDBRANCH  28  29
ENDBRANCH  27  28
ENDBRANCH  26  27
ENDBRANCH  25  26
ENDBRANCH  24  25
ENDBRANCH  23  24
ENDBRANCH  22  23
ENDBRANCH  21  22
ENDBRANCH  20  21
ENDBRANCH  19  20
ENDBRANCH  18  19
ENDBRANCH   1  18
TORSDOF 28
ENDMDL
MODEL 7
REMARK VINA RESULT:     9.874      1.357      2.437
REMARK INTER + INTRA:          26.885
REMARK INTER:                  25.969
REMARK INTRA:                   0.916
REMARK UNBOUND:                 0.849
REMARK SMILES CCCCCCCCCCCCCCCCCCCCCCCCCCCCCC(=O)[O-]
REMARK SMILES IDX 16 1 17 2 18 3 19 4 20 5 21 6 22 7 23 8 24 9 25 10 26 11
REMARK SMILES IDX 27 12 28 13 29 14 30 15 31 16 32 17 15 18 14 19 13 20 12 21
REMARK SMILES IDX 11 22 10 23 9 24 8 25 7 26 6 27 5 28 4 29 3 30 2 31 1 32
REMARK H PARENT
REMARK Flexibility Score: inf
ROOT
ATOM      1  C   UNL     1       3.747 -24.811  -4.794  1.00  0.00     0.000 C 
ENDROOT
BRANCH   1   2
ATOM      2  C   UNL     1       2.629 -23.817  -4.411  1.00  0.00     0.000 C 
BRANCH   2   3
ATOM      3  C   UNL     1       3.036 -22.892  -3.255  1.00  0.00     0.000 C 
BRANCH   3   4
ATOM      4  C   UNL     1       1.850 -22.636  -2.316  1.00  0.00     0.000 C 
BRANCH   4   5
ATOM      5  C   UNL     1       0.522 -22.637  -3.087  1.00  0.00     0.000 C 
BRANCH   5   6
ATOM      6  C   UNL     1      -0.490 -21.623  -2.522  1.00  0.00     0.000 C 
BRANCH   6   7
ATOM      7  C   UNL     1      -1.784 -21.471  -3.351  1.00  0.00     0.000 C 
BRANCH   7   8
ATOM      8  C   UNL     1      -2.027 -20.066  -3.941  1.00  0.00     0.000 C 
BRANCH   8   9
ATOM      9  C   UNL     1      -2.504 -20.052  -5.406  1.00  0.00     0.000 C 
BRANCH   9  10
ATOM     10  C   UNL     1      -3.728 -19.147  -5.624  1.00  0.00     0.000 C 
BRANCH  10  11
ATOM     11  C   UNL     1      -4.859 -19.866  -6.382  1.00  0.00     0.000 C 
BRANCH  11  12
ATOM     12  C   UNL     1      -4.982 -21.363  -6.038  1.00  0.00     0.000 C 
BRANCH  12  13
ATOM     13  C   UNL     1      -4.712 -22.271  -7.252  1.00  0.00     0.006 C 
BRANCH  13  14
ATOM     14  C   UNL     1      -3.267 -22.153  -7.752  1.00  0.00     0.053 C 
BRANCH  14  15
ATOM     15  C   UNL     1      -2.290 -22.683  -6.746  1.00  0.00     0.041 C 
ATOM     16  O   UNL     1      -1.102 -22.932  -7.084  1.00  0.00    -0.550 OA
ATOM     17  O   UNL     1      -2.687 -22.880  -5.429  1.00  0.00    -0.550 OA
ENDBRANCH  14  15
ENDBRANCH  13  14
ENDBRANCH  12  13
ENDBRANCH  11  12
ENDBRANCH  10  11
ENDBRANCH   9  10
ENDBRANCH   8   9
ENDBRANCH   7   8
ENDBRANCH   6   7
ENDBRANCH   5   6
ENDBRANCH   4   5
ENDBRANCH   3   4
ENDBRANCH   2   3
ENDBRANCH   1   2
BRANCH   1  18
ATOM     18  C   UNL     1       3.603 -25.383  -6.215  1.00  0.00     0.000 C 
BRANCH  18  19
ATOM     19  C   UNL     1       3.319 -26.895  -6.279  1.00  0.00     0.000 C 
BRANCH  19  20
ATOM     20  C   UNL     1       2.323 -27.322  -7.374  1.00  0.00     0.000 C 
BRANCH  20  21
ATOM     21  C   UNL     1       2.219 -28.851  -7.525  1.00  0.00     0.000 C 
BRANCH  21  22
ATOM     22  C   UNL     1       3.503 -29.581  -7.100  1.00  0.00     0.000 C 
BRANCH  22  23
ATOM     23  C   UNL     1       3.435 -31.098  -7.343  1.00  0.00     0.000 C 
BRANCH  23  24
ATOM     24  C   UNL     1       2.757 -31.849  -6.184  1.00  0.00    -0.000 C 
BRANCH  24  25
ATOM     25  C   UNL     1       1.266 -32.124  -6.446  1.00  0.00    -0.000 C 
BRANCH  25  26
ATOM     26  C   UNL     1       0.355 -31.556  -5.334  1.00  0.00    -0.000 C 
BRANCH  26  27
ATOM     27  C   UNL     1      -1.149 -31.725  -5.620  1.00  0.00    -0.000 C 
BRANCH  27  28
ATOM     28  C   UNL     1      -2.050 -31.738  -4.372  1.00  0.00    -0.000 C 
BRANCH  28  29
ATOM     29  C   UNL     1      -1.622 -30.772  -3.247  1.00  0.00    -0.000 C 
BRANCH  29  30
ATOM     30  C   UNL     1      -0.737 -31.395  -2.152  1.00  0.00    -0.000 C 
BRANCH  30  31
ATOM     31  C   UNL     1       0.704 -30.863  -2.176  1.00  0.00    -0.003 C 
ATOM     32  C   UNL     1       1.019 -30.076  -0.907  1.00  0.00     0.004 C 
ENDBRANCH  30  31
ENDBRANCH  29  30
ENDBRANCH  28  29
ENDBRANCH  27  28
ENDBRANCH  26  27
ENDBRANCH  25  26
ENDBRANCH  24  25
ENDBRANCH  23  24
ENDBRANCH  22  23
ENDBRANCH  21  22
ENDBRANCH  20  21
ENDBRANCH  19  20
ENDBRANCH  18  19
ENDBRANCH   1  18
TORSDOF 28
ENDMDL
MODEL 8
REMARK VINA RESULT:    10.176      2.519      9.652
REMARK INTER + INTRA:          27.683
REMARK INTER:                  28.038
REMARK INTRA:                  -0.355
REMARK UNBOUND:                 0.849
REMARK SMILES CCCCCCCCCCCCCCCCCCCCCCCCCCCCCC(=O)[O-]
REMARK SMILES IDX 16 1 17 2 18 3 19 4 20 5 21 6 22 7 23 8 24 9 25 10 26 11
REMARK SMILES IDX 27 12 28 13 29 14 30 15 31 16 32 17 15 18 14 19 13 20 12 21
REMARK SMILES IDX 11 22 10 23 9 24 8 25 7 26 6 27 5 28 4 29 3 30 2 31 1 32
REMARK H PARENT
REMARK Flexibility Score: inf
ROOT
ATOM      1  C   UNL     1       2.032 -25.463  -7.194  1.00  0.00     0.000 C 
ENDROOT
BRANCH   1   2
ATOM      2  C   UNL     1       1.451 -26.889  -7.294  1.00  0.00     0.000 C 
BRANCH   2   3
ATOM      3  C   UNL     1       2.514 -27.932  -7.669  1.00  0.00     0.000 C 
BRANCH   3   4
ATOM      4  C   UNL     1       2.422 -29.159  -6.753  1.00  0.00     0.000 C 
BRANCH   4   5
ATOM      5  C   UNL     1       2.426 -30.461  -7.569  1.00  0.00     0.000 C 
BRANCH   5   6
ATOM      6  C   UNL     1       1.707 -31.614  -6.845  1.00  0.00     0.000 C 
BRANCH   6   7
ATOM      7  C   UNL     1       0.347 -32.013  -7.458  1.00  0.00     0.000 C 
BRANCH   7   8
ATOM      8  C   UNL     1      -0.893 -31.453  -6.731  1.00  0.00     0.000 C 
BRANCH   8   9
ATOM      9  C   UNL     1      -2.228 -32.119  -7.118  1.00  0.00     0.000 C 
BRANCH   9  10
ATOM     10  C   UNL     1      -3.430 -31.171  -6.972  1.00  0.00     0.000 C 
BRANCH  10  11
ATOM     11  C   UNL     1      -3.785 -30.899  -5.498  1.00  0.00     0.000 C 
BRANCH  11  12
ATOM     12  C   UNL     1      -2.883 -31.644  -4.496  1.00  0.00     0.000 C 
BRANCH  12  13
ATOM     13  C   UNL     1      -2.174 -30.689  -3.517  1.00  0.00     0.006 C 
BRANCH  13  14
ATOM     14  C   UNL     1      -1.188 -31.428  -2.602  1.00  0.00     0.053 C 
BRANCH  14  15
ATOM     15  C   UNL     1       0.217 -30.947  -2.802  1.00  0.00     0.041 C 
ATOM     16  O   UNL     1       0.839 -30.391  -1.858  1.00  0.00    -0.550 OA
ATOM     17  O   UNL     1       0.849 -31.136  -4.025  1.00  0.00    -0.550 OA
ENDBRANCH  14  15
ENDBRANCH  13  14
ENDBRANCH  12  13
ENDBRANCH  11  12
ENDBRANCH  10  11
ENDBRANCH   9  10
ENDBRANCH   8   9
ENDBRANCH   7   8
ENDBRANCH   6   7
ENDBRANCH   5   6
ENDBRANCH   4   5
ENDBRANCH   3   4
ENDBRANCH   2   3
ENDBRANCH   1   2
BRANCH   1  18
ATOM     18  C   UNL     1       1.121 -24.477  -6.441  1.00  0.00     0.000 C 
BRANCH  18  19
ATOM     19  C   UNL     1      -0.073 -23.946  -7.256  1.00  0.00     0.000 C 
BRANCH  19  20
ATOM     20  C   UNL     1      -0.581 -22.555  -6.831  1.00  0.00     0.000 C 
BRANCH  20  21
ATOM     21  C   UNL     1      -1.988 -22.241  -7.371  1.00  0.00     0.000 C 
BRANCH  21  22
ATOM     22  C   UNL     1      -3.088 -22.426  -6.313  1.00  0.00     0.000 C 
BRANCH  22  23
ATOM     23  C   UNL     1      -3.241 -21.203  -5.393  1.00  0.00     0.000 C 
BRANCH  23  24
ATOM     24  C   UNL     1      -1.923 -20.817  -4.701  1.00  0.00    -0.000 C 
BRANCH  24  25
ATOM     25  C   UNL     1      -1.803 -21.404  -3.283  1.00  0.00    -0.000 C 
BRANCH  25  26
ATOM     26  C   UNL     1      -0.454 -22.120  -3.051  1.00  0.00    -0.000 C 
BRANCH  26  27
ATOM     27  C   UNL     1       0.306 -21.621  -1.807  1.00  0.00    -0.000 C 
BRANCH  27  28
ATOM     28  C   UNL     1       1.829 -21.843  -1.844  1.00  0.00    -0.000 C 
BRANCH  28  29
ATOM     29  C   UNL     1       2.283 -23.152  -2.524  1.00  0.00    -0.000 C 
BRANCH  29  30
ATOM     30  C   UNL     1       3.297 -22.977  -3.669  1.00  0.00    -0.000 C 
BRANCH  30  31
ATOM     31  C   UNL     1       3.547 -24.277  -4.448  1.00  0.00    -0.003 C 
ATOM     32  C   UNL     1       4.511 -24.043  -5.607  1.00  0.00     0.004 C 
ENDBRANCH  30  31
ENDBRANCH  29  30
ENDBRANCH  28  29
ENDBRANCH  27  28
ENDBRANCH  26  27
ENDBRANCH  25  26
ENDBRANCH  24  25
ENDBRANCH  23  24
ENDBRANCH  22  23
ENDBRANCH  21  22
ENDBRANCH  20  21
ENDBRANCH  19  20
ENDBRANCH  18  19
ENDBRANCH   1  18
TORSDOF 28
ENDMDL
MODEL 9
REMARK VINA RESULT:    10.214      2.788      9.532
REMARK INTER + INTRA:          27.782
REMARK INTER:                  27.510
REMARK INTRA:                   0.272
REMARK UNBOUND:                 0.849
REMARK SMILES CCCCCCCCCCCCCCCCCCCCCCCCCCCCCC(=O)[O-]
REMARK SMILES IDX 16 1 17 2 18 3 19 4 20 5 21 6 22 7 23 8 24 9 25 10 26 11
REMARK SMILES IDX 27 12 28 13 29 14 30 15 31 16 32 17 15 18 14 19 13 20 12 21
REMARK SMILES IDX 11 22 10 23 9 24 8 25 7 26 6 27 5 28 4 29 3 30 2 31 1 32
REMARK H PARENT
REMARK Flexibility Score: inf
ROOT
ATOM      1  C   UNL     1       3.534 -23.648  -4.419  1.00  0.00     0.000 C 
ENDROOT
BRANCH   1   2
ATOM      2  C   UNL     1       3.454 -25.045  -5.071  1.00  0.00     0.000 C 
BRANCH   2   3
ATOM      3  C   UNL     1       4.124 -25.089  -6.452  1.00  0.00     0.000 C 
BRANCH   3   4
ATOM      4  C   UNL     1       3.368 -26.031  -7.397  1.00  0.00     0.000 C 
BRANCH   4   5
ATOM      5  C   UNL     1       2.470 -26.999  -6.613  1.00  0.00     0.000 C 
BRANCH   5   6
ATOM      6  C   UNL     1       2.469 -28.419  -7.208  1.00  0.00     0.000 C 
BRANCH   6   7
ATOM      7  C   UNL     1       2.050 -29.533  -6.224  1.00  0.00     0.000 C 
BRANCH   7   8
ATOM      8  C   UNL     1       2.211 -30.974  -6.754  1.00  0.00     0.000 C 
BRANCH   8   9
ATOM      9  C   UNL     1       1.626 -32.068  -5.841  1.00  0.00     0.000 C 
BRANCH   9  10
ATOM     10  C   UNL     1       0.089 -32.034  -5.781  1.00  0.00     0.000 C 
BRANCH  10  11
ATOM     11  C   UNL     1      -0.432 -31.011  -4.755  1.00  0.00     0.000 C 
BRANCH  11  12
ATOM     12  C   UNL     1      -0.346 -31.497  -3.296  1.00  0.00     0.000 C 
BRANCH  12  13
ATOM     13  C   UNL     1       0.859 -30.901  -2.545  1.00  0.00     0.006 C 
BRANCH  13  14
ATOM     14  C   UNL     1       0.588 -30.754  -1.042  1.00  0.00     0.053 C 
BRANCH  14  15
ATOM     15  C   UNL     1       1.295 -29.565  -0.467  1.00  0.00     0.041 C 
ATOM     16  O   UNL     1       1.665 -28.622  -1.216  1.00  0.00    -0.550 OA
ATOM     17  O   UNL     1       1.526 -29.488   0.901  1.00  0.00    -0.550 OA
ENDBRANCH  14  15
ENDBRANCH  13  14
ENDBRANCH  12  13
ENDBRANCH  11  12
ENDBRANCH  10  11
ENDBRANCH   9  10
ENDBRANCH   8   9
ENDBRANCH   7   8
ENDBRANCH   6   7
ENDBRANCH   5   6
ENDBRANCH   4   5
ENDBRANCH   3   4
ENDBRANCH   2   3
ENDBRANCH   1   2
BRANCH   1  18
ATOM     18  C   UNL     1       2.244 -23.232  -3.691  1.00  0.00     0.000 C 
BRANCH  18  19
ATOM     19  C   UNL     1       2.459 -22.375  -2.429  1.00  0.00     0.000 C 
BRANCH  19  20
ATOM     20  C   UNL     1       1.396 -22.561  -1.330  1.00  0.00     0.000 C 
BRANCH  20  21
ATOM     21  C   UNL     1       0.358 -21.424  -1.303  1.00  0.00     0.000 C 
BRANCH  21  22
ATOM     22  C   UNL     1      -0.272 -21.159  -2.680  1.00  0.00     0.000 C 
BRANCH  22  23
ATOM     23  C   UNL     1      -1.791 -21.397  -2.696  1.00  0.00     0.000 C 
BRANCH  23  24
ATOM     24  C   UNL     1      -2.331 -21.666  -4.111  1.00  0.00    -0.000 C 
BRANCH  24  25
ATOM     25  C   UNL     1      -2.307 -20.412  -5.004  1.00  0.00    -0.000 C 
BRANCH  25  26
ATOM     26  C   UNL     1      -3.692 -19.737  -5.114  1.00  0.00    -0.000 C 
BRANCH  26  27
ATOM     27  C   UNL     1      -4.422 -20.037  -6.438  1.00  0.00    -0.000 C 
BRANCH  27  28
ATOM     28  C   UNL     1      -4.840 -21.507  -6.630  1.00  0.00    -0.000 C 
BRANCH  28  29
ATOM     29  C   UNL     1      -3.814 -22.385  -7.376  1.00  0.00    -0.000 C 
BRANCH  29  30
ATOM     30  C   UNL     1      -2.523 -22.691  -6.593  1.00  0.00    -0.000 C 
BRANCH  30  31
ATOM     31  C   UNL     1      -1.252 -22.344  -7.382  1.00  0.00    -0.003 C 
ATOM     32  C   UNL     1      -0.140 -23.350  -7.099  1.00  0.00     0.004 C 
ENDBRANCH  30  31
ENDBRANCH  29  30
ENDBRANCH  28  29
ENDBRANCH  27  28
ENDBRANCH  26  27
ENDBRANCH  25  26
ENDBRANCH  24  25
ENDBRANCH  23  24
ENDBRANCH  22  23
ENDBRANCH  21  22
ENDBRANCH  20  21
ENDBRANCH  19  20
ENDBRANCH  18  19
ENDBRANCH   1  18
TORSDOF 28
ENDMDL
