MODEL 1
REMARK VINA RESULT:    -5.046      0.000      0.000
REMARK INTER + INTRA:         -17.584
REMARK INTER:                 -13.305
REMARK INTRA:                  -4.279
REMARK UNBOUND:                -4.279
REMARK SMILES CCCCCCCCCCCCCCCCCCCCCCCCCCCCCC(=O)[O-]
REMARK SMILES IDX 16 1 17 2 18 3 19 4 20 5 21 6 22 7 23 8 24 9 25 10 26 11
REMARK SMILES IDX 27 12 28 13 29 14 30 15 31 16 32 17 15 18 14 19 13 20 12 21
REMARK SMILES IDX 11 22 10 23 9 24 8 25 7 26 6 27 5 28 4 29 3 30 2 31 1 32
REMARK H PARENT
REMARK Flexibility Score: inf
ROOT
ATOM      1  C   UNL     1      18.330  31.937  57.042  1.00  0.00     0.000 C 
ENDROOT
BRANCH   1   2
ATOM      2  C   UNL     1      17.559  32.383  58.293  1.00  0.00     0.000 C 
BRANCH   2   3
ATOM      3  C   UNL     1      16.814  31.201  58.923  1.00  0.00     0.000 C 
BRANCH   3   4
ATOM      4  C   UNL     1      17.235  30.997  60.385  1.00  0.00     0.000 C 
BRANCH   4   5
ATOM      5  C   UNL     1      16.575  29.753  61.007  1.00  0.00     0.000 C 
BRANCH   5   6
ATOM      6  C   UNL     1      17.349  29.236  62.235  1.00  0.00     0.000 C 
BRANCH   6   7
ATOM      7  C   UNL     1      16.509  28.294  63.122  1.00  0.00     0.000 C 
BRANCH   7   8
ATOM      8  C   UNL     1      15.073  28.788  63.388  1.00  0.00     0.000 C 
BRANCH   8   9
ATOM      9  C   UNL     1      13.954  27.916  62.787  1.00  0.00     0.000 C 
BRANCH   9  10
ATOM     10  C   UNL     1      12.864  28.689  62.016  1.00  0.00     0.000 C 
BRANCH  10  11
ATOM     11  C   UNL     1      13.214  30.151  61.670  1.00  0.00     0.000 C 
BRANCH  11  12
ATOM     12  C   UNL     1      13.331  30.454  60.166  1.00  0.00     0.000 C 
BRANCH  12  13
ATOM     13  C   UNL     1      12.353  29.627  59.314  1.00  0.00     0.006 C 
BRANCH  13  14
ATOM     14  C   UNL     1      11.103  30.428  58.933  1.00  0.00     0.053 C 
BRANCH  14  15
ATOM     15  C   UNL     1       9.870  29.879  59.580  1.00  0.00     0.041 C 
ATOM     16  O   UNL     1       9.882  28.736  60.109  1.00  0.00    -0.550 OA
ATOM     17  O   UNL     1       8.694  30.620  59.576  1.00  0.00    -0.550 OA
ENDBRANCH  14  15
ENDBRANCH  13  14
ENDBRANCH  12  13
ENDBRANCH  11  12
ENDBRANCH  10  11
ENDBRANCH   9  10
ENDBRANCH   8   9
ENDBRANCH   7   8
ENDBRANCH   6   7
ENDBRANCH   5   6
ENDBRANCH   4   5
ENDBRANCH   3   4
ENDBRANCH   2   3
ENDBRANCH   1   2
BRANCH   1  18
ATOM     18  C   UNL     1      18.163  32.914  55.860  1.00  0.00     0.000 C 
BRANCH  18  19
ATOM     19  C   UNL     1      17.958  32.213  54.503  1.00  0.00     0.000 C 
BRANCH  19  20
ATOM     20  C   UNL     1      17.808  30.683  54.582  1.00  0.00     0.000 C 
BRANCH  20  21
ATOM     21  C   UNL     1      16.376  30.151  54.357  1.00  0.00     0.000 C 
BRANCH  21  22
ATOM     22  C   UNL     1      15.484  30.125  55.611  1.00  0.00     0.000 C 
BRANCH  22  23
ATOM     23  C   UNL     1      14.252  31.039  55.486  1.00  0.00     0.000 C 
BRANCH  23  24
ATOM     24  C   UNL     1      13.955  31.812  56.782  1.00  0.00    -0.000 C 
BRANCH  24  25
ATOM     25  C   UNL     1      14.423  33.276  56.710  1.00  0.00    -0.000 C 
BRANCH  25  26
ATOM     26  C   UNL     1      14.148  33.922  55.343  1.00  0.00    -0.000 C 
BRANCH  26  27
ATOM     27  C   UNL     1      15.303  34.822  54.866  1.00  0.00    -0.000 C 
BRANCH  27  28
ATOM     28  C   UNL     1      15.354  36.158  55.626  1.00  0.00    -0.000 C 
BRANCH  28  29
ATOM     29  C   UNL     1      16.787  36.692  55.772  1.00  0.00    -0.000 C 
BRANCH  29  30
ATOM     30  C   UNL     1      16.977  37.400  57.119  1.00  0.00    -0.000 C 
BRANCH  30  31
ATOM     31  C   UNL     1      17.671  38.755  56.934  1.00  0.00    -0.003 C 
ATOM     32  C   UNL     1      18.718  38.691  55.827  1.00  0.00     0.004 C 
ENDBRANCH  30  31
ENDBRANCH  29  30
ENDBRANCH  28  29
ENDBRANCH  27  28
ENDBRANCH  26  27
ENDBRANCH  25  26
ENDBRANCH  24  25
ENDBRANCH  23  24
ENDBRANCH  22  23
ENDBRANCH  21  22
ENDBRANCH  20  21
ENDBRANCH  19  20
ENDBRANCH  18  19
ENDBRANCH   1  18
TORSDOF 28
ENDMDL
MODEL 2
REMARK VINA RESULT:    -4.990      1.090      2.671
REMARK INTER + INTRA:         -17.436
REMARK INTER:                 -13.091
REMARK INTRA:                  -4.345
REMARK UNBOUND:                -4.279
REMARK SMILES CCCCCCCCCCCCCCCCCCCCCCCCCCCCCC(=O)[O-]
REMARK SMILES IDX 16 1 17 2 18 3 19 4 20 5 21 6 22 7 23 8 24 9 25 10 26 11
REMARK SMILES IDX 27 12 28 13 29 14 30 15 31 16 32 17 15 18 14 19 13 20 12 21
REMARK SMILES IDX 11 22 10 23 9 24 8 25 7 26 6 27 5 28 4 29 3 30 2 31 1 32
REMARK H PARENT
REMARK Flexibility Score: inf
ROOT
ATOM      1  C   UNL     1      13.620  31.615  57.767  1.00  0.00     0.000 C 
ENDROOT
BRANCH   1   2
ATOM      2  C   UNL     1      14.666  32.739  57.754  1.00  0.00     0.000 C 
BRANCH   2   3
ATOM      3  C   UNL     1      16.056  32.192  58.099  1.00  0.00     0.000 C 
BRANCH   3   4
ATOM      4  C   UNL     1      15.954  30.865  58.865  1.00  0.00     0.000 C 
BRANCH   4   5
ATOM      5  C   UNL     1      16.854  30.850  60.113  1.00  0.00     0.000 C 
BRANCH   5   6
ATOM      6  C   UNL     1      16.521  29.678  61.056  1.00  0.00     0.000 C 
BRANCH   6   7
ATOM      7  C   UNL     1      16.699  30.036  62.546  1.00  0.00     0.000 C 
BRANCH   7   8
ATOM      8  C   UNL     1      15.590  29.487  63.466  1.00  0.00     0.000 C 
BRANCH   8   9
ATOM      9  C   UNL     1      15.155  28.037  63.180  1.00  0.00     0.000 C 
BRANCH   9  10
ATOM     10  C   UNL     1      13.675  27.864  62.781  1.00  0.00     0.000 C 
BRANCH  10  11
ATOM     11  C   UNL     1      13.000  29.121  62.195  1.00  0.00     0.000 C 
BRANCH  11  12
ATOM     12  C   UNL     1      13.050  29.232  60.661  1.00  0.00     0.000 C 
BRANCH  12  13
ATOM     13  C   UNL     1      11.708  28.886  59.995  1.00  0.00     0.006 C 
BRANCH  13  14
ATOM     14  C   UNL     1      11.045  30.115  59.363  1.00  0.00     0.053 C 
BRANCH  14  15
ATOM     15  C   UNL     1       9.616  29.853  59.000  1.00  0.00     0.041 C 
ATOM     16  O   UNL     1       9.285  28.768  58.455  1.00  0.00    -0.550 OA
ATOM     17  O   UNL     1       8.649  30.822  59.242  1.00  0.00    -0.550 OA
ENDBRANCH  14  15
ENDBRANCH  13  14
ENDBRANCH  12  13
ENDBRANCH  11  12
ENDBRANCH  10  11
ENDBRANCH   9  10
ENDBRANCH   8   9
ENDBRANCH   7   8
ENDBRANCH   6   7
ENDBRANCH   5   6
ENDBRANCH   4   5
ENDBRANCH   3   4
ENDBRANCH   2   3
ENDBRANCH   1   2
BRANCH   1  18
ATOM     18  C   UNL     1      13.498  30.898  56.407  1.00  0.00     0.000 C 
BRANCH  18  19
ATOM     19  C   UNL     1      13.685  31.834  55.197  1.00  0.00     0.000 C 
BRANCH  19  20
ATOM     20  C   UNL     1      14.673  31.324  54.132  1.00  0.00     0.000 C 
BRANCH  20  21
ATOM     21  C   UNL     1      15.661  30.242  54.618  1.00  0.00     0.000 C 
BRANCH  21  22
ATOM     22  C   UNL     1      16.700  29.789  53.577  1.00  0.00     0.000 C 
BRANCH  22  23
ATOM     23  C   UNL     1      18.132  30.226  53.933  1.00  0.00     0.000 C 
BRANCH  23  24
ATOM     24  C   UNL     1      18.218  30.911  55.307  1.00  0.00    -0.000 C 
BRANCH  24  25
ATOM     25  C   UNL     1      18.594  32.398  55.196  1.00  0.00    -0.000 C 
BRANCH  25  26
ATOM     26  C   UNL     1      18.340  32.973  53.793  1.00  0.00    -0.000 C 
BRANCH  26  27
ATOM     27  C   UNL     1      17.224  34.034  53.777  1.00  0.00    -0.000 C 
BRANCH  27  28
ATOM     28  C   UNL     1      16.666  34.315  55.183  1.00  0.00    -0.000 C 
BRANCH  28  29
ATOM     29  C   UNL     1      15.469  35.278  55.153  1.00  0.00    -0.000 C 
BRANCH  29  30
ATOM     30  C   UNL     1      15.635  36.396  56.188  1.00  0.00    -0.000 C 
BRANCH  30  31
ATOM     31  C   UNL     1      17.080  36.907  56.219  1.00  0.00    -0.003 C 
ATOM     32  C   UNL     1      17.243  38.041  57.226  1.00  0.00     0.004 C 
ENDBRANCH  30  31
ENDBRANCH  29  30
ENDBRANCH  28  29
ENDBRANCH  27  28
ENDBRANCH  26  27
ENDBRANCH  25  26
ENDBRANCH  24  25
ENDBRANCH  23  24
ENDBRANCH  22  23
ENDBRANCH  21  22
ENDBRANCH  20  21
ENDBRANCH  19  20
ENDBRANCH  18  19
ENDBRANCH   1  18
TORSDOF 28
ENDMDL
MODEL 3
REMARK VINA RESULT:    -4.881      2.901      5.402
REMARK INTER + INTRA:         -17.151
REMARK INTER:                 -13.980
REMARK INTRA:                  -3.171
REMARK UNBOUND:                -4.279
REMARK SMILES CCCCCCCCCCCCCCCCCCCCCCCCCCCCCC(=O)[O-]
REMARK SMILES IDX 16 1 17 2 18 3 19 4 20 5 21 6 22 7 23 8 24 9 25 10 26 11
REMARK SMILES IDX 27 12 28 13 29 14 30 15 31 16 32 17 15 18 14 19 13 20 12 21
REMARK SMILES IDX 11 22 10 23 9 24 8 25 7 26 6 27 5 28 4 29 3 30 2 31 1 32
REMARK H PARENT
REMARK Flexibility Score: inf
ROOT
ATOM      1  C   UNL     1      14.960  29.242  61.784  1.00  0.00     0.000 C 
ENDROOT
BRANCH   1   2
ATOM      2  C   UNL     1      13.977  30.380  62.097  1.00  0.00     0.000 C 
BRANCH   2   3
ATOM      3  C   UNL     1      12.528  29.893  61.984  1.00  0.00     0.000 C 
BRANCH   3   4
ATOM      4  C   UNL     1      12.471  28.399  61.635  1.00  0.00     0.000 C 
BRANCH   4   5
ATOM      5  C   UNL     1      11.753  28.146  60.298  1.00  0.00     0.000 C 
BRANCH   5   6
ATOM      6  C   UNL     1      11.362  29.458  59.591  1.00  0.00     0.000 C 
BRANCH   6   7
ATOM      7  C   UNL     1       9.851  29.552  59.293  1.00  0.00     0.000 C 
BRANCH   7   8
ATOM      8  C   UNL     1       8.951  28.951  60.391  1.00  0.00     0.000 C 
BRANCH   8   9
ATOM      9  C   UNL     1       8.404  29.960  61.420  1.00  0.00     0.000 C 
BRANCH   9  10
ATOM     10  C   UNL     1       6.876  30.172  61.380  1.00  0.00     0.000 C 
BRANCH  10  11
ATOM     11  C   UNL     1       6.415  31.530  60.813  1.00  0.00     0.000 C 
BRANCH  11  12
ATOM     12  C   UNL     1       7.115  31.965  59.514  1.00  0.00     0.000 C 
BRANCH  12  13
ATOM     13  C   UNL     1       6.494  33.229  58.897  1.00  0.00     0.006 C 
BRANCH  13  14
ATOM     14  C   UNL     1       5.004  33.362  59.234  1.00  0.00     0.053 C 
BRANCH  14  15
ATOM     15  C   UNL     1       4.204  33.820  58.054  1.00  0.00     0.041 C 
ATOM     16  O   UNL     1       3.038  34.270  58.209  1.00  0.00    -0.550 OA
ATOM     17  O   UNL     1       4.738  33.725  56.774  1.00  0.00    -0.550 OA
ENDBRANCH  14  15
ENDBRANCH  13  14
ENDBRANCH  12  13
ENDBRANCH  11  12
ENDBRANCH  10  11
ENDBRANCH   9  10
ENDBRANCH   8   9
ENDBRANCH   7   8
ENDBRANCH   6   7
ENDBRANCH   5   6
ENDBRANCH   4   5
ENDBRANCH   3   4
ENDBRANCH   2   3
ENDBRANCH   1   2
BRANCH   1  18
ATOM     18  C   UNL     1      16.312  29.755  61.245  1.00  0.00     0.000 C 
BRANCH  18  19
ATOM     19  C   UNL     1      16.187  30.585  59.953  1.00  0.00     0.000 C 
BRANCH  19  20
ATOM     20  C   UNL     1      15.026  30.172  59.029  1.00  0.00     0.000 C 
BRANCH  20  21
ATOM     21  C   UNL     1      14.185  31.339  58.469  1.00  0.00     0.000 C 
BRANCH  21  22
ATOM     22  C   UNL     1      13.497  31.061  57.121  1.00  0.00     0.000 C 
BRANCH  22  23
ATOM     23  C   UNL     1      14.324  31.543  55.917  1.00  0.00     0.000 C 
BRANCH  23  24
ATOM     24  C   UNL     1      15.283  30.464  55.386  1.00  0.00    -0.000 C 
BRANCH  24  25
ATOM     25  C   UNL     1      16.725  30.981  55.247  1.00  0.00    -0.000 C 
BRANCH  25  26
ATOM     26  C   UNL     1      17.115  31.965  56.362  1.00  0.00    -0.000 C 
BRANCH  26  27
ATOM     27  C   UNL     1      18.130  33.024  55.894  1.00  0.00    -0.000 C 
BRANCH  27  28
ATOM     28  C   UNL     1      17.454  34.355  55.523  1.00  0.00    -0.000 C 
BRANCH  28  29
ATOM     29  C   UNL     1      16.431  34.804  56.578  1.00  0.00    -0.000 C 
BRANCH  29  30
ATOM     30  C   UNL     1      15.942  36.230  56.300  1.00  0.00    -0.000 C 
BRANCH  30  31
ATOM     31  C   UNL     1      16.550  37.223  57.298  1.00  0.00    -0.003 C 
ATOM     32  C   UNL     1      17.668  38.037  56.653  1.00  0.00     0.004 C 
ENDBRANCH  30  31
ENDBRANCH  29  30
ENDBRANCH  28  29
ENDBRANCH  27  28
ENDBRANCH  26  27
ENDBRANCH  25  26
ENDBRANCH  24  25
ENDBRANCH  23  24
ENDBRANCH  22  23
ENDBRANCH  21  22
ENDBRANCH  20  21
ENDBRANCH  19  20
ENDBRANCH  18  19
ENDBRANCH   1  18
TORSDOF 28
ENDMDL
MODEL 4
REMARK VINA RESULT:    -4.858      1.449      2.871
REMARK INTER + INTRA:         -17.090
REMARK INTER:                 -13.657
REMARK INTRA:                  -3.433
REMARK UNBOUND:                -4.279
REMARK SMILES CCCCCCCCCCCCCCCCCCCCCCCCCCCCCC(=O)[O-]
REMARK SMILES IDX 16 1 17 2 18 3 19 4 20 5 21 6 22 7 23 8 24 9 25 10 26 11
REMARK SMILES IDX 27 12 28 13 29 14 30 15 31 16 32 17 15 18 14 19 13 20 12 21
REMARK SMILES IDX 11 22 10 23 9 24 8 25 7 26 6 27 5 28 4 29 3 30 2 31 1 32
REMARK H PARENT
REMARK Flexibility Score: inf
ROOT
ATOM      1  C   UNL     1      16.961  32.025  58.486  1.00  0.00     0.000 C 
ENDROOT
BRANCH   1   2
ATOM      2  C   UNL     1      15.817  31.018  58.679  1.00  0.00     0.000 C 
BRANCH   2   3
ATOM      3  C   UNL     1      16.094  30.105  59.880  1.00  0.00     0.000 C 
BRANCH   3   4
ATOM      4  C   UNL     1      17.204  30.681  60.769  1.00  0.00     0.000 C 
BRANCH   4   5
ATOM      5  C   UNL     1      17.164  30.097  62.192  1.00  0.00     0.000 C 
BRANCH   5   6
ATOM      6  C   UNL     1      16.841  28.590  62.194  1.00  0.00     0.000 C 
BRANCH   6   7
ATOM      7  C   UNL     1      16.341  28.084  63.563  1.00  0.00     0.000 C 
BRANCH   7   8
ATOM      8  C   UNL     1      14.807  28.079  63.713  1.00  0.00     0.000 C 
BRANCH   8   9
ATOM      9  C   UNL     1      14.015  28.187  62.396  1.00  0.00     0.000 C 
BRANCH   9  10
ATOM     10  C   UNL     1      13.263  29.518  62.192  1.00  0.00     0.000 C 
BRANCH  10  11
ATOM     11  C   UNL     1      12.782  29.788  60.751  1.00  0.00     0.000 C 
BRANCH  11  12
ATOM     12  C   UNL     1      11.794  28.751  60.189  1.00  0.00     0.000 C 
BRANCH  12  13
ATOM     13  C   UNL     1      10.519  29.393  59.616  1.00  0.00     0.006 C 
BRANCH  13  14
ATOM     14  C   UNL     1       9.260  28.938  60.363  1.00  0.00     0.053 C 
BRANCH  14  15
ATOM     15  C   UNL     1       8.235  30.027  60.442  1.00  0.00     0.041 C 
ATOM     16  O   UNL     1       7.389  30.041  61.375  1.00  0.00    -0.550 OA
ATOM     17  O   UNL     1       8.197  31.017  59.467  1.00  0.00    -0.550 OA
ENDBRANCH  14  15
ENDBRANCH  13  14
ENDBRANCH  12  13
ENDBRANCH  11  12
ENDBRANCH  10  11
ENDBRANCH   9  10
ENDBRANCH   8   9
ENDBRANCH   7   8
ENDBRANCH   6   7
ENDBRANCH   5   6
ENDBRANCH   4   5
ENDBRANCH   3   4
ENDBRANCH   2   3
ENDBRANCH   1   2
BRANCH   1  18
ATOM     18  C   UNL     1      17.520  32.022  57.048  1.00  0.00     0.000 C 
BRANCH  18  19
ATOM     19  C   UNL     1      19.033  31.745  56.974  1.00  0.00     0.000 C 
BRANCH  19  20
ATOM     20  C   UNL     1      19.612  31.695  55.548  1.00  0.00     0.000 C 
BRANCH  20  21
ATOM     21  C   UNL     1      19.950  30.282  55.026  1.00  0.00     0.000 C 
BRANCH  21  22
ATOM     22  C   UNL     1      19.242  29.881  53.720  1.00  0.00     0.000 C 
BRANCH  22  23
ATOM     23  C   UNL     1      17.893  30.596  53.528  1.00  0.00     0.000 C 
BRANCH  23  24
ATOM     24  C   UNL     1      16.692  29.692  53.852  1.00  0.00    -0.000 C 
BRANCH  24  25
ATOM     25  C   UNL     1      15.375  30.481  53.944  1.00  0.00    -0.000 C 
BRANCH  25  26
ATOM     26  C   UNL     1      14.709  30.369  55.325  1.00  0.00    -0.000 C 
BRANCH  26  27
ATOM     27  C   UNL     1      13.492  31.300  55.478  1.00  0.00    -0.000 C 
BRANCH  27  28
ATOM     28  C   UNL     1      13.517  32.463  54.471  1.00  0.00    -0.000 C 
BRANCH  28  29
ATOM     29  C   UNL     1      13.898  33.797  55.131  1.00  0.00    -0.000 C 
BRANCH  29  30
ATOM     30  C   UNL     1      15.401  34.069  54.995  1.00  0.00    -0.000 C 
BRANCH  30  31
ATOM     31  C   UNL     1      15.679  35.572  54.874  1.00  0.00    -0.003 C 
ATOM     32  C   UNL     1      15.795  36.224  56.248  1.00  0.00     0.004 C 
ENDBRANCH  30  31
ENDBRANCH  29  30
ENDBRANCH  28  29
ENDBRANCH  27  28
ENDBRANCH  26  27
ENDBRANCH  25  26
ENDBRANCH  24  25
ENDBRANCH  23  24
ENDBRANCH  22  23
ENDBRANCH  21  22
ENDBRANCH  20  21
ENDBRANCH  19  20
ENDBRANCH  18  19
ENDBRANCH   1  18
TORSDOF 28
ENDMDL
MODEL 5
REMARK VINA RESULT:    -4.858      3.115      8.399
REMARK INTER + INTRA:         -17.089
REMARK INTER:                 -12.353
REMARK INTRA:                  -4.735
REMARK UNBOUND:                -4.279
REMARK SMILES CCCCCCCCCCCCCCCCCCCCCCCCCCCCCC(=O)[O-]
REMARK SMILES IDX 16 1 17 2 18 3 19 4 20 5 21 6 22 7 23 8 24 9 25 10 26 11
REMARK SMILES IDX 27 12 28 13 29 14 30 15 31 16 32 17 15 18 14 19 13 20 12 21
REMARK SMILES IDX 11 22 10 23 9 24 8 25 7 26 6 27 5 28 4 29 3 30 2 31 1 32
REMARK H PARENT
REMARK Flexibility Score: inf
ROOT
ATOM      1  C   UNL     1      16.500  34.397  56.464  1.00  0.00     0.000 C 
ENDROOT
BRANCH   1   2
ATOM      2  C   UNL     1      16.109  35.874  56.619  1.00  0.00     0.000 C 
BRANCH   2   3
ATOM      3  C   UNL     1      15.071  36.275  55.565  1.00  0.00     0.000 C 
BRANCH   3   4
ATOM      4  C   UNL     1      14.760  35.106  54.620  1.00  0.00     0.000 C 
BRANCH   4   5
ATOM      5  C   UNL     1      13.254  34.983  54.330  1.00  0.00     0.000 C 
BRANCH   5   6
ATOM      6  C   UNL     1      12.944  33.854  53.328  1.00  0.00     0.000 C 
BRANCH   6   7
ATOM      7  C   UNL     1      12.090  32.725  53.941  1.00  0.00     0.000 C 
BRANCH   7   8
ATOM      8  C   UNL     1      12.899  31.677  54.730  1.00  0.00     0.000 C 
BRANCH   8   9
ATOM      9  C   UNL     1      14.317  31.400  54.195  1.00  0.00     0.000 C 
BRANCH   9  10
ATOM     10  C   UNL     1      15.031  30.187  54.828  1.00  0.00     0.000 C 
BRANCH  10  11
ATOM     11  C   UNL     1      16.569  30.196  54.713  1.00  0.00     0.000 C 
BRANCH  11  12
ATOM     12  C   UNL     1      17.205  31.592  54.588  1.00  0.00     0.000 C 
BRANCH  12  13
ATOM     13  C   UNL     1      18.728  31.537  54.379  1.00  0.00     0.006 C 
BRANCH  13  14
ATOM     14  C   UNL     1      19.468  32.545  55.266  1.00  0.00     0.053 C 
BRANCH  14  15
ATOM     15  C   UNL     1      19.953  31.919  56.536  1.00  0.00     0.041 C 
ATOM     16  O   UNL     1      21.148  31.535  56.643  1.00  0.00    -0.550 OA
ATOM     17  O   UNL     1      19.076  31.733  57.598  1.00  0.00    -0.550 OA
ENDBRANCH  14  15
ENDBRANCH  13  14
ENDBRANCH  12  13
ENDBRANCH  11  12
ENDBRANCH  10  11
ENDBRANCH   9  10
ENDBRANCH   8   9
ENDBRANCH   7   8
ENDBRANCH   6   7
ENDBRANCH   5   6
ENDBRANCH   4   5
ENDBRANCH   3   4
ENDBRANCH   2   3
ENDBRANCH   1   2
BRANCH   1  18
ATOM     18  C   UNL     1      16.237  33.575  57.743  1.00  0.00     0.000 C 
BRANCH  18  19
ATOM     19  C   UNL     1      14.960  32.715  57.673  1.00  0.00     0.000 C 
BRANCH  19  20
ATOM     20  C   UNL     1      15.089  31.314  58.299  1.00  0.00     0.000 C 
BRANCH  20  21
ATOM     21  C   UNL     1      13.827  30.432  58.200  1.00  0.00     0.000 C 
BRANCH  21  22
ATOM     22  C   UNL     1      12.516  31.115  58.631  1.00  0.00     0.000 C 
BRANCH  22  23
ATOM     23  C   UNL     1      11.300  30.175  58.559  1.00  0.00     0.000 C 
BRANCH  23  24
ATOM     24  C   UNL     1      10.907  29.609  59.934  1.00  0.00    -0.000 C 
BRANCH  24  25
ATOM     25  C   UNL     1      11.640  28.295  60.255  1.00  0.00    -0.000 C 
BRANCH  25  26
ATOM     26  C   UNL     1      12.581  28.420  61.465  1.00  0.00    -0.000 C 
BRANCH  26  27
ATOM     27  C   UNL     1      12.490  29.794  62.153  1.00  0.00    -0.000 C 
BRANCH  27  28
ATOM     28  C   UNL     1      13.785  30.610  61.999  1.00  0.00    -0.000 C 
BRANCH  28  29
ATOM     29  C   UNL     1      14.995  29.726  61.661  1.00  0.00    -0.000 C 
BRANCH  29  30
ATOM     30  C   UNL     1      16.000  29.700  62.818  1.00  0.00    -0.000 C 
BRANCH  30  31
ATOM     31  C   UNL     1      16.528  28.281  63.056  1.00  0.00    -0.003 C 
ATOM     32  C   UNL     1      15.680  27.543  64.088  1.00  0.00     0.004 C 
ENDBRANCH  30  31
ENDBRANCH  29  30
ENDBRANCH  28  29
ENDBRANCH  27  28
ENDBRANCH  26  27
ENDBRANCH  25  26
ENDBRANCH  24  25
ENDBRANCH  23  24
ENDBRANCH  22  23
ENDBRANCH  21  22
ENDBRANCH  20  21
ENDBRANCH  19  20
ENDBRANCH  18  19
ENDBRANCH   1  18
TORSDOF 28
ENDMDL
MODEL 6
REMARK VINA RESULT:    -4.857      1.505      3.033
REMARK INTER + INTRA:         -17.087
REMARK INTER:                 -12.776
REMARK INTRA:                  -4.311
REMARK UNBOUND:                -4.279
REMARK SMILES CCCCCCCCCCCCCCCCCCCCCCCCCCCCCC(=O)[O-]
REMARK SMILES IDX 16 1 17 2 18 3 19 4 20 5 21 6 22 7 23 8 24 9 25 10 26 11
REMARK SMILES IDX 27 12 28 13 29 14 30 15 31 16 32 17 15 18 14 19 13 20 12 21
REMARK SMILES IDX 11 22 10 23 9 24 8 25 7 26 6 27 5 28 4 29 3 30 2 31 1 32
REMARK H PARENT
REMARK Flexibility Score: inf
ROOT
ATOM      1  C   UNL     1      13.223  30.895  57.413  1.00  0.00     0.000 C 
ENDROOT
BRANCH   1   2
ATOM      2  C   UNL     1      14.544  30.207  57.788  1.00  0.00     0.000 C 
BRANCH   2   3
ATOM      3  C   UNL     1      15.303  31.024  58.840  1.00  0.00     0.000 C 
BRANCH   3   4
ATOM      4  C   UNL     1      15.949  30.110  59.891  1.00  0.00     0.000 C 
BRANCH   4   5
ATOM      5  C   UNL     1      17.114  30.804  60.619  1.00  0.00     0.000 C 
BRANCH   5   6
ATOM      6  C   UNL     1      17.511  30.068  61.914  1.00  0.00     0.000 C 
BRANCH   6   7
ATOM      7  C   UNL     1      16.965  28.627  61.978  1.00  0.00     0.000 C 
BRANCH   7   8
ATOM      8  C   UNL     1      16.270  28.272  63.308  1.00  0.00     0.000 C 
BRANCH   8   9
ATOM      9  C   UNL     1      14.738  28.436  63.314  1.00  0.00     0.000 C 
BRANCH   9  10
ATOM     10  C   UNL     1      14.221  29.786  62.776  1.00  0.00     0.000 C 
BRANCH  10  11
ATOM     11  C   UNL     1      12.839  29.735  62.092  1.00  0.00     0.000 C 
BRANCH  11  12
ATOM     12  C   UNL     1      12.619  28.533  61.157  1.00  0.00     0.000 C 
BRANCH  12  13
ATOM     13  C   UNL     1      11.719  28.869  59.956  1.00  0.00     0.006 C 
BRANCH  13  14
ATOM     14  C   UNL     1      10.502  29.706  60.365  1.00  0.00     0.053 C 
BRANCH  14  15
ATOM     15  C   UNL     1       9.437  29.693  59.312  1.00  0.00     0.041 C 
ATOM     16  O   UNL     1       9.349  28.731  58.505  1.00  0.00    -0.550 OA
ATOM     17  O   UNL     1       8.553  30.761  59.206  1.00  0.00    -0.550 OA
ENDBRANCH  14  15
ENDBRANCH  13  14
ENDBRANCH  12  13
ENDBRANCH  11  12
ENDBRANCH  10  11
ENDBRANCH   9  10
ENDBRANCH   8   9
ENDBRANCH   7   8
ENDBRANCH   6   7
ENDBRANCH   5   6
ENDBRANCH   4   5
ENDBRANCH   3   4
ENDBRANCH   2   3
ENDBRANCH   1   2
BRANCH   1  18
ATOM     18  C   UNL     1      13.109  31.182  55.902  1.00  0.00     0.000 C 
BRANCH  18  19
ATOM     19  C   UNL     1      14.076  32.275  55.406  1.00  0.00     0.000 C 
BRANCH  19  20
ATOM     20  C   UNL     1      14.949  31.869  54.204  1.00  0.00     0.000 C 
BRANCH  20  21
ATOM     21  C   UNL     1      15.555  30.451  54.283  1.00  0.00     0.000 C 
BRANCH  21  22
ATOM     22  C   UNL     1      17.074  30.402  54.523  1.00  0.00     0.000 C 
BRANCH  22  23
ATOM     23  C   UNL     1      17.666  31.775  54.887  1.00  0.00     0.000 C 
BRANCH  23  24
ATOM     24  C   UNL     1      17.963  31.912  56.390  1.00  0.00    -0.000 C 
BRANCH  24  25
ATOM     25  C   UNL     1      17.258  33.127  57.017  1.00  0.00    -0.000 C 
BRANCH  25  26
ATOM     26  C   UNL     1      17.128  34.308  56.042  1.00  0.00    -0.000 C 
BRANCH  26  27
ATOM     27  C   UNL     1      16.357  35.497  56.645  1.00  0.00    -0.000 C 
BRANCH  27  28
ATOM     28  C   UNL     1      15.295  36.053  55.681  1.00  0.00    -0.000 C 
BRANCH  28  29
ATOM     29  C   UNL     1      15.513  35.577  54.236  1.00  0.00    -0.000 C 
BRANCH  29  30
ATOM     30  C   UNL     1      14.244  35.766  53.396  1.00  0.00    -0.000 C 
BRANCH  30  31
ATOM     31  C   UNL     1      13.136  36.435  54.217  1.00  0.00    -0.003 C 
ATOM     32  C   UNL     1      12.149  37.169  53.315  1.00  0.00     0.004 C 
ENDBRANCH  30  31
ENDBRANCH  29  30
ENDBRANCH  28  29
ENDBRANCH  27  28
ENDBRANCH  26  27
ENDBRANCH  25  26
ENDBRANCH  24  25
ENDBRANCH  23  24
ENDBRANCH  22  23
ENDBRANCH  21  22
ENDBRANCH  20  21
ENDBRANCH  19  20
ENDBRANCH  18  19
ENDBRANCH   1  18
TORSDOF 28
ENDMDL
MODEL 7
REMARK VINA RESULT:    -4.853      3.198      8.444
REMARK INTER + INTRA:         -17.076
REMARK INTER:                 -13.416
REMARK INTRA:                  -3.660
REMARK UNBOUND:                -4.279
REMARK SMILES CCCCCCCCCCCCCCCCCCCCCCCCCCCCCC(=O)[O-]
REMARK SMILES IDX 16 1 17 2 18 3 19 4 20 5 21 6 22 7 23 8 24 9 25 10 26 11
REMARK SMILES IDX 27 12 28 13 29 14 30 15 31 16 32 17 15 18 14 19 13 20 12 21
REMARK SMILES IDX 11 22 10 23 9 24 8 25 7 26 6 27 5 28 4 29 3 30 2 31 1 32
REMARK H PARENT
REMARK Flexibility Score: inf
ROOT
ATOM      1  C   UNL     1      18.926  31.977  56.618  1.00  0.00     0.000 C 
ENDROOT
BRANCH   1   2
ATOM      2  C   UNL     1      19.183  30.971  55.486  1.00  0.00     0.000 C 
BRANCH   2   3
ATOM      3  C   UNL     1      18.169  31.158  54.352  1.00  0.00     0.000 C 
BRANCH   3   4
ATOM      4  C   UNL     1      17.810  29.815  53.702  1.00  0.00     0.000 C 
BRANCH   4   5
ATOM      5  C   UNL     1      16.331  29.756  53.281  1.00  0.00     0.000 C 
BRANCH   5   6
ATOM      6  C   UNL     1      15.535  30.979  53.776  1.00  0.00     0.000 C 
BRANCH   6   7
ATOM      7  C   UNL     1      14.484  30.618  54.847  1.00  0.00     0.000 C 
BRANCH   7   8
ATOM      8  C   UNL     1      13.443  31.724  55.109  1.00  0.00     0.000 C 
BRANCH   8   9
ATOM      9  C   UNL     1      13.123  32.627  53.902  1.00  0.00     0.000 C 
BRANCH   9  10
ATOM     10  C   UNL     1      13.352  34.135  54.134  1.00  0.00     0.000 C 
BRANCH  10  11
ATOM     11  C   UNL     1      14.416  34.484  55.195  1.00  0.00     0.000 C 
BRANCH  11  12
ATOM     12  C   UNL     1      14.723  35.985  55.340  1.00  0.00     0.000 C 
BRANCH  12  13
ATOM     13  C   UNL     1      16.093  36.371  54.757  1.00  0.00     0.006 C 
BRANCH  13  14
ATOM     14  C   UNL     1      17.205  36.313  55.811  1.00  0.00     0.053 C 
BRANCH  14  15
ATOM     15  C   UNL     1      17.299  37.587  56.592  1.00  0.00     0.041 C 
ATOM     16  O   UNL     1      16.834  37.655  57.761  1.00  0.00    -0.550 OA
ATOM     17  O   UNL     1      17.878  38.712  56.019  1.00  0.00    -0.550 OA
ENDBRANCH  14  15
ENDBRANCH  13  14
ENDBRANCH  12  13
ENDBRANCH  11  12
ENDBRANCH  10  11
ENDBRANCH   9  10
ENDBRANCH   8   9
ENDBRANCH   7   8
ENDBRANCH   6   7
ENDBRANCH   5   6
ENDBRANCH   4   5
ENDBRANCH   3   4
ENDBRANCH   2   3
ENDBRANCH   1   2
BRANCH   1  18
ATOM     18  C   UNL     1      17.659  32.825  56.384  1.00  0.00     0.000 C 
BRANCH  18  19
ATOM     19  C   UNL     1      16.607  32.687  57.501  1.00  0.00     0.000 C 
BRANCH  19  20
ATOM     20  C   UNL     1      16.060  31.261  57.700  1.00  0.00     0.000 C 
BRANCH  20  21
ATOM     21  C   UNL     1      14.789  31.162  58.570  1.00  0.00     0.000 C 
BRANCH  21  22
ATOM     22  C   UNL     1      14.874  30.167  59.742  1.00  0.00     0.000 C 
BRANCH  22  23
ATOM     23  C   UNL     1      16.267  30.129  60.394  1.00  0.00     0.000 C 
BRANCH  23  24
ATOM     24  C   UNL     1      16.245  29.517  61.804  1.00  0.00    -0.000 C 
BRANCH  24  25
ATOM     25  C   UNL     1      14.857  29.614  62.461  1.00  0.00    -0.000 C 
BRANCH  25  26
ATOM     26  C   UNL     1      14.211  28.239  62.693  1.00  0.00    -0.000 C 
BRANCH  26  27
ATOM     27  C   UNL     1      12.799  28.135  62.089  1.00  0.00    -0.000 C 
BRANCH  27  28
ATOM     28  C   UNL     1      12.140  29.513  61.903  1.00  0.00    -0.000 C 
BRANCH  28  29
ATOM     29  C   UNL     1      10.785  29.420  61.184  1.00  0.00    -0.000 C 
BRANCH  29  30
ATOM     30  C   UNL     1      10.958  29.528  59.665  1.00  0.00    -0.000 C 
BRANCH  30  31
ATOM     31  C   UNL     1       9.711  29.022  58.932  1.00  0.00    -0.003 C 
ATOM     32  C   UNL     1       9.404  29.880  57.709  1.00  0.00     0.004 C 
ENDBRANCH  30  31
ENDBRANCH  29  30
ENDBRANCH  28  29
ENDBRANCH  27  28
ENDBRANCH  26  27
ENDBRANCH  25  26
ENDBRANCH  24  25
ENDBRANCH  23  24
ENDBRANCH  22  23
ENDBRANCH  21  22
ENDBRANCH  20  21
ENDBRANCH  19  20
ENDBRANCH  18  19
ENDBRANCH   1  18
TORSDOF 28
ENDMDL
MODEL 8
REMARK VINA RESULT:    -4.815      1.585      3.544
REMARK INTER + INTRA:         -16.974
REMARK INTER:                 -12.697
REMARK INTRA:                  -4.277
REMARK UNBOUND:                -4.279
REMARK SMILES CCCCCCCCCCCCCCCCCCCCCCCCCCCCCC(=O)[O-]
REMARK SMILES IDX 16 1 17 2 18 3 19 4 20 5 21 6 22 7 23 8 24 9 25 10 26 11
REMARK SMILES IDX 27 12 28 13 29 14 30 15 31 16 32 17 15 18 14 19 13 20 12 21
REMARK SMILES IDX 11 22 10 23 9 24 8 25 7 26 6 27 5 28 4 29 3 30 2 31 1 32
REMARK H PARENT
REMARK Flexibility Score: inf
ROOT
ATOM      1  C   UNL     1      15.896  31.024  53.539  1.00  0.00     0.000 C 
ENDROOT
BRANCH   1   2
ATOM      2  C   UNL     1      14.718  31.251  54.498  1.00  0.00     0.000 C 
BRANCH   2   3
ATOM      3  C   UNL     1      14.651  30.136  55.549  1.00  0.00     0.000 C 
BRANCH   3   4
ATOM      4  C   UNL     1      14.032  30.646  56.858  1.00  0.00     0.000 C 
BRANCH   4   5
ATOM      5  C   UNL     1      14.412  29.761  58.058  1.00  0.00     0.000 C 
BRANCH   5   6
ATOM      6  C   UNL     1      14.787  30.593  59.300  1.00  0.00     0.000 C 
BRANCH   6   7
ATOM      7  C   UNL     1      15.948  29.977  60.108  1.00  0.00     0.000 C 
BRANCH   7   8
ATOM      8  C   UNL     1      15.754  30.030  61.636  1.00  0.00     0.000 C 
BRANCH   8   9
ATOM      9  C   UNL     1      15.688  28.662  62.340  1.00  0.00     0.000 C 
BRANCH   9  10
ATOM     10  C   UNL     1      14.325  28.316  62.973  1.00  0.00     0.000 C 
BRANCH  10  11
ATOM     11  C   UNL     1      13.166  28.117  61.974  1.00  0.00     0.000 C 
BRANCH  11  12
ATOM     12  C   UNL     1      12.204  29.311  61.848  1.00  0.00     0.000 C 
BRANCH  12  13
ATOM     13  C   UNL     1      11.487  29.358  60.488  1.00  0.00     0.006 C 
BRANCH  13  14
ATOM     14  C   UNL     1       9.993  29.668  60.634  1.00  0.00     0.053 C 
BRANCH  14  15
ATOM     15  C   UNL     1       9.407  30.199  59.363  1.00  0.00     0.041 C 
ATOM     16  O   UNL     1       8.408  30.965  59.391  1.00  0.00    -0.550 OA
ATOM     17  O   UNL     1       9.949  29.824  58.139  1.00  0.00    -0.550 OA
ENDBRANCH  14  15
ENDBRANCH  13  14
ENDBRANCH  12  13
ENDBRANCH  11  12
ENDBRANCH  10  11
ENDBRANCH   9  10
ENDBRANCH   8   9
ENDBRANCH   7   8
ENDBRANCH   6   7
ENDBRANCH   5   6
ENDBRANCH   4   5
ENDBRANCH   3   4
ENDBRANCH   2   3
ENDBRANCH   1   2
BRANCH   1  18
ATOM     18  C   UNL     1      16.672  29.727  53.846  1.00  0.00     0.000 C 
BRANCH  18  19
ATOM     19  C   UNL     1      18.188  29.839  53.593  1.00  0.00     0.000 C 
BRANCH  19  20
ATOM     20  C   UNL     1      18.684  31.258  53.258  1.00  0.00     0.000 C 
BRANCH  20  21
ATOM     21  C   UNL     1      19.558  31.921  54.344  1.00  0.00     0.000 C 
BRANCH  21  22
ATOM     22  C   UNL     1      19.556  31.209  55.709  1.00  0.00     0.000 C 
BRANCH  22  23
ATOM     23  C   UNL     1      18.992  32.086  56.840  1.00  0.00     0.000 C 
BRANCH  23  24
ATOM     24  C   UNL     1      17.495  31.839  57.090  1.00  0.00    -0.000 C 
BRANCH  24  25
ATOM     25  C   UNL     1      16.684  33.146  57.126  1.00  0.00    -0.000 C 
BRANCH  25  26
ATOM     26  C   UNL     1      17.028  34.091  55.963  1.00  0.00    -0.000 C 
BRANCH  26  27
ATOM     27  C   UNL     1      16.736  35.567  56.289  1.00  0.00    -0.000 C 
BRANCH  27  28
ATOM     28  C   UNL     1      15.327  35.995  55.845  1.00  0.00    -0.000 C 
BRANCH  28  29
ATOM     29  C   UNL     1      14.882  35.289  54.555  1.00  0.00    -0.000 C 
BRANCH  29  30
ATOM     30  C   UNL     1      13.481  34.685  54.713  1.00  0.00    -0.000 C 
BRANCH  30  31
ATOM     31  C   UNL     1      12.456  35.446  53.863  1.00  0.00    -0.003 C 
ATOM     32  C   UNL     1      12.909  36.880  53.606  1.00  0.00     0.004 C 
ENDBRANCH  30  31
ENDBRANCH  29  30
ENDBRANCH  28  29
ENDBRANCH  27  28
ENDBRANCH  26  27
ENDBRANCH  25  26
ENDBRANCH  24  25
ENDBRANCH  23  24
ENDBRANCH  22  23
ENDBRANCH  21  22
ENDBRANCH  20  21
ENDBRANCH  19  20
ENDBRANCH  18  19
ENDBRANCH   1  18
TORSDOF 28
ENDMDL
MODEL 9
REMARK VINA RESULT:    -4.797      2.545      4.866
REMARK INTER + INTRA:         -16.928
REMARK INTER:                 -12.132
REMARK INTRA:                  -4.796
REMARK UNBOUND:                -4.279
REMARK SMILES CCCCCCCCCCCCCCCCCCCCCCCCCCCCCC(=O)[O-]
REMARK SMILES IDX 16 1 17 2 18 3 19 4 20 5 21 6 22 7 23 8 24 9 25 10 26 11
REMARK SMILES IDX 27 12 28 13 29 14 30 15 31 16 32 17 15 18 14 19 13 20 12 21
REMARK SMILES IDX 11 22 10 23 9 24 8 25 7 26 6 27 5 28 4 29 3 30 2 31 1 32
REMARK H PARENT
REMARK Flexibility Score: inf
ROOT
ATOM      1  C   UNL     1      15.374  30.416  54.063  1.00  0.00     0.000 C 
ENDROOT
BRANCH   1   2
ATOM      2  C   UNL     1      15.446  31.838  53.486  1.00  0.00     0.000 C 
BRANCH   2   3
ATOM      3  C   UNL     1      14.536  32.790  54.270  1.00  0.00     0.000 C 
BRANCH   3   4
ATOM      4  C   UNL     1      14.138  32.186  55.625  1.00  0.00     0.000 C 
BRANCH   4   5
ATOM      5  C   UNL     1      14.427  33.148  56.791  1.00  0.00     0.000 C 
BRANCH   5   6
ATOM      6  C   UNL     1      14.703  32.399  58.109  1.00  0.00     0.000 C 
BRANCH   6   7
ATOM      7  C   UNL     1      15.242  30.970  57.886  1.00  0.00     0.000 C 
BRANCH   7   8
ATOM      8  C   UNL     1      14.278  29.854  58.335  1.00  0.00     0.000 C 
BRANCH   8   9
ATOM      9  C   UNL     1      13.045  30.327  59.127  1.00  0.00     0.000 C 
BRANCH   9  10
ATOM     10  C   UNL     1      12.355  29.239  59.977  1.00  0.00     0.000 C 
BRANCH  10  11
ATOM     11  C   UNL     1      12.186  29.581  61.472  1.00  0.00     0.000 C 
BRANCH  11  12
ATOM     12  C   UNL     1      13.446  30.139  62.158  1.00  0.00     0.000 C 
BRANCH  12  13
ATOM     13  C   UNL     1      14.562  29.091  62.297  1.00  0.00     0.006 C 
BRANCH  13  14
ATOM     14  C   UNL     1      15.797  29.655  63.009  1.00  0.00     0.053 C 
BRANCH  14  15
ATOM     15  C   UNL     1      17.050  29.417  62.225  1.00  0.00     0.041 C 
ATOM     16  O   UNL     1      17.600  28.285  62.228  1.00  0.00    -0.550 OA
ATOM     17  O   UNL     1      17.628  30.458  61.507  1.00  0.00    -0.550 OA
ENDBRANCH  14  15
ENDBRANCH  13  14
ENDBRANCH  12  13
ENDBRANCH  11  12
ENDBRANCH  10  11
ENDBRANCH   9  10
ENDBRANCH   8   9
ENDBRANCH   7   8
ENDBRANCH   6   7
ENDBRANCH   5   6
ENDBRANCH   4   5
ENDBRANCH   3   4
ENDBRANCH   2   3
ENDBRANCH   1   2
BRANCH   1  18
ATOM     18  C   UNL     1      16.766  29.833  54.384  1.00  0.00     0.000 C 
BRANCH  18  19
ATOM     19  C   UNL     1      17.856  30.245  53.376  1.00  0.00     0.000 C 
BRANCH  19  20
ATOM     20  C   UNL     1      19.272  29.745  53.716  1.00  0.00     0.000 C 
BRANCH  20  21
ATOM     21  C   UNL     1      20.418  30.702  53.322  1.00  0.00     0.000 C 
BRANCH  21  22
ATOM     22  C   UNL     1      21.369  31.088  54.468  1.00  0.00     0.000 C 
BRANCH  22  23
ATOM     23  C   UNL     1      20.799  30.753  55.858  1.00  0.00     0.000 C 
BRANCH  23  24
ATOM     24  C   UNL     1      20.217  31.985  56.572  1.00  0.00    -0.000 C 
BRANCH  24  25
ATOM     25  C   UNL     1      18.715  31.833  56.867  1.00  0.00    -0.000 C 
BRANCH  25  26
ATOM     26  C   UNL     1      17.857  32.880  56.139  1.00  0.00    -0.000 C 
BRANCH  26  27
ATOM     27  C   UNL     1      18.607  33.565  54.982  1.00  0.00    -0.000 C 
BRANCH  27  28
ATOM     28  C   UNL     1      18.305  35.072  54.902  1.00  0.00    -0.000 C 
BRANCH  28  29
ATOM     29  C   UNL     1      16.874  35.404  55.354  1.00  0.00    -0.000 C 
BRANCH  29  30
ATOM     30  C   UNL     1      16.873  36.522  56.403  1.00  0.00    -0.000 C 
BRANCH  30  31
ATOM     31  C   UNL     1      17.515  37.798  55.848  1.00  0.00    -0.003 C 
ATOM     32  C   UNL     1      18.185  38.606  56.955  1.00  0.00     0.004 C 
ENDBRANCH  30  31
ENDBRANCH  29  30
ENDBRANCH  28  29
ENDBRANCH  27  28
ENDBRANCH  26  27
ENDBRANCH  25  26
ENDBRANCH  24  25
ENDBRANCH  23  24
ENDBRANCH  22  23
ENDBRANCH  21  22
ENDBRANCH  20  21
ENDBRANCH  19  20
ENDBRANCH  18  19
ENDBRANCH   1  18
TORSDOF 28
ENDMDL
