MODEL 1
REMARK VINA RESULT:    15.825      0.000      0.000
REMARK INTER + INTRA:          18.503
REMARK INTER:                  18.600
REMARK INTRA:                  -0.097
REMARK UNBOUND:                -0.097
REMARK SMILES O=c1c(O)c(-c2ccc(O)cc2)oc2cc(O)cc(O)c12
REMARK SMILES IDX 5 1 3 2 2 3 1 4 21 5 19 6 18 7 16 8 15 9 14 10 13 11 6 12
REMARK SMILES IDX 7 13 8 14 9 15 12 16 11 17 10 18 4 20 20 22 17 24
REMARK H PARENT 10 19 4 21 20 23 17 25
REMARK Flexibility Score: inf
ROOT
ATOM      1  C   UNL     1      24.304  32.092   0.982  1.00  0.00     0.180 A 
ATOM      2  C   UNL     1      25.348  32.834   0.404  1.00  0.00     0.208 A 
ATOM      3  C   UNL     1      26.634  32.271   0.348  1.00  0.00     0.238 A 
ATOM      4  O   UNL     1      27.579  32.970  -0.102  1.00  0.00    -0.285 OA
ATOM      5  C   UNL     1      26.848  30.953   0.820  1.00  0.00     0.111 A 
ATOM      6  C   UNL     1      28.098  30.266   0.771  1.00  0.00     0.134 A 
ATOM      7  C   UNL     1      28.216  29.003   1.364  1.00  0.00     0.093 A 
ATOM      8  C   UNL     1      27.113  28.375   1.947  1.00  0.00     0.123 A 
ATOM      9  C   UNL     1      25.876  29.013   1.951  1.00  0.00     0.094 A 
ATOM     10  C   UNL     1      25.735  30.290   1.401  1.00  0.00     0.146 A 
ATOM     11  O   UNL     1      24.542  30.871   1.445  1.00  0.00    -0.452 OA
ENDROOT
BRANCH   1  12
ATOM     12  C   UNL     1      22.926  32.623   1.091  1.00  0.00     0.021 A 
ATOM     13  C   UNL     1      22.300  32.790   2.340  1.00  0.00     0.016 A 
ATOM     14  C   UNL     1      20.990  33.269   2.416  1.00  0.00     0.047 A 
ATOM     15  C   UNL     1      20.283  33.575   1.246  1.00  0.00     0.115 A 
ATOM     16  C   UNL     1      22.203  32.911  -0.079  1.00  0.00     0.016 A 
ATOM     17  C   UNL     1      20.892  33.392   0.001  1.00  0.00     0.047 A 
BRANCH  15  18
ATOM     18  O   UNL     1      18.977  34.055   1.309  1.00  0.00    -0.508 OA
ATOM     19  H   UNL     1      18.750  34.910   1.803  1.00  0.00     0.293 HD
ENDBRANCH  15  18
ENDBRANCH   1  12
BRANCH   2  20
ATOM     20  O   UNL     1      25.102  34.104  -0.125  1.00  0.00    -0.502 OA
ATOM     21  H   UNL     1      25.681  34.516  -0.845  1.00  0.00     0.293 HD
ENDBRANCH   2  20
BRANCH   6  22
ATOM     22  O   UNL     1      29.241  30.762   0.136  1.00  0.00    -0.507 OA
ATOM     23  H   UNL     1      29.503  31.735   0.097  1.00  0.00     0.293 HD
ENDBRANCH   6  22
BRANCH   8  24
ATOM     24  O   UNL     1      27.235  27.110   2.520  1.00  0.00    -0.508 OA
ATOM     25  H   UNL     1      27.987  26.890   3.162  1.00  0.00     0.293 HD
ENDBRANCH   8  24
TORSDOF 5
ENDMDL
MODEL 2
REMARK VINA RESULT:    17.871      1.672      2.863
REMARK INTER + INTRA:          20.909
REMARK INTER:                  20.847
REMARK INTRA:                   0.062
REMARK UNBOUND:                -0.097
REMARK SMILES O=c1c(O)c(-c2ccc(O)cc2)oc2cc(O)cc(O)c12
REMARK SMILES IDX 5 1 3 2 2 3 1 4 21 5 19 6 18 7 16 8 15 9 14 10 13 11 6 12
REMARK SMILES IDX 7 13 8 14 9 15 12 16 11 17 10 18 4 20 20 22 17 24
REMARK H PARENT 10 19 4 21 20 23 17 25
REMARK Flexibility Score: inf
ROOT
ATOM      1  C   UNL     1      25.831  30.379   1.213  1.00  0.00     0.180 A 
ATOM      2  C   UNL     1      27.175  30.755   1.047  1.00  0.00     0.208 A 
ATOM      3  C   UNL     1      28.178  29.785   1.208  1.00  0.00     0.238 A 
ATOM      4  O   UNL     1      29.382  30.145   1.132  1.00  0.00    -0.285 OA
ATOM      5  C   UNL     1      27.823  28.441   1.478  1.00  0.00     0.111 A 
ATOM      6  C   UNL     1      28.754  27.367   1.616  1.00  0.00     0.134 A 
ATOM      7  C   UNL     1      28.294  26.098   1.988  1.00  0.00     0.093 A 
ATOM      8  C   UNL     1      26.931  25.849   2.164  1.00  0.00     0.123 A 
ATOM      9  C   UNL     1      26.010  26.876   1.978  1.00  0.00     0.094 A 
ATOM     10  C   UNL     1      26.441  28.163   1.644  1.00  0.00     0.146 A 
ATOM     11  O   UNL     1      25.531  29.118   1.498  1.00  0.00    -0.452 OA
ENDROOT
BRANCH   1  12
ATOM     12  C   UNL     1      24.719  31.346   1.075  1.00  0.00     0.021 A 
ATOM     13  C   UNL     1      24.635  32.216  -0.029  1.00  0.00     0.016 A 
ATOM     14  C   UNL     1      23.589  33.137  -0.125  1.00  0.00     0.047 A 
ATOM     15  C   UNL     1      22.620  33.212   0.885  1.00  0.00     0.115 A 
ATOM     16  C   UNL     1      23.756  31.442   2.093  1.00  0.00     0.016 A 
ATOM     17  C   UNL     1      22.709  32.364   1.994  1.00  0.00     0.047 A 
BRANCH  15  18
ATOM     18  O   UNL     1      21.572  34.125   0.799  1.00  0.00    -0.508 OA
ATOM     19  H   UNL     1      20.678  33.948   1.242  1.00  0.00     0.293 HD
ENDBRANCH  15  18
ENDBRANCH   1  12
BRANCH   2  20
ATOM     20  O   UNL     1      27.501  32.070   0.706  1.00  0.00    -0.502 OA
ATOM     21  H   UNL     1      27.567  32.384  -0.254  1.00  0.00     0.293 HD
ENDBRANCH   2  20
BRANCH   6  22
ATOM     22  O   UNL     1      30.127  27.484   1.375  1.00  0.00    -0.507 OA
ATOM     23  H   UNL     1      30.719  26.741   1.038  1.00  0.00     0.293 HD
ENDBRANCH   6  22
BRANCH   8  24
ATOM     24  O   UNL     1      26.480  24.578   2.517  1.00  0.00    -0.508 OA
ATOM     25  H   UNL     1      26.786  24.126   3.372  1.00  0.00     0.293 HD
ENDBRANCH   8  24
TORSDOF 5
ENDMDL
