MODEL 1
REMARK VINA RESULT:    16.166      0.000      0.000
REMARK INTER + INTRA:          24.689
REMARK INTER:                  23.253
REMARK INTRA:                   1.436
REMARK UNBOUND:                 1.436
REMARK SMILES O=c1cc(-c2ccc(O)c(O)c2)oc2cc(O[C@@H]3O[C@@H](CO)[C@H](O)[C@H](O)[C@@H]3O)cc(O)c12
REMARK SMILES IDX 17 1 16 2 4 3 3 4 13 5 2 6 14 7 1 8 32 9 15 10 30 11 29 12
REMARK SMILES IDX 5 13 6 14 7 15 8 16 12 17 10 18 9 19 11 21 31 23 18 25 27 26
REMARK SMILES IDX 19 27 25 28 20 29 23 30 28 31 26 33 21 35 22 36 24 38
REMARK H PARENT 9 20 11 22 31 24 28 32 26 34 22 37 24 39
REMARK Flexibility Score: inf
ROOT
ATOM      1  O   UNL     1      27.324  36.402  27.008  1.00  0.00    -0.462 OA
ENDROOT
BRANCH   1   2
ATOM      2  C   UNL     1      28.681  36.711  26.819  1.00  0.00     0.130 A 
ATOM      3  C   UNL     1      32.218  39.741  27.852  1.00  0.00     0.138 A 
ATOM      4  C   UNL     1      33.148  39.014  27.092  1.00  0.00     0.100 A 
ATOM      5  O   UNL     1      30.960  39.313  27.931  1.00  0.00    -0.456 OA
ATOM      6  C   UNL     1      32.736  37.863  26.420  1.00  0.00     0.197 A 
ATOM      7  C   UNL     1      30.520  38.222  27.311  1.00  0.00     0.146 A 
ATOM      8  O   UNL     1      33.577  37.215  25.741  1.00  0.00    -0.289 OA
ATOM      9  C   UNL     1      31.393  37.444  26.518  1.00  0.00     0.107 A 
ATOM     10  C   UNL     1      29.180  37.853  27.452  1.00  0.00     0.094 A 
ATOM     11  C   UNL     1      30.891  36.293  25.868  1.00  0.00     0.134 A 
ATOM     12  C   UNL     1      29.543  35.938  26.020  1.00  0.00     0.093 A 
BRANCH   3  13
ATOM     13  C   UNL     1      32.600  40.972  28.588  1.00  0.00     0.021 A 
ATOM     14  C   UNL     1      31.726  42.071  28.696  1.00  0.00     0.016 A 
ATOM     15  C   UNL     1      32.108  43.213  29.404  1.00  0.00     0.051 A 
ATOM     16  C   UNL     1      33.363  43.276  30.023  1.00  0.00     0.157 A 
ATOM     17  C   UNL     1      33.853  41.039  29.223  1.00  0.00     0.062 A 
ATOM     18  C   UNL     1      34.238  42.183  29.932  1.00  0.00     0.158 A 
BRANCH  16  19
ATOM     19  O   UNL     1      33.741  44.419  30.728  1.00  0.00    -0.504 OA
ATOM     20  H   UNL     1      33.121  45.216  30.816  1.00  0.00     0.293 HD
ENDBRANCH  16  19
BRANCH  18  21
ATOM     21  O   UNL     1      35.493  42.212  30.539  1.00  0.00    -0.504 OA
ATOM     22  H   UNL     1      35.726  41.614  31.323  1.00  0.00     0.293 HD
ENDBRANCH  18  21
ENDBRANCH   3  13
BRANCH  11  23
ATOM     23  O   UNL     1      31.721  35.502  25.072  1.00  0.00    -0.507 OA
ATOM     24  H   UNL     1      32.102  35.840  24.197  1.00  0.00     0.293 HD
ENDBRANCH  11  23
ENDBRANCH   1   2
BRANCH   1  25
ATOM     25  C   UNL     1      26.228  36.791  26.167  1.00  0.00     0.339 C 
ATOM     26  C   UNL     1      25.256  37.757  26.885  1.00  0.00     0.214 C 
ATOM     27  O   UNL     1      26.716  37.382  24.973  1.00  0.00    -0.332 OA
ATOM     28  C   UNL     1      25.943  39.102  27.172  1.00  0.00     0.180 C 
ATOM     29  C   UNL     1      27.470  38.560  25.230  1.00  0.00     0.179 C 
ATOM     30  C   UNL     1      26.573  39.645  25.882  1.00  0.00     0.177 C 
BRANCH  26  31
ATOM     31  O   UNL     1      24.776  37.200  28.081  1.00  0.00    -0.384 OA
ATOM     32  H   UNL     1      25.561  36.830  28.562  1.00  0.00     0.211 HD
ENDBRANCH  26  31
BRANCH  28  33
ATOM     33  O   UNL     1      26.933  38.954  28.161  1.00  0.00    -0.387 OA
ATOM     34  H   UNL     1      27.397  38.096  27.981  1.00  0.00     0.211 HD
ENDBRANCH  28  33
BRANCH  29  35
ATOM     35  C   UNL     1      28.054  39.042  23.895  1.00  0.00     0.191 C 
BRANCH  35  36
ATOM     36  O   UNL     1      28.917  40.127  24.101  1.00  0.00    -0.394 OA
ATOM     37  H   UNL     1      28.812  40.384  25.054  1.00  0.00     0.210 HD
ENDBRANCH  35  36
ENDBRANCH  29  35
BRANCH  30  38
ATOM     38  O   UNL     1      27.328  40.792  26.189  1.00  0.00    -0.387 OA
ATOM     39  H   UNL     1      26.703  41.461  26.573  1.00  0.00     0.211 HD
ENDBRANCH  30  38
ENDBRANCH   1  25
TORSDOF 11
ENDMDL
MODEL 2
REMARK VINA RESULT:    17.327      3.415      5.809
REMARK INTER + INTRA:          26.360
REMARK INTER:                  25.104
REMARK INTRA:                   1.256
REMARK UNBOUND:                 1.436
REMARK SMILES O=c1cc(-c2ccc(O)c(O)c2)oc2cc(O[C@@H]3O[C@@H](CO)[C@H](O)[C@H](O)[C@@H]3O)cc(O)c12
REMARK SMILES IDX 17 1 16 2 4 3 3 4 13 5 2 6 14 7 1 8 32 9 15 10 30 11 29 12
REMARK SMILES IDX 5 13 6 14 7 15 8 16 12 17 10 18 9 19 11 21 31 23 18 25 27 26
REMARK SMILES IDX 19 27 25 28 20 29 23 30 28 31 26 33 21 35 22 36 24 38
REMARK H PARENT 9 20 11 22 31 24 28 32 26 34 22 37 24 39
REMARK Flexibility Score: inf
ROOT
ATOM      1  O   UNL     1      27.583  38.368  27.949  1.00  0.00    -0.462 OA
ENDROOT
BRANCH   1   2
ATOM      2  C   UNL     1      28.907  37.988  27.676  1.00  0.00     0.130 A 
ATOM      3  C   UNL     1      32.201  37.311  24.292  1.00  0.00     0.138 A 
ATOM      4  C   UNL     1      33.175  36.930  25.227  1.00  0.00     0.100 A 
ATOM      5  O   UNL     1      30.983  37.645  24.714  1.00  0.00    -0.456 OA
ATOM      6  C   UNL     1      32.849  36.893  26.583  1.00  0.00     0.197 A 
ATOM      7  C   UNL     1      30.625  37.626  25.995  1.00  0.00     0.146 A 
ATOM      8  O   UNL     1      33.731  36.551  27.416  1.00  0.00    -0.289 OA
ATOM      9  C   UNL     1      31.547  37.243  26.994  1.00  0.00     0.107 A 
ATOM     10  C   UNL     1      29.321  37.990  26.341  1.00  0.00     0.094 A 
ATOM     11  C   UNL     1      31.131  37.229  28.346  1.00  0.00     0.134 A 
ATOM     12  C   UNL     1      29.818  37.597  28.675  1.00  0.00     0.093 A 
BRANCH   3  13
ATOM     13  C   UNL     1      32.492  37.369  22.837  1.00  0.00     0.021 A 
ATOM     14  C   UNL     1      31.561  36.924  21.878  1.00  0.00     0.016 A 
ATOM     15  C   UNL     1      31.858  37.001  20.515  1.00  0.00     0.051 A 
ATOM     16  C   UNL     1      33.081  37.530  20.085  1.00  0.00     0.157 A 
ATOM     17  C   UNL     1      33.712  37.911  22.396  1.00  0.00     0.062 A 
ATOM     18  C   UNL     1      34.012  37.988  21.031  1.00  0.00     0.158 A 
BRANCH  16  19
ATOM     19  O   UNL     1      33.374  37.603  18.723  1.00  0.00    -0.504 OA
ATOM     20  H   UNL     1      34.321  37.498  18.378  1.00  0.00     0.293 HD
ENDBRANCH  16  19
BRANCH  18  21
ATOM     21  O   UNL     1      35.237  38.523  20.636  1.00  0.00    -0.504 OA
ATOM     22  H   UNL     1      35.313  39.195  19.881  1.00  0.00     0.293 HD
ENDBRANCH  18  21
ENDBRANCH   3  13
BRANCH  11  23
ATOM     23  O   UNL     1      32.011  36.851  29.361  1.00  0.00    -0.507 OA
ATOM     24  H   UNL     1      31.681  36.571  30.277  1.00  0.00     0.293 HD
ENDBRANCH  11  23
ENDBRANCH   1   2
BRANCH   1  25
ATOM     25  C   UNL     1      26.454  37.497  28.105  1.00  0.00     0.339 C 
ATOM     26  C   UNL     1      25.393  37.714  27.001  1.00  0.00     0.214 C 
ATOM     27  O   UNL     1      26.880  36.143  28.118  1.00  0.00    -0.332 OA
ATOM     28  C   UNL     1      25.944  37.293  25.629  1.00  0.00     0.180 C 
ATOM     29  C   UNL     1      27.515  35.772  26.902  1.00  0.00     0.179 C 
ATOM     30  C   UNL     1      26.517  35.871  25.718  1.00  0.00     0.177 C 
BRANCH  26  31
ATOM     31  O   UNL     1      24.970  39.052  26.957  1.00  0.00    -0.384 OA
ATOM     32  H   UNL     1      25.667  39.589  27.417  1.00  0.00     0.211 HD
ENDBRANCH  26  31
BRANCH  28  33
ATOM     33  O   UNL     1      26.945  38.185  25.201  1.00  0.00    -0.387 OA
ATOM     34  H   UNL     1      27.583  37.663  24.649  1.00  0.00     0.211 HD
ENDBRANCH  28  33
BRANCH  29  35
ATOM     35  C   UNL     1      28.047  34.342  27.069  1.00  0.00     0.191 C 
BRANCH  35  36
ATOM     36  O   UNL     1      28.958  34.037  26.049  1.00  0.00    -0.394 OA
ATOM     37  H   UNL     1      28.418  33.692  25.291  1.00  0.00     0.210 HD
ENDBRANCH  35  36
ENDBRANCH  29  35
BRANCH  30  38
ATOM     38  O   UNL     1      27.155  35.559  24.504  1.00  0.00    -0.387 OA
ATOM     39  H   UNL     1      26.447  35.459  23.815  1.00  0.00     0.211 HD
ENDBRANCH  30  38
ENDBRANCH   1  25
TORSDOF 11
ENDMDL
MODEL 3
REMARK VINA RESULT:    18.161      1.832      3.959
REMARK INTER + INTRA:          27.559
REMARK INTER:                  24.711
REMARK INTRA:                   2.848
REMARK UNBOUND:                 1.436
REMARK SMILES O=c1cc(-c2ccc(O)c(O)c2)oc2cc(O[C@@H]3O[C@@H](CO)[C@H](O)[C@H](O)[C@@H]3O)cc(O)c12
REMARK SMILES IDX 17 1 16 2 4 3 3 4 13 5 2 6 14 7 1 8 32 9 15 10 30 11 29 12
REMARK SMILES IDX 5 13 6 14 7 15 8 16 12 17 10 18 9 19 11 21 31 23 18 25 27 26
REMARK SMILES IDX 19 27 25 28 20 29 23 30 28 31 26 33 21 35 22 36 24 38
REMARK H PARENT 9 20 11 22 31 24 28 32 26 34 22 37 24 39
REMARK Flexibility Score: inf
ROOT
ATOM      1  O   UNL     1      27.232  36.223  26.853  1.00  0.00    -0.462 OA
ENDROOT
BRANCH   1   2
ATOM      2  C   UNL     1      27.959  37.288  26.295  1.00  0.00     0.130 A 
ATOM      3  C   UNL     1      31.473  40.445  26.964  1.00  0.00     0.138 A 
ATOM      4  C   UNL     1      31.299  41.005  25.689  1.00  0.00     0.100 A 
ATOM      5  O   UNL     1      30.697  39.433  27.347  1.00  0.00    -0.456 OA
ATOM      6  C   UNL     1      30.306  40.502  24.848  1.00  0.00     0.197 A 
ATOM      7  C   UNL     1      29.739  38.919  26.581  1.00  0.00     0.146 A 
ATOM      8  O   UNL     1      30.157  41.009  23.703  1.00  0.00    -0.289 OA
ATOM      9  C   UNL     1      29.495  39.436  25.289  1.00  0.00     0.107 A 
ATOM     10  C   UNL     1      28.973  37.859  27.071  1.00  0.00     0.094 A 
ATOM     11  C   UNL     1      28.465  38.869  24.503  1.00  0.00     0.134 A 
ATOM     12  C   UNL     1      27.705  37.805  25.012  1.00  0.00     0.093 A 
BRANCH   3  13
ATOM     13  C   UNL     1      32.513  40.939  27.901  1.00  0.00     0.021 A 
ATOM     14  C   UNL     1      33.814  40.400  27.913  1.00  0.00     0.016 A 
ATOM     15  C   UNL     1      34.776  40.892  28.798  1.00  0.00     0.051 A 
ATOM     16  C   UNL     1      34.461  41.934  29.679  1.00  0.00     0.157 A 
ATOM     17  C   UNL     1      32.209  41.994  28.780  1.00  0.00     0.062 A 
ATOM     18  C   UNL     1      33.171  42.487  29.669  1.00  0.00     0.158 A 
BRANCH  16  19
ATOM     19  O   UNL     1      35.424  42.421  30.563  1.00  0.00    -0.504 OA
ATOM     20  H   UNL     1      35.411  43.381  30.885  1.00  0.00     0.293 HD
ENDBRANCH  16  19
BRANCH  18  21
ATOM     21  O   UNL     1      32.826  43.527  30.531  1.00  0.00    -0.504 OA
ATOM     22  H   UNL     1      32.503  43.358  31.476  1.00  0.00     0.293 HD
ENDBRANCH  18  21
ENDBRANCH   3  13
BRANCH  11  23
ATOM     23  O   UNL     1      28.190  39.356  23.224  1.00  0.00    -0.507 OA
ATOM     24  H   UNL     1      28.630  40.195  22.867  1.00  0.00     0.293 HD
ENDBRANCH  11  23
ENDBRANCH   1   2
BRANCH   1  25
ATOM     25  C   UNL     1      27.753  35.154  27.656  1.00  0.00     0.339 C 
ATOM     26  C   UNL     1      27.653  33.786  26.940  1.00  0.00     0.214 C 
ATOM     27  O   UNL     1      29.099  35.424  28.015  1.00  0.00    -0.332 OA
ATOM     28  C   UNL     1      28.574  33.750  25.709  1.00  0.00     0.180 C 
ATOM     29  C   UNL     1      29.944  35.527  26.876  1.00  0.00     0.179 C 
ATOM     30  C   UNL     1      29.992  34.177  26.113  1.00  0.00     0.177 C 
BRANCH  26  31
ATOM     31  O   UNL     1      26.332  33.506  26.558  1.00  0.00    -0.384 OA
ATOM     32  H   UNL     1      25.911  33.020  27.313  1.00  0.00     0.211 HD
ENDBRANCH  26  31
BRANCH  28  33
ATOM     33  O   UNL     1      28.088  34.602  24.700  1.00  0.00    -0.387 OA
ATOM     34  H   UNL     1      28.874  34.920  24.185  1.00  0.00     0.211 HD
ENDBRANCH  28  33
BRANCH  29  35
ATOM     35  C   UNL     1      31.338  35.945  27.365  1.00  0.00     0.191 C 
BRANCH  35  36
ATOM     36  O   UNL     1      31.627  35.343  28.597  1.00  0.00    -0.394 OA
ATOM     37  H   UNL     1      31.129  34.484  28.607  1.00  0.00     0.210 HD
ENDBRANCH  35  36
ENDBRANCH  29  35
BRANCH  30  38
ATOM     38  O   UNL     1      30.783  34.290  24.955  1.00  0.00    -0.387 OA
ATOM     39  H   UNL     1      30.258  34.804  24.288  1.00  0.00     0.211 HD
ENDBRANCH  30  38
ENDBRANCH   1  25
TORSDOF 11
ENDMDL
MODEL 4
REMARK VINA RESULT:    18.200      1.366      2.690
REMARK INTER + INTRA:          27.615
REMARK INTER:                  21.790
REMARK INTRA:                   5.825
REMARK UNBOUND:                 1.436
REMARK SMILES O=c1cc(-c2ccc(O)c(O)c2)oc2cc(O[C@@H]3O[C@@H](CO)[C@H](O)[C@H](O)[C@@H]3O)cc(O)c12
REMARK SMILES IDX 17 1 16 2 4 3 3 4 13 5 2 6 14 7 1 8 32 9 15 10 30 11 29 12
REMARK SMILES IDX 5 13 6 14 7 15 8 16 12 17 10 18 9 19 11 21 31 23 18 25 27 26
REMARK SMILES IDX 19 27 25 28 20 29 23 30 28 31 26 33 21 35 22 36 24 38
REMARK H PARENT 9 20 11 22 31 24 28 32 26 34 22 37 24 39
REMARK Flexibility Score: inf
ROOT
ATOM      1  O   UNL     1      27.134  37.861  25.166  1.00  0.00    -0.462 OA
ENDROOT
BRANCH   1   2
ATOM      2  C   UNL     1      28.523  37.865  25.374  1.00  0.00     0.130 A 
ATOM      3  C   UNL     1      32.183  40.023  27.544  1.00  0.00     0.138 A 
ATOM      4  C   UNL     1      33.114  39.118  27.011  1.00  0.00     0.100 A 
ATOM      5  O   UNL     1      30.892  39.883  27.249  1.00  0.00    -0.456 OA
ATOM      6  C   UNL     1      32.675  38.095  26.170  1.00  0.00     0.197 A 
ATOM      7  C   UNL     1      30.425  38.924  26.454  1.00  0.00     0.146 A 
ATOM      8  O   UNL     1      33.518  37.287  25.697  1.00  0.00    -0.289 OA
ATOM      9  C   UNL     1      31.302  37.983  25.871  1.00  0.00     0.107 A 
ATOM     10  C   UNL     1      29.053  38.860  26.201  1.00  0.00     0.094 A 
ATOM     11  C   UNL     1      30.773  36.980  25.026  1.00  0.00     0.134 A 
ATOM     12  C   UNL     1      29.392  36.931  24.782  1.00  0.00     0.093 A 
BRANCH   3  13
ATOM     13  C   UNL     1      32.592  41.129  28.445  1.00  0.00     0.021 A 
ATOM     14  C   UNL     1      31.718  42.187  28.762  1.00  0.00     0.016 A 
ATOM     15  C   UNL     1      32.127  43.209  29.622  1.00  0.00     0.051 A 
ATOM     16  C   UNL     1      33.409  43.191  30.185  1.00  0.00     0.157 A 
ATOM     17  C   UNL     1      33.873  41.112  29.025  1.00  0.00     0.062 A 
ATOM     18  C   UNL     1      34.285  42.136  29.885  1.00  0.00     0.158 A 
BRANCH  16  19
ATOM     19  O   UNL     1      33.814  44.215  31.041  1.00  0.00    -0.504 OA
ATOM     20  H   UNL     1      34.380  44.989  30.712  1.00  0.00     0.293 HD
ENDBRANCH  16  19
BRANCH  18  21
ATOM     21  O   UNL     1      35.567  42.086  30.432  1.00  0.00    -0.504 OA
ATOM     22  H   UNL     1      36.177  42.895  30.446  1.00  0.00     0.293 HD
ENDBRANCH  18  21
ENDBRANCH   3  13
BRANCH  11  23
ATOM     23  O   UNL     1      31.607  36.035  24.427  1.00  0.00    -0.507 OA
ATOM     24  H   UNL     1      31.347  35.557  23.573  1.00  0.00     0.293 HD
ENDBRANCH  11  23
ENDBRANCH   1   2
BRANCH   1  25
ATOM     25  C   UNL     1      26.140  37.258  26.009  1.00  0.00     0.339 C 
ATOM     26  C   UNL     1      26.204  35.713  25.971  1.00  0.00     0.214 C 
ATOM     27  O   UNL     1      26.283  37.725  27.341  1.00  0.00    -0.332 OA
ATOM     28  C   UNL     1      27.514  35.209  26.598  1.00  0.00     0.180 C 
ATOM     29  C   UNL     1      27.547  37.381  27.894  1.00  0.00     0.179 C 
ATOM     30  C   UNL     1      27.698  35.840  27.986  1.00  0.00     0.177 C 
BRANCH  26  31
ATOM     31  O   UNL     1      26.084  35.230  24.659  1.00  0.00    -0.384 OA
ATOM     32  H   UNL     1      25.139  34.950  24.541  1.00  0.00     0.211 HD
ENDBRANCH  26  31
BRANCH  28  33
ATOM     33  O   UNL     1      28.612  35.530  25.779  1.00  0.00    -0.387 OA
ATOM     34  H   UNL     1      29.284  35.978  26.355  1.00  0.00     0.211 HD
ENDBRANCH  28  33
BRANCH  29  35
ATOM     35  C   UNL     1      27.647  38.038  29.278  1.00  0.00     0.191 C 
BRANCH  35  36
ATOM     36  O   UNL     1      27.094  37.203  30.258  1.00  0.00    -0.394 OA
ATOM     37  H   UNL     1      26.188  36.961  29.934  1.00  0.00     0.210 HD
ENDBRANCH  35  36
ENDBRANCH  29  35
BRANCH  30  38
ATOM     38  O   UNL     1      28.969  35.495  28.480  1.00  0.00    -0.387 OA
ATOM     39  H   UNL     1      29.630  36.086  28.034  1.00  0.00     0.211 HD
ENDBRANCH  30  38
ENDBRANCH   1  25
TORSDOF 11
ENDMDL
