MODEL 1
REMARK VINA RESULT:    -5.820      0.000      0.000
REMARK INTER + INTRA:          -7.140
REMARK INTER:                  -7.011
REMARK INTRA:                  -0.129
REMARK UNBOUND:                -0.129
REMARK SMILES O=c1c(O)c(-c2ccc(O)c(O)c2)oc2cc(O)cc(O)c12
REMARK SMILES IDX 5 1 3 2 2 3 1 4 22 5 20 6 19 7 17 8 16 9 15 10 14 11 6 12
REMARK SMILES IDX 7 13 8 14 9 15 13 16 11 17 10 18 12 20 4 22 21 24 18 26
REMARK H PARENT 10 19 12 21 4 23 21 25 18 27
REMARK Flexibility Score: inf
ROOT
ATOM      1  C   UNL     1      23.853  -6.810  -5.371  1.00  0.00     0.180 A 
ATOM      2  C   UNL     1      23.406  -7.138  -6.662  1.00  0.00     0.208 A 
ATOM      3  C   UNL     1      22.321  -6.431  -7.206  1.00  0.00     0.238 A 
ATOM      4  O   UNL     1      21.959  -6.692  -8.384  1.00  0.00    -0.285 OA
ATOM      5  C   UNL     1      21.688  -5.418  -6.447  1.00  0.00     0.111 A 
ATOM      6  C   UNL     1      20.555  -4.666  -6.883  1.00  0.00     0.134 A 
ATOM      7  C   UNL     1      20.092  -3.600  -6.104  1.00  0.00     0.093 A 
ATOM      8  C   UNL     1      20.679  -3.300  -4.872  1.00  0.00     0.123 A 
ATOM      9  C   UNL     1      21.748  -4.066  -4.411  1.00  0.00     0.094 A 
ATOM     10  C   UNL     1      22.255  -5.113  -5.183  1.00  0.00     0.146 A 
ATOM     11  O   UNL     1      23.280  -5.811  -4.709  1.00  0.00    -0.452 OA
ENDROOT
BRANCH   1  12
ATOM     12  C   UNL     1      24.973  -7.527  -4.720  1.00  0.00     0.025 A 
ATOM     13  C   UNL     1      24.865  -8.906  -4.479  1.00  0.00     0.016 A 
ATOM     14  C   UNL     1      25.918  -9.605  -3.884  1.00  0.00     0.051 A 
ATOM     15  C   UNL     1      27.099  -8.944  -3.537  1.00  0.00     0.157 A 
ATOM     16  C   UNL     1      26.171  -6.868  -4.389  1.00  0.00     0.062 A 
ATOM     17  C   UNL     1      27.231  -7.569  -3.794  1.00  0.00     0.158 A 
BRANCH  15  18
ATOM     18  O   UNL     1      28.133  -9.668  -2.943  1.00  0.00    -0.504 OA
ATOM     19  H   UNL     1      28.751  -9.258  -2.253  1.00  0.00     0.293 HD
ENDBRANCH  15  18
BRANCH  17  20
ATOM     20  O   UNL     1      28.411  -6.905  -3.464  1.00  0.00    -0.504 OA
ATOM     21  H   UNL     1      29.058  -6.586  -4.176  1.00  0.00     0.293 HD
ENDBRANCH  17  20
ENDBRANCH   1  12
BRANCH   2  22
ATOM     22  O   UNL     1      24.059  -8.127  -7.403  1.00  0.00    -0.502 OA
ATOM     23  H   UNL     1      23.799  -8.354  -8.355  1.00  0.00     0.293 HD
ENDBRANCH   2  22
BRANCH   6  24
ATOM     24  O   UNL     1      19.839  -4.942  -8.052  1.00  0.00    -0.507 OA
ATOM     25  H   UNL     1      18.859  -5.183  -8.083  1.00  0.00     0.293 HD
ENDBRANCH   6  24
BRANCH   8  26
ATOM     26  O   UNL     1      20.203  -2.246  -4.095  1.00  0.00    -0.508 OA
ATOM     27  H   UNL     1      20.817  -1.718  -3.486  1.00  0.00     0.293 HD
ENDBRANCH   8  26
TORSDOF 6
ENDMDL
MODEL 2
REMARK VINA RESULT:    -5.589      0.610      1.476
REMARK INTER + INTRA:          -6.861
REMARK INTER:                  -6.717
REMARK INTRA:                  -0.144
REMARK UNBOUND:                -0.129
REMARK SMILES O=c1c(O)c(-c2ccc(O)c(O)c2)oc2cc(O)cc(O)c12
REMARK SMILES IDX 5 1 3 2 2 3 1 4 22 5 20 6 19 7 17 8 16 9 15 10 14 11 6 12
REMARK SMILES IDX 7 13 8 14 9 15 13 16 11 17 10 18 12 20 4 22 21 24 18 26
REMARK H PARENT 10 19 12 21 4 23 21 25 18 27
REMARK Flexibility Score: inf
ROOT
ATOM      1  C   UNL     1      23.837  -6.898  -5.448  1.00  0.00     0.180 A 
ATOM      2  C   UNL     1      23.386  -7.196  -6.745  1.00  0.00     0.208 A 
ATOM      3  C   UNL     1      22.313  -6.462  -7.277  1.00  0.00     0.238 A 
ATOM      4  O   UNL     1      21.948  -6.698  -8.459  1.00  0.00    -0.285 OA
ATOM      5  C   UNL     1      21.696  -5.452  -6.502  1.00  0.00     0.111 A 
ATOM      6  C   UNL     1      20.577  -4.674  -6.925  1.00  0.00     0.134 A 
ATOM      7  C   UNL     1      20.131  -3.614  -6.129  1.00  0.00     0.093 A 
ATOM      8  C   UNL     1      20.722  -3.344  -4.892  1.00  0.00     0.123 A 
ATOM      9  C   UNL     1      21.777  -4.135  -4.443  1.00  0.00     0.094 A 
ATOM     10  C   UNL     1      22.268  -5.177  -5.232  1.00  0.00     0.146 A 
ATOM     11  O   UNL     1      23.281  -5.900  -4.770  1.00  0.00    -0.452 OA
ENDROOT
BRANCH   1  12
ATOM     12  C   UNL     1      24.946  -7.643  -4.809  1.00  0.00     0.025 A 
ATOM     13  C   UNL     1      26.081  -6.947  -4.364  1.00  0.00     0.016 A 
ATOM     14  C   UNL     1      27.129  -7.628  -3.740  1.00  0.00     0.051 A 
ATOM     15  C   UNL     1      27.054  -9.009  -3.537  1.00  0.00     0.157 A 
ATOM     16  C   UNL     1      24.863  -9.029  -4.584  1.00  0.00     0.062 A 
ATOM     17  C   UNL     1      25.914  -9.714  -3.956  1.00  0.00     0.158 A 
BRANCH  15  18
ATOM     18  O   UNL     1      28.117  -9.661  -2.913  1.00  0.00    -0.504 OA
ATOM     19  H   UNL     1      28.370 -10.616  -3.139  1.00  0.00     0.293 HD
ENDBRANCH  15  18
BRANCH  17  20
ATOM     20  O   UNL     1      25.825 -11.089  -3.744  1.00  0.00    -0.504 OA
ATOM     21  H   UNL     1      26.611 -11.625  -3.395  1.00  0.00     0.293 HD
ENDBRANCH  17  20
ENDBRANCH   1  12
BRANCH   2  22
ATOM     22  O   UNL     1      24.023  -8.183  -7.501  1.00  0.00    -0.502 OA
ATOM     23  H   UNL     1      24.297  -9.076  -7.110  1.00  0.00     0.293 HD
ENDBRANCH   2  22
BRANCH   6  24
ATOM     24  O   UNL     1      19.856  -4.919  -8.099  1.00  0.00    -0.507 OA
ATOM     25  H   UNL     1      19.079  -4.361  -8.423  1.00  0.00     0.293 HD
ENDBRANCH   6  24
BRANCH   8  26
ATOM     26  O   UNL     1      20.263  -2.296  -4.097  1.00  0.00    -0.508 OA
ATOM     27  H   UNL     1      20.771  -1.423  -4.027  1.00  0.00     0.293 HD
ENDBRANCH   8  26
TORSDOF 6
ENDMDL
MODEL 3
REMARK VINA RESULT:    -5.142      2.622      4.600
REMARK INTER + INTRA:          -6.322
REMARK INTER:                  -6.469
REMARK INTRA:                   0.147
REMARK UNBOUND:                -0.129
REMARK SMILES O=c1c(O)c(-c2ccc(O)c(O)c2)oc2cc(O)cc(O)c12
REMARK SMILES IDX 5 1 3 2 2 3 1 4 22 5 20 6 19 7 17 8 16 9 15 10 14 11 6 12
REMARK SMILES IDX 7 13 8 14 9 15 13 16 11 17 10 18 12 20 4 22 21 24 18 26
REMARK H PARENT 10 19 12 21 4 23 21 25 18 27
REMARK Flexibility Score: inf
ROOT
ATOM      1  C   UNL     1      25.885  -9.095  -4.517  1.00  0.00     0.180 A 
ATOM      2  C   UNL     1      25.421  -7.883  -3.979  1.00  0.00     0.208 A 
ATOM      3  C   UNL     1      24.399  -7.189  -4.647  1.00  0.00     0.238 A 
ATOM      4  O   UNL     1      23.951  -6.131  -4.131  1.00  0.00    -0.285 OA
ATOM      5  C   UNL     1      23.866  -7.707  -5.851  1.00  0.00     0.111 A 
ATOM      6  C   UNL     1      22.857  -7.067  -6.632  1.00  0.00     0.134 A 
ATOM      7  C   UNL     1      22.311  -7.733  -7.735  1.00  0.00     0.093 A 
ATOM      8  C   UNL     1      22.785  -8.988  -8.126  1.00  0.00     0.123 A 
ATOM      9  C   UNL     1      23.811  -9.595  -7.404  1.00  0.00     0.094 A 
ATOM     10  C   UNL     1      24.350  -8.971  -6.277  1.00  0.00     0.146 A 
ATOM     11  O   UNL     1      25.319  -9.588  -5.613  1.00  0.00    -0.452 OA
ENDROOT
BRANCH   1  12
ATOM     12  C   UNL     1      26.976  -9.872  -3.885  1.00  0.00     0.025 A 
ATOM     13  C   UNL     1      26.979 -10.051  -2.492  1.00  0.00     0.016 A 
ATOM     14  C   UNL     1      27.988 -10.797  -1.877  1.00  0.00     0.051 A 
ATOM     15  C   UNL     1      28.997 -11.387  -2.643  1.00  0.00     0.157 A 
ATOM     16  C   UNL     1      27.981 -10.484  -4.655  1.00  0.00     0.062 A 
ATOM     17  C   UNL     1      28.994 -11.236  -4.039  1.00  0.00     0.158 A 
BRANCH  15  18
ATOM     18  O   UNL     1      29.992 -12.125  -2.000  1.00  0.00    -0.504 OA
ATOM     19  H   UNL     1      30.961 -11.831  -1.994  1.00  0.00     0.293 HD
ENDBRANCH  15  18
BRANCH  17  20
ATOM     20  O   UNL     1      29.989 -11.834  -4.810  1.00  0.00    -0.504 OA
ATOM     21  H   UNL     1      30.972 -11.710  -4.598  1.00  0.00     0.293 HD
ENDBRANCH  17  20
ENDBRANCH   1  12
BRANCH   2  22
ATOM     22  O   UNL     1      25.947  -7.400  -2.777  1.00  0.00    -0.502 OA
ATOM     23  H   UNL     1      26.860  -6.966  -2.719  1.00  0.00     0.293 HD
ENDBRANCH   2  22
BRANCH   6  24
ATOM     24  O   UNL     1      22.379  -5.776  -6.384  1.00  0.00    -0.507 OA
ATOM     25  H   UNL     1      22.620  -5.220  -5.576  1.00  0.00     0.293 HD
ENDBRANCH   6  24
BRANCH   8  26
ATOM     26  O   UNL     1      22.248  -9.638  -9.235  1.00  0.00    -0.508 OA
ATOM     27  H   UNL     1      21.766  -9.128  -9.965  1.00  0.00     0.293 HD
ENDBRANCH   8  26
TORSDOF 6
ENDMDL
MODEL 4
REMARK VINA RESULT:    -5.127      1.452      6.571
REMARK INTER + INTRA:          -6.305
REMARK INTER:                  -6.360
REMARK INTRA:                   0.056
REMARK UNBOUND:                -0.129
REMARK SMILES O=c1c(O)c(-c2ccc(O)c(O)c2)oc2cc(O)cc(O)c12
REMARK SMILES IDX 5 1 3 2 2 3 1 4 22 5 20 6 19 7 17 8 16 9 15 10 14 11 6 12
REMARK SMILES IDX 7 13 8 14 9 15 13 16 11 17 10 18 12 20 4 22 21 24 18 26
REMARK H PARENT 10 19 12 21 4 23 21 25 18 27
REMARK Flexibility Score: inf
ROOT
ATOM      1  C   UNL     1      22.503  -5.790  -5.651  1.00  0.00     0.180 A 
ATOM      2  C   UNL     1      22.573  -6.669  -6.746  1.00  0.00     0.208 A 
ATOM      3  C   UNL     1      23.449  -7.765  -6.683  1.00  0.00     0.238 A 
ATOM      4  O   UNL     1      23.468  -8.578  -7.644  1.00  0.00    -0.285 OA
ATOM      5  C   UNL     1      24.254  -7.958  -5.536  1.00  0.00     0.111 A 
ATOM      6  C   UNL     1      25.206  -9.011  -5.381  1.00  0.00     0.134 A 
ATOM      7  C   UNL     1      25.853  -9.183  -4.152  1.00  0.00     0.093 A 
ATOM      8  C   UNL     1      25.632  -8.300  -3.092  1.00  0.00     0.123 A 
ATOM      9  C   UNL     1      24.749  -7.234  -3.253  1.00  0.00     0.094 A 
ATOM     10  C   UNL     1      24.062  -7.059  -4.455  1.00  0.00     0.146 A 
ATOM     11  O   UNL     1      23.223  -6.035  -4.562  1.00  0.00    -0.452 OA
ENDROOT
BRANCH   1  12
ATOM     12  C   UNL     1      21.622  -4.600  -5.653  1.00  0.00     0.025 A 
ATOM     13  C   UNL     1      20.269  -4.741  -6.002  1.00  0.00     0.016 A 
ATOM     14  C   UNL     1      19.416  -3.634  -5.990  1.00  0.00     0.051 A 
ATOM     15  C   UNL     1      19.896  -2.376  -5.615  1.00  0.00     0.157 A 
ATOM     16  C   UNL     1      22.097  -3.336  -5.255  1.00  0.00     0.062 A 
ATOM     17  C   UNL     1      21.241  -2.225  -5.241  1.00  0.00     0.158 A 
BRANCH  15  18
ATOM     18  O   UNL     1      19.021  -1.290  -5.614  1.00  0.00    -0.504 OA
ATOM     19  H   UNL     1      19.170  -0.478  -5.027  1.00  0.00     0.293 HD
ENDBRANCH  15  18
BRANCH  17  20
ATOM     20  O   UNL     1      21.723  -0.976  -4.851  1.00  0.00    -0.504 OA
ATOM     21  H   UNL     1      21.369  -0.119  -5.260  1.00  0.00     0.293 HD
ENDBRANCH  17  20
ENDBRANCH   1  12
BRANCH   2  22
ATOM     22  O   UNL     1      21.753  -6.471  -7.860  1.00  0.00    -0.502 OA
ATOM     23  H   UNL     1      20.767  -6.704  -7.858  1.00  0.00     0.293 HD
ENDBRANCH   2  22
BRANCH   6  24
ATOM     24  O   UNL     1      25.569  -9.892  -6.405  1.00  0.00    -0.507 OA
ATOM     25  H   UNL     1      26.519 -10.104  -6.671  1.00  0.00     0.293 HD
ENDBRANCH   6  24
BRANCH   8  26
ATOM     26  O   UNL     1      26.292  -8.468  -1.876  1.00  0.00    -0.508 OA
ATOM     27  H   UNL     1      25.872  -8.987  -1.114  1.00  0.00     0.293 HD
ENDBRANCH   8  26
TORSDOF 6
ENDMDL
MODEL 5
REMARK VINA RESULT:    -4.888      1.367      6.778
REMARK INTER + INTRA:          -6.017
REMARK INTER:                  -6.413
REMARK INTRA:                   0.396
REMARK UNBOUND:                -0.129
REMARK SMILES O=c1c(O)c(-c2ccc(O)c(O)c2)oc2cc(O)cc(O)c12
REMARK SMILES IDX 5 1 3 2 2 3 1 4 22 5 20 6 19 7 17 8 16 9 15 10 14 11 6 12
REMARK SMILES IDX 7 13 8 14 9 15 13 16 11 17 10 18 12 20 4 22 21 24 18 26
REMARK H PARENT 10 19 12 21 4 23 21 25 18 27
REMARK Flexibility Score: inf
ROOT
ATOM      1  C   UNL     1      22.499  -5.869  -5.661  1.00  0.00     0.180 A 
ATOM      2  C   UNL     1      22.592  -6.748  -6.754  1.00  0.00     0.208 A 
ATOM      3  C   UNL     1      23.495  -7.823  -6.688  1.00  0.00     0.238 A 
ATOM      4  O   UNL     1      23.534  -8.637  -7.647  1.00  0.00    -0.285 OA
ATOM      5  C   UNL     1      24.302  -7.995  -5.539  1.00  0.00     0.111 A 
ATOM      6  C   UNL     1      25.278  -9.025  -5.381  1.00  0.00     0.134 A 
ATOM      7  C   UNL     1      25.927  -9.179  -4.150  1.00  0.00     0.093 A 
ATOM      8  C   UNL     1      25.683  -8.299  -3.092  1.00  0.00     0.123 A 
ATOM      9  C   UNL     1      24.776  -7.255  -3.257  1.00  0.00     0.094 A 
ATOM     10  C   UNL     1      24.086  -7.098  -4.460  1.00  0.00     0.146 A 
ATOM     11  O   UNL     1      23.223  -6.095  -4.571  1.00  0.00    -0.452 OA
ENDROOT
BRANCH   1  12
ATOM     12  C   UNL     1      21.591  -4.700  -5.666  1.00  0.00     0.025 A 
ATOM     13  C   UNL     1      21.849  -3.620  -4.806  1.00  0.00     0.016 A 
ATOM     14  C   UNL     1      21.016  -2.499  -4.809  1.00  0.00     0.051 A 
ATOM     15  C   UNL     1      19.925  -2.430  -5.680  1.00  0.00     0.157 A 
ATOM     16  C   UNL     1      20.505  -4.619  -6.557  1.00  0.00     0.062 A 
ATOM     17  C   UNL     1      19.669  -3.492  -6.562  1.00  0.00     0.158 A 
BRANCH  15  18
ATOM     18  O   UNL     1      19.110  -1.298  -5.658  1.00  0.00    -0.504 OA
ATOM     19  H   UNL     1      18.699  -0.914  -6.501  1.00  0.00     0.293 HD
ENDBRANCH  15  18
BRANCH  17  20
ATOM     20  O   UNL     1      18.591  -3.425  -7.444  1.00  0.00    -0.504 OA
ATOM     21  H   UNL     1      18.046  -2.578  -7.553  1.00  0.00     0.293 HD
ENDBRANCH  17  20
ENDBRANCH   1  12
BRANCH   2  22
ATOM     22  O   UNL     1      21.770  -6.572  -7.870  1.00  0.00    -0.502 OA
ATOM     23  H   UNL     1      22.077  -6.077  -8.699  1.00  0.00     0.293 HD
ENDBRANCH   2  22
BRANCH   6  24
ATOM     24  O   UNL     1      25.663  -9.898  -6.403  1.00  0.00    -0.507 OA
ATOM     25  H   UNL     1      25.929 -10.863  -6.265  1.00  0.00     0.293 HD
ENDBRANCH   6  24
BRANCH   8  26
ATOM     26  O   UNL     1      26.345  -8.450  -1.875  1.00  0.00    -0.508 OA
ATOM     27  H   UNL     1      26.117  -7.873  -1.074  1.00  0.00     0.293 HD
ENDBRANCH   8  26
TORSDOF 6
ENDMDL
MODEL 6
REMARK VINA RESULT:    -4.788      2.546      7.338
REMARK INTER + INTRA:          -5.897
REMARK INTER:                  -6.047
REMARK INTRA:                   0.151
REMARK UNBOUND:                -0.129
REMARK SMILES O=c1c(O)c(-c2ccc(O)c(O)c2)oc2cc(O)cc(O)c12
REMARK SMILES IDX 5 1 3 2 2 3 1 4 22 5 20 6 19 7 17 8 16 9 15 10 14 11 6 12
REMARK SMILES IDX 7 13 8 14 9 15 13 16 11 17 10 18 12 20 4 22 21 24 18 26
REMARK H PARENT 10 19 12 21 4 23 21 25 18 27
REMARK Flexibility Score: inf
ROOT
ATOM      1  C   UNL     1      24.753  -8.909  -5.553  1.00  0.00     0.180 A 
ATOM      2  C   UNL     1      24.669 -10.293  -5.322  1.00  0.00     0.208 A 
ATOM      3  C   UNL     1      25.589 -10.894  -4.447  1.00  0.00     0.238 A 
ATOM      4  O   UNL     1      25.475 -12.124  -4.203  1.00  0.00    -0.285 OA
ATOM      5  C   UNL     1      26.589 -10.108  -3.827  1.00  0.00     0.111 A 
ATOM      6  C   UNL     1      27.596 -10.619  -2.954  1.00  0.00     0.134 A 
ATOM      7  C   UNL     1      28.453  -9.731  -2.294  1.00  0.00     0.093 A 
ATOM      8  C   UNL     1      28.383  -8.355  -2.526  1.00  0.00     0.123 A 
ATOM      9  C   UNL     1      27.442  -7.852  -3.421  1.00  0.00     0.094 A 
ATOM     10  C   UNL     1      26.549  -8.710  -4.067  1.00  0.00     0.146 A 
ATOM     11  O   UNL     1      25.661  -8.188  -4.905  1.00  0.00    -0.452 OA
ENDROOT
BRANCH   1  12
ATOM     12  C   UNL     1      23.837  -8.208  -6.481  1.00  0.00     0.025 A 
ATOM     13  C   UNL     1      23.432  -6.895  -6.191  1.00  0.00     0.016 A 
ATOM     14  C   UNL     1      22.583  -6.208  -7.063  1.00  0.00     0.051 A 
ATOM     15  C   UNL     1      22.140  -6.814  -8.243  1.00  0.00     0.157 A 
ATOM     16  C   UNL     1      23.406  -8.808  -7.678  1.00  0.00     0.062 A 
ATOM     17  C   UNL     1      22.556  -8.118  -8.556  1.00  0.00     0.158 A 
BRANCH  15  18
ATOM     18  O   UNL     1      21.293  -6.104  -9.093  1.00  0.00    -0.504 OA
ATOM     19  H   UNL     1      20.677  -5.375  -8.753  1.00  0.00     0.293 HD
ENDBRANCH  15  18
BRANCH  17  20
ATOM     20  O   UNL     1      22.130  -8.723  -9.737  1.00  0.00    -0.504 OA
ATOM     21  H   UNL     1      22.570  -9.565 -10.091  1.00  0.00     0.293 HD
ENDBRANCH  17  20
ENDBRANCH   1  12
BRANCH   2  22
ATOM     22  O   UNL     1      23.661 -11.047  -5.929  1.00  0.00    -0.502 OA
ATOM     23  H   UNL     1      23.171 -11.790  -5.444  1.00  0.00     0.293 HD
ENDBRANCH   2  22
BRANCH   6  24
ATOM     24  O   UNL     1      27.812 -11.981  -2.724  1.00  0.00    -0.507 OA
ATOM     25  H   UNL     1      27.301 -12.728  -3.172  1.00  0.00     0.293 HD
ENDBRANCH   6  24
BRANCH   8  26
ATOM     26  O   UNL     1      29.250  -7.478  -1.877  1.00  0.00    -0.508 OA
ATOM     27  H   UNL     1      29.413  -7.538  -0.879  1.00  0.00     0.293 HD
ENDBRANCH   8  26
TORSDOF 6
ENDMDL
MODEL 7
REMARK VINA RESULT:    -4.023      5.186      7.088
REMARK INTER + INTRA:          -4.975
REMARK INTER:                  -4.814
REMARK INTRA:                  -0.161
REMARK UNBOUND:                -0.129
REMARK SMILES O=c1c(O)c(-c2ccc(O)c(O)c2)oc2cc(O)cc(O)c12
REMARK SMILES IDX 5 1 3 2 2 3 1 4 22 5 20 6 19 7 17 8 16 9 15 10 14 11 6 12
REMARK SMILES IDX 7 13 8 14 9 15 13 16 11 17 10 18 12 20 4 22 21 24 18 26
REMARK H PARENT 10 19 12 21 4 23 21 25 18 27
REMARK Flexibility Score: inf
ROOT
ATOM      1  C   UNL     1      20.514  -1.785  -4.590  1.00  0.00     0.180 A 
ATOM      2  C   UNL     1      21.078  -2.882  -5.262  1.00  0.00     0.208 A 
ATOM      3  C   UNL     1      20.229  -3.884  -5.762  1.00  0.00     0.238 A 
ATOM      4  O   UNL     1      20.737  -4.837  -6.410  1.00  0.00    -0.285 OA
ATOM      5  C   UNL     1      18.831  -3.783  -5.569  1.00  0.00     0.111 A 
ATOM      6  C   UNL     1      17.881  -4.759  -5.998  1.00  0.00     0.134 A 
ATOM      7  C   UNL     1      16.513  -4.494  -5.871  1.00  0.00     0.093 A 
ATOM      8  C   UNL     1      16.060  -3.316  -5.270  1.00  0.00     0.123 A 
ATOM      9  C   UNL     1      16.981  -2.384  -4.795  1.00  0.00     0.094 A 
ATOM     10  C   UNL     1      18.352  -2.605  -4.941  1.00  0.00     0.146 A 
ATOM     11  O   UNL     1      19.194  -1.686  -4.482  1.00  0.00    -0.452 OA
ENDROOT
BRANCH   1  12
ATOM     12  C   UNL     1      21.344  -0.703  -4.013  1.00  0.00     0.025 A 
ATOM     13  C   UNL     1      21.407  -0.548  -2.619  1.00  0.00     0.016 A 
ATOM     14  C   UNL     1      22.200   0.454  -2.053  1.00  0.00     0.051 A 
ATOM     15  C   UNL     1      22.953   1.304  -2.868  1.00  0.00     0.157 A 
ATOM     16  C   UNL     1      22.120   0.140  -4.829  1.00  0.00     0.062 A 
ATOM     17  C   UNL     1      22.918   1.145  -4.263  1.00  0.00     0.158 A 
BRANCH  15  18
ATOM     18  O   UNL     1      23.734   2.295  -2.274  1.00  0.00    -0.504 OA
ATOM     19  H   UNL     1      24.548   2.686  -2.733  1.00  0.00     0.293 HD
ENDBRANCH  15  18
BRANCH  17  20
ATOM     20  O   UNL     1      23.678   1.979  -5.081  1.00  0.00    -0.504 OA
ATOM     21  H   UNL     1      23.260   2.747  -5.593  1.00  0.00     0.293 HD
ENDBRANCH  17  20
ENDBRANCH   1  12
BRANCH   2  22
ATOM     22  O   UNL     1      22.460  -2.951  -5.460  1.00  0.00    -0.502 OA
ATOM     23  H   UNL     1      22.990  -3.799  -5.302  1.00  0.00     0.293 HD
ENDBRANCH   2  22
BRANCH   6  24
ATOM     24  O   UNL     1      18.229  -6.006  -6.527  1.00  0.00    -0.507 OA
ATOM     25  H   UNL     1      18.427  -6.182  -7.501  1.00  0.00     0.293 HD
ENDBRANCH   6  24
BRANCH   8  26
ATOM     26  O   UNL     1      14.696  -3.066  -5.132  1.00  0.00    -0.508 OA
ATOM     27  H   UNL     1      14.037  -3.814  -4.953  1.00  0.00     0.293 HD
ENDBRANCH   8  26
TORSDOF 6
ENDMDL
MODEL 8
REMARK VINA RESULT:    -3.805      2.254      7.097
REMARK INTER + INTRA:          -4.712
REMARK INTER:                  -5.125
REMARK INTRA:                   0.413
REMARK UNBOUND:                -0.129
REMARK SMILES O=c1c(O)c(-c2ccc(O)c(O)c2)oc2cc(O)cc(O)c12
REMARK SMILES IDX 5 1 3 2 2 3 1 4 22 5 20 6 19 7 17 8 16 9 15 10 14 11 6 12
REMARK SMILES IDX 7 13 8 14 9 15 13 16 11 17 10 18 12 20 4 22 21 24 18 26
REMARK H PARENT 10 19 12 21 4 23 21 25 18 27
REMARK Flexibility Score: inf
ROOT
ATOM      1  C   UNL     1      21.883  -5.745  -6.122  1.00  0.00     0.180 A 
ATOM      2  C   UNL     1      22.874  -5.941  -5.145  1.00  0.00     0.208 A 
ATOM      3  C   UNL     1      23.694  -7.079  -5.227  1.00  0.00     0.238 A 
ATOM      4  O   UNL     1      24.615  -7.222  -4.380  1.00  0.00    -0.285 OA
ATOM      5  C   UNL     1      23.502  -8.012  -6.273  1.00  0.00     0.111 A 
ATOM      6  C   UNL     1      24.248  -9.219  -6.430  1.00  0.00     0.134 A 
ATOM      7  C   UNL     1      24.063 -10.002  -7.575  1.00  0.00     0.093 A 
ATOM      8  C   UNL     1      23.110  -9.657  -8.537  1.00  0.00     0.123 A 
ATOM      9  C   UNL     1      22.336  -8.512  -8.364  1.00  0.00     0.094 A 
ATOM     10  C   UNL     1      22.524  -7.691  -7.250  1.00  0.00     0.146 A 
ATOM     11  O   UNL     1      21.771  -6.605  -7.128  1.00  0.00    -0.452 OA
ENDROOT
BRANCH   1  12
ATOM     12  C   UNL     1      20.965  -4.584  -6.089  1.00  0.00     0.025 A 
ATOM     13  C   UNL     1      19.757  -4.638  -6.804  1.00  0.00     0.016 A 
ATOM     14  C   UNL     1      18.867  -3.562  -6.771  1.00  0.00     0.051 A 
ATOM     15  C   UNL     1      19.159  -2.425  -6.012  1.00  0.00     0.157 A 
ATOM     16  C   UNL     1      21.246  -3.448  -5.309  1.00  0.00     0.062 A 
ATOM     17  C   UNL     1      20.352  -2.368  -5.273  1.00  0.00     0.158 A 
BRANCH  15  18
ATOM     18  O   UNL     1      18.251  -1.366  -5.999  1.00  0.00    -0.504 OA
ATOM     19  H   UNL     1      18.297  -0.626  -5.310  1.00  0.00     0.293 HD
ENDBRANCH  15  18
BRANCH  17  20
ATOM     20  O   UNL     1      20.643  -1.244  -4.501  1.00  0.00    -0.504 OA
ATOM     21  H   UNL     1      20.257  -0.334  -4.721  1.00  0.00     0.293 HD
ENDBRANCH  17  20
ENDBRANCH   1  12
BRANCH   2  22
ATOM     22  O   UNL     1      23.061  -4.997  -4.133  1.00  0.00    -0.502 OA
ATOM     23  H   UNL     1      23.820  -5.058  -3.465  1.00  0.00     0.293 HD
ENDBRANCH   2  22
BRANCH   6  24
ATOM     24  O   UNL     1      25.158  -9.703  -5.484  1.00  0.00    -0.507 OA
ATOM     25  H   UNL     1      24.961 -10.438  -4.821  1.00  0.00     0.293 HD
ENDBRANCH   6  24
BRANCH   8  26
ATOM     26  O   UNL     1      22.920 -10.450  -9.667  1.00  0.00    -0.508 OA
ATOM     27  H   UNL     1      22.956 -10.059 -10.601  1.00  0.00     0.293 HD
ENDBRANCH   8  26
TORSDOF 6
ENDMDL
