MODEL 1
REMARK VINA RESULT:    -5.068      0.000      0.000
REMARK INTER + INTRA:          -5.216
REMARK INTER:                  -5.216
REMARK INTRA:                   0.000
REMARK UNBOUND:                 0.000
REMARK SMILES O=c1ccc2ccc(O)cc2o1
REMARK SMILES IDX 6 1 7 2 8 3 10 4 11 5 5 6 4 7 3 8 2 9 1 10 12 11 9 12
REMARK H PARENT 9 13
REMARK Flexibility Score: inf
ROOT
ATOM      1  C   UNL     1       8.257  -7.952  -6.566  1.00  0.00     0.016 A 
ATOM      2  C   UNL     1       7.690  -7.065  -5.645  1.00  0.00     0.047 A 
ATOM      3  C   UNL     1       8.133  -5.739  -5.576  1.00  0.00     0.119 A 
ATOM      4  C   UNL     1       9.150  -5.295  -6.435  1.00  0.00     0.094 A 
ATOM      5  C   UNL     1       9.722  -6.175  -7.360  1.00  0.00     0.142 A 
ATOM      6  C   UNL     1       9.273  -7.513  -7.426  1.00  0.00     0.018 A 
ATOM      7  C   UNL     1       9.864  -8.369  -8.360  1.00  0.00     0.019 A 
ATOM      8  C   UNL     1      10.871  -7.882  -9.192  1.00  0.00     0.094 A 
ATOM      9  C   UNL     1      11.265  -6.544  -9.070  1.00  0.00     0.336 A 
ATOM     10  O   UNL     1      12.172  -6.087  -9.813  1.00  0.00    -0.246 OA
ATOM     11  O   UNL     1      10.687  -5.751  -8.173  1.00  0.00    -0.423 OA
ENDROOT
BRANCH   3  12
ATOM     12  O   UNL     1       7.557  -4.870  -4.652  1.00  0.00    -0.508 OA
ATOM     13  H   UNL     1       6.643  -5.049  -4.254  1.00  0.00     0.293 HD
ENDBRANCH   3  12
TORSDOF 1
ENDMDL
MODEL 2
REMARK VINA RESULT:    -4.999      2.259      2.360
REMARK INTER + INTRA:          -5.145
REMARK INTER:                  -5.145
REMARK INTRA:                   0.000
REMARK UNBOUND:                 0.000
REMARK SMILES O=c1ccc2ccc(O)cc2o1
REMARK SMILES IDX 6 1 7 2 8 3 10 4 11 5 5 6 4 7 3 8 2 9 1 10 12 11 9 12
REMARK H PARENT 9 13
REMARK Flexibility Score: inf
ROOT
ATOM      1  C   UNL     1       7.788  -7.940  -5.208  1.00  0.00     0.016 A 
ATOM      2  C   UNL     1       7.799  -6.768  -4.445  1.00  0.00     0.047 A 
ATOM      3  C   UNL     1       7.877  -5.518  -5.070  1.00  0.00     0.119 A 
ATOM      4  C   UNL     1       7.944  -5.439  -6.469  1.00  0.00     0.094 A 
ATOM      5  C   UNL     1       7.934  -6.606  -7.240  1.00  0.00     0.142 A 
ATOM      6  C   UNL     1       7.855  -7.866  -6.605  1.00  0.00     0.018 A 
ATOM      7  C   UNL     1       7.847  -9.014  -7.402  1.00  0.00     0.019 A 
ATOM      8  C   UNL     1       7.916  -8.886  -8.789  1.00  0.00     0.094 A 
ATOM      9  C   UNL     1       7.991  -7.604  -9.349  1.00  0.00     0.336 A 
ATOM     10  O   UNL     1       8.054  -7.468 -10.598  1.00  0.00    -0.246 OA
ATOM     11  O   UNL     1       7.998  -6.527  -8.568  1.00  0.00    -0.423 OA
ENDROOT
BRANCH   3  12
ATOM     12  O   UNL     1       7.887  -4.362  -4.293  1.00  0.00    -0.508 OA
ATOM     13  H   UNL     1       7.544  -3.479  -4.653  1.00  0.00     0.293 HD
ENDBRANCH   3  12
TORSDOF 1
ENDMDL
MODEL 3
REMARK VINA RESULT:    -4.910      1.743      2.409
REMARK INTER + INTRA:          -5.054
REMARK INTER:                  -5.054
REMARK INTRA:                   0.000
REMARK UNBOUND:                 0.000
REMARK SMILES O=c1ccc2ccc(O)cc2o1
REMARK SMILES IDX 6 1 7 2 8 3 10 4 11 5 5 6 4 7 3 8 2 9 1 10 12 11 9 12
REMARK H PARENT 9 13
REMARK Flexibility Score: inf
ROOT
ATOM      1  C   UNL     1       8.724  -6.013  -6.317  1.00  0.00     0.016 A 
ATOM      2  C   UNL     1       7.679  -6.708  -5.701  1.00  0.00     0.047 A 
ATOM      3  C   UNL     1       7.350  -8.003  -6.115  1.00  0.00     0.119 A 
ATOM      4  C   UNL     1       8.072  -8.610  -7.154  1.00  0.00     0.094 A 
ATOM      5  C   UNL     1       9.120  -7.922  -7.776  1.00  0.00     0.142 A 
ATOM      6  C   UNL     1       9.448  -6.614  -7.355  1.00  0.00     0.018 A 
ATOM      7  C   UNL     1      10.500  -5.953  -7.996  1.00  0.00     0.019 A 
ATOM      8  C   UNL     1      11.189  -6.596  -9.023  1.00  0.00     0.094 A 
ATOM      9  C   UNL     1      10.808  -7.894  -9.387  1.00  0.00     0.336 A 
ATOM     10  O   UNL     1      11.418  -8.491 -10.312  1.00  0.00    -0.246 OA
ATOM     11  O   UNL     1       9.803  -8.501  -8.762  1.00  0.00    -0.423 OA
ENDROOT
BRANCH   3  12
ATOM     12  O   UNL     1       6.305  -8.680  -5.490  1.00  0.00    -0.508 OA
ATOM     13  H   UNL     1       5.531  -8.183  -5.066  1.00  0.00     0.293 HD
ENDBRANCH   3  12
TORSDOF 1
ENDMDL
MODEL 4
REMARK VINA RESULT:    -4.870     15.867     18.195
REMARK INTER + INTRA:          -5.012
REMARK INTER:                  -5.012
REMARK INTRA:                   0.000
REMARK UNBOUND:                 0.000
REMARK SMILES O=c1ccc2ccc(O)cc2o1
REMARK SMILES IDX 6 1 7 2 8 3 10 4 11 5 5 6 4 7 3 8 2 9 1 10 12 11 9 12
REMARK H PARENT 9 13
REMARK Flexibility Score: inf
ROOT
ATOM      1  C   UNL     1      19.562  -1.169 -19.067  1.00  0.00     0.016 A 
ATOM      2  C   UNL     1      19.597  -0.642 -17.772  1.00  0.00     0.047 A 
ATOM      3  C   UNL     1      20.379   0.484 -17.487  1.00  0.00     0.119 A 
ATOM      4  C   UNL     1      21.132   1.088 -18.506  1.00  0.00     0.094 A 
ATOM      5  C   UNL     1      21.102   0.567 -19.804  1.00  0.00     0.142 A 
ATOM      6  C   UNL     1      20.312  -0.569 -20.087  1.00  0.00     0.018 A 
ATOM      7  C   UNL     1      20.303  -1.066 -21.394  1.00  0.00     0.019 A 
ATOM      8  C   UNL     1      21.068  -0.432 -22.372  1.00  0.00     0.094 A 
ATOM      9  C   UNL     1      21.826   0.691 -22.019  1.00  0.00     0.336 A 
ATOM     10  O   UNL     1      22.522   1.276 -22.889  1.00  0.00    -0.246 OA
ATOM     11  O   UNL     1      21.818   1.143 -20.768  1.00  0.00    -0.423 OA
ENDROOT
BRANCH   3  12
ATOM     12  O   UNL     1      20.401   0.994 -16.192  1.00  0.00    -0.508 OA
ATOM     13  H   UNL     1      19.553   1.097 -15.648  1.00  0.00     0.293 HD
ENDBRANCH   3  12
TORSDOF 1
ENDMDL
MODEL 5
REMARK VINA RESULT:    -4.849      2.118      2.146
REMARK INTER + INTRA:          -4.991
REMARK INTER:                  -4.991
REMARK INTRA:                   0.000
REMARK UNBOUND:                 0.000
REMARK SMILES O=c1ccc2ccc(O)cc2o1
REMARK SMILES IDX 6 1 7 2 8 3 10 4 11 5 5 6 4 7 3 8 2 9 1 10 12 11 9 12
REMARK H PARENT 9 13
REMARK Flexibility Score: inf
ROOT
ATOM      1  C   UNL     1       7.945  -8.060  -6.284  1.00  0.00     0.016 A 
ATOM      2  C   UNL     1       7.873  -7.068  -5.300  1.00  0.00     0.047 A 
ATOM      3  C   UNL     1       7.885  -5.715  -5.658  1.00  0.00     0.119 A 
ATOM      4  C   UNL     1       7.970  -5.349  -7.010  1.00  0.00     0.094 A 
ATOM      5  C   UNL     1       8.042  -6.335  -8.001  1.00  0.00     0.142 A 
ATOM      6  C   UNL     1       8.031  -7.700  -7.635  1.00  0.00     0.018 A 
ATOM      7  C   UNL     1       8.105  -8.661  -8.647  1.00  0.00     0.019 A 
ATOM      8  C   UNL     1       8.188  -8.250  -9.977  1.00  0.00     0.094 A 
ATOM      9  C   UNL     1       8.195  -6.880 -10.264  1.00  0.00     0.336 A 
ATOM     10  O   UNL     1       8.269  -6.490 -11.459  1.00  0.00    -0.246 OA
ATOM     11  O   UNL     1       8.124  -5.985  -9.283  1.00  0.00    -0.423 OA
ENDROOT
BRANCH   3  12
ATOM     12  O   UNL     1       7.812  -4.741  -4.665  1.00  0.00    -0.508 OA
ATOM     13  H   UNL     1       7.761  -3.755  -4.891  1.00  0.00     0.293 HD
ENDBRANCH   3  12
TORSDOF 1
ENDMDL
MODEL 6
REMARK VINA RESULT:    -4.826     11.074     12.706
REMARK INTER + INTRA:          -4.967
REMARK INTER:                  -4.967
REMARK INTRA:                   0.000
REMARK UNBOUND:                 0.000
REMARK SMILES O=c1ccc2ccc(O)cc2o1
REMARK SMILES IDX 6 1 7 2 8 3 10 4 11 5 5 6 4 7 3 8 2 9 1 10 12 11 9 12
REMARK H PARENT 9 13
REMARK Flexibility Score: inf
ROOT
ATOM      1  C   UNL     1      20.707  -2.345  -8.590  1.00  0.00     0.016 A 
ATOM      2  C   UNL     1      19.363  -2.332  -8.206  1.00  0.00     0.047 A 
ATOM      3  C   UNL     1      18.993  -2.714  -6.911  1.00  0.00     0.119 A 
ATOM      4  C   UNL     1      19.977  -3.111  -5.991  1.00  0.00     0.094 A 
ATOM      5  C   UNL     1      21.324  -3.126  -6.367  1.00  0.00     0.142 A 
ATOM      6  C   UNL     1      21.692  -2.741  -7.676  1.00  0.00     0.018 A 
ATOM      7  C   UNL     1      23.047  -2.767  -8.022  1.00  0.00     0.019 A 
ATOM      8  C   UNL     1      23.988  -3.169  -7.074  1.00  0.00     0.094 A 
ATOM      9  C   UNL     1      23.549  -3.537  -5.796  1.00  0.00     0.336 A 
ATOM     10  O   UNL     1      24.384  -3.902  -4.928  1.00  0.00    -0.246 OA
ATOM     11  O   UNL     1      22.255  -3.504  -5.493  1.00  0.00    -0.423 OA
ENDROOT
BRANCH   3  12
ATOM     12  O   UNL     1      17.649  -2.695  -6.546  1.00  0.00    -0.508 OA
ATOM     13  H   UNL     1      17.147  -3.548  -6.328  1.00  0.00     0.293 HD
ENDBRANCH   3  12
TORSDOF 1
ENDMDL
MODEL 7
REMARK VINA RESULT:    -4.820     10.284     11.357
REMARK INTER + INTRA:          -4.961
REMARK INTER:                  -4.961
REMARK INTRA:                   0.000
REMARK UNBOUND:                 0.000
REMARK SMILES O=c1ccc2ccc(O)cc2o1
REMARK SMILES IDX 6 1 7 2 8 3 10 4 11 5 5 6 4 7 3 8 2 9 1 10 12 11 9 12
REMARK H PARENT 9 13
REMARK Flexibility Score: inf
ROOT
ATOM      1  C   UNL     1      13.898   3.123  -3.494  1.00  0.00     0.016 A 
ATOM      2  C   UNL     1      12.758   2.531  -2.942  1.00  0.00     0.047 A 
ATOM      3  C   UNL     1      11.540   2.560  -3.632  1.00  0.00     0.119 A 
ATOM      4  C   UNL     1      11.461   3.187  -4.885  1.00  0.00     0.094 A 
ATOM      5  C   UNL     1      12.597   3.781  -5.445  1.00  0.00     0.142 A 
ATOM      6  C   UNL     1      13.823   3.750  -4.745  1.00  0.00     0.018 A 
ATOM      7  C   UNL     1      14.940   4.354  -5.331  1.00  0.00     0.019 A 
ATOM      8  C   UNL     1      14.813   4.964  -6.578  1.00  0.00     0.094 A 
ATOM      9  C   UNL     1      13.565   4.956  -7.214  1.00  0.00     0.336 A 
ATOM     10  O   UNL     1      13.431   5.502  -8.340  1.00  0.00    -0.246 OA
ATOM     11  O   UNL     1      12.518   4.376  -6.634  1.00  0.00    -0.423 OA
ENDROOT
BRANCH   3  12
ATOM     12  O   UNL     1      10.416   1.965  -3.065  1.00  0.00    -0.508 OA
ATOM     13  H   UNL     1       9.480   2.198  -3.375  1.00  0.00     0.293 HD
ENDBRANCH   3  12
TORSDOF 1
ENDMDL
MODEL 8
REMARK VINA RESULT:    -4.819      2.531      3.020
REMARK INTER + INTRA:          -4.960
REMARK INTER:                  -4.960
REMARK INTRA:                   0.000
REMARK UNBOUND:                 0.000
REMARK SMILES O=c1ccc2ccc(O)cc2o1
REMARK SMILES IDX 6 1 7 2 8 3 10 4 11 5 5 6 4 7 3 8 2 9 1 10 12 11 9 12
REMARK H PARENT 9 13
REMARK Flexibility Score: inf
ROOT
ATOM      1  C   UNL     1       8.247  -5.532  -6.074  1.00  0.00     0.016 A 
ATOM      2  C   UNL     1       7.904  -6.264  -4.934  1.00  0.00     0.047 A 
ATOM      3  C   UNL     1       7.535  -7.610  -5.042  1.00  0.00     0.119 A 
ATOM      4  C   UNL     1       7.509  -8.229  -6.301  1.00  0.00     0.094 A 
ATOM      5  C   UNL     1       7.851  -7.504  -7.447  1.00  0.00     0.142 A 
ATOM      6  C   UNL     1       8.222  -6.146  -7.334  1.00  0.00     0.018 A 
ATOM      7  C   UNL     1       8.559  -5.448  -8.497  1.00  0.00     0.019 A 
ATOM      8  C   UNL     1       8.518  -6.105  -9.726  1.00  0.00     0.094 A 
ATOM      9  C   UNL     1       8.140  -7.453  -9.762  1.00  0.00     0.336 A 
ATOM     10  O   UNL     1       8.098  -8.064 -10.862  1.00  0.00    -0.246 OA
ATOM     11  O   UNL     1       7.824  -8.095  -8.640  1.00  0.00    -0.423 OA
ENDROOT
BRANCH   3  12
ATOM     12  O   UNL     1       7.196  -8.323  -3.894  1.00  0.00    -0.508 OA
ATOM     13  H   UNL     1       6.348  -8.875  -3.844  1.00  0.00     0.293 HD
ENDBRANCH   3  12
TORSDOF 1
ENDMDL
MODEL 9
REMARK VINA RESULT:    -4.734      2.238      2.719
REMARK INTER + INTRA:          -4.872
REMARK INTER:                  -4.872
REMARK INTRA:                   0.000
REMARK UNBOUND:                 0.000
REMARK SMILES O=c1ccc2ccc(O)cc2o1
REMARK SMILES IDX 6 1 7 2 8 3 10 4 11 5 5 6 4 7 3 8 2 9 1 10 12 11 9 12
REMARK H PARENT 9 13
REMARK Flexibility Score: inf
ROOT
ATOM      1  C   UNL     1       7.828  -6.882  -7.916  1.00  0.00     0.016 A 
ATOM      2  C   UNL     1       8.534  -6.134  -6.968  1.00  0.00     0.047 A 
ATOM      3  C   UNL     1       9.856  -5.746  -7.215  1.00  0.00     0.119 A 
ATOM      4  C   UNL     1      10.478  -6.108  -8.420  1.00  0.00     0.094 A 
ATOM      5  C   UNL     1       9.778  -6.856  -9.374  1.00  0.00     0.142 A 
ATOM      6  C   UNL     1       8.445  -7.247  -9.120  1.00  0.00     0.018 A 
ATOM      7  C   UNL     1       7.773  -7.994 -10.092  1.00  0.00     0.019 A 
ATOM      8  C   UNL     1       8.432  -8.330 -11.274  1.00  0.00     0.094 A 
ATOM      9  C   UNL     1       9.754  -7.908 -11.457  1.00  0.00     0.336 A 
ATOM     10  O   UNL     1      10.366  -8.202 -12.517  1.00  0.00    -0.246 OA
ATOM     11  O   UNL     1      10.371  -7.198 -10.516  1.00  0.00    -0.423 OA
ENDROOT
BRANCH   3  12
ATOM     12  O   UNL     1      10.543  -5.001  -6.260  1.00  0.00    -0.508 OA
ATOM     13  H   UNL     1      10.300  -4.038  -6.063  1.00  0.00     0.293 HD
ENDBRANCH   3  12
TORSDOF 1
ENDMDL
