MODEL 1
REMARK VINA RESULT:    17.655      0.000      0.000
REMARK INTER + INTRA:          36.920
REMARK INTER:                  38.298
REMARK INTRA:                  -1.378
REMARK UNBOUND:                -1.378
REMARK SMILES CCCCCCCCCCCCCCCCCCCCCC(=O)[O-]
REMARK SMILES IDX 12 1 11 2 10 3 9 4 8 5 7 6 6 7 5 8 4 9 3 10 2 11 1 12 13 13
REMARK SMILES IDX 14 14 15 15 16 16 17 17 18 18 19 19 20 20 21 21 22 22 23 23
REMARK SMILES IDX 24 24
REMARK H PARENT
REMARK Flexibility Score: inf
ROOT
ATOM      1  C   UNL     1       5.902  18.650  24.812  1.00  0.00     0.000 C 
ENDROOT
BRANCH   1   2
ATOM      2  C   UNL     1       4.688  19.259  24.080  1.00  0.00     0.000 C 
BRANCH   2   3
ATOM      3  C   UNL     1       5.002  19.885  22.709  1.00  0.00     0.000 C 
BRANCH   3   4
ATOM      4  C   UNL     1       4.061  21.048  22.359  1.00  0.00    -0.000 C 
BRANCH   4   5
ATOM      5  C   UNL     1       2.602  20.571  22.276  1.00  0.00    -0.000 C 
BRANCH   5   6
ATOM      6  C   UNL     1       1.746  21.081  23.448  1.00  0.00    -0.000 C 
BRANCH   6   7
ATOM      7  C   UNL     1       0.605  20.116  23.813  1.00  0.00    -0.000 C 
BRANCH   7   8
ATOM      8  C   UNL     1       0.764  18.731  23.158  1.00  0.00    -0.000 C 
BRANCH   8   9
ATOM      9  C   UNL     1       0.100  17.571  23.925  1.00  0.00    -0.000 C 
BRANCH   9  10
ATOM     10  C   UNL     1       0.930  17.008  25.095  1.00  0.00    -0.000 C 
BRANCH  10  11
ATOM     11  C   UNL     1       1.389  18.084  26.101  1.00  0.00    -0.003 C 
ATOM     12  C   UNL     1       2.744  17.758  26.729  1.00  0.00     0.004 C 
ENDBRANCH  10  11
ENDBRANCH   9  10
ENDBRANCH   8   9
ENDBRANCH   7   8
ENDBRANCH   6   7
ENDBRANCH   5   6
ENDBRANCH   4   5
ENDBRANCH   3   4
ENDBRANCH   2   3
ENDBRANCH   1   2
BRANCH   1  13
ATOM     13  C   UNL     1       5.867  18.763  26.350  1.00  0.00     0.000 C 
BRANCH  13  14
ATOM     14  C   UNL     1       6.397  17.531  27.106  1.00  0.00     0.000 C 
BRANCH  14  15
ATOM     15  C   UNL     1       7.666  16.943  26.469  1.00  0.00     0.000 C 
BRANCH  15  16
ATOM     16  C   UNL     1       8.812  16.758  27.479  1.00  0.00     0.000 C 
BRANCH  16  17
ATOM     17  C   UNL     1       9.628  18.042  27.735  1.00  0.00     0.000 C 
BRANCH  17  18
ATOM     18  C   UNL     1       9.466  18.551  29.178  1.00  0.00     0.000 C 
BRANCH  18  19
ATOM     19  C   UNL     1       9.337  17.413  30.201  1.00  0.00     0.000 C 
BRANCH  19  20
ATOM     20  C   UNL     1       9.903  17.785  31.579  1.00  0.00     0.006 C 
BRANCH  20  21
ATOM     21  C   UNL     1       9.266  16.935  32.684  1.00  0.00     0.053 C 
BRANCH  21  22
ATOM     22  C   UNL     1       7.817  17.278  32.841  1.00  0.00     0.041 C 
ATOM     23  O   UNL     1       6.937  16.384  32.729  1.00  0.00    -0.550 OA
ATOM     24  O   UNL     1       7.439  18.585  33.124  1.00  0.00    -0.550 OA
ENDBRANCH  21  22
ENDBRANCH  20  21
ENDBRANCH  19  20
ENDBRANCH  18  19
ENDBRANCH  17  18
ENDBRANCH  16  17
ENDBRANCH  15  16
ENDBRANCH  14  15
ENDBRANCH  13  14
ENDBRANCH   1  13
TORSDOF 20
ENDMDL
MODEL 2
REMARK VINA RESULT:    17.671      4.778      6.823
REMARK INTER + INTRA:          36.955
REMARK INTER:                  38.121
REMARK INTRA:                  -1.166
REMARK UNBOUND:                -1.378
REMARK SMILES CCCCCCCCCCCCCCCCCCCCCC(=O)[O-]
REMARK SMILES IDX 12 1 11 2 10 3 9 4 8 5 7 6 6 7 5 8 4 9 3 10 2 11 1 12 13 13
REMARK SMILES IDX 14 14 15 15 16 16 17 17 18 18 19 19 20 20 21 21 22 22 23 23
REMARK SMILES IDX 24 24
REMARK H PARENT
REMARK Flexibility Score: inf
ROOT
ATOM      1  C   UNL     1       9.647  15.559  27.123  1.00  0.00     0.000 C 
ENDROOT
BRANCH   1   2
ATOM      2  C   UNL     1       9.823  17.016  27.598  1.00  0.00     0.000 C 
BRANCH   2   3
ATOM      3  C   UNL     1       8.513  17.799  27.798  1.00  0.00     0.000 C 
BRANCH   3   4
ATOM      4  C   UNL     1       7.313  17.132  27.109  1.00  0.00    -0.000 C 
BRANCH   4   5
ATOM      5  C   UNL     1       6.812  17.981  25.929  1.00  0.00    -0.000 C 
BRANCH   5   6
ATOM      6  C   UNL     1       5.358  18.448  26.113  1.00  0.00    -0.000 C 
BRANCH   6   7
ATOM      7  C   UNL     1       4.708  17.877  27.385  1.00  0.00    -0.000 C 
BRANCH   7   8
ATOM      8  C   UNL     1       3.170  17.870  27.317  1.00  0.00    -0.000 C 
BRANCH   8   9
ATOM      9  C   UNL     1       2.583  17.842  25.893  1.00  0.00    -0.000 C 
BRANCH   9  10
ATOM     10  C   UNL     1       1.058  18.044  25.815  1.00  0.00    -0.000 C 
BRANCH  10  11
ATOM     11  C   UNL     1       0.592  18.746  24.522  1.00  0.00    -0.003 C 
ATOM     12  C   UNL     1       0.112  17.758  23.459  1.00  0.00     0.004 C 
ENDBRANCH  10  11
ENDBRANCH   9  10
ENDBRANCH   8   9
ENDBRANCH   7   8
ENDBRANCH   6   7
ENDBRANCH   5   6
ENDBRANCH   4   5
ENDBRANCH   3   4
ENDBRANCH   2   3
ENDBRANCH   1   2
BRANCH   1  13
ATOM     13  C   UNL     1      10.865  14.952  26.397  1.00  0.00     0.000 C 
BRANCH  13  14
ATOM     14  C   UNL     1      10.836  13.420  26.245  1.00  0.00     0.000 C 
BRANCH  14  15
ATOM     15  C   UNL     1      11.680  12.700  27.308  1.00  0.00     0.000 C 
BRANCH  15  16
ATOM     16  C   UNL     1      11.034  11.395  27.802  1.00  0.00     0.000 C 
BRANCH  16  17
ATOM     17  C   UNL     1      10.045  10.770  26.796  1.00  0.00     0.000 C 
BRANCH  17  18
ATOM     18  C   UNL     1       9.823   9.270  27.061  1.00  0.00     0.000 C 
BRANCH  18  19
ATOM     19  C   UNL     1       8.573   8.994  27.910  1.00  0.00     0.000 C 
BRANCH  19  20
ATOM     20  C   UNL     1       7.270   9.116  27.107  1.00  0.00     0.006 C 
BRANCH  20  21
ATOM     21  C   UNL     1       6.110   9.564  28.003  1.00  0.00     0.053 C 
BRANCH  21  22
ATOM     22  C   UNL     1       5.344  10.675  27.355  1.00  0.00     0.041 C 
ATOM     23  O   UNL     1       4.218  11.016  27.803  1.00  0.00    -0.550 OA
ATOM     24  O   UNL     1       5.881  11.344  26.262  1.00  0.00    -0.550 OA
ENDBRANCH  21  22
ENDBRANCH  20  21
ENDBRANCH  19  20
ENDBRANCH  18  19
ENDBRANCH  17  18
ENDBRANCH  16  17
ENDBRANCH  15  16
ENDBRANCH  14  15
ENDBRANCH  13  14
ENDBRANCH   1  13
TORSDOF 20
ENDMDL
MODEL 3
REMARK VINA RESULT:    17.710      5.353      9.501
REMARK INTER + INTRA:          37.039
REMARK INTER:                  38.140
REMARK INTRA:                  -1.101
REMARK UNBOUND:                -1.378
REMARK SMILES CCCCCCCCCCCCCCCCCCCCCC(=O)[O-]
REMARK SMILES IDX 12 1 11 2 10 3 9 4 8 5 7 6 6 7 5 8 4 9 3 10 2 11 1 12 13 13
REMARK SMILES IDX 14 14 15 15 16 16 17 17 18 18 19 19 20 20 21 21 22 22 23 23
REMARK SMILES IDX 24 24
REMARK H PARENT
REMARK Flexibility Score: inf
ROOT
ATOM      1  C   UNL     1      10.147  16.643  28.045  1.00  0.00     0.000 C 
ENDROOT
BRANCH   1   2
ATOM      2  C   UNL     1      10.375  15.857  26.738  1.00  0.00     0.000 C 
BRANCH   2   3
ATOM      3  C   UNL     1       9.980  14.370  26.795  1.00  0.00     0.000 C 
BRANCH   3   4
ATOM      4  C   UNL     1      11.158  13.431  26.499  1.00  0.00    -0.000 C 
BRANCH   4   5
ATOM      5  C   UNL     1      11.020  12.110  27.274  1.00  0.00    -0.000 C 
BRANCH   5   6
ATOM      6  C   UNL     1       9.778  11.306  26.855  1.00  0.00    -0.000 C 
BRANCH   6   7
ATOM      7  C   UNL     1       9.990   9.786  26.966  1.00  0.00    -0.000 C 
BRANCH   7   8
ATOM      8  C   UNL     1       8.838   9.076  27.701  1.00  0.00    -0.000 C 
BRANCH   8   9
ATOM      9  C   UNL     1       7.459   9.209  27.026  1.00  0.00    -0.000 C 
BRANCH   9  10
ATOM     10  C   UNL     1       6.291   9.500  27.989  1.00  0.00    -0.000 C 
BRANCH  10  11
ATOM     11  C   UNL     1       5.264  10.507  27.428  1.00  0.00    -0.003 C 
ATOM     12  C   UNL     1       5.785  11.250  26.198  1.00  0.00     0.004 C 
ENDBRANCH  10  11
ENDBRANCH   9  10
ENDBRANCH   8   9
ENDBRANCH   7   8
ENDBRANCH   6   7
ENDBRANCH   5   6
ENDBRANCH   4   5
ENDBRANCH   3   4
ENDBRANCH   2   3
ENDBRANCH   1   2
BRANCH   1  13
ATOM     13  C   UNL     1       8.939  17.603  28.033  1.00  0.00     0.000 C 
BRANCH  13  14
ATOM     14  C   UNL     1       7.692  17.071  27.304  1.00  0.00     0.000 C 
BRANCH  14  15
ATOM     15  C   UNL     1       7.374  17.853  26.021  1.00  0.00     0.000 C 
BRANCH  15  16
ATOM     16  C   UNL     1       5.956  18.449  26.018  1.00  0.00     0.000 C 
BRANCH  16  17
ATOM     17  C   UNL     1       5.027  17.848  27.093  1.00  0.00     0.000 C 
BRANCH  17  18
ATOM     18  C   UNL     1       3.588  18.383  26.978  1.00  0.00     0.000 C 
BRANCH  18  19
ATOM     19  C   UNL     1       2.558  17.271  26.731  1.00  0.00     0.000 C 
BRANCH  19  20
ATOM     20  C   UNL     1       1.251  17.797  26.120  1.00  0.00     0.006 C 
BRANCH  20  21
ATOM     21  C   UNL     1       0.974  17.141  24.763  1.00  0.00     0.053 C 
BRANCH  21  22
ATOM     22  C   UNL     1       0.251  18.089  23.859  1.00  0.00     0.041 C 
ATOM     23  O   UNL     1      -0.402  17.655  22.873  1.00  0.00    -0.550 OA
ATOM     24  O   UNL     1       0.285  19.455  24.113  1.00  0.00    -0.550 OA
ENDBRANCH  21  22
ENDBRANCH  20  21
ENDBRANCH  19  20
ENDBRANCH  18  19
ENDBRANCH  17  18
ENDBRANCH  16  17
ENDBRANCH  15  16
ENDBRANCH  14  15
ENDBRANCH  13  14
ENDBRANCH   1  13
TORSDOF 20
ENDMDL
MODEL 4
REMARK VINA RESULT:    17.837      1.346      3.244
REMARK INTER + INTRA:          37.314
REMARK INTER:                  38.153
REMARK INTRA:                  -0.839
REMARK UNBOUND:                -1.378
REMARK SMILES CCCCCCCCCCCCCCCCCCCCCC(=O)[O-]
REMARK SMILES IDX 12 1 11 2 10 3 9 4 8 5 7 6 6 7 5 8 4 9 3 10 2 11 1 12 13 13
REMARK SMILES IDX 14 14 15 15 16 16 17 17 18 18 19 19 20 20 21 21 22 22 23 23
REMARK SMILES IDX 24 24
REMARK H PARENT
REMARK Flexibility Score: inf
ROOT
ATOM      1  C   UNL     1       5.888  18.736  26.196  1.00  0.00     0.000 C 
ENDROOT
BRANCH   1   2
ATOM      2  C   UNL     1       4.759  18.093  27.029  1.00  0.00     0.000 C 
BRANCH   2   3
ATOM      3  C   UNL     1       3.515  17.674  26.225  1.00  0.00     0.000 C 
BRANCH   3   4
ATOM      4  C   UNL     1       2.224  17.735  27.055  1.00  0.00    -0.000 C 
BRANCH   4   5
ATOM      5  C   UNL     1       1.003  17.998  26.157  1.00  0.00    -0.000 C 
BRANCH   5   6
ATOM      6  C   UNL     1       1.067  17.223  24.831  1.00  0.00    -0.000 C 
BRANCH   6   7
ATOM      7  C   UNL     1       0.506  18.028  23.646  1.00  0.00    -0.000 C 
BRANCH   7   8
ATOM      8  C   UNL     1       0.167  19.483  24.022  1.00  0.00    -0.000 C 
BRANCH   8   9
ATOM      9  C   UNL     1       1.320  20.488  23.834  1.00  0.00    -0.000 C 
BRANCH   9  10
ATOM     10  C   UNL     1       2.014  20.429  22.459  1.00  0.00    -0.000 C 
BRANCH  10  11
ATOM     11  C   UNL     1       3.470  20.940  22.480  1.00  0.00    -0.003 C 
ATOM     12  C   UNL     1       4.459  19.868  22.937  1.00  0.00     0.004 C 
ENDBRANCH  10  11
ENDBRANCH   9  10
ENDBRANCH   8   9
ENDBRANCH   7   8
ENDBRANCH   6   7
ENDBRANCH   5   6
ENDBRANCH   4   5
ENDBRANCH   3   4
ENDBRANCH   2   3
ENDBRANCH   1   2
BRANCH   1  13
ATOM     13  C   UNL     1       7.172  17.890  26.066  1.00  0.00     0.000 C 
BRANCH  13  14
ATOM     14  C   UNL     1       7.610  17.168  27.353  1.00  0.00     0.000 C 
BRANCH  14  15
ATOM     15  C   UNL     1       9.009  16.543  27.238  1.00  0.00     0.000 C 
BRANCH  15  16
ATOM     16  C   UNL     1       9.994  17.085  28.287  1.00  0.00     0.000 C 
BRANCH  16  17
ATOM     17  C   UNL     1       9.332  17.968  29.366  1.00  0.00     0.000 C 
BRANCH  17  18
ATOM     18  C   UNL     1       8.167  17.247  30.066  1.00  0.00     0.000 C 
BRANCH  18  19
ATOM     19  C   UNL     1       8.470  16.911  31.534  1.00  0.00     0.000 C 
BRANCH  19  20
ATOM     20  C   UNL     1       8.684  18.163  32.398  1.00  0.00     0.006 C 
BRANCH  20  21
ATOM     21  C   UNL     1       7.382  18.588  33.084  1.00  0.00     0.053 C 
BRANCH  21  22
ATOM     22  C   UNL     1       7.085  20.028  32.802  1.00  0.00     0.041 C 
ATOM     23  O   UNL     1       5.965  20.518  33.108  1.00  0.00    -0.550 OA
ATOM     24  O   UNL     1       8.050  20.834  32.212  1.00  0.00    -0.550 OA
ENDBRANCH  21  22
ENDBRANCH  20  21
ENDBRANCH  19  20
ENDBRANCH  18  19
ENDBRANCH  17  18
ENDBRANCH  16  17
ENDBRANCH  15  16
ENDBRANCH  14  15
ENDBRANCH  13  14
ENDBRANCH   1  13
TORSDOF 20
ENDMDL
MODEL 5
REMARK VINA RESULT:    17.844      4.544      6.507
REMARK INTER + INTRA:          37.331
REMARK INTER:                  38.412
REMARK INTRA:                  -1.082
REMARK UNBOUND:                -1.378
REMARK SMILES CCCCCCCCCCCCCCCCCCCCCC(=O)[O-]
REMARK SMILES IDX 12 1 11 2 10 3 9 4 8 5 7 6 6 7 5 8 4 9 3 10 2 11 1 12 13 13
REMARK SMILES IDX 14 14 15 15 16 16 17 17 18 18 19 19 20 20 21 21 22 22 23 23
REMARK SMILES IDX 24 24
REMARK H PARENT
REMARK Flexibility Score: inf
ROOT
ATOM      1  C   UNL     1       9.877  16.717  27.519  1.00  0.00     0.000 C 
ENDROOT
BRANCH   1   2
ATOM      2  C   UNL     1       8.676  17.685  27.525  1.00  0.00     0.000 C 
BRANCH   2   3
ATOM      3  C   UNL     1       7.346  17.074  27.047  1.00  0.00     0.000 C 
BRANCH   3   4
ATOM      4  C   UNL     1       6.289  18.139  26.719  1.00  0.00    -0.000 C 
BRANCH   4   5
ATOM      5  C   UNL     1       6.244  18.425  25.209  1.00  0.00    -0.000 C 
BRANCH   5   6
ATOM      6  C   UNL     1       5.129  19.413  24.828  1.00  0.00    -0.000 C 
BRANCH   6   7
ATOM      7  C   UNL     1       4.735  19.319  23.343  1.00  0.00    -0.000 C 
BRANCH   7   8
ATOM      8  C   UNL     1       4.020  20.585  22.835  1.00  0.00    -0.000 C 
BRANCH   8   9
ATOM      9  C   UNL     1       2.582  20.359  22.329  1.00  0.00    -0.000 C 
BRANCH   9  10
ATOM     10  C   UNL     1       1.474  20.776  23.315  1.00  0.00    -0.000 C 
BRANCH  10  11
ATOM     11  C   UNL     1       1.037  19.643  24.268  1.00  0.00    -0.003 C 
ATOM     12  C   UNL     1       0.251  18.545  23.550  1.00  0.00     0.004 C 
ENDBRANCH  10  11
ENDBRANCH   9  10
ENDBRANCH   8   9
ENDBRANCH   7   8
ENDBRANCH   6   7
ENDBRANCH   5   6
ENDBRANCH   4   5
ENDBRANCH   3   4
ENDBRANCH   2   3
ENDBRANCH   1   2
BRANCH   1  13
ATOM     13  C   UNL     1       9.579  15.302  26.981  1.00  0.00     0.000 C 
BRANCH  13  14
ATOM     14  C   UNL     1      10.762  14.607  26.283  1.00  0.00     0.000 C 
BRANCH  14  15
ATOM     15  C   UNL     1      11.156  13.283  26.957  1.00  0.00     0.000 C 
BRANCH  15  16
ATOM     16  C   UNL     1      10.353  12.082  26.430  1.00  0.00     0.000 C 
BRANCH  16  17
ATOM     17  C   UNL     1      10.386  10.854  27.364  1.00  0.00     0.000 C 
BRANCH  17  18
ATOM     18  C   UNL     1       9.560   9.682  26.806  1.00  0.00     0.000 C 
BRANCH  18  19
ATOM     19  C   UNL     1       8.734   8.967  27.886  1.00  0.00     0.000 C 
BRANCH  19  20
ATOM     20  C   UNL     1       7.223   9.025  27.615  1.00  0.00     0.006 C 
BRANCH  20  21
ATOM     21  C   UNL     1       6.911   9.956  26.438  1.00  0.00     0.053 C 
BRANCH  21  22
ATOM     22  C   UNL     1       5.723  10.812  26.747  1.00  0.00     0.041 C 
ATOM     23  O   UNL     1       5.390  11.744  25.967  1.00  0.00    -0.550 OA
ATOM     24  O   UNL     1       4.971  10.572  27.892  1.00  0.00    -0.550 OA
ENDBRANCH  21  22
ENDBRANCH  20  21
ENDBRANCH  19  20
ENDBRANCH  18  19
ENDBRANCH  17  18
ENDBRANCH  16  17
ENDBRANCH  15  16
ENDBRANCH  14  15
ENDBRANCH  13  14
ENDBRANCH   1  13
TORSDOF 20
ENDMDL
MODEL 6
REMARK VINA RESULT:    17.859      3.421      9.339
REMARK INTER + INTRA:          37.362
REMARK INTER:                  38.442
REMARK INTRA:                  -1.080
REMARK UNBOUND:                -1.378
REMARK SMILES CCCCCCCCCCCCCCCCCCCCCC(=O)[O-]
REMARK SMILES IDX 12 1 11 2 10 3 9 4 8 5 7 6 6 7 5 8 4 9 3 10 2 11 1 12 13 13
REMARK SMILES IDX 14 14 15 15 16 16 17 17 18 18 19 19 20 20 21 21 22 22 23 23
REMARK SMILES IDX 24 24
REMARK H PARENT
REMARK Flexibility Score: inf
ROOT
ATOM      1  C   UNL     1       6.929  18.266  26.097  1.00  0.00     0.000 C 
ENDROOT
BRANCH   1   2
ATOM      2  C   UNL     1       7.391  16.829  26.418  1.00  0.00     0.000 C 
BRANCH   2   3
ATOM      3  C   UNL     1       8.158  16.672  27.744  1.00  0.00     0.000 C 
BRANCH   3   4
ATOM      4  C   UNL     1       9.551  17.317  27.703  1.00  0.00    -0.000 C 
BRANCH   4   5
ATOM      5  C   UNL     1       9.692  18.394  28.792  1.00  0.00    -0.000 C 
BRANCH   5   6
ATOM      6  C   UNL     1       8.877  18.068  30.054  1.00  0.00    -0.000 C 
BRANCH   6   7
ATOM      7  C   UNL     1       9.761  17.886  31.300  1.00  0.00    -0.000 C 
BRANCH   7   8
ATOM      8  C   UNL     1       9.303  16.715  32.190  1.00  0.00    -0.000 C 
BRANCH   8   9
ATOM      9  C   UNL     1       8.012  16.973  32.989  1.00  0.00    -0.000 C 
BRANCH   9  10
ATOM     10  C   UNL     1       7.052  17.999  32.356  1.00  0.00    -0.000 C 
BRANCH  10  11
ATOM     11  C   UNL     1       6.981  19.336  33.124  1.00  0.00    -0.003 C 
ATOM     12  C   UNL     1       7.469  20.518  32.287  1.00  0.00     0.004 C 
ENDBRANCH  10  11
ENDBRANCH   9  10
ENDBRANCH   8   9
ENDBRANCH   7   8
ENDBRANCH   6   7
ENDBRANCH   5   6
ENDBRANCH   4   5
ENDBRANCH   3   4
ENDBRANCH   2   3
ENDBRANCH   1   2
BRANCH   1  13
ATOM     13  C   UNL     1       5.413  18.516  26.236  1.00  0.00     0.000 C 
BRANCH  13  14
ATOM     14  C   UNL     1       4.779  17.974  27.530  1.00  0.00     0.000 C 
BRANCH  14  15
ATOM     15  C   UNL     1       3.316  17.545  27.342  1.00  0.00     0.000 C 
BRANCH  15  16
ATOM     16  C   UNL     1       2.783  17.840  25.929  1.00  0.00     0.000 C 
BRANCH  16  17
ATOM     17  C   UNL     1       1.318  18.323  25.904  1.00  0.00     0.000 C 
BRANCH  17  18
ATOM     18  C   UNL     1       0.666  18.117  24.525  1.00  0.00     0.000 C 
BRANCH  18  19
ATOM     19  C   UNL     1       0.596  19.411  23.700  1.00  0.00     0.000 C 
BRANCH  19  20
ATOM     20  C   UNL     1       1.709  19.504  22.646  1.00  0.00     0.006 C 
BRANCH  20  21
ATOM     21  C   UNL     1       2.267  20.929  22.559  1.00  0.00     0.053 C 
BRANCH  21  22
ATOM     22  C   UNL     1       3.763  20.909  22.585  1.00  0.00     0.041 C 
ATOM     23  O   UNL     1       4.419  21.918  22.214  1.00  0.00    -0.550 OA
ATOM     24  O   UNL     1       4.436  19.779  23.034  1.00  0.00    -0.550 OA
ENDBRANCH  21  22
ENDBRANCH  20  21
ENDBRANCH  19  20
ENDBRANCH  18  19
ENDBRANCH  17  18
ENDBRANCH  16  17
ENDBRANCH  15  16
ENDBRANCH  14  15
ENDBRANCH  13  14
ENDBRANCH   1  13
TORSDOF 20
ENDMDL
MODEL 7
REMARK VINA RESULT:    17.975      2.423      4.391
REMARK INTER + INTRA:          37.615
REMARK INTER:                  39.050
REMARK INTRA:                  -1.435
REMARK UNBOUND:                -1.378
REMARK SMILES CCCCCCCCCCCCCCCCCCCCCC(=O)[O-]
REMARK SMILES IDX 12 1 11 2 10 3 9 4 8 5 7 6 6 7 5 8 4 9 3 10 2 11 1 12 13 13
REMARK SMILES IDX 14 14 15 15 16 16 17 17 18 18 19 19 20 20 21 21 22 22 23 23
REMARK SMILES IDX 24 24
REMARK H PARENT
REMARK Flexibility Score: inf
ROOT
ATOM      1  C   UNL     1       7.505  17.086  26.582  1.00  0.00     0.000 C 
ENDROOT
BRANCH   1   2
ATOM      2  C   UNL     1       6.685  17.907  25.565  1.00  0.00     0.000 C 
BRANCH   2   3
ATOM      3  C   UNL     1       5.451  18.620  26.148  1.00  0.00     0.000 C 
BRANCH   3   4
ATOM      4  C   UNL     1       4.839  17.869  27.339  1.00  0.00    -0.000 C 
BRANCH   4   5
ATOM      5  C   UNL     1       3.305  17.838  27.243  1.00  0.00    -0.000 C 
BRANCH   5   6
ATOM      6  C   UNL     1       2.807  17.679  25.797  1.00  0.00    -0.000 C 
BRANCH   6   7
ATOM      7  C   UNL     1       1.283  17.850  25.673  1.00  0.00    -0.000 C 
BRANCH   7   8
ATOM      8  C   UNL     1       0.865  18.539  24.360  1.00  0.00    -0.000 C 
BRANCH   8   9
ATOM      9  C   UNL     1       0.486  20.026  24.499  1.00  0.00    -0.000 C 
BRANCH   9  10
ATOM     10  C   UNL     1       1.271  20.984  23.583  1.00  0.00    -0.000 C 
BRANCH  10  11
ATOM     11  C   UNL     1       2.291  20.271  22.670  1.00  0.00    -0.003 C 
ATOM     12  C   UNL     1       3.520  21.131  22.381  1.00  0.00     0.004 C 
ENDBRANCH  10  11
ENDBRANCH   9  10
ENDBRANCH   8   9
ENDBRANCH   7   8
ENDBRANCH   6   7
ENDBRANCH   5   6
ENDBRANCH   4   5
ENDBRANCH   3   4
ENDBRANCH   2   3
ENDBRANCH   1   2
BRANCH   1  13
ATOM     13  C   UNL     1       8.648  17.853  27.277  1.00  0.00     0.000 C 
BRANCH  13  14
ATOM     14  C   UNL     1       9.318  17.107  28.445  1.00  0.00     0.000 C 
BRANCH  14  15
ATOM     15  C   UNL     1       9.424  17.964  29.716  1.00  0.00     0.000 C 
BRANCH  15  16
ATOM     16  C   UNL     1       8.300  17.679  30.726  1.00  0.00     0.000 C 
BRANCH  16  17
ATOM     17  C   UNL     1       8.753  17.750  32.199  1.00  0.00     0.000 C 
BRANCH  17  18
ATOM     18  C   UNL     1       7.676  18.373  33.105  1.00  0.00     0.000 C 
BRANCH  18  19
ATOM     19  C   UNL     1       7.726  19.908  33.122  1.00  0.00     0.000 C 
BRANCH  19  20
ATOM     20  C   UNL     1       6.330  20.548  33.125  1.00  0.00     0.006 C 
BRANCH  20  21
ATOM     21  C   UNL     1       5.982  21.114  31.744  1.00  0.00     0.053 C 
BRANCH  21  22
ATOM     22  C   UNL     1       6.144  22.602  31.730  1.00  0.00     0.041 C 
ATOM     23  O   UNL     1       6.298  23.214  30.639  1.00  0.00    -0.550 OA
ATOM     24  O   UNL     1       6.110  23.317  32.921  1.00  0.00    -0.550 OA
ENDBRANCH  21  22
ENDBRANCH  20  21
ENDBRANCH  19  20
ENDBRANCH  18  19
ENDBRANCH  17  18
ENDBRANCH  16  17
ENDBRANCH  15  16
ENDBRANCH  14  15
ENDBRANCH  13  14
ENDBRANCH   1  13
TORSDOF 20
ENDMDL
MODEL 8
REMARK VINA RESULT:    18.242      4.961      9.689
REMARK INTER + INTRA:          38.193
REMARK INTER:                  39.211
REMARK INTRA:                  -1.018
REMARK UNBOUND:                -1.378
REMARK SMILES CCCCCCCCCCCCCCCCCCCCCC(=O)[O-]
REMARK SMILES IDX 12 1 11 2 10 3 9 4 8 5 7 6 6 7 5 8 4 9 3 10 2 11 1 12 13 13
REMARK SMILES IDX 14 14 15 15 16 16 17 17 18 18 19 19 20 20 21 21 22 22 23 23
REMARK SMILES IDX 24 24
REMARK H PARENT
REMARK Flexibility Score: inf
ROOT
ATOM      1  C   UNL     1       8.881  17.472  27.615  1.00  0.00     0.000 C 
ENDROOT
BRANCH   1   2
ATOM      2  C   UNL     1       9.929  16.344  27.701  1.00  0.00     0.000 C 
BRANCH   2   3
ATOM      3  C   UNL     1       9.672  15.144  26.771  1.00  0.00     0.000 C 
BRANCH   3   4
ATOM      4  C   UNL     1      10.962  14.403  26.389  1.00  0.00    -0.000 C 
BRANCH   4   5
ATOM      5  C   UNL     1      11.071  13.064  27.135  1.00  0.00    -0.000 C 
BRANCH   5   6
ATOM      6  C   UNL     1      10.325  11.926  26.418  1.00  0.00    -0.000 C 
BRANCH   6   7
ATOM      7  C   UNL     1      10.308  10.622  27.235  1.00  0.00    -0.000 C 
BRANCH   7   8
ATOM      8  C   UNL     1       9.230   9.632  26.755  1.00  0.00    -0.000 C 
BRANCH   8   9
ATOM      9  C   UNL     1       8.325   9.069  27.868  1.00  0.00    -0.000 C 
BRANCH   9  10
ATOM     10  C   UNL     1       6.813   9.219  27.613  1.00  0.00    -0.000 C 
BRANCH  10  11
ATOM     11  C   UNL     1       6.460  10.370  26.647  1.00  0.00    -0.003 C 
ATOM     12  C   UNL     1       5.139  11.050  27.006  1.00  0.00     0.004 C 
ENDBRANCH  10  11
ENDBRANCH   9  10
ENDBRANCH   8   9
ENDBRANCH   7   8
ENDBRANCH   6   7
ENDBRANCH   5   6
ENDBRANCH   4   5
ENDBRANCH   3   4
ENDBRANCH   2   3
ENDBRANCH   1   2
BRANCH   1  13
ATOM     13  C   UNL     1       7.615  17.133  26.801  1.00  0.00     0.000 C 
BRANCH  13  14
ATOM     14  C   UNL     1       6.715  18.336  26.465  1.00  0.00     0.000 C 
BRANCH  14  15
ATOM     15  C   UNL     1       6.192  18.302  25.020  1.00  0.00     0.000 C 
BRANCH  15  16
ATOM     16  C   UNL     1       5.128  19.378  24.744  1.00  0.00     0.000 C 
BRANCH  16  17
ATOM     17  C   UNL     1       4.522  19.305  23.327  1.00  0.00     0.000 C 
BRANCH  17  18
ATOM     18  C   UNL     1       4.272  20.702  22.732  1.00  0.00     0.000 C 
BRANCH  18  19
ATOM     19  C   UNL     1       2.788  21.100  22.749  1.00  0.00     0.000 C 
BRANCH  19  20
ATOM     20  C   UNL     1       1.848  19.889  22.649  1.00  0.00     0.006 C 
BRANCH  20  21
ATOM     21  C   UNL     1       0.886  19.840  23.841  1.00  0.00     0.053 C 
BRANCH  21  22
ATOM     22  C   UNL     1       0.698  18.430  24.307  1.00  0.00     0.041 C 
ATOM     23  O   UNL     1       1.224  18.041  25.383  1.00  0.00    -0.550 OA
ATOM     24  O   UNL     1      -0.071  17.547  23.559  1.00  0.00    -0.550 OA
ENDBRANCH  21  22
ENDBRANCH  20  21
ENDBRANCH  19  20
ENDBRANCH  18  19
ENDBRANCH  17  18
ENDBRANCH  16  17
ENDBRANCH  15  16
ENDBRANCH  14  15
ENDBRANCH  13  14
ENDBRANCH   1  13
TORSDOF 20
ENDMDL
