MODEL 1
REMARK VINA RESULT:    -5.785      0.000      0.000
REMARK INTER + INTRA:          -5.954
REMARK INTER:                  -5.954
REMARK INTRA:                   0.000
REMARK UNBOUND:                 0.000
REMARK SMILES O=c1ccc2ccc(O)cc2o1
REMARK SMILES IDX 6 1 7 2 8 3 10 4 11 5 5 6 4 7 3 8 2 9 1 10 12 11 9 12
REMARK H PARENT 9 13
REMARK Flexibility Score: inf
ROOT
ATOM      1  C   UNL     1      13.757 -17.328   7.756  1.00  0.00     0.016 A 
ATOM      2  C   UNL     1      14.633 -16.271   7.488  1.00  0.00     0.047 A 
ATOM      3  C   UNL     1      14.142 -14.964   7.348  1.00  0.00     0.119 A 
ATOM      4  C   UNL     1      12.771 -14.715   7.478  1.00  0.00     0.094 A 
ATOM      5  C   UNL     1      11.888 -15.766   7.747  1.00  0.00     0.142 A 
ATOM      6  C   UNL     1      12.384 -17.081   7.887  1.00  0.00     0.018 A 
ATOM      7  C   UNL     1      11.476 -18.110   8.156  1.00  0.00     0.019 A 
ATOM      8  C   UNL     1      10.119 -17.812   8.278  1.00  0.00     0.094 A 
ATOM      9  C   UNL     1       9.700 -16.486   8.126  1.00  0.00     0.336 A 
ATOM     10  O   UNL     1       8.480 -16.197   8.232  1.00  0.00    -0.246 OA
ATOM     11  O   UNL     1      10.585 -15.525   7.871  1.00  0.00    -0.423 OA
ENDROOT
BRANCH   3  12
ATOM     12  O   UNL     1      15.009 -13.906   7.080  1.00  0.00    -0.508 OA
ATOM     13  H   UNL     1      15.718 -13.972   6.359  1.00  0.00     0.293 HD
ENDBRANCH   3  12
TORSDOF 1
ENDMDL
MODEL 2
REMARK VINA RESULT:    -5.357      0.961      1.091
REMARK INTER + INTRA:          -5.513
REMARK INTER:                  -5.513
REMARK INTRA:                   0.000
REMARK UNBOUND:                 0.000
REMARK SMILES O=c1ccc2ccc(O)cc2o1
REMARK SMILES IDX 6 1 7 2 8 3 10 4 11 5 5 6 4 7 3 8 2 9 1 10 12 11 9 12
REMARK H PARENT 9 13
REMARK Flexibility Score: inf
ROOT
ATOM      1  C   UNL     1      12.654 -17.953   6.903  1.00  0.00     0.016 A 
ATOM      2  C   UNL     1      13.711 -17.038   6.881  1.00  0.00     0.047 A 
ATOM      3  C   UNL     1      13.504 -15.708   7.277  1.00  0.00     0.119 A 
ATOM      4  C   UNL     1      12.235 -15.294   7.698  1.00  0.00     0.094 A 
ATOM      5  C   UNL     1      11.171 -16.202   7.723  1.00  0.00     0.142 A 
ATOM      6  C   UNL     1      11.382 -17.540   7.324  1.00  0.00     0.018 A 
ATOM      7  C   UNL     1      10.299 -18.425   7.361  1.00  0.00     0.019 A 
ATOM      8  C   UNL     1       9.054 -17.965   7.787  1.00  0.00     0.094 A 
ATOM      9  C   UNL     1       8.919 -16.626   8.168  1.00  0.00     0.336 A 
ATOM     10  O   UNL     1       7.803 -16.192   8.555  1.00  0.00    -0.246 OA
ATOM     11  O   UNL     1       9.966 -15.805   8.124  1.00  0.00    -0.423 OA
ENDROOT
BRANCH   3  12
ATOM     12  O   UNL     1      14.553 -14.791   7.258  1.00  0.00    -0.508 OA
ATOM     13  H   UNL     1      14.428 -13.837   7.577  1.00  0.00     0.293 HD
ENDBRANCH   3  12
TORSDOF 1
ENDMDL
MODEL 3
REMARK VINA RESULT:    -5.228      0.957      4.272
REMARK INTER + INTRA:          -5.381
REMARK INTER:                  -5.381
REMARK INTRA:                   0.000
REMARK UNBOUND:                 0.000
REMARK SMILES O=c1ccc2ccc(O)cc2o1
REMARK SMILES IDX 6 1 7 2 8 3 10 4 11 5 5 6 4 7 3 8 2 9 1 10 12 11 9 12
REMARK H PARENT 9 13
REMARK Flexibility Score: inf
ROOT
ATOM      1  C   UNL     1      11.047 -18.337   7.126  1.00  0.00     0.016 A 
ATOM      2  C   UNL     1       9.702 -18.073   7.405  1.00  0.00     0.047 A 
ATOM      3  C   UNL     1       9.296 -16.782   7.773  1.00  0.00     0.119 A 
ATOM      4  C   UNL     1      10.239 -15.751   7.862  1.00  0.00     0.094 A 
ATOM      5  C   UNL     1      11.586 -16.005   7.585  1.00  0.00     0.142 A 
ATOM      6  C   UNL     1      11.993 -17.306   7.214  1.00  0.00     0.018 A 
ATOM      7  C   UNL     1      13.347 -17.528   6.943  1.00  0.00     0.019 A 
ATOM      8  C   UNL     1      14.249 -16.469   7.044  1.00  0.00     0.094 A 
ATOM      9  C   UNL     1      13.774 -15.208   7.417  1.00  0.00     0.336 A 
ATOM     10  O   UNL     1      14.572 -14.239   7.514  1.00  0.00    -0.246 OA
ATOM     11  O   UNL     1      12.480 -15.023   7.670  1.00  0.00    -0.423 OA
ENDROOT
BRANCH   3  12
ATOM     12  O   UNL     1       7.957 -16.513   8.053  1.00  0.00    -0.508 OA
ATOM     13  H   UNL     1       7.689 -15.783   8.703  1.00  0.00     0.293 HD
ENDBRANCH   3  12
TORSDOF 1
ENDMDL
MODEL 4
REMARK VINA RESULT:    -5.120      1.121      4.337
REMARK INTER + INTRA:          -5.269
REMARK INTER:                  -5.269
REMARK INTRA:                   0.000
REMARK UNBOUND:                 0.000
REMARK SMILES O=c1ccc2ccc(O)cc2o1
REMARK SMILES IDX 6 1 7 2 8 3 10 4 11 5 5 6 4 7 3 8 2 9 1 10 12 11 9 12
REMARK H PARENT 9 13
REMARK Flexibility Score: inf
ROOT
ATOM      1  C   UNL     1      10.459 -18.492   7.223  1.00  0.00     0.016 A 
ATOM      2  C   UNL     1       9.193 -18.068   7.641  1.00  0.00     0.047 A 
ATOM      3  C   UNL     1       8.995 -16.747   8.069  1.00  0.00     0.119 A 
ATOM      4  C   UNL     1      10.067 -15.847   8.079  1.00  0.00     0.094 A 
ATOM      5  C   UNL     1      11.337 -16.262   7.663  1.00  0.00     0.142 A 
ATOM      6  C   UNL     1      11.534 -17.593   7.232  1.00  0.00     0.018 A 
ATOM      7  C   UNL     1      12.815 -17.977   6.821  1.00  0.00     0.019 A 
ATOM      8  C   UNL     1      13.851 -17.045   6.848  1.00  0.00     0.094 A 
ATOM      9  C   UNL     1      13.582 -15.744   7.287  1.00  0.00     0.336 A 
ATOM     10  O   UNL     1      14.505 -14.889   7.320  1.00  0.00    -0.246 OA
ATOM     11  O   UNL     1      12.354 -15.404   7.673  1.00  0.00    -0.423 OA
ENDROOT
BRANCH   3  12
ATOM     12  O   UNL     1       7.737 -16.318   8.487  1.00  0.00    -0.508 OA
ATOM     13  H   UNL     1       7.057 -15.951   7.830  1.00  0.00     0.293 HD
ENDBRANCH   3  12
TORSDOF 1
ENDMDL
MODEL 5
REMARK VINA RESULT:    -4.704      2.167      2.814
REMARK INTER + INTRA:          -4.841
REMARK INTER:                  -4.841
REMARK INTRA:                   0.000
REMARK UNBOUND:                 0.000
REMARK SMILES O=c1ccc2ccc(O)cc2o1
REMARK SMILES IDX 6 1 7 2 8 3 10 4 11 5 5 6 4 7 3 8 2 9 1 10 12 11 9 12
REMARK H PARENT 9 13
REMARK Flexibility Score: inf
ROOT
ATOM      1  C   UNL     1      12.108 -16.130   8.459  1.00  0.00     0.016 A 
ATOM      2  C   UNL     1      13.340 -16.729   8.179  1.00  0.00     0.047 A 
ATOM      3  C   UNL     1      13.398 -17.904   7.414  1.00  0.00     0.119 A 
ATOM      4  C   UNL     1      12.218 -18.481   6.930  1.00  0.00     0.094 A 
ATOM      5  C   UNL     1      10.981 -17.889   7.206  1.00  0.00     0.142 A 
ATOM      6  C   UNL     1      10.925 -16.706   7.975  1.00  0.00     0.018 A 
ATOM      7  C   UNL     1       9.674 -16.137   8.233  1.00  0.00     0.019 A 
ATOM      8  C   UNL     1       8.527 -16.749   7.728  1.00  0.00     0.094 A 
ATOM      9  C   UNL     1       8.658 -17.919   6.975  1.00  0.00     0.336 A 
ATOM     10  O   UNL     1       7.635 -18.486   6.511  1.00  0.00    -0.246 OA
ATOM     11  O   UNL     1       9.862 -18.440   6.743  1.00  0.00    -0.423 OA
ENDROOT
BRANCH   3  12
ATOM     12  O   UNL     1      14.622 -18.507   7.131  1.00  0.00    -0.508 OA
ATOM     13  H   UNL     1      14.695 -19.503   6.958  1.00  0.00     0.293 HD
ENDBRANCH   3  12
TORSDOF 1
ENDMDL
MODEL 6
REMARK VINA RESULT:    -4.641      2.174      4.973
REMARK INTER + INTRA:          -4.777
REMARK INTER:                  -4.777
REMARK INTRA:                   0.000
REMARK UNBOUND:                 0.000
REMARK SMILES O=c1ccc2ccc(O)cc2o1
REMARK SMILES IDX 6 1 7 2 8 3 10 4 11 5 5 6 4 7 3 8 2 9 1 10 12 11 9 12
REMARK H PARENT 9 13
REMARK Flexibility Score: inf
ROOT
ATOM      1  C   UNL     1       9.754 -16.126   7.872  1.00  0.00     0.016 A 
ATOM      2  C   UNL     1       8.618 -16.873   7.544  1.00  0.00     0.047 A 
ATOM      3  C   UNL     1       8.750 -18.177   7.043  1.00  0.00     0.119 A 
ATOM      4  C   UNL     1      10.023 -18.734   6.869  1.00  0.00     0.094 A 
ATOM      5  C   UNL     1      11.164 -17.994   7.194  1.00  0.00     0.142 A 
ATOM      6  C   UNL     1      11.030 -16.682   7.699  1.00  0.00     0.018 A 
ATOM      7  C   UNL     1      12.190 -15.967   8.016  1.00  0.00     0.019 A 
ATOM      8  C   UNL     1      13.435 -16.565   7.826  1.00  0.00     0.094 A 
ATOM      9  C   UNL     1      13.492 -17.868   7.321  1.00  0.00     0.336 A 
ATOM     10  O   UNL     1      14.606 -18.425   7.142  1.00  0.00    -0.246 OA
ATOM     11  O   UNL     1      12.372 -18.526   7.028  1.00  0.00    -0.423 OA
ENDROOT
BRANCH   3  12
ATOM     12  O   UNL     1       7.623 -18.927   6.714  1.00  0.00    -0.508 OA
ATOM     13  H   UNL     1       6.717 -18.728   7.122  1.00  0.00     0.293 HD
ENDBRANCH   3  12
TORSDOF 1
ENDMDL
MODEL 7
REMARK VINA RESULT:    -4.539      2.510      5.496
REMARK INTER + INTRA:          -4.671
REMARK INTER:                  -4.671
REMARK INTRA:                   0.000
REMARK UNBOUND:                 0.000
REMARK SMILES O=c1ccc2ccc(O)cc2o1
REMARK SMILES IDX 6 1 7 2 8 3 10 4 11 5 5 6 4 7 3 8 2 9 1 10 12 11 9 12
REMARK H PARENT 9 13
REMARK Flexibility Score: inf
ROOT
ATOM      1  C   UNL     1       8.396 -16.148   8.584  1.00  0.00     0.016 A 
ATOM      2  C   UNL     1       7.178 -16.828   8.478  1.00  0.00     0.047 A 
ATOM      3  C   UNL     1       7.114 -18.066   7.822  1.00  0.00     0.119 A 
ATOM      4  C   UNL     1       8.272 -18.627   7.272  1.00  0.00     0.094 A 
ATOM      5  C   UNL     1       9.495 -17.954   7.373  1.00  0.00     0.142 A 
ATOM      6  C   UNL     1       9.558 -16.708   8.034  1.00  0.00     0.018 A 
ATOM      7  C   UNL     1      10.794 -16.060   8.120  1.00  0.00     0.019 A 
ATOM      8  C   UNL     1      11.921 -16.659   7.557  1.00  0.00     0.094 A 
ATOM      9  C   UNL     1      11.784 -17.895   6.917  1.00  0.00     0.336 A 
ATOM     10  O   UNL     1      12.788 -18.450   6.402  1.00  0.00    -0.246 OA
ATOM     11  O   UNL     1      10.595 -18.490   6.849  1.00  0.00    -0.423 OA
ENDROOT
BRANCH   3  12
ATOM     12  O   UNL     1       5.903 -18.749   7.712  1.00  0.00    -0.508 OA
ATOM     13  H   UNL     1       5.345 -18.971   8.528  1.00  0.00     0.293 HD
ENDBRANCH   3  12
TORSDOF 1
ENDMDL
MODEL 8
REMARK VINA RESULT:    -4.448      2.453      3.624
REMARK INTER + INTRA:          -4.578
REMARK INTER:                  -4.578
REMARK INTRA:                   0.000
REMARK UNBOUND:                 0.000
REMARK SMILES O=c1ccc2ccc(O)cc2o1
REMARK SMILES IDX 6 1 7 2 8 3 10 4 11 5 5 6 4 7 3 8 2 9 1 10 12 11 9 12
REMARK H PARENT 9 13
REMARK Flexibility Score: inf
ROOT
ATOM      1  C   UNL     1      10.571 -15.864   8.028  1.00  0.00     0.016 A 
ATOM      2  C   UNL     1      11.784 -16.385   7.567  1.00  0.00     0.047 A 
ATOM      3  C   UNL     1      11.860 -17.714   7.122  1.00  0.00     0.119 A 
ATOM      4  C   UNL     1      10.718 -18.523   7.139  1.00  0.00     0.094 A 
ATOM      5  C   UNL     1       9.500 -18.010   7.599  1.00  0.00     0.142 A 
ATOM      6  C   UNL     1       9.426 -16.673   8.046  1.00  0.00     0.018 A 
ATOM      7  C   UNL     1       8.194 -16.189   8.499  1.00  0.00     0.019 A 
ATOM      8  C   UNL     1       7.085 -17.034   8.497  1.00  0.00     0.094 A 
ATOM      9  C   UNL     1       7.233 -18.347   8.040  1.00  0.00     0.336 A 
ATOM     10  O   UNL     1       6.243 -19.125   8.031  1.00  0.00    -0.246 OA
ATOM     11  O   UNL     1       8.417 -18.782   7.614  1.00  0.00    -0.423 OA
ENDROOT
BRANCH   3  12
ATOM     12  O   UNL     1      13.066 -18.239   6.661  1.00  0.00    -0.508 OA
ATOM     13  H   UNL     1      13.220 -18.427   5.677  1.00  0.00     0.293 HD
ENDBRANCH   3  12
TORSDOF 1
ENDMDL
MODEL 9
REMARK VINA RESULT:    -3.961      2.463      5.168
REMARK INTER + INTRA:          -4.077
REMARK INTER:                  -4.077
REMARK INTRA:                   0.000
REMARK UNBOUND:                 0.000
REMARK SMILES O=c1ccc2ccc(O)cc2o1
REMARK SMILES IDX 6 1 7 2 8 3 10 4 11 5 5 6 4 7 3 8 2 9 1 10 12 11 9 12
REMARK H PARENT 9 13
REMARK Flexibility Score: inf
ROOT
ATOM      1  C   UNL     1       7.699 -18.536   6.818  1.00  0.00     0.016 A 
ATOM      2  C   UNL     1       6.822 -17.702   7.517  1.00  0.00     0.047 A 
ATOM      3  C   UNL     1       7.319 -16.643   8.292  1.00  0.00     0.119 A 
ATOM      4  C   UNL     1       8.698 -16.418   8.365  1.00  0.00     0.094 A 
ATOM      5  C   UNL     1       9.584 -17.248   7.669  1.00  0.00     0.142 A 
ATOM      6  C   UNL     1       9.081 -18.313   6.890  1.00  0.00     0.018 A 
ATOM      7  C   UNL     1       9.992 -19.125   6.205  1.00  0.00     0.019 A 
ATOM      8  C   UNL     1      11.357 -18.861   6.309  1.00  0.00     0.094 A 
ATOM      9  C   UNL     1      11.782 -17.788   7.099  1.00  0.00     0.336 A 
ATOM     10  O   UNL     1      13.010 -17.535   7.206  1.00  0.00    -0.246 OA
ATOM     11  O   UNL     1      10.895 -17.031   7.741  1.00  0.00    -0.423 OA
ENDROOT
BRANCH   3  12
ATOM     12  O   UNL     1       6.450 -15.807   8.992  1.00  0.00    -0.508 OA
ATOM     13  H   UNL     1       5.661 -15.362   8.536  1.00  0.00     0.293 HD
ENDBRANCH   3  12
TORSDOF 1
ENDMDL
