MODEL 1
REMARK VINA RESULT:    -3.933      0.000      0.000
REMARK INTER + INTRA:          -9.900
REMARK INTER:                  -7.611
REMARK INTRA:                  -2.288
REMARK UNBOUND:                -2.288
REMARK SMILES CCCCCCCCCCCCCCCCCC(=O)[O-]
REMARK SMILES IDX 10 1 11 2 12 3 13 4 14 5 15 6 16 7 17 8 18 9 19 10 20 11
REMARK SMILES IDX 9 12 8 13 7 14 6 15 5 16 4 17 3 18 2 19 1 20
REMARK H PARENT
REMARK Flexibility Score: inf
ROOT
ATOM      1  C   UNL     1       8.027  14.769  25.092  1.00  0.00     0.000 C 
ENDROOT
BRANCH   1   2
ATOM      2  C   UNL     1       8.505  13.768  26.158  1.00  0.00     0.000 C 
BRANCH   2   3
ATOM      3  C   UNL     1       8.423  12.310  25.688  1.00  0.00     0.000 C 
BRANCH   3   4
ATOM      4  C   UNL     1       9.728  11.878  25.002  1.00  0.00     0.000 C 
BRANCH   4   5
ATOM      5  C   UNL     1       9.583  11.750  23.477  1.00  0.00     0.000 C 
BRANCH   5   6
ATOM      6  C   UNL     1      10.613  12.601  22.712  1.00  0.00     0.000 C 
BRANCH   6   7
ATOM      7  C   UNL     1       9.958  13.699  21.851  1.00  0.00     0.006 C 
BRANCH   7   8
ATOM      8  C   UNL     1      10.126  13.486  20.336  1.00  0.00     0.053 C 
BRANCH   8   9
ATOM      9  C   UNL     1      10.055  14.766  19.561  1.00  0.00     0.041 C 
ATOM     10  O   UNL     1       9.039  15.507  19.650  1.00  0.00    -0.550 OA
ATOM     11  O   UNL     1      11.109  15.139  18.735  1.00  0.00    -0.550 OA
ENDBRANCH   8   9
ENDBRANCH   7   8
ENDBRANCH   6   7
ENDBRANCH   5   6
ENDBRANCH   4   5
ENDBRANCH   3   4
ENDBRANCH   2   3
ENDBRANCH   1   2
BRANCH   1  12
ATOM     12  C   UNL     1       8.700  16.154  25.202  1.00  0.00     0.000 C 
BRANCH  12  13
ATOM     13  C   UNL     1      10.236  16.053  25.226  1.00  0.00    -0.000 C 
BRANCH  13  14
ATOM     14  C   UNL     1      10.875  16.436  23.883  1.00  0.00    -0.000 C 
BRANCH  14  15
ATOM     15  C   UNL     1       9.866  17.049  22.899  1.00  0.00    -0.000 C 
BRANCH  15  16
ATOM     16  C   UNL     1      10.482  18.178  22.041  1.00  0.00    -0.000 C 
BRANCH  16  17
ATOM     17  C   UNL     1       9.711  19.508  22.123  1.00  0.00    -0.000 C 
BRANCH  17  18
ATOM     18  C   UNL     1       9.097  19.811  23.501  1.00  0.00    -0.000 C 
BRANCH  18  19
ATOM     19  C   UNL     1      10.079  20.489  24.483  1.00  0.00    -0.003 C 
ATOM     20  C   UNL     1      10.027  19.890  25.888  1.00  0.00     0.004 C 
ENDBRANCH  18  19
ENDBRANCH  17  18
ENDBRANCH  16  17
ENDBRANCH  15  16
ENDBRANCH  14  15
ENDBRANCH  13  14
ENDBRANCH  12  13
ENDBRANCH   1  12
TORSDOF 16
ENDMDL
MODEL 2
REMARK VINA RESULT:    -3.873      2.499      5.949
REMARK INTER + INTRA:          -9.785
REMARK INTER:                  -7.400
REMARK INTRA:                  -2.385
REMARK UNBOUND:                -2.288
REMARK SMILES CCCCCCCCCCCCCCCCCC(=O)[O-]
REMARK SMILES IDX 10 1 11 2 12 3 13 4 14 5 15 6 16 7 17 8 18 9 19 10 20 11
REMARK SMILES IDX 9 12 8 13 7 14 6 15 5 16 4 17 3 18 2 19 1 20
REMARK H PARENT
REMARK Flexibility Score: inf
ROOT
ATOM      1  C   UNL     1       8.770  16.093  25.966  1.00  0.00     0.000 C 
ENDROOT
BRANCH   1   2
ATOM      2  C   UNL     1      10.283  16.323  25.805  1.00  0.00     0.000 C 
BRANCH   2   3
ATOM      3  C   UNL     1      10.794  15.972  24.400  1.00  0.00     0.000 C 
BRANCH   3   4
ATOM      4  C   UNL     1       9.841  16.506  23.319  1.00  0.00     0.000 C 
BRANCH   4   5
ATOM      5  C   UNL     1      10.568  17.331  22.244  1.00  0.00     0.000 C 
BRANCH   5   6
ATOM      6  C   UNL     1       9.849  18.655  21.929  1.00  0.00     0.000 C 
BRANCH   6   7
ATOM      7  C   UNL     1       8.765  19.007  22.967  1.00  0.00     0.006 C 
BRANCH   7   8
ATOM      8  C   UNL     1       9.000  20.349  23.682  1.00  0.00     0.053 C 
BRANCH   8   9
ATOM      9  C   UNL     1      10.386  20.473  24.239  1.00  0.00     0.041 C 
ATOM     10  O   UNL     1      11.265  21.125  23.615  1.00  0.00    -0.550 OA
ATOM     11  O   UNL     1      10.707  19.862  25.446  1.00  0.00    -0.550 OA
ENDBRANCH   8   9
ENDBRANCH   7   8
ENDBRANCH   6   7
ENDBRANCH   5   6
ENDBRANCH   4   5
ENDBRANCH   3   4
ENDBRANCH   2   3
ENDBRANCH   1   2
BRANCH   1  12
ATOM     12  C   UNL     1       8.415  14.698  26.524  1.00  0.00     0.000 C 
BRANCH  12  13
ATOM     13  C   UNL     1       8.024  13.710  25.409  1.00  0.00    -0.000 C 
BRANCH  13  14
ATOM     14  C   UNL     1       8.731  12.354  25.546  1.00  0.00    -0.000 C 
BRANCH  14  15
ATOM     15  C   UNL     1       9.776  12.116  24.443  1.00  0.00    -0.000 C 
BRANCH  15  16
ATOM     16  C   UNL     1       9.365  12.743  23.091  1.00  0.00    -0.000 C 
BRANCH  16  17
ATOM     17  C   UNL     1      10.548  12.976  22.133  1.00  0.00    -0.000 C 
BRANCH  17  18
ATOM     18  C   UNL     1      10.165  13.043  20.644  1.00  0.00    -0.000 C 
BRANCH  18  19
ATOM     19  C   UNL     1      10.544  14.379  19.966  1.00  0.00    -0.003 C 
ATOM     20  C   UNL     1       9.334  15.267  19.679  1.00  0.00     0.004 C 
ENDBRANCH  18  19
ENDBRANCH  17  18
ENDBRANCH  16  17
ENDBRANCH  15  16
ENDBRANCH  14  15
ENDBRANCH  13  14
ENDBRANCH  12  13
ENDBRANCH   1  12
TORSDOF 16
ENDMDL
MODEL 3
REMARK VINA RESULT:    -3.842      2.918      7.423
REMARK INTER + INTRA:          -9.724
REMARK INTER:                  -8.651
REMARK INTRA:                  -1.073
REMARK UNBOUND:                -2.288
REMARK SMILES CCCCCCCCCCCCCCCCCC(=O)[O-]
REMARK SMILES IDX 10 1 11 2 12 3 13 4 14 5 15 6 16 7 17 8 18 9 19 10 20 11
REMARK SMILES IDX 9 12 8 13 7 14 6 15 5 16 4 17 3 18 2 19 1 20
REMARK H PARENT
REMARK Flexibility Score: inf
ROOT
ATOM      1  C   UNL     1      10.544  14.684  24.072  1.00  0.00     0.000 C 
ENDROOT
BRANCH   1   2
ATOM      2  C   UNL     1      10.804  16.040  24.752  1.00  0.00     0.000 C 
BRANCH   2   3
ATOM      3  C   UNL     1       9.717  17.080  24.445  1.00  0.00     0.000 C 
BRANCH   3   4
ATOM      4  C   UNL     1      10.336  18.380  23.908  1.00  0.00     0.000 C 
BRANCH   4   5
ATOM      5  C   UNL     1      10.970  18.205  22.519  1.00  0.00     0.000 C 
BRANCH   5   6
ATOM      6  C   UNL     1      10.039  17.478  21.532  1.00  0.00     0.000 C 
BRANCH   6   7
ATOM      7  C   UNL     1      10.674  16.202  20.943  1.00  0.00     0.006 C 
BRANCH   7   8
ATOM      8  C   UNL     1       9.649  15.184  20.415  1.00  0.00     0.053 C 
BRANCH   8   9
ATOM      9  C   UNL     1      10.294  13.973  19.812  1.00  0.00     0.041 C 
ATOM     10  O   UNL     1      11.000  14.080  18.774  1.00  0.00    -0.550 OA
ATOM     11  O   UNL     1      10.112  12.724  20.396  1.00  0.00    -0.550 OA
ENDBRANCH   8   9
ENDBRANCH   7   8
ENDBRANCH   6   7
ENDBRANCH   5   6
ENDBRANCH   4   5
ENDBRANCH   3   4
ENDBRANCH   2   3
ENDBRANCH   1   2
BRANCH   1  12
ATOM     12  C   UNL     1       9.500  13.817  24.807  1.00  0.00     0.000 C 
BRANCH  12  13
ATOM     13  C   UNL     1       9.175  12.523  24.038  1.00  0.00    -0.000 C 
BRANCH  13  14
ATOM     14  C   UNL     1       8.414  11.500  24.895  1.00  0.00    -0.000 C 
BRANCH  14  15
ATOM     15  C   UNL     1       9.344  10.461  25.542  1.00  0.00    -0.000 C 
BRANCH  15  16
ATOM     16  C   UNL     1       8.567   9.326  26.249  1.00  0.00    -0.000 C 
BRANCH  16  17
ATOM     17  C   UNL     1       9.134   7.922  25.970  1.00  0.00    -0.000 C 
BRANCH  17  18
ATOM     18  C   UNL     1       8.862   6.888  27.076  1.00  0.00    -0.000 C 
BRANCH  18  19
ATOM     19  C   UNL     1       8.645   7.515  28.472  1.00  0.00    -0.003 C 
ATOM     20  C   UNL     1       8.409   6.472  29.564  1.00  0.00     0.004 C 
ENDBRANCH  18  19
ENDBRANCH  17  18
ENDBRANCH  16  17
ENDBRANCH  15  16
ENDBRANCH  14  15
ENDBRANCH  13  14
ENDBRANCH  12  13
ENDBRANCH   1  12
TORSDOF 16
ENDMDL
MODEL 4
REMARK VINA RESULT:    -3.834      3.170      7.413
REMARK INTER + INTRA:          -9.708
REMARK INTER:                  -8.010
REMARK INTRA:                  -1.698
REMARK UNBOUND:                -2.288
REMARK SMILES CCCCCCCCCCCCCCCCCC(=O)[O-]
REMARK SMILES IDX 10 1 11 2 12 3 13 4 14 5 15 6 16 7 17 8 18 9 19 10 20 11
REMARK SMILES IDX 9 12 8 13 7 14 6 15 5 16 4 17 3 18 2 19 1 20
REMARK H PARENT
REMARK Flexibility Score: inf
ROOT
ATOM      1  C   UNL     1       9.584  13.595  24.333  1.00  0.00     0.000 C 
ENDROOT
BRANCH   1   2
ATOM      2  C   UNL     1      10.542  13.003  23.284  1.00  0.00     0.000 C 
BRANCH   2   3
ATOM      3  C   UNL     1      11.082  14.057  22.307  1.00  0.00     0.000 C 
BRANCH   3   4
ATOM      4  C   UNL     1      10.245  14.094  21.019  1.00  0.00     0.000 C 
BRANCH   4   5
ATOM      5  C   UNL     1       9.701  15.498  20.706  1.00  0.00     0.000 C 
BRANCH   5   6
ATOM      6  C   UNL     1      10.631  16.617  21.207  1.00  0.00     0.000 C 
BRANCH   6   7
ATOM      7  C   UNL     1       9.876  17.723  21.970  1.00  0.00     0.006 C 
BRANCH   7   8
ATOM      8  C   UNL     1       9.324  17.274  23.335  1.00  0.00     0.053 C 
BRANCH   8   9
ATOM      9  C   UNL     1      10.292  17.508  24.455  1.00  0.00     0.041 C 
ATOM     10  O   UNL     1      10.233  18.569  25.133  1.00  0.00    -0.550 OA
ATOM     11  O   UNL     1      11.264  16.558  24.745  1.00  0.00    -0.550 OA
ENDBRANCH   8   9
ENDBRANCH   7   8
ENDBRANCH   6   7
ENDBRANCH   5   6
ENDBRANCH   4   5
ENDBRANCH   3   4
ENDBRANCH   2   3
ENDBRANCH   1   2
BRANCH   1  12
ATOM     12  C   UNL     1       8.934  12.531  25.243  1.00  0.00     0.000 C 
BRANCH  12  13
ATOM     13  C   UNL     1       9.663  11.176  25.164  1.00  0.00    -0.000 C 
BRANCH  13  14
ATOM     14  C   UNL     1       8.803  10.078  24.519  1.00  0.00    -0.000 C 
BRANCH  14  15
ATOM     15  C   UNL     1       9.210   8.666  24.969  1.00  0.00    -0.000 C 
BRANCH  15  16
ATOM     16  C   UNL     1       8.302   8.116  26.092  1.00  0.00    -0.000 C 
BRANCH  16  17
ATOM     17  C   UNL     1       9.079   7.461  27.249  1.00  0.00    -0.000 C 
BRANCH  17  18
ATOM     18  C   UNL     1       8.876   8.130  28.620  1.00  0.00    -0.000 C 
BRANCH  18  19
ATOM     19  C   UNL     1       8.263   9.546  28.534  1.00  0.00    -0.003 C 
ATOM     20  C   UNL     1       9.276  10.653  28.826  1.00  0.00     0.004 C 
ENDBRANCH  18  19
ENDBRANCH  17  18
ENDBRANCH  16  17
ENDBRANCH  15  16
ENDBRANCH  14  15
ENDBRANCH  13  14
ENDBRANCH  12  13
ENDBRANCH   1  12
TORSDOF 16
ENDMDL
MODEL 5
REMARK VINA RESULT:    -3.774     12.679     14.320
REMARK INTER + INTRA:          -9.591
REMARK INTER:                  -7.745
REMARK INTRA:                  -1.847
REMARK UNBOUND:                -2.288
REMARK SMILES CCCCCCCCCCCCCCCCCC(=O)[O-]
REMARK SMILES IDX 10 1 11 2 12 3 13 4 14 5 15 6 16 7 17 8 18 9 19 10 20 11
REMARK SMILES IDX 9 12 8 13 7 14 6 15 5 16 4 17 3 18 2 19 1 20
REMARK H PARENT
REMARK Flexibility Score: inf
ROOT
ATOM      1  C   UNL     1      22.941  20.122  24.903  1.00  0.00     0.000 C 
ENDROOT
BRANCH   1   2
ATOM      2  C   UNL     1      22.338  19.830  26.288  1.00  0.00     0.000 C 
BRANCH   2   3
ATOM      3  C   UNL     1      22.083  18.335  26.525  1.00  0.00     0.000 C 
BRANCH   3   4
ATOM      4  C   UNL     1      20.623  18.083  26.934  1.00  0.00     0.000 C 
BRANCH   4   5
ATOM      5  C   UNL     1      19.781  19.370  26.947  1.00  0.00     0.000 C 
BRANCH   5   6
ATOM      6  C   UNL     1      18.405  19.168  27.606  1.00  0.00     0.000 C 
BRANCH   6   7
ATOM      7  C   UNL     1      18.003  17.683  27.706  1.00  0.00     0.006 C 
BRANCH   7   8
ATOM      8  C   UNL     1      16.855  17.413  28.694  1.00  0.00     0.053 C 
BRANCH   8   9
ATOM      9  C   UNL     1      15.546  17.170  28.007  1.00  0.00     0.041 C 
ATOM     10  O   UNL     1      15.504  16.506  26.937  1.00  0.00    -0.550 OA
ATOM     11  O   UNL     1      14.372  17.683  28.546  1.00  0.00    -0.550 OA
ENDBRANCH   8   9
ENDBRANCH   7   8
ENDBRANCH   6   7
ENDBRANCH   5   6
ENDBRANCH   4   5
ENDBRANCH   3   4
ENDBRANCH   2   3
ENDBRANCH   1   2
BRANCH   1  12
ATOM     12  C   UNL     1      23.028  18.877  23.994  1.00  0.00     0.000 C 
BRANCH  12  13
ATOM     13  C   UNL     1      24.081  19.042  22.883  1.00  0.00    -0.000 C 
BRANCH  13  14
ATOM     14  C   UNL     1      24.418  20.514  22.600  1.00  0.00    -0.000 C 
BRANCH  14  15
ATOM     15  C   UNL     1      25.931  20.765  22.488  1.00  0.00    -0.000 C 
BRANCH  15  16
ATOM     16  C   UNL     1      26.770  19.606  23.073  1.00  0.00    -0.000 C 
BRANCH  16  17
ATOM     17  C   UNL     1      27.797  20.058  24.128  1.00  0.00    -0.000 C 
BRANCH  17  18
ATOM     18  C   UNL     1      27.791  19.230  25.426  1.00  0.00    -0.000 C 
BRANCH  18  19
ATOM     19  C   UNL     1      26.462  18.485  25.680  1.00  0.00    -0.003 C 
ATOM     20  C   UNL     1      25.834  18.830  27.030  1.00  0.00     0.004 C 
ENDBRANCH  18  19
ENDBRANCH  17  18
ENDBRANCH  16  17
ENDBRANCH  15  16
ENDBRANCH  14  15
ENDBRANCH  13  14
ENDBRANCH  12  13
ENDBRANCH   1  12
TORSDOF 16
ENDMDL
MODEL 6
REMARK VINA RESULT:    -3.761      2.863      7.378
REMARK INTER + INTRA:          -9.566
REMARK INTER:                  -8.327
REMARK INTRA:                  -1.239
REMARK UNBOUND:                -2.288
REMARK SMILES CCCCCCCCCCCCCCCCCC(=O)[O-]
REMARK SMILES IDX 10 1 11 2 12 3 13 4 14 5 15 6 16 7 17 8 18 9 19 10 20 11
REMARK SMILES IDX 9 12 8 13 7 14 6 15 5 16 4 17 3 18 2 19 1 20
REMARK H PARENT
REMARK Flexibility Score: inf
ROOT
ATOM      1  C   UNL     1       9.356  11.897  24.751  1.00  0.00     0.000 C 
ENDROOT
BRANCH   1   2
ATOM      2  C   UNL     1       8.647  13.257  24.628  1.00  0.00     0.000 C 
BRANCH   2   3
ATOM      3  C   UNL     1       9.506  14.425  25.133  1.00  0.00     0.000 C 
BRANCH   3   4
ATOM      4  C   UNL     1      10.468  14.914  24.040  1.00  0.00     0.000 C 
BRANCH   4   5
ATOM      5  C   UNL     1      10.009  16.232  23.393  1.00  0.00     0.000 C 
BRANCH   5   6
ATOM      6  C   UNL     1      11.109  16.883  22.535  1.00  0.00     0.000 C 
BRANCH   6   7
ATOM      7  C   UNL     1      10.829  16.776  21.023  1.00  0.00     0.006 C 
BRANCH   7   8
ATOM      8  C   UNL     1      10.080  15.495  20.617  1.00  0.00     0.053 C 
BRANCH   8   9
ATOM      9  C   UNL     1      10.683  14.827  19.419  1.00  0.00     0.041 C 
ATOM     10  O   UNL     1      10.565  13.583  19.258  1.00  0.00    -0.550 OA
ATOM     11  O   UNL     1      11.383  15.580  18.482  1.00  0.00    -0.550 OA
ENDBRANCH   8   9
ENDBRANCH   7   8
ENDBRANCH   6   7
ENDBRANCH   5   6
ENDBRANCH   4   5
ENDBRANCH   3   4
ENDBRANCH   2   3
ENDBRANCH   1   2
BRANCH   1  12
ATOM     12  C   UNL     1       9.384  11.345  26.192  1.00  0.00     0.000 C 
BRANCH  12  13
ATOM     13  C   UNL     1       8.058  11.592  26.935  1.00  0.00    -0.000 C 
BRANCH  13  14
ATOM     14  C   UNL     1       8.214  11.531  28.462  1.00  0.00    -0.000 C 
BRANCH  14  15
ATOM     15  C   UNL     1       8.938  10.259  28.933  1.00  0.00    -0.000 C 
BRANCH  15  16
ATOM     16  C   UNL     1       8.049   8.998  28.834  1.00  0.00    -0.000 C 
BRANCH  16  17
ATOM     17  C   UNL     1       8.846   7.681  28.818  1.00  0.00    -0.000 C 
BRANCH  17  18
ATOM     18  C   UNL     1       8.869   6.960  27.458  1.00  0.00    -0.000 C 
BRANCH  18  19
ATOM     19  C   UNL     1       8.359   7.829  26.287  1.00  0.00    -0.003 C 
ATOM     20  C   UNL     1       9.403   8.022  25.188  1.00  0.00     0.004 C 
ENDBRANCH  18  19
ENDBRANCH  17  18
ENDBRANCH  16  17
ENDBRANCH  15  16
ENDBRANCH  14  15
ENDBRANCH  13  14
ENDBRANCH  12  13
ENDBRANCH   1  12
TORSDOF 16
ENDMDL
MODEL 7
REMARK VINA RESULT:    -3.740      4.401      6.284
REMARK INTER + INTRA:          -9.526
REMARK INTER:                  -7.975
REMARK INTRA:                  -1.551
REMARK UNBOUND:                -2.288
REMARK SMILES CCCCCCCCCCCCCCCCCC(=O)[O-]
REMARK SMILES IDX 10 1 11 2 12 3 13 4 14 5 15 6 16 7 17 8 18 9 19 10 20 11
REMARK SMILES IDX 9 12 8 13 7 14 6 15 5 16 4 17 3 18 2 19 1 20
REMARK H PARENT
REMARK Flexibility Score: inf
ROOT
ATOM      1  C   UNL     1       8.822  13.377  23.968  1.00  0.00     0.000 C 
ENDROOT
BRANCH   1   2
ATOM      2  C   UNL     1       8.421  13.165  25.438  1.00  0.00     0.000 C 
BRANCH   2   3
ATOM      3  C   UNL     1       8.378  11.684  25.838  1.00  0.00     0.000 C 
BRANCH   3   4
ATOM      4  C   UNL     1       9.749  11.020  25.639  1.00  0.00     0.000 C 
BRANCH   4   5
ATOM      5  C   UNL     1       9.739   9.962  24.523  1.00  0.00     0.000 C 
BRANCH   5   6
ATOM      6  C   UNL     1       8.700   8.854  24.768  1.00  0.00     0.000 C 
BRANCH   6   7
ATOM      7  C   UNL     1       9.117   7.882  25.889  1.00  0.00     0.006 C 
BRANCH   7   8
ATOM      8  C   UNL     1       8.068   7.730  27.004  1.00  0.00     0.053 C 
BRANCH   8   9
ATOM      9  C   UNL     1       8.641   7.951  28.371  1.00  0.00     0.041 C 
ATOM     10  O   UNL     1       9.321   8.983  28.616  1.00  0.00    -0.550 OA
ATOM     11  O   UNL     1       8.429   7.012  29.374  1.00  0.00    -0.550 OA
ENDBRANCH   8   9
ENDBRANCH   7   8
ENDBRANCH   6   7
ENDBRANCH   5   6
ENDBRANCH   4   5
ENDBRANCH   3   4
ENDBRANCH   2   3
ENDBRANCH   1   2
BRANCH   1  12
ATOM     12  C   UNL     1      10.186  14.077  23.796  1.00  0.00     0.000 C 
BRANCH  12  13
ATOM     13  C   UNL     1      10.353  15.267  24.758  1.00  0.00    -0.000 C 
BRANCH  13  14
ATOM     14  C   UNL     1      10.991  16.491  24.082  1.00  0.00    -0.000 C 
BRANCH  14  15
ATOM     15  C   UNL     1       9.946  17.467  23.518  1.00  0.00    -0.000 C 
BRANCH  15  16
ATOM     16  C   UNL     1      10.122  17.715  22.002  1.00  0.00    -0.000 C 
BRANCH  16  17
ATOM     17  C   UNL     1      10.788  16.544  21.257  1.00  0.00    -0.000 C 
BRANCH  17  18
ATOM     18  C   UNL     1       9.807  15.590  20.552  1.00  0.00    -0.000 C 
BRANCH  18  19
ATOM     19  C   UNL     1      10.482  14.655  19.524  1.00  0.00    -0.003 C 
ATOM     20  C   UNL     1      10.225  13.175  19.804  1.00  0.00     0.004 C 
ENDBRANCH  18  19
ENDBRANCH  17  18
ENDBRANCH  16  17
ENDBRANCH  15  16
ENDBRANCH  14  15
ENDBRANCH  13  14
ENDBRANCH  12  13
ENDBRANCH   1  12
TORSDOF 16
ENDMDL
MODEL 8
REMARK VINA RESULT:    -3.665     15.722     18.545
REMARK INTER + INTRA:          -9.381
REMARK INTER:                  -7.102
REMARK INTRA:                  -2.280
REMARK UNBOUND:                -2.288
REMARK SMILES CCCCCCCCCCCCCCCCCC(=O)[O-]
REMARK SMILES IDX 10 1 11 2 12 3 13 4 14 5 15 6 16 7 17 8 18 9 19 10 20 11
REMARK SMILES IDX 9 12 8 13 7 14 6 15 5 16 4 17 3 18 2 19 1 20
REMARK H PARENT
REMARK Flexibility Score: inf
ROOT
ATOM      1  C   UNL     1      23.237   4.378  28.669  1.00  0.00     0.000 C 
ENDROOT
BRANCH   1   2
ATOM      2  C   UNL     1      23.893   5.088  27.472  1.00  0.00     0.000 C 
BRANCH   2   3
ATOM      3  C   UNL     1      22.950   6.079  26.775  1.00  0.00     0.000 C 
BRANCH   3   4
ATOM      4  C   UNL     1      23.572   7.483  26.716  1.00  0.00     0.000 C 
BRANCH   4   5
ATOM      5  C   UNL     1      24.870   7.591  27.533  1.00  0.00     0.000 C 
BRANCH   5   6
ATOM      6  C   UNL     1      24.716   8.495  28.770  1.00  0.00     0.000 C 
BRANCH   6   7
ATOM      7  C   UNL     1      23.334   9.175  28.843  1.00  0.00     0.006 C 
BRANCH   7   8
ATOM      8  C   UNL     1      23.360  10.568  29.496  1.00  0.00     0.053 C 
BRANCH   8   9
ATOM      9  C   UNL     1      23.232  11.677  28.496  1.00  0.00     0.041 C 
ATOM     10  O   UNL     1      22.237  11.725  27.725  1.00  0.00    -0.550 OA
ATOM     11  O   UNL     1      24.217  12.655  28.413  1.00  0.00    -0.550 OA
ENDBRANCH   8   9
ENDBRANCH   7   8
ENDBRANCH   6   7
ENDBRANCH   5   6
ENDBRANCH   4   5
ENDBRANCH   3   4
ENDBRANCH   2   3
ENDBRANCH   1   2
BRANCH   1  12
ATOM     12  C   UNL     1      23.413   5.132  30.004  1.00  0.00     0.000 C 
BRANCH  12  13
ATOM     13  C   UNL     1      22.108   5.804  30.468  1.00  0.00    -0.000 C 
BRANCH  13  14
ATOM     14  C   UNL     1      21.035   4.787  30.889  1.00  0.00    -0.000 C 
BRANCH  14  15
ATOM     15  C   UNL     1      20.447   5.087  32.277  1.00  0.00    -0.000 C 
BRANCH  15  16
ATOM     16  C   UNL     1      20.687   3.938  33.284  1.00  0.00    -0.000 C 
BRANCH  16  17
ATOM     17  C   UNL     1      22.175   3.621  33.517  1.00  0.00    -0.000 C 
BRANCH  17  18
ATOM     18  C   UNL     1      22.567   2.155  33.263  1.00  0.00    -0.000 C 
BRANCH  18  19
ATOM     19  C   UNL     1      23.357   1.942  31.952  1.00  0.00    -0.003 C 
ATOM     20  C   UNL     1      22.494   1.384  30.821  1.00  0.00     0.004 C 
ENDBRANCH  18  19
ENDBRANCH  17  18
ENDBRANCH  16  17
ENDBRANCH  15  16
ENDBRANCH  14  15
ENDBRANCH  13  14
ENDBRANCH  12  13
ENDBRANCH   1  12
TORSDOF 16
ENDMDL
MODEL 9
REMARK VINA RESULT:    -3.599      1.497      3.463
REMARK INTER + INTRA:          -9.254
REMARK INTER:                  -7.108
REMARK INTRA:                  -2.146
REMARK UNBOUND:                -2.288
REMARK SMILES CCCCCCCCCCCCCCCCCC(=O)[O-]
REMARK SMILES IDX 10 1 11 2 12 3 13 4 14 5 15 6 16 7 17 8 18 9 19 10 20 11
REMARK SMILES IDX 9 12 8 13 7 14 6 15 5 16 4 17 3 18 2 19 1 20
REMARK H PARENT
REMARK Flexibility Score: inf
ROOT
ATOM      1  C   UNL     1      10.917  17.475  23.101  1.00  0.00     0.000 C 
ENDROOT
BRANCH   1   2
ATOM      2  C   UNL     1       9.406  17.242  23.271  1.00  0.00     0.000 C 
BRANCH   2   3
ATOM      3  C   UNL     1       9.083  16.115  24.262  1.00  0.00     0.000 C 
BRANCH   3   4
ATOM      4  C   UNL     1      10.323  15.250  24.535  1.00  0.00     0.000 C 
BRANCH   4   5
ATOM      5  C   UNL     1      10.157  13.803  24.042  1.00  0.00     0.000 C 
BRANCH   5   6
ATOM      6  C   UNL     1       9.354  13.714  22.732  1.00  0.00     0.000 C 
BRANCH   6   7
ATOM      7  C   UNL     1      10.234  13.360  21.516  1.00  0.00     0.006 C 
BRANCH   7   8
ATOM      8  C   UNL     1      11.004  14.558  20.935  1.00  0.00     0.053 C 
BRANCH   8   9
ATOM      9  C   UNL     1      10.365  15.112  19.698  1.00  0.00     0.041 C 
ATOM     10  O   UNL     1      11.017  15.178  18.622  1.00  0.00    -0.550 OA
ATOM     11  O   UNL     1       9.050  15.561  19.737  1.00  0.00    -0.550 OA
ENDBRANCH   8   9
ENDBRANCH   7   8
ENDBRANCH   6   7
ENDBRANCH   5   6
ENDBRANCH   4   5
ENDBRANCH   3   4
ENDBRANCH   2   3
ENDBRANCH   1   2
BRANCH   1  12
ATOM     12  C   UNL     1      11.261  18.823  22.432  1.00  0.00     0.000 C 
BRANCH  12  13
ATOM     13  C   UNL     1      10.824  20.025  23.289  1.00  0.00    -0.000 C 
BRANCH  13  14
ATOM     14  C   UNL     1       9.596  20.747  22.714  1.00  0.00    -0.000 C 
BRANCH  14  15
ATOM     15  C   UNL     1       8.547  21.078  23.788  1.00  0.00    -0.000 C 
BRANCH  15  16
ATOM     16  C   UNL     1       9.115  20.982  25.223  1.00  0.00    -0.000 C 
BRANCH  16  17
ATOM     17  C   UNL     1       8.524  19.822  26.045  1.00  0.00    -0.000 C 
BRANCH  17  18
ATOM     18  C   UNL     1       9.569  18.892  26.687  1.00  0.00    -0.000 C 
BRANCH  18  19
ATOM     19  C   UNL     1      10.534  19.617  27.652  1.00  0.00    -0.003 C 
ATOM     20  C   UNL     1       9.808  20.391  28.751  1.00  0.00     0.004 C 
ENDBRANCH  18  19
ENDBRANCH  17  18
ENDBRANCH  16  17
ENDBRANCH  15  16
ENDBRANCH  14  15
ENDBRANCH  13  14
ENDBRANCH  12  13
ENDBRANCH   1  12
TORSDOF 16
ENDMDL
