MODEL 1
REMARK VINA RESULT:    -8.563      0.000      0.000
REMARK INTER + INTRA:         -12.303
REMARK INTER:                 -11.817
REMARK INTRA:                  -0.486
REMARK UNBOUND:                -0.486
REMARK SMILES CC[C@@H](CC[C@H](C)[C@H]1CC[C@H]2[C@H]3CC=C4C[C@@H](O)CC[C@]4(C)[C@H]3CC[C@]12C)C(C)C
REMARK SMILES IDX 5 1 4 2 3 3 2 4 1 5 28 6 29 7 30 8 6 9 7 10 8 11 9 12 26 13
REMARK SMILES IDX 10 14 11 15 25 16 27 17 12 18 24 19 23 20 13 21 21 22 14 23
REMARK SMILES IDX 15 24 20 25 22 26 16 27 19 28 17 29 18 30
REMARK H PARENT 18 31
REMARK Flexibility Score: inf
ROOT
ATOM      1  C   UNL     1     133.137 131.197 142.473  1.00  0.00     0.004 C 
ENDROOT
BRANCH   1   2
ATOM      2  C   UNL     1     134.627 131.601 142.467  1.00  0.00     0.004 C 
BRANCH   2   3
ATOM      3  C   UNL     1     134.891 133.047 141.951  1.00  0.00    -0.009 C 
BRANCH   3   4
ATOM      4  C   UNL     1     133.882 134.020 142.625  1.00  0.00     0.000 C 
ATOM      5  C   UNL     1     134.247 134.414 144.057  1.00  0.00     0.004 C 
ENDBRANCH   3   4
BRANCH   3   6
ATOM      6  C   UNL     1     134.909 133.082 140.381  1.00  0.00    -0.014 C 
ATOM      7  C   UNL     1     135.835 134.174 139.821  1.00  0.00     0.007 C 
ATOM      8  C   UNL     1     133.516 133.164 139.736  1.00  0.00     0.007 C 
ENDBRANCH   3   6
ENDBRANCH   2   3
ENDBRANCH   1   2
BRANCH   1   9
ATOM      9  C   UNL     1     132.888 129.654 142.517  1.00  0.00    -0.011 C 
ATOM     10  C   UNL     1     134.200 128.966 142.958  1.00  0.00     0.008 C 
BRANCH   9  11
ATOM     11  C   UNL     1     132.383 129.069 141.142  1.00  0.00    -0.002 C 
ATOM     12  C   UNL     1     131.701 130.140 140.252  1.00  0.00     0.005 C 
ATOM     13  C   UNL     1     133.419 128.397 140.171  1.00  0.00    -0.026 C 
ATOM     14  C   UNL     1     131.891 129.717 138.791  1.00  0.00     0.005 C 
ATOM     15  C   UNL     1     132.593 128.369 138.875  1.00  0.00    -0.001 C 
ATOM     16  C   UNL     1     133.821 126.938 140.534  1.00  0.00     0.007 C 
ATOM     17  C   UNL     1     134.690 129.278 140.050  1.00  0.00     0.012 C 
ATOM     18  C   UNL     1     133.298 127.824 137.607  1.00  0.00     0.000 C 
ATOM     19  C   UNL     1     133.896 125.920 139.357  1.00  0.00     0.005 C 
ATOM     20  C   UNL     1     134.013 126.449 137.882  1.00  0.00     0.003 C 
ATOM     21  C   UNL     1     134.155 128.826 136.802  1.00  0.00     0.031 C 
ATOM     22  C   UNL     1     135.428 126.250 137.185  1.00  0.00    -0.008 C 
ATOM     23  C   UNL     1     134.805 128.122 135.647  1.00  0.00    -0.027 C 
ATOM     24  C   UNL     1     135.388 126.915 135.802  1.00  0.00    -0.065 C 
ATOM     25  C   UNL     1     135.705 124.721 136.995  1.00  0.00     0.014 C 
ATOM     26  C   UNL     1     136.585 126.870 138.014  1.00  0.00     0.016 C 
ATOM     27  C   UNL     1     135.793 126.144 134.565  1.00  0.00     0.063 C 
ATOM     28  C   UNL     1     136.920 124.394 136.100  1.00  0.00     0.033 C 
ATOM     29  C   UNL     1     137.020 125.250 134.814  1.00  0.00     0.118 C 
BRANCH  29  30
ATOM     30  O   UNL     1     138.204 126.009 134.804  1.00  0.00    -0.393 OA
ATOM     31  H   UNL     1     138.389 126.274 133.867  1.00  0.00     0.210 HD
ENDBRANCH  29  30
ENDBRANCH   9  11
ENDBRANCH   1   9
TORSDOF 7
ENDMDL
MODEL 2
REMARK VINA RESULT:    -8.487      1.541      2.762
REMARK INTER + INTRA:         -12.198
REMARK INTER:                 -11.202
REMARK INTRA:                  -0.996
REMARK UNBOUND:                -0.486
REMARK SMILES CC[C@@H](CC[C@H](C)[C@H]1CC[C@H]2[C@H]3CC=C4C[C@@H](O)CC[C@]4(C)[C@H]3CC[C@]12C)C(C)C
REMARK SMILES IDX 5 1 4 2 3 3 2 4 1 5 28 6 29 7 30 8 6 9 7 10 8 11 9 12 26 13
REMARK SMILES IDX 10 14 11 15 25 16 27 17 12 18 24 19 23 20 13 21 21 22 14 23
REMARK SMILES IDX 15 24 20 25 22 26 16 27 19 28 17 29 18 30
REMARK H PARENT 18 31
REMARK Flexibility Score: inf
ROOT
ATOM      1  C   UNL     1     133.040 132.189 140.988  1.00  0.00     0.004 C 
ENDROOT
BRANCH   1   2
ATOM      2  C   UNL     1     134.067 132.847 141.933  1.00  0.00     0.004 C 
BRANCH   2   3
ATOM      3  C   UNL     1     133.797 132.588 143.446  1.00  0.00    -0.009 C 
BRANCH   3   4
ATOM      4  C   UNL     1     134.230 133.839 144.261  1.00  0.00     0.000 C 
ATOM      5  C   UNL     1     133.495 135.125 143.879  1.00  0.00     0.004 C 
ENDBRANCH   3   4
BRANCH   3   6
ATOM      6  C   UNL     1     134.448 131.233 143.902  1.00  0.00    -0.014 C 
ATOM      7  C   UNL     1     135.623 130.807 143.008  1.00  0.00     0.007 C 
ATOM      8  C   UNL     1     133.446 130.079 144.074  1.00  0.00     0.007 C 
ENDBRANCH   3   6
ENDBRANCH   2   3
ENDBRANCH   1   2
BRANCH   1   9
ATOM      9  C   UNL     1     133.183 132.609 139.488  1.00  0.00    -0.011 C 
ATOM     10  C   UNL     1     132.382 133.914 139.275  1.00  0.00     0.008 C 
BRANCH   9  11
ATOM     11  C   UNL     1     132.708 131.490 138.484  1.00  0.00    -0.002 C 
ATOM     12  C   UNL     1     132.176 132.072 137.148  1.00  0.00     0.005 C 
ATOM     13  C   UNL     1     133.734 130.395 138.018  1.00  0.00    -0.026 C 
ATOM     14  C   UNL     1     132.411 131.020 136.058  1.00  0.00     0.005 C 
ATOM     15  C   UNL     1     132.984 129.823 136.804  1.00  0.00    -0.001 C 
ATOM     16  C   UNL     1     133.981 129.243 139.035  1.00  0.00     0.007 C 
ATOM     17  C   UNL     1     135.083 131.054 137.632  1.00  0.00     0.012 C 
ATOM     18  C   UNL     1     133.708 128.723 135.988  1.00  0.00     0.000 C 
ATOM     19  C   UNL     1     134.032 127.798 138.455  1.00  0.00     0.005 C 
ATOM     20  C   UNL     1     134.281 127.588 136.918  1.00  0.00     0.003 C 
ATOM     21  C   UNL     1     134.696 129.200 134.901  1.00  0.00     0.031 C 
ATOM     22  C   UNL     1     135.710 127.017 136.518  1.00  0.00    -0.008 C 
ATOM     23  C   UNL     1     135.346 128.013 134.252  1.00  0.00    -0.027 C 
ATOM     24  C   UNL     1     135.809 126.980 134.987  1.00  0.00    -0.065 C 
ATOM     25  C   UNL     1     135.859 125.557 137.064  1.00  0.00     0.014 C 
ATOM     26  C   UNL     1     136.868 127.884 137.081  1.00  0.00     0.016 C 
ATOM     27  C   UNL     1     136.214 125.709 134.272  1.00  0.00     0.063 C 
ATOM     28  C   UNL     1     137.089 124.794 136.527  1.00  0.00     0.033 C 
ATOM     29  C   UNL     1     137.339 124.963 135.008  1.00  0.00     0.118 C 
BRANCH  29  30
ATOM     30  O   UNL     1     138.585 125.568 134.767  1.00  0.00    -0.393 OA
ATOM     31  H   UNL     1     138.555 126.486 135.140  1.00  0.00     0.210 HD
ENDBRANCH  29  30
ENDBRANCH   9  11
ENDBRANCH   1   9
TORSDOF 7
ENDMDL
MODEL 3
REMARK VINA RESULT:    -8.452      1.035      2.075
REMARK INTER + INTRA:         -12.149
REMARK INTER:                 -11.804
REMARK INTRA:                  -0.346
REMARK UNBOUND:                -0.486
REMARK SMILES CC[C@@H](CC[C@H](C)[C@H]1CC[C@H]2[C@H]3CC=C4C[C@@H](O)CC[C@]4(C)[C@H]3CC[C@]12C)C(C)C
REMARK SMILES IDX 5 1 4 2 3 3 2 4 1 5 28 6 29 7 30 8 6 9 7 10 8 11 9 12 26 13
REMARK SMILES IDX 10 14 11 15 25 16 27 17 12 18 24 19 23 20 13 21 21 22 14 23
REMARK SMILES IDX 15 24 20 25 22 26 16 27 19 28 17 29 18 30
REMARK H PARENT 18 31
REMARK Flexibility Score: inf
ROOT
ATOM      1  C   UNL     1     132.768 132.097 140.586  1.00  0.00     0.004 C 
ENDROOT
BRANCH   1   2
ATOM      2  C   UNL     1     133.984 132.267 141.521  1.00  0.00     0.004 C 
BRANCH   2   3
ATOM      3  C   UNL     1     134.365 133.751 141.804  1.00  0.00    -0.009 C 
BRANCH   3   4
ATOM      4  C   UNL     1     135.702 134.079 141.081  1.00  0.00     0.000 C 
ATOM      5  C   UNL     1     135.569 134.280 139.570  1.00  0.00     0.004 C 
ENDBRANCH   3   4
BRANCH   3   6
ATOM      6  C   UNL     1     134.349 134.044 143.347  1.00  0.00    -0.014 C 
ATOM      7  C   UNL     1     133.935 132.820 144.181  1.00  0.00     0.007 C 
ATOM      8  C   UNL     1     133.526 135.280 143.746  1.00  0.00     0.007 C 
ENDBRANCH   3   6
ENDBRANCH   2   3
ENDBRANCH   1   2
BRANCH   1   9
ATOM      9  C   UNL     1     131.990 130.753 140.778  1.00  0.00    -0.011 C 
ATOM     10  C   UNL     1     132.763 129.891 141.802  1.00  0.00     0.008 C 
BRANCH   9  11
ATOM     11  C   UNL     1     131.775 129.964 139.430  1.00  0.00    -0.002 C 
ATOM     12  C   UNL     1     131.342 130.887 138.260  1.00  0.00     0.005 C 
ATOM     13  C   UNL     1     132.972 129.147 138.823  1.00  0.00    -0.026 C 
ATOM     14  C   UNL     1     131.829 130.242 136.958  1.00  0.00     0.005 C 
ATOM     15  C   UNL     1     132.446 128.921 137.396  1.00  0.00    -0.001 C 
ATOM     16  C   UNL     1     133.230 127.761 139.481  1.00  0.00     0.007 C 
ATOM     17  C   UNL     1     134.270 129.995 138.854  1.00  0.00     0.012 C 
ATOM     18  C   UNL     1     133.389 128.184 136.411  1.00  0.00     0.000 C 
ATOM     19  C   UNL     1     133.522 126.573 138.517  1.00  0.00     0.005 C 
ATOM     20  C   UNL     1     133.976 126.866 137.041  1.00  0.00     0.003 C 
ATOM     21  C   UNL     1     134.436 129.047 135.673  1.00  0.00     0.031 C 
ATOM     22  C   UNL     1     135.500 126.557 136.711  1.00  0.00    -0.008 C 
ATOM     23  C   UNL     1     135.296 128.170 134.810  1.00  0.00    -0.027 C 
ATOM     24  C   UNL     1     135.786 127.001 135.269  1.00  0.00    -0.065 C 
ATOM     25  C   UNL     1     135.755 125.016 136.819  1.00  0.00     0.014 C 
ATOM     26  C   UNL     1     136.471 127.295 137.671  1.00  0.00     0.016 C 
ATOM     27  C   UNL     1     136.421 126.046 134.282  1.00  0.00     0.063 C 
ATOM     28  C   UNL     1     137.122 124.552 136.273  1.00  0.00     0.033 C 
ATOM     29  C   UNL     1     137.531 125.198 134.926  1.00  0.00     0.118 C 
BRANCH  29  30
ATOM     30  O   UNL     1     138.716 125.942 135.064  1.00  0.00    -0.393 OA
ATOM     31  H   UNL     1     138.568 126.625 135.768  1.00  0.00     0.210 HD
ENDBRANCH  29  30
ENDBRANCH   9  11
ENDBRANCH   1   9
TORSDOF 7
ENDMDL
MODEL 4
REMARK VINA RESULT:    -8.017      2.845      7.709
REMARK INTER + INTRA:         -11.549
REMARK INTER:                 -10.117
REMARK INTRA:                  -1.432
REMARK UNBOUND:                -0.486
REMARK SMILES CC[C@@H](CC[C@H](C)[C@H]1CC[C@H]2[C@H]3CC=C4C[C@@H](O)CC[C@]4(C)[C@H]3CC[C@]12C)C(C)C
REMARK SMILES IDX 5 1 4 2 3 3 2 4 1 5 28 6 29 7 30 8 6 9 7 10 8 11 9 12 26 13
REMARK SMILES IDX 10 14 11 15 25 16 27 17 12 18 24 19 23 20 13 21 21 22 14 23
REMARK SMILES IDX 15 24 20 25 22 26 16 27 19 28 17 29 18 30
REMARK H PARENT 18 31
REMARK Flexibility Score: inf
ROOT
ATOM      1  C   UNL     1     134.692 126.823 136.786  1.00  0.00     0.004 C 
ENDROOT
BRANCH   1   2
ATOM      2  C   UNL     1     135.715 127.934 136.470  1.00  0.00     0.004 C 
BRANCH   2   3
ATOM      3  C   UNL     1     135.246 128.940 135.377  1.00  0.00    -0.009 C 
BRANCH   3   4
ATOM      4  C   UNL     1     135.991 128.630 134.048  1.00  0.00     0.000 C 
ATOM      5  C   UNL     1     135.417 127.449 133.264  1.00  0.00     0.004 C 
ENDBRANCH   3   4
BRANCH   3   6
ATOM      6  C   UNL     1     135.376 130.419 135.889  1.00  0.00    -0.014 C 
ATOM      7  C   UNL     1     134.072 131.218 135.738  1.00  0.00     0.007 C 
ATOM      8  C   UNL     1     136.563 131.192 135.291  1.00  0.00     0.007 C 
ENDBRANCH   3   6
ENDBRANCH   2   3
ENDBRANCH   1   2
BRANCH   1   9
ATOM      9  C   UNL     1     134.732 126.310 138.263  1.00  0.00    -0.011 C 
ATOM     10  C   UNL     1     134.621 124.769 138.241  1.00  0.00     0.008 C 
BRANCH   9  11
ATOM     11  C   UNL     1     133.604 126.940 139.168  1.00  0.00    -0.002 C 
ATOM     12  C   UNL     1     133.191 126.012 140.341  1.00  0.00     0.005 C 
ATOM     13  C   UNL     1     133.872 128.318 139.874  1.00  0.00    -0.026 C 
ATOM     14  C   UNL     1     132.690 126.904 141.482  1.00  0.00     0.005 C 
ATOM     15  C   UNL     1     132.736 128.314 140.910  1.00  0.00    -0.001 C 
ATOM     16  C   UNL     1     133.709 129.571 138.966  1.00  0.00     0.007 C 
ATOM     17  C   UNL     1     135.278 128.322 140.528  1.00  0.00     0.012 C 
ATOM     18  C   UNL     1     132.680 129.511 141.892  1.00  0.00     0.000 C 
ATOM     19  C   UNL     1     132.952 130.786 139.580  1.00  0.00     0.005 C 
ATOM     20  C   UNL     1     132.789 130.890 141.139  1.00  0.00     0.003 C 
ATOM     21  C   UNL     1     133.563 129.416 143.156  1.00  0.00     0.031 C 
ATOM     22  C   UNL     1     133.667 132.005 141.856  1.00  0.00    -0.008 C 
ATOM     23  C   UNL     1     133.431 130.676 143.961  1.00  0.00    -0.027 C 
ATOM     24  C   UNL     1     133.460 131.889 143.372  1.00  0.00    -0.065 C 
ATOM     25  C   UNL     1     133.188 133.422 141.394  1.00  0.00     0.014 C 
ATOM     26  C   UNL     1     135.179 131.858 141.536  1.00  0.00     0.016 C 
ATOM     27  C   UNL     1     133.065 133.099 144.190  1.00  0.00     0.063 C 
ATOM     28  C   UNL     1     133.777 134.596 142.205  1.00  0.00     0.033 C 
ATOM     29  C   UNL     1     133.802 134.371 143.737  1.00  0.00     0.118 C 
BRANCH  29  30
ATOM     30  O   UNL     1     135.119 134.392 144.228  1.00  0.00    -0.393 OA
ATOM     31  H   UNL     1     135.734 134.352 143.452  1.00  0.00     0.210 HD
ENDBRANCH  29  30
ENDBRANCH   9  11
ENDBRANCH   1   9
TORSDOF 7
ENDMDL
MODEL 5
REMARK VINA RESULT:    -7.969      2.992      6.688
REMARK INTER + INTRA:         -11.484
REMARK INTER:                 -10.979
REMARK INTRA:                  -0.505
REMARK UNBOUND:                -0.486
REMARK SMILES CC[C@@H](CC[C@H](C)[C@H]1CC[C@H]2[C@H]3CC=C4C[C@@H](O)CC[C@]4(C)[C@H]3CC[C@]12C)C(C)C
REMARK SMILES IDX 5 1 4 2 3 3 2 4 1 5 28 6 29 7 30 8 6 9 7 10 8 11 9 12 26 13
REMARK SMILES IDX 10 14 11 15 25 16 27 17 12 18 24 19 23 20 13 21 21 22 14 23
REMARK SMILES IDX 15 24 20 25 22 26 16 27 19 28 17 29 18 30
REMARK H PARENT 18 31
REMARK Flexibility Score: inf
ROOT
ATOM      1  C   UNL     1     133.151 130.872 136.357  1.00  0.00     0.004 C 
ENDROOT
BRANCH   1   2
ATOM      2  C   UNL     1     133.776 130.220 135.106  1.00  0.00     0.004 C 
BRANCH   2   3
ATOM      3  C   UNL     1     135.015 129.325 135.407  1.00  0.00    -0.009 C 
BRANCH   3   4
ATOM      4  C   UNL     1     136.269 129.950 134.733  1.00  0.00     0.000 C 
ATOM      5  C   UNL     1     136.822 131.183 135.451  1.00  0.00     0.004 C 
ENDBRANCH   3   4
BRANCH   3   6
ATOM      6  C   UNL     1     134.726 127.829 135.027  1.00  0.00    -0.014 C 
ATOM      7  C   UNL     1     135.247 126.836 136.078  1.00  0.00     0.007 C 
ATOM      8  C   UNL     1     135.200 127.433 133.619  1.00  0.00     0.007 C 
ENDBRANCH   3   6
ENDBRANCH   2   3
ENDBRANCH   1   2
BRANCH   1   9
ATOM      9  C   UNL     1     131.658 130.479 136.612  1.00  0.00    -0.011 C 
ATOM     10  C   UNL     1     130.891 131.751 137.039  1.00  0.00     0.008 C 
BRANCH   9  11
ATOM     11  C   UNL     1     131.494 129.338 137.689  1.00  0.00    -0.002 C 
ATOM     12  C   UNL     1     131.605 127.917 137.075  1.00  0.00     0.005 C 
ATOM     13  C   UNL     1     132.488 129.286 138.905  1.00  0.00    -0.026 C 
ATOM     14  C   UNL     1     132.130 126.981 138.169  1.00  0.00     0.005 C 
ATOM     15  C   UNL     1     132.219 127.859 139.410  1.00  0.00    -0.001 C 
ATOM     16  C   UNL     1     132.179 130.285 140.057  1.00  0.00     0.007 C 
ATOM     17  C   UNL     1     133.946 129.482 138.415  1.00  0.00     0.012 C 
ATOM     18  C   UNL     1     133.077 127.365 140.603  1.00  0.00     0.000 C 
ATOM     19  C   UNL     1     132.290 129.733 141.510  1.00  0.00     0.005 C 
ATOM     20  C   UNL     1     133.101 128.413 141.777  1.00  0.00     0.003 C 
ATOM     21  C   UNL     1     134.462 126.770 140.265  1.00  0.00     0.031 C 
ATOM     22  C   UNL     1     134.495 128.595 142.518  1.00  0.00    -0.008 C 
ATOM     23  C   UNL     1     135.175 126.399 141.533  1.00  0.00    -0.027 C 
ATOM     24  C   UNL     1     135.188 127.227 142.597  1.00  0.00    -0.065 C 
ATOM     25  C   UNL     1     134.249 129.115 143.974  1.00  0.00     0.014 C 
ATOM     26  C   UNL     1     135.427 129.594 141.780  1.00  0.00     0.016 C 
ATOM     27  C   UNL     1     135.693 126.696 143.921  1.00  0.00     0.063 C 
ATOM     28  C   UNL     1     135.494 129.087 144.886  1.00  0.00     0.033 C 
ATOM     29  C   UNL     1     136.342 127.795 144.778  1.00  0.00     0.118 C 
BRANCH  29  30
ATOM     30  O   UNL     1     137.642 128.083 144.326  1.00  0.00    -0.393 OA
ATOM     31  H   UNL     1     138.267 127.461 144.780  1.00  0.00     0.210 HD
ENDBRANCH  29  30
ENDBRANCH   9  11
ENDBRANCH   1   9
TORSDOF 7
ENDMDL
MODEL 6
REMARK VINA RESULT:    -7.500      3.297      6.527
REMARK INTER + INTRA:         -10.835
REMARK INTER:                  -9.144
REMARK INTRA:                  -1.691
REMARK UNBOUND:                -0.486
REMARK SMILES CC[C@@H](CC[C@H](C)[C@H]1CC[C@H]2[C@H]3CC=C4C[C@@H](O)CC[C@]4(C)[C@H]3CC[C@]12C)C(C)C
REMARK SMILES IDX 5 1 4 2 3 3 2 4 1 5 28 6 29 7 30 8 6 9 7 10 8 11 9 12 26 13
REMARK SMILES IDX 10 14 11 15 25 16 27 17 12 18 24 19 23 20 13 21 21 22 14 23
REMARK SMILES IDX 15 24 20 25 22 26 16 27 19 28 17 29 18 30
REMARK H PARENT 18 31
REMARK Flexibility Score: inf
ROOT
ATOM      1  C   UNL     1     135.455 130.831 135.922  1.00  0.00     0.004 C 
ENDROOT
BRANCH   1   2
ATOM      2  C   UNL     1     136.135 129.845 134.949  1.00  0.00     0.004 C 
BRANCH   2   3
ATOM      3  C   UNL     1     135.930 128.345 135.317  1.00  0.00    -0.009 C 
BRANCH   3   4
ATOM      4  C   UNL     1     137.143 127.859 136.160  1.00  0.00     0.000 C 
ATOM      5  C   UNL     1     136.818 126.731 137.140  1.00  0.00     0.004 C 
ENDBRANCH   3   4
BRANCH   3   6
ATOM      6  C   UNL     1     135.622 127.495 134.033  1.00  0.00    -0.014 C 
ATOM      7  C   UNL     1     134.124 127.451 133.694  1.00  0.00     0.007 C 
ATOM      8  C   UNL     1     136.219 126.077 134.057  1.00  0.00     0.007 C 
ENDBRANCH   3   6
ENDBRANCH   2   3
ENDBRANCH   1   2
BRANCH   1   9
ATOM      9  C   UNL     1     133.893 130.751 135.936  1.00  0.00    -0.011 C 
ATOM     10  C   UNL     1     133.340 132.006 135.223  1.00  0.00     0.008 C 
BRANCH   9  11
ATOM     11  C   UNL     1     133.293 130.621 137.388  1.00  0.00    -0.002 C 
ATOM     12  C   UNL     1     131.762 130.873 137.427  1.00  0.00     0.005 C 
ATOM     13  C   UNL     1     133.455 129.264 138.164  1.00  0.00    -0.026 C 
ATOM     14  C   UNL     1     131.192 130.079 138.607  1.00  0.00     0.005 C 
ATOM     15  C   UNL     1     132.414 129.464 139.276  1.00  0.00    -0.001 C 
ATOM     16  C   UNL     1     134.847 129.039 138.823  1.00  0.00     0.007 C 
ATOM     17  C   UNL     1     133.115 128.070 137.234  1.00  0.00     0.012 C 
ATOM     18  C   UNL     1     132.202 128.283 140.258  1.00  0.00     0.000 C 
ATOM     19  C   UNL     1     134.850 128.463 140.270  1.00  0.00     0.005 C 
ATOM     20  C   UNL     1     133.568 127.737 140.818  1.00  0.00     0.003 C 
ATOM     21  C   UNL     1     131.220 127.177 139.813  1.00  0.00     0.031 C 
ATOM     22  C   UNL     1     133.676 126.159 140.970  1.00  0.00    -0.008 C 
ATOM     23  C   UNL     1     131.179 126.092 140.849  1.00  0.00    -0.027 C 
ATOM     24  C   UNL     1     132.309 125.617 141.411  1.00  0.00    -0.065 C 
ATOM     25  C   UNL     1     134.731 125.812 142.073  1.00  0.00     0.014 C 
ATOM     26  C   UNL     1     134.093 125.468 139.643  1.00  0.00     0.016 C 
ATOM     27  C   UNL     1     132.192 124.718 142.623  1.00  0.00     0.063 C 
ATOM     28  C   UNL     1     134.746 124.330 142.504  1.00  0.00     0.033 C 
ATOM     29  C   UNL     1     133.344 123.703 142.706  1.00  0.00     0.118 C 
BRANCH  29  30
ATOM     30  O   UNL     1     133.137 122.634 141.817  1.00  0.00    -0.393 OA
ATOM     31  H   UNL     1     133.085 123.006 140.899  1.00  0.00     0.210 HD
ENDBRANCH  29  30
ENDBRANCH   9  11
ENDBRANCH   1   9
TORSDOF 7
ENDMDL
MODEL 7
REMARK VINA RESULT:    -7.490      2.899      5.975
REMARK INTER + INTRA:         -10.822
REMARK INTER:                 -10.107
REMARK INTRA:                  -0.716
REMARK UNBOUND:                -0.486
REMARK SMILES CC[C@@H](CC[C@H](C)[C@H]1CC[C@H]2[C@H]3CC=C4C[C@@H](O)CC[C@]4(C)[C@H]3CC[C@]12C)C(C)C
REMARK SMILES IDX 5 1 4 2 3 3 2 4 1 5 28 6 29 7 30 8 6 9 7 10 8 11 9 12 26 13
REMARK SMILES IDX 10 14 11 15 25 16 27 17 12 18 24 19 23 20 13 21 21 22 14 23
REMARK SMILES IDX 15 24 20 25 22 26 16 27 19 28 17 29 18 30
REMARK H PARENT 18 31
REMARK Flexibility Score: inf
ROOT
ATOM      1  C   UNL     1     131.904 131.362 136.280  1.00  0.00     0.004 C 
ENDROOT
BRANCH   1   2
ATOM      2  C   UNL     1     133.206 131.540 135.471  1.00  0.00     0.004 C 
BRANCH   2   3
ATOM      3  C   UNL     1     134.359 130.585 135.905  1.00  0.00    -0.009 C 
BRANCH   3   4
ATOM      4  C   UNL     1     135.612 131.433 136.266  1.00  0.00     0.000 C 
ATOM      5  C   UNL     1     135.745 132.732 135.470  1.00  0.00     0.004 C 
ENDBRANCH   3   4
BRANCH   3   6
ATOM      6  C   UNL     1     134.593 129.470 134.824  1.00  0.00    -0.014 C 
ATOM      7  C   UNL     1     133.905 128.143 135.181  1.00  0.00     0.007 C 
ATOM      8  C   UNL     1     136.070 129.240 134.464  1.00  0.00     0.007 C 
ENDBRANCH   3   6
ENDBRANCH   2   3
ENDBRANCH   1   2
BRANCH   1   9
ATOM      9  C   UNL     1     131.951 131.970 137.720  1.00  0.00    -0.011 C 
ATOM     10  C   UNL     1     131.867 133.509 137.597  1.00  0.00     0.008 C 
BRANCH   9  11
ATOM     11  C   UNL     1     133.234 131.542 138.531  1.00  0.00    -0.002 C 
ATOM     12  C   UNL     1     133.553 132.511 139.701  1.00  0.00     0.005 C 
ATOM     13  C   UNL     1     133.271 130.127 139.213  1.00  0.00    -0.026 C 
ATOM     14  C   UNL     1     134.286 131.708 140.780  1.00  0.00     0.005 C 
ATOM     15  C   UNL     1     134.457 130.322 140.172  1.00  0.00    -0.001 C 
ATOM     16  C   UNL     1     133.594 128.940 138.260  1.00  0.00     0.007 C 
ATOM     17  C   UNL     1     131.938 129.856 139.958  1.00  0.00     0.012 C 
ATOM     18  C   UNL     1     134.797 129.140 141.114  1.00  0.00     0.000 C 
ATOM     19  C   UNL     1     134.601 127.874 138.789  1.00  0.00     0.005 C 
ATOM     20  C   UNL     1     134.888 127.777 140.330  1.00  0.00     0.003 C 
ATOM     21  C   UNL     1     134.001 129.051 142.435  1.00  0.00     0.031 C 
ATOM     22  C   UNL     1     134.279 126.509 141.070  1.00  0.00    -0.008 C 
ATOM     23  C   UNL     1     134.415 127.824 143.193  1.00  0.00    -0.027 C 
ATOM     24  C   UNL     1     134.565 126.636 142.573  1.00  0.00    -0.065 C 
ATOM     25  C   UNL     1     134.974 125.211 140.537  1.00  0.00     0.014 C 
ATOM     26  C   UNL     1     132.746 126.382 140.855  1.00  0.00     0.016 C 
ATOM     27  C   UNL     1     135.229 125.504 143.328  1.00  0.00     0.063 C 
ATOM     28  C   UNL     1     134.665 123.936 141.351  1.00  0.00     0.033 C 
ATOM     29  C   UNL     1     134.706 124.127 142.887  1.00  0.00     0.118 C 
BRANCH  29  30
ATOM     30  O   UNL     1     133.452 123.858 143.463  1.00  0.00    -0.393 OA
ATOM     31  H   UNL     1     133.471 122.932 143.816  1.00  0.00     0.210 HD
ENDBRANCH  29  30
ENDBRANCH   9  11
ENDBRANCH   1   9
TORSDOF 7
ENDMDL
MODEL 8
REMARK VINA RESULT:    -7.204      2.160      4.527
REMARK INTER + INTRA:         -10.427
REMARK INTER:                 -10.035
REMARK INTRA:                  -0.392
REMARK UNBOUND:                -0.486
REMARK SMILES CC[C@@H](CC[C@H](C)[C@H]1CC[C@H]2[C@H]3CC=C4C[C@@H](O)CC[C@]4(C)[C@H]3CC[C@]12C)C(C)C
REMARK SMILES IDX 5 1 4 2 3 3 2 4 1 5 28 6 29 7 30 8 6 9 7 10 8 11 9 12 26 13
REMARK SMILES IDX 10 14 11 15 25 16 27 17 12 18 24 19 23 20 13 21 21 22 14 23
REMARK SMILES IDX 15 24 20 25 22 26 16 27 19 28 17 29 18 30
REMARK H PARENT 18 31
REMARK Flexibility Score: inf
ROOT
ATOM      1  C   UNL     1     134.706 131.398 143.730  1.00  0.00     0.004 C 
ENDROOT
BRANCH   1   2
ATOM      2  C   UNL     1     133.893 130.104 143.943  1.00  0.00     0.004 C 
BRANCH   2   3
ATOM      3  C   UNL     1     134.740 128.799 143.852  1.00  0.00    -0.009 C 
BRANCH   3   4
ATOM      4  C   UNL     1     136.219 129.128 144.200  1.00  0.00     0.000 C 
ATOM      5  C   UNL     1     136.842 128.201 145.245  1.00  0.00     0.004 C 
ENDBRANCH   3   4
BRANCH   3   6
ATOM      6  C   UNL     1     134.519 128.089 142.468  1.00  0.00    -0.014 C 
ATOM      7  C   UNL     1     133.044 128.074 142.036  1.00  0.00     0.007 C 
ATOM      8  C   UNL     1     135.129 126.680 142.378  1.00  0.00     0.007 C 
ENDBRANCH   3   6
ENDBRANCH   2   3
ENDBRANCH   1   2
BRANCH   1   9
ATOM      9  C   UNL     1     133.834 132.683 143.538  1.00  0.00    -0.011 C 
ATOM     10  C   UNL     1     132.456 132.432 144.192  1.00  0.00     0.008 C 
BRANCH   9  11
ATOM     11  C   UNL     1     133.670 133.099 142.026  1.00  0.00    -0.002 C 
ATOM     12  C   UNL     1     134.603 134.271 141.624  1.00  0.00     0.005 C 
ATOM     13  C   UNL     1     133.930 132.028 140.906  1.00  0.00    -0.026 C 
ATOM     14  C   UNL     1     134.898 134.135 140.126  1.00  0.00     0.005 C 
ATOM     15  C   UNL     1     134.056 132.948 139.680  1.00  0.00    -0.001 C 
ATOM     16  C   UNL     1     132.763 131.030 140.658  1.00  0.00     0.007 C 
ATOM     17  C   UNL     1     135.237 131.247 141.204  1.00  0.00     0.012 C 
ATOM     18  C   UNL     1     134.394 132.269 138.328  1.00  0.00     0.000 C 
ATOM     19  C   UNL     1     132.412 130.719 139.173  1.00  0.00     0.005 C 
ATOM     20  C   UNL     1     133.462 131.032 138.046  1.00  0.00     0.003 C 
ATOM     21  C   UNL     1     135.889 132.008 138.035  1.00  0.00     0.031 C 
ATOM     22  C   UNL     1     134.165 129.769 137.384  1.00  0.00    -0.008 C 
ATOM     23  C   UNL     1     136.029 131.299 136.720  1.00  0.00    -0.027 C 
ATOM     24  C   UNL     1     135.226 130.266 136.392  1.00  0.00    -0.065 C 
ATOM     25  C   UNL     1     133.100 128.932 136.598  1.00  0.00     0.014 C 
ATOM     26  C   UNL     1     134.844 128.854 138.438  1.00  0.00     0.016 C 
ATOM     27  C   UNL     1     135.240 129.765 134.964  1.00  0.00     0.063 C 
ATOM     28  C   UNL     1     133.690 127.828 135.696  1.00  0.00     0.033 C 
ATOM     29  C   UNL     1     134.930 128.261 134.875  1.00  0.00     0.118 C 
BRANCH  29  30
ATOM     30  O   UNL     1     136.056 127.494 135.221  1.00  0.00    -0.393 OA
ATOM     31  H   UNL     1     135.934 126.585 134.843  1.00  0.00     0.210 HD
ENDBRANCH  29  30
ENDBRANCH   9  11
ENDBRANCH   1   9
TORSDOF 7
ENDMDL
MODEL 9
REMARK VINA RESULT:    -7.174      2.840      6.367
REMARK INTER + INTRA:         -10.386
REMARK INTER:                  -8.900
REMARK INTRA:                  -1.486
REMARK UNBOUND:                -0.486
REMARK SMILES CC[C@@H](CC[C@H](C)[C@H]1CC[C@H]2[C@H]3CC=C4C[C@@H](O)CC[C@]4(C)[C@H]3CC[C@]12C)C(C)C
REMARK SMILES IDX 5 1 4 2 3 3 2 4 1 5 28 6 29 7 30 8 6 9 7 10 8 11 9 12 26 13
REMARK SMILES IDX 10 14 11 15 25 16 27 17 12 18 24 19 23 20 13 21 21 22 14 23
REMARK SMILES IDX 15 24 20 25 22 26 16 27 19 28 17 29 18 30
REMARK H PARENT 18 31
REMARK Flexibility Score: inf
ROOT
ATOM      1  C   UNL     1     135.317 126.618 143.668  1.00  0.00     0.004 C 
ENDROOT
BRANCH   1   2
ATOM      2  C   UNL     1     135.710 126.246 142.222  1.00  0.00     0.004 C 
BRANCH   2   3
ATOM      3  C   UNL     1     134.567 125.570 141.407  1.00  0.00    -0.009 C 
BRANCH   3   4
ATOM      4  C   UNL     1     134.417 124.093 141.870  1.00  0.00     0.000 C 
ATOM      5  C   UNL     1     133.118 123.797 142.622  1.00  0.00     0.004 C 
ENDBRANCH   3   4
BRANCH   3   6
ATOM      6  C   UNL     1     134.791 125.770 139.866  1.00  0.00    -0.014 C 
ATOM      7  C   UNL     1     135.973 126.701 139.552  1.00  0.00     0.007 C 
ATOM      8  C   UNL     1     133.533 126.206 139.096  1.00  0.00     0.007 C 
ENDBRANCH   3   6
ENDBRANCH   2   3
ENDBRANCH   1   2
BRANCH   1   9
ATOM      9  C   UNL     1     135.769 128.049 144.111  1.00  0.00    -0.011 C 
ATOM     10  C   UNL     1     136.186 127.983 145.598  1.00  0.00     0.008 C 
BRANCH   9  11
ATOM     11  C   UNL     1     134.658 129.145 143.888  1.00  0.00    -0.002 C 
ATOM     12  C   UNL     1     135.069 130.534 144.444  1.00  0.00     0.005 C 
ATOM     13  C   UNL     1     134.184 129.467 142.425  1.00  0.00    -0.026 C 
ATOM     14  C   UNL     1     134.342 131.598 143.615  1.00  0.00     0.005 C 
ATOM     15  C   UNL     1     133.459 130.801 142.665  1.00  0.00    -0.001 C 
ATOM     16  C   UNL     1     133.169 128.454 141.819  1.00  0.00     0.007 C 
ATOM     17  C   UNL     1     135.408 129.613 141.484  1.00  0.00     0.012 C 
ATOM     18  C   UNL     1     132.880 131.517 141.419  1.00  0.00     0.000 C 
ATOM     19  C   UNL     1     131.961 129.056 141.041  1.00  0.00     0.005 C 
ATOM     20  C   UNL     1     132.034 130.537 140.523  1.00  0.00     0.003 C 
ATOM     21  C   UNL     1     133.849 132.418 140.621  1.00  0.00     0.031 C 
ATOM     22  C   UNL     1     132.199 130.715 138.952  1.00  0.00    -0.008 C 
ATOM     23  C   UNL     1     133.143 132.983 139.423  1.00  0.00    -0.027 C 
ATOM     24  C   UNL     1     132.358 132.211 138.644  1.00  0.00    -0.065 C 
ATOM     25  C   UNL     1     130.913 130.191 138.230  1.00  0.00     0.014 C 
ATOM     26  C   UNL     1     133.432 129.949 138.400  1.00  0.00     0.016 C 
ATOM     27  C   UNL     1     131.475 132.883 137.616  1.00  0.00     0.063 C 
ATOM     28  C   UNL     1     130.831 130.541 136.728  1.00  0.00     0.033 C 
ATOM     29  C   UNL     1     131.240 131.994 136.383  1.00  0.00     0.118 C 
BRANCH  29  30
ATOM     30  O   UNL     1     132.356 132.015 135.528  1.00  0.00    -0.393 OA
ATOM     31  H   UNL     1     133.137 132.325 136.054  1.00  0.00     0.210 HD
ENDBRANCH  29  30
ENDBRANCH   9  11
ENDBRANCH   1   9
TORSDOF 7
ENDMDL
