MODEL 1
REMARK VINA RESULT:    -3.624      0.000      0.000
REMARK INTER + INTRA:          -7.120
REMARK INTER:                  -5.742
REMARK INTRA:                  -1.378
REMARK UNBOUND:                -1.378
REMARK SMILES CCCCCCCCCCCC(=O)[O-]
REMARK SMILES IDX 7 1 8 2 9 3 10 4 11 5 12 6 13 7 14 8 6 9 5 10 4 11 3 12 2 13
REMARK SMILES IDX 1 14
REMARK H PARENT
REMARK Flexibility Score: inf
ROOT
ATOM      1  C   UNL     1     143.229 127.621 115.043  1.00  0.00     0.000 C 
ENDROOT
BRANCH   1   2
ATOM      2  C   UNL     1     142.403 127.363 116.312  1.00  0.00     0.000 C 
BRANCH   2   3
ATOM      3  C   UNL     1     142.963 128.157 117.502  1.00  0.00     0.000 C 
BRANCH   3   4
ATOM      4  C   UNL     1     143.579 127.251 118.580  1.00  0.00     0.006 C 
BRANCH   4   5
ATOM      5  C   UNL     1     145.086 127.481 118.755  1.00  0.00     0.053 C 
BRANCH   5   6
ATOM      6  C   UNL     1     145.365 128.120 120.079  1.00  0.00     0.041 C 
ATOM      7  O   UNL     1     144.438 128.683 120.720  1.00  0.00    -0.550 OA
ATOM      8  O   UNL     1     146.639 128.052 120.629  1.00  0.00    -0.550 OA
ENDBRANCH   5   6
ENDBRANCH   4   5
ENDBRANCH   3   4
ENDBRANCH   2   3
ENDBRANCH   1   2
BRANCH   1   9
ATOM      9  C   UNL     1     144.658 127.063 115.141  1.00  0.00     0.000 C 
BRANCH   9  10
ATOM     10  C   UNL     1     145.649 127.810 114.237  1.00  0.00    -0.000 C 
BRANCH  10  11
ATOM     11  C   UNL     1     145.473 129.331 114.369  1.00  0.00    -0.000 C 
BRANCH  11  12
ATOM     12  C   UNL     1     145.946 129.867 115.729  1.00  0.00    -0.000 C 
BRANCH  12  13
ATOM     13  C   UNL     1     145.053 130.996 116.264  1.00  0.00    -0.003 C 
ATOM     14  C   UNL     1     145.166 131.113 117.782  1.00  0.00     0.004 C 
ENDBRANCH  12  13
ENDBRANCH  11  12
ENDBRANCH  10  11
ENDBRANCH   9  10
ENDBRANCH   1   9
TORSDOF 10
ENDMDL
MODEL 2
REMARK VINA RESULT:    -3.535      2.786      4.244
REMARK INTER + INTRA:          -6.979
REMARK INTER:                  -6.189
REMARK INTRA:                  -0.790
REMARK UNBOUND:                -1.378
REMARK SMILES CCCCCCCCCCCC(=O)[O-]
REMARK SMILES IDX 7 1 8 2 9 3 10 4 11 5 12 6 13 7 14 8 6 9 5 10 4 11 3 12 2 13
REMARK SMILES IDX 1 14
REMARK H PARENT
REMARK Flexibility Score: inf
ROOT
ATOM      1  C   UNL     1     144.265 130.859 115.620  1.00  0.00     0.000 C 
ENDROOT
BRANCH   1   2
ATOM      2  C   UNL     1     143.998 129.687 114.661  1.00  0.00     0.000 C 
BRANCH   2   3
ATOM      3  C   UNL     1     145.297 128.930 114.347  1.00  0.00     0.000 C 
BRANCH   3   4
ATOM      4  C   UNL     1     145.166 127.414 114.572  1.00  0.00     0.006 C 
BRANCH   4   5
ATOM      5  C   UNL     1     146.101 126.896 115.672  1.00  0.00     0.053 C 
BRANCH   5   6
ATOM      6  C   UNL     1     145.476 127.082 117.018  1.00  0.00     0.041 C 
ATOM      7  O   UNL     1     146.193 127.340 118.021  1.00  0.00    -0.550 OA
ATOM      8  O   UNL     1     144.095 127.019 117.159  1.00  0.00    -0.550 OA
ENDBRANCH   5   6
ENDBRANCH   4   5
ENDBRANCH   3   4
ENDBRANCH   2   3
ENDBRANCH   1   2
BRANCH   1   9
ATOM      9  C   UNL     1     145.694 130.848 116.186  1.00  0.00     0.000 C 
BRANCH   9  10
ATOM     10  C   UNL     1     146.459 132.146 115.887  1.00  0.00    -0.000 C 
BRANCH  10  11
ATOM     11  C   UNL     1     145.653 133.374 116.339  1.00  0.00    -0.000 C 
BRANCH  11  12
ATOM     12  C   UNL     1     146.359 134.699 116.012  1.00  0.00    -0.000 C 
BRANCH  12  13
ATOM     13  C   UNL     1     145.807 135.367 114.744  1.00  0.00    -0.003 C 
ATOM     14  C   UNL     1     146.799 135.256 113.588  1.00  0.00     0.004 C 
ENDBRANCH  12  13
ENDBRANCH  11  12
ENDBRANCH  10  11
ENDBRANCH   9  10
ENDBRANCH   1   9
TORSDOF 10
ENDMDL
MODEL 3
REMARK VINA RESULT:    -3.502      2.533      4.360
REMARK INTER + INTRA:          -6.927
REMARK INTER:                  -5.373
REMARK INTRA:                  -1.554
REMARK UNBOUND:                -1.378
REMARK SMILES CCCCCCCCCCCC(=O)[O-]
REMARK SMILES IDX 7 1 8 2 9 3 10 4 11 5 12 6 13 7 14 8 6 9 5 10 4 11 3 12 2 13
REMARK SMILES IDX 1 14
REMARK H PARENT
REMARK Flexibility Score: inf
ROOT
ATOM      1  C   UNL     1     143.174 128.084 114.972  1.00  0.00     0.000 C 
ENDROOT
BRANCH   1   2
ATOM      2  C   UNL     1     144.449 127.267 114.711  1.00  0.00     0.000 C 
BRANCH   2   3
ATOM      3  C   UNL     1     145.701 128.144 114.857  1.00  0.00     0.000 C 
BRANCH   3   4
ATOM      4  C   UNL     1     145.370 129.644 114.914  1.00  0.00     0.006 C 
BRANCH   4   5
ATOM      5  C   UNL     1     146.320 130.425 115.830  1.00  0.00     0.053 C 
BRANCH   5   6
ATOM      6  C   UNL     1     145.835 131.829 116.009  1.00  0.00     0.041 C 
ATOM      7  O   UNL     1     144.602 132.084 115.972  1.00  0.00    -0.550 OA
ATOM      8  O   UNL     1     146.741 132.850 116.267  1.00  0.00    -0.550 OA
ENDBRANCH   5   6
ENDBRANCH   4   5
ENDBRANCH   3   4
ENDBRANCH   2   3
ENDBRANCH   1   2
BRANCH   1   9
ATOM      9  C   UNL     1     142.090 127.276 115.703  1.00  0.00     0.000 C 
BRANCH   9  10
ATOM     10  C   UNL     1     141.984 127.639 117.192  1.00  0.00    -0.000 C 
BRANCH  10  11
ATOM     11  C   UNL     1     142.749 128.937 117.496  1.00  0.00    -0.000 C 
BRANCH  11  12
ATOM     12  C   UNL     1     143.891 128.730 118.503  1.00  0.00    -0.000 C 
BRANCH  12  13
ATOM     13  C   UNL     1     144.309 127.257 118.630  1.00  0.00    -0.003 C 
ATOM     14  C   UNL     1     145.796 127.081 118.334  1.00  0.00     0.004 C 
ENDBRANCH  12  13
ENDBRANCH  11  12
ENDBRANCH  10  11
ENDBRANCH   9  10
ENDBRANCH   1   9
TORSDOF 10
ENDMDL
MODEL 4
REMARK VINA RESULT:    -3.499      2.702      4.505
REMARK INTER + INTRA:          -6.923
REMARK INTER:                  -5.746
REMARK INTRA:                  -1.177
REMARK UNBOUND:                -1.378
REMARK SMILES CCCCCCCCCCCC(=O)[O-]
REMARK SMILES IDX 7 1 8 2 9 3 10 4 11 5 12 6 13 7 14 8 6 9 5 10 4 11 3 12 2 13
REMARK SMILES IDX 1 14
REMARK H PARENT
REMARK Flexibility Score: inf
ROOT
ATOM      1  C   UNL     1     145.635 127.713 114.282  1.00  0.00     0.000 C 
ENDROOT
BRANCH   1   2
ATOM      2  C   UNL     1     145.427 129.235 114.324  1.00  0.00     0.000 C 
BRANCH   2   3
ATOM      3  C   UNL     1     145.941 129.822 115.646  1.00  0.00     0.000 C 
BRANCH   3   4
ATOM      4  C   UNL     1     145.355 131.211 115.945  1.00  0.00     0.006 C 
BRANCH   4   5
ATOM      5  C   UNL     1     146.388 132.335 115.796  1.00  0.00     0.053 C 
BRANCH   5   6
ATOM      6  C   UNL     1     146.137 133.412 116.802  1.00  0.00     0.041 C 
ATOM      7  O   UNL     1     145.260 133.256 117.694  1.00  0.00    -0.550 OA
ATOM      8  O   UNL     1     146.904 134.570 116.788  1.00  0.00    -0.550 OA
ENDBRANCH   5   6
ENDBRANCH   4   5
ENDBRANCH   3   4
ENDBRANCH   2   3
ENDBRANCH   1   2
BRANCH   1   9
ATOM      9  C   UNL     1     144.742 126.965 115.284  1.00  0.00     0.000 C 
BRANCH   9  10
ATOM     10  C   UNL     1     143.260 127.352 115.160  1.00  0.00    -0.000 C 
BRANCH  10  11
ATOM     11  C   UNL     1     142.667 127.697 116.536  1.00  0.00    -0.000 C 
BRANCH  11  12
ATOM     12  C   UNL     1     143.621 127.358 117.693  1.00  0.00    -0.000 C 
BRANCH  12  13
ATOM     13  C   UNL     1     143.851 128.547 118.638  1.00  0.00    -0.003 C 
ATOM     14  C   UNL     1     145.294 128.583 119.134  1.00  0.00     0.004 C 
ENDBRANCH  12  13
ENDBRANCH  11  12
ENDBRANCH  10  11
ENDBRANCH   9  10
ENDBRANCH   1   9
TORSDOF 10
ENDMDL
MODEL 5
REMARK VINA RESULT:    -3.488      1.070      2.985
REMARK INTER + INTRA:          -6.905
REMARK INTER:                  -5.404
REMARK INTRA:                  -1.501
REMARK UNBOUND:                -1.378
REMARK SMILES CCCCCCCCCCCC(=O)[O-]
REMARK SMILES IDX 7 1 8 2 9 3 10 4 11 5 12 6 13 7 14 8 6 9 5 10 4 11 3 12 2 13
REMARK SMILES IDX 1 14
REMARK H PARENT
REMARK Flexibility Score: inf
ROOT
ATOM      1  C   UNL     1     146.144 130.216 115.771  1.00  0.00     0.000 C 
ENDROOT
BRANCH   1   2
ATOM      2  C   UNL     1     145.020 131.162 116.222  1.00  0.00     0.000 C 
BRANCH   2   3
ATOM      3  C   UNL     1     144.444 130.722 117.576  1.00  0.00     0.000 C 
BRANCH   3   4
ATOM      4  C   UNL     1     145.407 129.819 118.364  1.00  0.00     0.006 C 
BRANCH   4   5
ATOM      5  C   UNL     1     144.703 128.613 118.998  1.00  0.00     0.053 C 
BRANCH   5   6
ATOM      6  C   UNL     1     145.227 128.369 120.377  1.00  0.00     0.041 C 
ATOM      7  O   UNL     1     144.445 128.378 121.365  1.00  0.00    -0.550 OA
ATOM      8  O   UNL     1     146.573 128.081 120.570  1.00  0.00    -0.550 OA
ENDBRANCH   5   6
ENDBRANCH   4   5
ENDBRANCH   3   4
ENDBRANCH   2   3
ENDBRANCH   1   2
BRANCH   1   9
ATOM      9  C   UNL     1     145.704 129.265 114.647  1.00  0.00     0.000 C 
BRANCH   9  10
ATOM     10  C   UNL     1     145.443 127.836 115.149  1.00  0.00    -0.000 C 
BRANCH  10  11
ATOM     11  C   UNL     1     144.019 127.382 114.794  1.00  0.00    -0.000 C 
BRANCH  11  12
ATOM     12  C   UNL     1     142.994 127.745 115.880  1.00  0.00    -0.000 C 
BRANCH  12  13
ATOM     13  C   UNL     1     141.723 128.386 115.305  1.00  0.00    -0.003 C 
ATOM     14  C   UNL     1     142.033 129.730 114.649  1.00  0.00     0.004 C 
ENDBRANCH  12  13
ENDBRANCH  11  12
ENDBRANCH  10  11
ENDBRANCH   9  10
ENDBRANCH   1   9
TORSDOF 10
ENDMDL
MODEL 6
REMARK VINA RESULT:    -3.472      2.360      4.646
REMARK INTER + INTRA:          -6.880
REMARK INTER:                  -5.973
REMARK INTRA:                  -0.907
REMARK UNBOUND:                -1.378
REMARK SMILES CCCCCCCCCCCC(=O)[O-]
REMARK SMILES IDX 7 1 8 2 9 3 10 4 11 5 12 6 13 7 14 8 6 9 5 10 4 11 3 12 2 13
REMARK SMILES IDX 1 14
REMARK H PARENT
REMARK Flexibility Score: inf
ROOT
ATOM      1  C   UNL     1     144.200 127.334 114.956  1.00  0.00     0.000 C 
ENDROOT
BRANCH   1   2
ATOM      2  C   UNL     1     145.328 128.201 114.374  1.00  0.00     0.000 C 
BRANCH   2   3
ATOM      3  C   UNL     1     145.099 129.685 114.696  1.00  0.00     0.000 C 
BRANCH   3   4
ATOM      4  C   UNL     1     146.128 130.240 115.694  1.00  0.00     0.006 C 
BRANCH   4   5
ATOM      5  C   UNL     1     145.486 130.712 117.005  1.00  0.00     0.053 C 
BRANCH   5   6
ATOM      6  C   UNL     1     145.084 129.539 117.841  1.00  0.00     0.041 C 
ATOM      7  O   UNL     1     145.955 128.731 118.262  1.00  0.00    -0.550 OA
ATOM      8  O   UNL     1     143.753 129.363 118.199  1.00  0.00    -0.550 OA
ENDBRANCH   5   6
ENDBRANCH   4   5
ENDBRANCH   3   4
ENDBRANCH   2   3
ENDBRANCH   1   2
BRANCH   1   9
ATOM      9  C   UNL     1     142.853 128.072 115.013  1.00  0.00     0.000 C 
BRANCH   9  10
ATOM     10  C   UNL     1     141.730 127.211 115.610  1.00  0.00    -0.000 C 
BRANCH  10  11
ATOM     11  C   UNL     1     140.375 127.929 115.509  1.00  0.00    -0.000 C 
BRANCH  11  12
ATOM     12  C   UNL     1     140.381 129.059 114.467  1.00  0.00    -0.000 C 
BRANCH  12  13
ATOM     13  C   UNL     1     139.197 128.971 113.492  1.00  0.00    -0.003 C 
ATOM     14  C   UNL     1     138.736 127.526 113.316  1.00  0.00     0.004 C 
ENDBRANCH  12  13
ENDBRANCH  11  12
ENDBRANCH  10  11
ENDBRANCH   9  10
ENDBRANCH   1   9
TORSDOF 10
ENDMDL
MODEL 7
REMARK VINA RESULT:    -3.459      3.365      4.976
REMARK INTER + INTRA:          -6.859
REMARK INTER:                  -5.783
REMARK INTRA:                  -1.076
REMARK UNBOUND:                -1.378
REMARK SMILES CCCCCCCCCCCC(=O)[O-]
REMARK SMILES IDX 7 1 8 2 9 3 10 4 11 5 12 6 13 7 14 8 6 9 5 10 4 11 3 12 2 13
REMARK SMILES IDX 1 14
REMARK H PARENT
REMARK Flexibility Score: inf
ROOT
ATOM      1  C   UNL     1     141.089 126.906 115.007  1.00  0.00     0.000 C 
ENDROOT
BRANCH   1   2
ATOM      2  C   UNL     1     141.916 127.873 115.867  1.00  0.00     0.000 C 
BRANCH   2   3
ATOM      3  C   UNL     1     143.097 128.445 115.069  1.00  0.00     0.000 C 
BRANCH   3   4
ATOM      4  C   UNL     1     144.242 127.434 114.899  1.00  0.00     0.006 C 
BRANCH   4   5
ATOM      5  C   UNL     1     145.622 128.103 114.864  1.00  0.00     0.053 C 
BRANCH   5   6
ATOM      6  C   UNL     1     145.973 128.646 116.213  1.00  0.00     0.041 C 
ATOM      7  O   UNL     1     146.150 129.883 116.372  1.00  0.00    -0.550 OA
ATOM      8  O   UNL     1     146.057 127.793 117.306  1.00  0.00    -0.550 OA
ENDBRANCH   5   6
ENDBRANCH   4   5
ENDBRANCH   3   4
ENDBRANCH   2   3
ENDBRANCH   1   2
BRANCH   1   9
ATOM      9  C   UNL     1     139.603 126.886 115.398  1.00  0.00     0.000 C 
BRANCH   9  10
ATOM     10  C   UNL     1     138.675 127.206 114.216  1.00  0.00    -0.000 C 
BRANCH  10  11
ATOM     11  C   UNL     1     138.366 128.711 114.153  1.00  0.00    -0.000 C 
BRANCH  11  12
ATOM     12  C   UNL     1     138.910 129.374 112.878  1.00  0.00    -0.000 C 
BRANCH  12  13
ATOM     13  C   UNL     1     140.084 130.323 113.159  1.00  0.00    -0.003 C 
ATOM     14  C   UNL     1     140.043 130.838 114.595  1.00  0.00     0.004 C 
ENDBRANCH  12  13
ENDBRANCH  11  12
ENDBRANCH  10  11
ENDBRANCH   9  10
ENDBRANCH   1   9
TORSDOF 10
ENDMDL
MODEL 8
REMARK VINA RESULT:    -3.407      3.519      5.220
REMARK INTER + INTRA:          -6.777
REMARK INTER:                  -5.669
REMARK INTRA:                  -1.108
REMARK UNBOUND:                -1.378
REMARK SMILES CCCCCCCCCCCC(=O)[O-]
REMARK SMILES IDX 7 1 8 2 9 3 10 4 11 5 12 6 13 7 14 8 6 9 5 10 4 11 3 12 2 13
REMARK SMILES IDX 1 14
REMARK H PARENT
REMARK Flexibility Score: inf
ROOT
ATOM      1  C   UNL     1     145.644 129.294 114.459  1.00  0.00     0.000 C 
ENDROOT
BRANCH   1   2
ATOM      2  C   UNL     1     146.091 129.724 115.865  1.00  0.00     0.000 C 
BRANCH   2   3
ATOM      3  C   UNL     1     146.658 131.151 115.847  1.00  0.00     0.000 C 
BRANCH   3   4
ATOM      4  C   UNL     1     145.779 132.147 116.621  1.00  0.00     0.006 C 
BRANCH   4   5
ATOM      5  C   UNL     1     145.288 133.307 115.746  1.00  0.00     0.053 C 
BRANCH   5   6
ATOM      6  C   UNL     1     146.084 134.543 116.023  1.00  0.00     0.041 C 
ATOM      7  O   UNL     1     145.833 135.611 115.404  1.00  0.00    -0.550 OA
ATOM      8  O   UNL     1     147.072 134.530 117.000  1.00  0.00    -0.550 OA
ENDBRANCH   5   6
ENDBRANCH   4   5
ENDBRANCH   3   4
ENDBRANCH   2   3
ENDBRANCH   1   2
BRANCH   1   9
ATOM      9  C   UNL     1     145.398 127.781 114.352  1.00  0.00     0.000 C 
BRANCH   9  10
ATOM     10  C   UNL     1     144.438 127.259 115.431  1.00  0.00    -0.000 C 
BRANCH  10  11
ATOM     11  C   UNL     1     142.985 127.634 115.099  1.00  0.00    -0.000 C 
BRANCH  11  12
ATOM     12  C   UNL     1     142.334 128.501 116.188  1.00  0.00    -0.000 C 
BRANCH  12  13
ATOM     13  C   UNL     1     142.329 129.995 115.833  1.00  0.00    -0.003 C 
ATOM     14  C   UNL     1     142.113 130.202 114.336  1.00  0.00     0.004 C 
ENDBRANCH  12  13
ENDBRANCH  11  12
ENDBRANCH  10  11
ENDBRANCH   9  10
ENDBRANCH   1   9
TORSDOF 10
ENDMDL
MODEL 9
REMARK VINA RESULT:    -3.401      2.737      4.368
REMARK INTER + INTRA:          -6.768
REMARK INTER:                  -5.695
REMARK INTRA:                  -1.073
REMARK UNBOUND:                -1.378
REMARK SMILES CCCCCCCCCCCC(=O)[O-]
REMARK SMILES IDX 7 1 8 2 9 3 10 4 11 5 12 6 13 7 14 8 6 9 5 10 4 11 3 12 2 13
REMARK SMILES IDX 1 14
REMARK H PARENT
REMARK Flexibility Score: inf
ROOT
ATOM      1  C   UNL     1     145.479 129.514 115.128  1.00  0.00     0.000 C 
ENDROOT
BRANCH   1   2
ATOM      2  C   UNL     1     144.082 130.045 115.486  1.00  0.00     0.000 C 
BRANCH   2   3
ATOM      3  C   UNL     1     143.093 129.801 114.337  1.00  0.00     0.000 C 
BRANCH   3   4
ATOM      4  C   UNL     1     141.781 129.157 114.813  1.00  0.00     0.006 C 
BRANCH   4   5
ATOM      5  C   UNL     1     141.922 127.653 115.079  1.00  0.00     0.053 C 
BRANCH   5   6
ATOM      6  C   UNL     1     140.872 127.192 116.040  1.00  0.00     0.041 C 
ATOM      7  O   UNL     1     141.125 127.130 117.273  1.00  0.00    -0.550 OA
ATOM      8  O   UNL     1     139.599 126.878 115.583  1.00  0.00    -0.550 OA
ENDBRANCH   5   6
ENDBRANCH   4   5
ENDBRANCH   3   4
ENDBRANCH   2   3
ENDBRANCH   1   2
BRANCH   1   9
ATOM      9  C   UNL     1     145.429 128.181 114.364  1.00  0.00     0.000 C 
BRANCH   9  10
ATOM     10  C   UNL     1     145.477 126.961 115.296  1.00  0.00    -0.000 C 
BRANCH  10  11
ATOM     11  C   UNL     1     145.993 127.356 116.689  1.00  0.00    -0.000 C 
BRANCH  11  12
ATOM     12  C   UNL     1     145.070 126.875 117.820  1.00  0.00    -0.000 C 
BRANCH  12  13
ATOM     13  C   UNL     1     145.205 127.721 119.095  1.00  0.00    -0.003 C 
ATOM     14  C   UNL     1     145.400 129.197 118.756  1.00  0.00     0.004 C 
ENDBRANCH  12  13
ENDBRANCH  11  12
ENDBRANCH  10  11
ENDBRANCH   9  10
ENDBRANCH   1   9
TORSDOF 10
ENDMDL
