MODEL 1
REMARK VINA RESULT:    -3.941      0.000      0.000
REMARK INTER + INTRA:         -10.158
REMARK INTER:                  -7.628
REMARK INTRA:                  -2.530
REMARK UNBOUND:                -2.530
REMARK SMILES CCCCCCCCCCCCCCCCCC(=O)[O-]
REMARK SMILES IDX 10 1 11 2 12 3 13 4 14 5 15 6 16 7 17 8 18 9 19 10 20 11
REMARK SMILES IDX 9 12 8 13 7 14 6 15 5 16 4 17 3 18 2 19 1 20
REMARK H PARENT
REMARK Flexibility Score: inf
ROOT
ATOM      1  C   UNL     1     -33.911  12.810  14.295  1.00  0.00     0.000 C 
ENDROOT
BRANCH   1   2
ATOM      2  C   UNL     1     -33.291  13.092  15.679  1.00  0.00     0.000 C 
BRANCH   2   3
ATOM      3  C   UNL     1     -32.218  12.088  16.137  1.00  0.00     0.000 C 
BRANCH   3   4
ATOM      4  C   UNL     1     -31.051  12.755  16.883  1.00  0.00     0.000 C 
BRANCH   4   5
ATOM      5  C   UNL     1     -31.311  14.244  17.168  1.00  0.00     0.000 C 
BRANCH   5   6
ATOM      6  C   UNL     1     -30.146  15.140  16.717  1.00  0.00     0.000 C 
BRANCH   6   7
ATOM      7  C   UNL     1     -28.806  14.762  17.375  1.00  0.00     0.006 C 
BRANCH   7   8
ATOM      8  C   UNL     1     -28.036  15.960  17.959  1.00  0.00     0.053 C 
BRANCH   8   9
ATOM      9  C   UNL     1     -28.795  16.667  19.040  1.00  0.00     0.041 C 
ATOM     10  O   UNL     1     -29.250  16.022  20.022  1.00  0.00    -0.550 OA
ATOM     11  O   UNL     1     -28.972  18.043  18.981  1.00  0.00    -0.550 OA
ENDBRANCH   8   9
ENDBRANCH   7   8
ENDBRANCH   6   7
ENDBRANCH   5   6
ENDBRANCH   4   5
ENDBRANCH   3   4
ENDBRANCH   2   3
ENDBRANCH   1   2
BRANCH   1  12
ATOM     12  C   UNL     1     -33.293  13.601  13.129  1.00  0.00     0.000 C 
BRANCH  12  13
ATOM     13  C   UNL     1     -32.236  14.642  13.543  1.00  0.00    -0.000 C 
BRANCH  13  14
ATOM     14  C   UNL     1     -30.782  14.178  13.304  1.00  0.00    -0.000 C 
BRANCH  14  15
ATOM     15  C   UNL     1     -30.711  12.820  12.585  1.00  0.00    -0.000 C 
BRANCH  15  16
ATOM     16  C   UNL     1     -29.625  11.899  13.162  1.00  0.00    -0.000 C 
BRANCH  16  17
ATOM     17  C   UNL     1     -30.047  10.422  13.181  1.00  0.00    -0.000 C 
BRANCH  17  18
ATOM     18  C   UNL     1     -31.554  10.281  12.923  1.00  0.00    -0.000 C 
BRANCH  18  19
ATOM     19  C   UNL     1     -31.886   9.114  11.979  1.00  0.00    -0.003 C 
ATOM     20  C   UNL     1     -33.390   8.879  11.835  1.00  0.00     0.004 C 
ENDBRANCH  18  19
ENDBRANCH  17  18
ENDBRANCH  16  17
ENDBRANCH  15  16
ENDBRANCH  14  15
ENDBRANCH  13  14
ENDBRANCH  12  13
ENDBRANCH   1  12
TORSDOF 16
ENDMDL
MODEL 2
REMARK VINA RESULT:    -3.847      1.533      2.837
REMARK INTER + INTRA:          -9.975
REMARK INTER:                  -7.527
REMARK INTRA:                  -2.448
REMARK UNBOUND:                -2.530
REMARK SMILES CCCCCCCCCCCCCCCCCC(=O)[O-]
REMARK SMILES IDX 10 1 11 2 12 3 13 4 14 5 15 6 16 7 17 8 18 9 19 10 20 11
REMARK SMILES IDX 9 12 8 13 7 14 6 15 5 16 4 17 3 18 2 19 1 20
REMARK H PARENT
REMARK Flexibility Score: inf
ROOT
ATOM      1  C   UNL     1     -31.047  15.039  14.123  1.00  0.00     0.000 C 
ENDROOT
BRANCH   1   2
ATOM      2  C   UNL     1     -29.702  14.343  14.418  1.00  0.00     0.000 C 
BRANCH   2   3
ATOM      3  C   UNL     1     -29.352  14.193  15.909  1.00  0.00     0.000 C 
BRANCH   3   4
ATOM      4  C   UNL     1     -30.332  14.938  16.832  1.00  0.00     0.000 C 
BRANCH   4   5
ATOM      5  C   UNL     1     -29.864  14.951  18.297  1.00  0.00     0.000 C 
BRANCH   5   6
ATOM      6  C   UNL     1     -28.332  14.934  18.424  1.00  0.00     0.000 C 
BRANCH   6   7
ATOM      7  C   UNL     1     -27.738  16.321  18.732  1.00  0.00     0.006 C 
BRANCH   7   8
ATOM      8  C   UNL     1     -28.792  17.394  19.062  1.00  0.00     0.053 C 
BRANCH   8   9
ATOM      9  C   UNL     1     -28.790  17.783  20.509  1.00  0.00     0.041 C 
ATOM     10  O   UNL     1     -29.810  17.586  21.222  1.00  0.00    -0.550 OA
ATOM     11  O   UNL     1     -27.650  18.334  21.080  1.00  0.00    -0.550 OA
ENDBRANCH   8   9
ENDBRANCH   7   8
ENDBRANCH   6   7
ENDBRANCH   5   6
ENDBRANCH   4   5
ENDBRANCH   3   4
ENDBRANCH   2   3
ENDBRANCH   1   2
BRANCH   1  12
ATOM     12  C   UNL     1     -31.899  14.377  13.025  1.00  0.00     0.000 C 
BRANCH  12  13
ATOM     13  C   UNL     1     -33.255  13.824  13.506  1.00  0.00    -0.000 C 
BRANCH  13  14
ATOM     14  C   UNL     1     -33.246  13.351  14.975  1.00  0.00    -0.000 C 
BRANCH  14  15
ATOM     15  C   UNL     1     -33.078  11.826  15.098  1.00  0.00    -0.000 C 
BRANCH  15  16
ATOM     16  C   UNL     1     -31.679  11.420  15.587  1.00  0.00    -0.000 C 
BRANCH  16  17
ATOM     17  C   UNL     1     -30.988  10.421  14.647  1.00  0.00    -0.000 C 
BRANCH  17  18
ATOM     18  C   UNL     1     -31.027  10.920  13.195  1.00  0.00    -0.000 C 
BRANCH  18  19
ATOM     19  C   UNL     1     -29.628  11.026  12.569  1.00  0.00    -0.003 C 
ATOM     20  C   UNL     1     -28.507  10.803  13.584  1.00  0.00     0.004 C 
ENDBRANCH  18  19
ENDBRANCH  17  18
ENDBRANCH  16  17
ENDBRANCH  15  16
ENDBRANCH  14  15
ENDBRANCH  13  14
ENDBRANCH  12  13
ENDBRANCH   1  12
TORSDOF 16
ENDMDL
MODEL 3
REMARK VINA RESULT:    -3.841      3.508      7.081
REMARK INTER + INTRA:          -9.964
REMARK INTER:                  -7.528
REMARK INTRA:                  -2.436
REMARK UNBOUND:                -2.530
REMARK SMILES CCCCCCCCCCCCCCCCCC(=O)[O-]
REMARK SMILES IDX 10 1 11 2 12 3 13 4 14 5 15 6 16 7 17 8 18 9 19 10 20 11
REMARK SMILES IDX 9 12 8 13 7 14 6 15 5 16 4 17 3 18 2 19 1 20
REMARK H PARENT
REMARK Flexibility Score: inf
ROOT
ATOM      1  C   UNL     1     -32.835  11.317  15.610  1.00  0.00     0.000 C 
ENDROOT
BRANCH   1   2
ATOM      2  C   UNL     1     -33.569  12.621  15.233  1.00  0.00     0.000 C 
BRANCH   2   3
ATOM      3  C   UNL     1     -33.256  13.169  13.829  1.00  0.00     0.000 C 
BRANCH   3   4
ATOM      4  C   UNL     1     -32.417  14.458  13.862  1.00  0.00     0.000 C 
BRANCH   4   5
ATOM      5  C   UNL     1     -31.164  14.365  12.977  1.00  0.00     0.000 C 
BRANCH   5   6
ATOM      6  C   UNL     1     -30.851  12.921  12.551  1.00  0.00     0.000 C 
BRANCH   6   7
ATOM      7  C   UNL     1     -29.642  12.323  13.293  1.00  0.00     0.006 C 
BRANCH   7   8
ATOM      8  C   UNL     1     -29.760  10.813  13.567  1.00  0.00     0.053 C 
BRANCH   8   9
ATOM      9  C   UNL     1     -30.404  10.067  12.438  1.00  0.00     0.041 C 
ATOM     10  O   UNL     1     -29.753   9.816  11.389  1.00  0.00    -0.550 OA
ATOM     11  O   UNL     1     -31.714   9.620  12.556  1.00  0.00    -0.550 OA
ENDBRANCH   8   9
ENDBRANCH   7   8
ENDBRANCH   6   7
ENDBRANCH   5   6
ENDBRANCH   4   5
ENDBRANCH   3   4
ENDBRANCH   2   3
ENDBRANCH   1   2
BRANCH   1  12
ATOM     12  C   UNL     1     -31.781  11.459  16.723  1.00  0.00     0.000 C 
BRANCH  12  13
ATOM     13  C   UNL     1     -31.448  12.912  17.115  1.00  0.00    -0.000 C 
BRANCH  13  14
ATOM     14  C   UNL     1     -30.035  13.361  16.687  1.00  0.00    -0.000 C 
BRANCH  14  15
ATOM     15  C   UNL     1     -29.942  14.882  16.476  1.00  0.00    -0.000 C 
BRANCH  15  16
ATOM     16  C   UNL     1     -28.491  15.385  16.409  1.00  0.00    -0.000 C 
BRANCH  16  17
ATOM     17  C   UNL     1     -27.964  15.862  17.770  1.00  0.00    -0.000 C 
BRANCH  17  18
ATOM     18  C   UNL     1     -29.097  16.462  18.616  1.00  0.00    -0.000 C 
BRANCH  18  19
ATOM     19  C   UNL     1     -28.664  17.730  19.369  1.00  0.00    -0.003 C 
ATOM     20  C   UNL     1     -29.251  17.809  20.779  1.00  0.00     0.004 C 
ENDBRANCH  18  19
ENDBRANCH  17  18
ENDBRANCH  16  17
ENDBRANCH  15  16
ENDBRANCH  14  15
ENDBRANCH  13  14
ENDBRANCH  12  13
ENDBRANCH   1  12
TORSDOF 16
ENDMDL
MODEL 4
REMARK VINA RESULT:    -3.840      3.176      7.428
REMARK INTER + INTRA:          -9.961
REMARK INTER:                  -8.288
REMARK INTRA:                  -1.673
REMARK UNBOUND:                -2.530
REMARK SMILES CCCCCCCCCCCCCCCCCC(=O)[O-]
REMARK SMILES IDX 10 1 11 2 12 3 13 4 14 5 15 6 16 7 17 8 18 9 19 10 20 11
REMARK SMILES IDX 9 12 8 13 7 14 6 15 5 16 4 17 3 18 2 19 1 20
REMARK H PARENT
REMARK Flexibility Score: inf
ROOT
ATOM      1  C   UNL     1     -30.981  14.533  15.925  1.00  0.00     0.000 C 
ENDROOT
BRANCH   1   2
ATOM      2  C   UNL     1     -30.536  15.025  14.532  1.00  0.00     0.000 C 
BRANCH   2   3
ATOM      3  C   UNL     1     -31.452  14.613  13.365  1.00  0.00     0.000 C 
BRANCH   3   4
ATOM      4  C   UNL     1     -32.749  13.930  13.834  1.00  0.00     0.000 C 
BRANCH   4   5
ATOM      5  C   UNL     1     -32.948  12.547  13.194  1.00  0.00     0.000 C 
BRANCH   5   6
ATOM      6  C   UNL     1     -31.648  11.728  13.148  1.00  0.00     0.000 C 
BRANCH   6   7
ATOM      7  C   UNL     1     -31.227  11.188  14.527  1.00  0.00     0.006 C 
BRANCH   7   8
ATOM      8  C   UNL     1     -29.727  10.861  14.641  1.00  0.00     0.053 C 
BRANCH   8   9
ATOM      9  C   UNL     1     -28.944  11.310  13.445  1.00  0.00     0.041 C 
ATOM     10  O   UNL     1     -28.477  12.479  13.393  1.00  0.00    -0.550 OA
ATOM     11  O   UNL     1     -28.701  10.427  12.400  1.00  0.00    -0.550 OA
ENDBRANCH   8   9
ENDBRANCH   7   8
ENDBRANCH   6   7
ENDBRANCH   5   6
ENDBRANCH   4   5
ENDBRANCH   3   4
ENDBRANCH   2   3
ENDBRANCH   1   2
BRANCH   1  12
ATOM     12  C   UNL     1     -30.288  15.222  17.114  1.00  0.00     0.000 C 
BRANCH  12  13
ATOM     13  C   UNL     1     -28.760  15.361  16.977  1.00  0.00    -0.000 C 
BRANCH  13  14
ATOM     14  C   UNL     1     -28.101  16.135  18.140  1.00  0.00    -0.000 C 
BRANCH  14  15
ATOM     15  C   UNL     1     -28.934  17.351  18.580  1.00  0.00    -0.000 C 
BRANCH  15  16
ATOM     16  C   UNL     1     -28.505  17.900  19.950  1.00  0.00    -0.000 C 
BRANCH  16  17
ATOM     17  C   UNL     1     -29.559  17.662  21.042  1.00  0.00    -0.000 C 
BRANCH  17  18
ATOM     18  C   UNL     1     -29.299  16.338  21.775  1.00  0.00    -0.000 C 
BRANCH  18  19
ATOM     19  C   UNL     1     -30.498  15.379  21.707  1.00  0.00    -0.003 C 
ATOM     20  C   UNL     1     -30.360  14.338  20.596  1.00  0.00     0.004 C 
ENDBRANCH  18  19
ENDBRANCH  17  18
ENDBRANCH  16  17
ENDBRANCH  15  16
ENDBRANCH  14  15
ENDBRANCH  13  14
ENDBRANCH  12  13
ENDBRANCH   1  12
TORSDOF 16
ENDMDL
MODEL 5
REMARK VINA RESULT:    -3.828      2.059      4.231
REMARK INTER + INTRA:          -9.938
REMARK INTER:                  -7.876
REMARK INTRA:                  -2.062
REMARK UNBOUND:                -2.530
REMARK SMILES CCCCCCCCCCCCCCCCCC(=O)[O-]
REMARK SMILES IDX 10 1 11 2 12 3 13 4 14 5 15 6 16 7 17 8 18 9 19 10 20 11
REMARK SMILES IDX 9 12 8 13 7 14 6 15 5 16 4 17 3 18 2 19 1 20
REMARK H PARENT
REMARK Flexibility Score: inf
ROOT
ATOM      1  C   UNL     1     -29.584  14.287  14.508  1.00  0.00     0.000 C 
ENDROOT
BRANCH   1   2
ATOM      2  C   UNL     1     -28.579  15.105  15.346  1.00  0.00     0.000 C 
BRANCH   2   3
ATOM      3  C   UNL     1     -28.721  14.956  16.872  1.00  0.00     0.000 C 
BRANCH   3   4
ATOM      4  C   UNL     1     -29.238  16.234  17.554  1.00  0.00     0.000 C 
BRANCH   4   5
ATOM      5  C   UNL     1     -28.710  16.389  18.989  1.00  0.00     0.000 C 
BRANCH   5   6
ATOM      6  C   UNL     1     -28.862  17.824  19.520  1.00  0.00     0.000 C 
BRANCH   6   7
ATOM      7  C   UNL     1     -28.836  17.903  21.057  1.00  0.00     0.006 C 
BRANCH   7   8
ATOM      8  C   UNL     1     -29.438  16.672  21.758  1.00  0.00     0.053 C 
BRANCH   8   9
ATOM      9  C   UNL     1     -30.678  16.995  22.533  1.00  0.00     0.041 C 
ATOM     10  O   UNL     1     -30.595  17.447  23.706  1.00  0.00    -0.550 OA
ATOM     11  O   UNL     1     -31.928  16.828  21.949  1.00  0.00    -0.550 OA
ENDBRANCH   8   9
ENDBRANCH   7   8
ENDBRANCH   6   7
ENDBRANCH   5   6
ENDBRANCH   4   5
ENDBRANCH   3   4
ENDBRANCH   2   3
ENDBRANCH   1   2
BRANCH   1  12
ATOM     12  C   UNL     1     -30.871  15.035  14.118  1.00  0.00     0.000 C 
BRANCH  12  13
ATOM     13  C   UNL     1     -31.733  14.326  13.056  1.00  0.00    -0.000 C 
BRANCH  13  14
ATOM     14  C   UNL     1     -33.219  14.191  13.453  1.00  0.00    -0.000 C 
BRANCH  14  15
ATOM     15  C   UNL     1     -33.586  12.756  13.869  1.00  0.00    -0.000 C 
BRANCH  15  16
ATOM     16  C   UNL     1     -32.451  11.754  13.610  1.00  0.00    -0.000 C 
BRANCH  16  17
ATOM     17  C   UNL     1     -31.803  11.242  14.905  1.00  0.00    -0.000 C 
BRANCH  17  18
ATOM     18  C   UNL     1     -32.562  11.758  16.137  1.00  0.00    -0.000 C 
BRANCH  18  19
ATOM     19  C   UNL     1     -31.676  12.605  17.064  1.00  0.00    -0.003 C 
ATOM     20  C   UNL     1     -32.287  13.971  17.379  1.00  0.00     0.004 C 
ENDBRANCH  18  19
ENDBRANCH  17  18
ENDBRANCH  16  17
ENDBRANCH  15  16
ENDBRANCH  14  15
ENDBRANCH  13  14
ENDBRANCH  12  13
ENDBRANCH   1  12
TORSDOF 16
ENDMDL
MODEL 6
REMARK VINA RESULT:    -3.811      1.200      2.099
REMARK INTER + INTRA:          -9.905
REMARK INTER:                  -7.093
REMARK INTRA:                  -2.812
REMARK UNBOUND:                -2.530
REMARK SMILES CCCCCCCCCCCCCCCCCC(=O)[O-]
REMARK SMILES IDX 10 1 11 2 12 3 13 4 14 5 15 6 16 7 17 8 18 9 19 10 20 11
REMARK SMILES IDX 9 12 8 13 7 14 6 15 5 16 4 17 3 18 2 19 1 20
REMARK H PARENT
REMARK Flexibility Score: inf
ROOT
ATOM      1  C   UNL     1     -32.163  14.500  13.956  1.00  0.00     0.000 C 
ENDROOT
BRANCH   1   2
ATOM      2  C   UNL     1     -33.213  13.373  13.872  1.00  0.00     0.000 C 
BRANCH   2   3
ATOM      3  C   UNL     1     -33.391  12.545  15.157  1.00  0.00     0.000 C 
BRANCH   3   4
ATOM      4  C   UNL     1     -33.055  13.337  16.432  1.00  0.00     0.000 C 
BRANCH   4   5
ATOM      5  C   UNL     1     -31.889  12.717  17.219  1.00  0.00     0.000 C 
BRANCH   5   6
ATOM      6  C   UNL     1     -30.858  13.766  17.666  1.00  0.00     0.000 C 
BRANCH   6   7
ATOM      7  C   UNL     1     -29.646  13.859  16.721  1.00  0.00     0.006 C 
BRANCH   7   8
ATOM      8  C   UNL     1     -29.242  15.301  16.360  1.00  0.00     0.053 C 
BRANCH   8   9
ATOM      9  C   UNL     1     -28.599  16.026  17.503  1.00  0.00     0.041 C 
ATOM     10  O   UNL     1     -29.138  17.056  17.987  1.00  0.00    -0.550 OA
ATOM     11  O   UNL     1     -27.418  15.545  18.055  1.00  0.00    -0.550 OA
ENDBRANCH   8   9
ENDBRANCH   7   8
ENDBRANCH   6   7
ENDBRANCH   5   6
ENDBRANCH   4   5
ENDBRANCH   3   4
ENDBRANCH   2   3
ENDBRANCH   1   2
BRANCH   1  12
ATOM     12  C   UNL     1     -30.886  14.267  13.128  1.00  0.00     0.000 C 
BRANCH  12  13
ATOM     13  C   UNL     1     -30.721  12.834  12.587  1.00  0.00    -0.000 C 
BRANCH  13  14
ATOM     14  C   UNL     1     -29.512  12.081  13.185  1.00  0.00    -0.000 C 
BRANCH  14  15
ATOM     15  C   UNL     1     -29.904  11.206  14.388  1.00  0.00    -0.000 C 
BRANCH  15  16
ATOM     16  C   UNL     1     -29.513   9.731  14.202  1.00  0.00    -0.000 C 
BRANCH  16  17
ATOM     17  C   UNL     1     -30.719   8.783  14.282  1.00  0.00    -0.000 C 
BRANCH  17  18
ATOM     18  C   UNL     1     -31.034   8.183  12.904  1.00  0.00    -0.000 C 
BRANCH  18  19
ATOM     19  C   UNL     1     -31.754   9.175  11.977  1.00  0.00    -0.003 C 
ATOM     20  C   UNL     1     -32.996   9.791  12.620  1.00  0.00     0.004 C 
ENDBRANCH  18  19
ENDBRANCH  17  18
ENDBRANCH  16  17
ENDBRANCH  15  16
ENDBRANCH  14  15
ENDBRANCH  13  14
ENDBRANCH  12  13
ENDBRANCH   1  12
TORSDOF 16
ENDMDL
MODEL 7
REMARK VINA RESULT:    -3.778      3.552      7.567
REMARK INTER + INTRA:          -9.842
REMARK INTER:                  -7.817
REMARK INTRA:                  -2.025
REMARK UNBOUND:                -2.530
REMARK SMILES CCCCCCCCCCCCCCCCCC(=O)[O-]
REMARK SMILES IDX 10 1 11 2 12 3 13 4 14 5 15 6 16 7 17 8 18 9 19 10 20 11
REMARK SMILES IDX 9 12 8 13 7 14 6 15 5 16 4 17 3 18 2 19 1 20
REMARK H PARENT
REMARK Flexibility Score: inf
ROOT
ATOM      1  C   UNL     1     -31.030  13.348  17.381  1.00  0.00     0.000 C 
ENDROOT
BRANCH   1   2
ATOM      2  C   UNL     1     -32.140  14.026  16.552  1.00  0.00     0.000 C 
BRANCH   2   3
ATOM      3  C   UNL     1     -33.019  13.072  15.725  1.00  0.00     0.000 C 
BRANCH   3   4
ATOM      4  C   UNL     1     -33.347  13.619  14.325  1.00  0.00     0.000 C 
BRANCH   4   5
ATOM      5  C   UNL     1     -32.197  14.453  13.737  1.00  0.00     0.000 C 
BRANCH   5   6
ATOM      6  C   UNL     1     -31.446  13.710  12.620  1.00  0.00     0.000 C 
BRANCH   6   7
ATOM      7  C   UNL     1     -30.248  12.894  13.139  1.00  0.00     0.006 C 
BRANCH   7   8
ATOM      8  C   UNL     1     -30.517  11.381  13.236  1.00  0.00     0.053 C 
BRANCH   8   9
ATOM      9  C   UNL     1     -29.549  10.567  12.433  1.00  0.00     0.041 C 
ATOM     10  O   UNL     1     -29.866  10.152  11.287  1.00  0.00    -0.550 OA
ATOM     11  O   UNL     1     -28.284  10.294  12.937  1.00  0.00    -0.550 OA
ENDBRANCH   8   9
ENDBRANCH   7   8
ENDBRANCH   6   7
ENDBRANCH   5   6
ENDBRANCH   4   5
ENDBRANCH   3   4
ENDBRANCH   2   3
ENDBRANCH   1   2
BRANCH   1  12
ATOM     12  C   UNL     1     -29.634  13.351  16.731  1.00  0.00     0.000 C 
BRANCH  12  13
ATOM     13  C   UNL     1     -29.262  14.660  16.008  1.00  0.00    -0.000 C 
BRANCH  13  14
ATOM     14  C   UNL     1     -28.198  15.497  16.750  1.00  0.00    -0.000 C 
BRANCH  14  15
ATOM     15  C   UNL     1     -28.809  16.374  17.857  1.00  0.00    -0.000 C 
BRANCH  15  16
ATOM     16  C   UNL     1     -28.188  16.106  19.237  1.00  0.00    -0.000 C 
BRANCH  16  17
ATOM     17  C   UNL     1     -27.294  14.857  19.253  1.00  0.00    -0.000 C 
BRANCH  17  18
ATOM     18  C   UNL     1     -25.830  15.236  19.519  1.00  0.00    -0.000 C 
BRANCH  18  19
ATOM     19  C   UNL     1     -25.691  16.576  20.260  1.00  0.00    -0.003 C 
ATOM     20  C   UNL     1     -24.234  16.988  20.469  1.00  0.00     0.004 C 
ENDBRANCH  18  19
ENDBRANCH  17  18
ENDBRANCH  16  17
ENDBRANCH  15  16
ENDBRANCH  14  15
ENDBRANCH  13  14
ENDBRANCH  12  13
ENDBRANCH   1  12
TORSDOF 16
ENDMDL
MODEL 8
REMARK VINA RESULT:    -3.774      2.210      3.993
REMARK INTER + INTRA:          -9.833
REMARK INTER:                  -8.044
REMARK INTRA:                  -1.790
REMARK UNBOUND:                -2.530
REMARK SMILES CCCCCCCCCCCCCCCCCC(=O)[O-]
REMARK SMILES IDX 10 1 11 2 12 3 13 4 14 5 15 6 16 7 17 8 18 9 19 10 20 11
REMARK SMILES IDX 9 12 8 13 7 14 6 15 5 16 4 17 3 18 2 19 1 20
REMARK H PARENT
REMARK Flexibility Score: inf
ROOT
ATOM      1  C   UNL     1     -29.784  13.900  16.229  1.00  0.00     0.000 C 
ENDROOT
BRANCH   1   2
ATOM      2  C   UNL     1     -30.337  15.068  17.072  1.00  0.00     0.000 C 
BRANCH   2   3
ATOM      3  C   UNL     1     -29.304  16.136  17.473  1.00  0.00     0.000 C 
BRANCH   3   4
ATOM      4  C   UNL     1     -28.260  15.613  18.475  1.00  0.00     0.000 C 
BRANCH   4   5
ATOM      5  C   UNL     1     -27.772  16.706  19.440  1.00  0.00     0.000 C 
BRANCH   5   6
ATOM      6  C   UNL     1     -28.851  17.764  19.721  1.00  0.00     0.000 C 
BRANCH   6   7
ATOM      7  C   UNL     1     -29.163  17.921  21.221  1.00  0.00     0.006 C 
BRANCH   7   8
ATOM      8  C   UNL     1     -30.319  17.033  21.716  1.00  0.00     0.053 C 
BRANCH   8   9
ATOM      9  C   UNL     1     -30.827  17.442  23.065  1.00  0.00     0.041 C 
ATOM     10  O   UNL     1     -31.713  18.331  23.169  1.00  0.00    -0.550 OA
ATOM     11  O   UNL     1     -30.345  16.817  24.209  1.00  0.00    -0.550 OA
ENDBRANCH   8   9
ENDBRANCH   7   8
ENDBRANCH   6   7
ENDBRANCH   5   6
ENDBRANCH   4   5
ENDBRANCH   3   4
ENDBRANCH   2   3
ENDBRANCH   1   2
BRANCH   1  12
ATOM     12  C   UNL     1     -29.615  14.200  14.728  1.00  0.00     0.000 C 
BRANCH  12  13
ATOM     13  C   UNL     1     -30.731  15.066  14.114  1.00  0.00    -0.000 C 
BRANCH  13  14
ATOM     14  C   UNL     1     -31.710  14.273  13.220  1.00  0.00    -0.000 C 
BRANCH  14  15
ATOM     15  C   UNL     1     -33.051  13.997  13.921  1.00  0.00    -0.000 C 
BRANCH  15  16
ATOM     16  C   UNL     1     -33.236  12.516  14.287  1.00  0.00    -0.000 C 
BRANCH  16  17
ATOM     17  C   UNL     1     -32.450  11.574  13.362  1.00  0.00    -0.000 C 
BRANCH  17  18
ATOM     18  C   UNL     1     -31.512  10.668  14.174  1.00  0.00    -0.000 C 
BRANCH  18  19
ATOM     19  C   UNL     1     -30.054  10.745  13.695  1.00  0.00    -0.003 C 
ATOM     20  C   UNL     1     -29.938  10.930  12.181  1.00  0.00     0.004 C 
ENDBRANCH  18  19
ENDBRANCH  17  18
ENDBRANCH  16  17
ENDBRANCH  15  16
ENDBRANCH  14  15
ENDBRANCH  13  14
ENDBRANCH  12  13
ENDBRANCH   1  12
TORSDOF 16
ENDMDL
MODEL 9
REMARK VINA RESULT:    -3.751      3.552      6.546
REMARK INTER + INTRA:          -9.790
REMARK INTER:                  -7.188
REMARK INTRA:                  -2.602
REMARK UNBOUND:                -2.530
REMARK SMILES CCCCCCCCCCCCCCCCCC(=O)[O-]
REMARK SMILES IDX 10 1 11 2 12 3 13 4 14 5 15 6 16 7 17 8 18 9 19 10 20 11
REMARK SMILES IDX 9 12 8 13 7 14 6 15 5 16 4 17 3 18 2 19 1 20
REMARK H PARENT
REMARK Flexibility Score: inf
ROOT
ATOM      1  C   UNL     1     -33.389  13.021  14.981  1.00  0.00     0.000 C 
ENDROOT
BRANCH   1   2
ATOM      2  C   UNL     1     -32.965  13.635  16.331  1.00  0.00     0.000 C 
BRANCH   2   3
ATOM      3  C   UNL     1     -32.350  12.647  17.338  1.00  0.00     0.000 C 
BRANCH   3   4
ATOM      4  C   UNL     1     -31.812  11.369  16.672  1.00  0.00     0.000 C 
BRANCH   4   5
ATOM      5  C   UNL     1     -30.312  11.464  16.344  1.00  0.00     0.000 C 
BRANCH   5   6
ATOM      6  C   UNL     1     -29.928  10.633  15.110  1.00  0.00     0.000 C 
BRANCH   6   7
ATOM      7  C   UNL     1     -31.148  10.072  14.357  1.00  0.00     0.006 C 
BRANCH   7   8
ATOM      8  C   UNL     1     -31.222  10.496  12.879  1.00  0.00     0.053 C 
BRANCH   8   9
ATOM      9  C   UNL     1     -30.140   9.880  12.045  1.00  0.00     0.041 C 
ATOM     10  O   UNL     1     -29.084  10.521  11.799  1.00  0.00    -0.550 OA
ATOM     11  O   UNL     1     -30.284   8.584  11.565  1.00  0.00    -0.550 OA
ENDBRANCH   8   9
ENDBRANCH   7   8
ENDBRANCH   6   7
ENDBRANCH   5   6
ENDBRANCH   4   5
ENDBRANCH   3   4
ENDBRANCH   2   3
ENDBRANCH   1   2
BRANCH   1  12
ATOM     12  C   UNL     1     -33.032  13.860  13.741  1.00  0.00     0.000 C 
BRANCH  12  13
ATOM     13  C   UNL     1     -31.756  14.713  13.884  1.00  0.00    -0.000 C 
BRANCH  13  14
ATOM     14  C   UNL     1     -30.452  13.921  13.649  1.00  0.00    -0.000 C 
BRANCH  14  15
ATOM     15  C   UNL     1     -29.273  14.479  14.465  1.00  0.00    -0.000 C 
BRANCH  15  16
ATOM     16  C   UNL     1     -29.710  15.055  15.821  1.00  0.00    -0.000 C 
BRANCH  16  17
ATOM     17  C   UNL     1     -28.573  15.073  16.853  1.00  0.00    -0.000 C 
BRANCH  17  18
ATOM     18  C   UNL     1     -28.729  16.257  17.819  1.00  0.00    -0.000 C 
BRANCH  18  19
ATOM     19  C   UNL     1     -27.761  16.181  19.010  1.00  0.00    -0.003 C 
ATOM     20  C   UNL     1     -27.522  14.748  19.487  1.00  0.00     0.004 C 
ENDBRANCH  18  19
ENDBRANCH  17  18
ENDBRANCH  16  17
ENDBRANCH  15  16
ENDBRANCH  14  15
ENDBRANCH  13  14
ENDBRANCH  12  13
ENDBRANCH   1  12
TORSDOF 16
ENDMDL
