MODEL 1
REMARK VINA RESULT:    -7.110      0.000      0.000
REMARK INTER + INTRA:          -8.623
REMARK INTER:                  -8.357
REMARK INTRA:                  -0.266
REMARK UNBOUND:                -0.266
REMARK SMILES O=c1cc(-c2ccc(O)c(O)c2)oc2cc(O)cc(O)c12
REMARK SMILES IDX 4 1 3 2 2 3 1 4 21 5 19 6 18 7 16 8 15 9 14 10 13 11 5 12
REMARK SMILES IDX 6 13 7 14 8 15 12 16 10 17 9 18 11 20 20 22 17 24
REMARK H PARENT 9 19 11 21 20 23 17 25
REMARK Flexibility Score: inf
ROOT
ATOM      1  C   UNL     1      18.242  24.347  42.084  1.00  0.00     0.138 A 
ATOM      2  C   UNL     1      17.060  23.882  42.683  1.00  0.00     0.100 A 
ATOM      3  C   UNL     1      16.548  24.547  43.798  1.00  0.00     0.197 A 
ATOM      4  O   UNL     1      15.487  24.122  44.330  1.00  0.00    -0.289 OA
ATOM      5  C   UNL     1      17.225  25.672  44.310  1.00  0.00     0.107 A 
ATOM      6  C   UNL     1      16.774  26.403  45.434  1.00  0.00     0.134 A 
ATOM      7  C   UNL     1      17.510  27.510  45.885  1.00  0.00     0.093 A 
ATOM      8  C   UNL     1      18.684  27.897  45.234  1.00  0.00     0.123 A 
ATOM      9  C   UNL     1      19.134  27.178  44.122  1.00  0.00     0.094 A 
ATOM     10  C   UNL     1      18.415  26.073  43.657  1.00  0.00     0.146 A 
ATOM     11  O   UNL     1      18.863  25.407  42.597  1.00  0.00    -0.456 OA
ENDROOT
BRANCH   1  12
ATOM     12  C   UNL     1      18.833  23.680  40.897  1.00  0.00     0.021 A 
ATOM     13  C   UNL     1      18.375  23.946  39.592  1.00  0.00     0.016 A 
ATOM     14  C   UNL     1      18.957  23.310  38.493  1.00  0.00     0.051 A 
ATOM     15  C   UNL     1      20.007  22.406  38.673  1.00  0.00     0.157 A 
ATOM     16  C   UNL     1      19.901  22.779  41.069  1.00  0.00     0.062 A 
ATOM     17  C   UNL     1      20.484  22.140  39.966  1.00  0.00     0.158 A 
BRANCH  15  18
ATOM     18  O   UNL     1      20.567  21.787  37.555  1.00  0.00    -0.504 OA
ATOM     19  H   UNL     1      21.424  22.118  37.129  1.00  0.00     0.293 HD
ENDBRANCH  15  18
BRANCH  17  20
ATOM     20  O   UNL     1      21.534  21.243  40.152  1.00  0.00    -0.504 OA
ATOM     21  H   UNL     1      22.502  21.533  40.073  1.00  0.00     0.293 HD
ENDBRANCH  17  20
ENDBRANCH   1  12
BRANCH   6  22
ATOM     22  O   UNL     1      15.606  26.040  46.105  1.00  0.00    -0.507 OA
ATOM     23  H   UNL     1      15.533  26.091  47.113  1.00  0.00     0.293 HD
ENDBRANCH   6  22
BRANCH   8  24
ATOM     24  O   UNL     1      19.395  29.000  45.702  1.00  0.00    -0.508 OA
ATOM     25  H   UNL     1      18.964  29.914  45.780  1.00  0.00     0.293 HD
ENDBRANCH   8  24
TORSDOF 5
ENDMDL
MODEL 2
REMARK VINA RESULT:    -7.010      2.104      7.435
REMARK INTER + INTRA:          -8.506
REMARK INTER:                  -8.241
REMARK INTRA:                  -0.265
REMARK UNBOUND:                -0.266
REMARK SMILES O=c1cc(-c2ccc(O)c(O)c2)oc2cc(O)cc(O)c12
REMARK SMILES IDX 4 1 3 2 2 3 1 4 21 5 19 6 18 7 16 8 15 9 14 10 13 11 5 12
REMARK SMILES IDX 6 13 7 14 8 15 12 16 10 17 9 18 11 20 20 22 17 24
REMARK H PARENT 9 19 11 21 20 23 17 25
REMARK Flexibility Score: inf
ROOT
ATOM      1  C   UNL     1      18.907  25.425  40.791  1.00  0.00     0.138 A 
ATOM      2  C   UNL     1      18.786  26.356  39.745  1.00  0.00     0.100 A 
ATOM      3  C   UNL     1      19.052  25.956  38.436  1.00  0.00     0.197 A 
ATOM      4  O   UNL     1      18.942  26.799  37.504  1.00  0.00    -0.289 OA
ATOM      5  C   UNL     1      19.442  24.626  38.179  1.00  0.00     0.107 A 
ATOM      6  C   UNL     1      19.728  24.138  36.882  1.00  0.00     0.134 A 
ATOM      7  C   UNL     1      20.116  22.801  36.712  1.00  0.00     0.093 A 
ATOM      8  C   UNL     1      20.221  21.944  37.811  1.00  0.00     0.123 A 
ATOM      9  C   UNL     1      19.938  22.421  39.095  1.00  0.00     0.094 A 
ATOM     10  C   UNL     1      19.551  23.750  39.286  1.00  0.00     0.146 A 
ATOM     11  O   UNL     1      19.285  24.178  40.516  1.00  0.00    -0.456 OA
ENDROOT
BRANCH   1  12
ATOM     12  C   UNL     1      18.638  25.794  42.203  1.00  0.00     0.021 A 
ATOM     13  C   UNL     1      17.566  25.233  42.924  1.00  0.00     0.016 A 
ATOM     14  C   UNL     1      17.344  25.592  44.256  1.00  0.00     0.051 A 
ATOM     15  C   UNL     1      18.185  26.508  44.892  1.00  0.00     0.157 A 
ATOM     16  C   UNL     1      19.490  26.705  42.855  1.00  0.00     0.062 A 
ATOM     17  C   UNL     1      19.265  27.066  44.191  1.00  0.00     0.158 A 
BRANCH  15  18
ATOM     18  O   UNL     1      17.936  26.847  46.223  1.00  0.00    -0.504 OA
ATOM     19  H   UNL     1      17.080  26.580  46.695  1.00  0.00     0.293 HD
ENDBRANCH  15  18
BRANCH  17  20
ATOM     20  O   UNL     1      20.111  27.977  44.821  1.00  0.00    -0.504 OA
ATOM     21  H   UNL     1      19.889  28.964  44.870  1.00  0.00     0.293 HD
ENDBRANCH  17  20
ENDBRANCH   1  12
BRANCH   6  22
ATOM     22  O   UNL     1      19.632  24.970  35.766  1.00  0.00    -0.507 OA
ATOM     23  H   UNL     1      18.827  24.948  35.152  1.00  0.00     0.293 HD
ENDBRANCH   6  22
BRANCH   8  24
ATOM     24  O   UNL     1      20.607  20.621  37.614  1.00  0.00    -0.508 OA
ATOM     25  H   UNL     1      20.214  19.866  38.165  1.00  0.00     0.293 HD
ENDBRANCH   8  24
TORSDOF 5
ENDMDL
MODEL 3
REMARK VINA RESULT:    -6.934      1.406      2.949
REMARK INTER + INTRA:          -8.416
REMARK INTER:                  -8.147
REMARK INTRA:                  -0.268
REMARK UNBOUND:                -0.266
REMARK SMILES O=c1cc(-c2ccc(O)c(O)c2)oc2cc(O)cc(O)c12
REMARK SMILES IDX 4 1 3 2 2 3 1 4 21 5 19 6 18 7 16 8 15 9 14 10 13 11 5 12
REMARK SMILES IDX 6 13 7 14 8 15 12 16 10 17 9 18 11 20 20 22 17 24
REMARK H PARENT 9 19 11 21 20 23 17 25
REMARK Flexibility Score: inf
ROOT
ATOM      1  C   UNL     1      18.746  25.020  41.040  1.00  0.00     0.138 A 
ATOM      2  C   UNL     1      19.830  25.903  41.179  1.00  0.00     0.100 A 
ATOM      3  C   UNL     1      19.938  26.680  42.333  1.00  0.00     0.197 A 
ATOM      4  O   UNL     1      20.914  27.471  42.448  1.00  0.00    -0.289 OA
ATOM      5  C   UNL     1      18.959  26.572  43.340  1.00  0.00     0.107 A 
ATOM      6  C   UNL     1      18.995  27.321  44.540  1.00  0.00     0.134 A 
ATOM      7  C   UNL     1      17.976  27.160  45.491  1.00  0.00     0.093 A 
ATOM      8  C   UNL     1      16.927  26.265  45.266  1.00  0.00     0.123 A 
ATOM      9  C   UNL     1      16.887  25.521  44.082  1.00  0.00     0.094 A 
ATOM     10  C   UNL     1      17.892  25.668  43.122  1.00  0.00     0.146 A 
ATOM     11  O   UNL     1      17.833  24.948  42.006  1.00  0.00    -0.456 OA
ENDROOT
BRANCH   1  12
ATOM     12  C   UNL     1      18.579  24.170  39.835  1.00  0.00     0.021 A 
ATOM     13  C   UNL     1      17.411  24.218  39.050  1.00  0.00     0.016 A 
ATOM     14  C   UNL     1      17.286  23.415  37.915  1.00  0.00     0.051 A 
ATOM     15  C   UNL     1      18.321  22.555  37.538  1.00  0.00     0.157 A 
ATOM     16  C   UNL     1      19.624  23.313  39.442  1.00  0.00     0.062 A 
ATOM     17  C   UNL     1      19.497  22.504  38.303  1.00  0.00     0.158 A 
BRANCH  15  18
ATOM     18  O   UNL     1      18.166  21.764  36.400  1.00  0.00    -0.504 OA
ATOM     19  H   UNL     1      18.537  20.823  36.344  1.00  0.00     0.293 HD
ENDBRANCH  15  18
BRANCH  17  20
ATOM     20  O   UNL     1      20.537  21.653  37.931  1.00  0.00    -0.504 OA
ATOM     21  H   UNL     1      21.456  22.008  37.695  1.00  0.00     0.293 HD
ENDBRANCH  17  20
ENDBRANCH   1  12
BRANCH   6  22
ATOM     22  O   UNL     1      20.029  28.223  44.792  1.00  0.00    -0.507 OA
ATOM     23  H   UNL     1      20.628  28.569  44.052  1.00  0.00     0.293 HD
ENDBRANCH   6  22
BRANCH   8  24
ATOM     24  O   UNL     1      15.929  26.124  46.228  1.00  0.00    -0.508 OA
ATOM     25  H   UNL     1      15.369  26.913  46.529  1.00  0.00     0.293 HD
ENDBRANCH   8  24
TORSDOF 5
ENDMDL
MODEL 4
REMARK VINA RESULT:    -6.920      0.836      1.584
REMARK INTER + INTRA:          -8.400
REMARK INTER:                  -8.137
REMARK INTRA:                  -0.263
REMARK UNBOUND:                -0.266
REMARK SMILES O=c1cc(-c2ccc(O)c(O)c2)oc2cc(O)cc(O)c12
REMARK SMILES IDX 4 1 3 2 2 3 1 4 21 5 19 6 18 7 16 8 15 9 14 10 13 11 5 12
REMARK SMILES IDX 6 13 7 14 8 15 12 16 10 17 9 18 11 20 20 22 17 24
REMARK H PARENT 9 19 11 21 20 23 17 25
REMARK Flexibility Score: inf
ROOT
ATOM      1  C   UNL     1      18.625  24.354  41.851  1.00  0.00     0.138 A 
ATOM      2  C   UNL     1      17.398  24.026  42.453  1.00  0.00     0.100 A 
ATOM      3  C   UNL     1      16.942  24.779  43.535  1.00  0.00     0.197 A 
ATOM      4  O   UNL     1      15.840  24.476  44.070  1.00  0.00    -0.289 OA
ATOM      5  C   UNL     1      17.716  25.855  44.011  1.00  0.00     0.107 A 
ATOM      6  C   UNL     1      17.326  26.670  45.100  1.00  0.00     0.134 A 
ATOM      7  C   UNL     1      18.158  27.720  45.517  1.00  0.00     0.093 A 
ATOM      8  C   UNL     1      19.369  27.970  44.866  1.00  0.00     0.123 A 
ATOM      9  C   UNL     1      19.760  27.168  43.788  1.00  0.00     0.094 A 
ATOM     10  C   UNL     1      18.945  26.118  43.358  1.00  0.00     0.146 A 
ATOM     11  O   UNL     1      19.337  25.371  42.330  1.00  0.00    -0.456 OA
ENDROOT
BRANCH   1  12
ATOM     12  C   UNL     1      19.160  23.588  40.698  1.00  0.00     0.021 A 
ATOM     13  C   UNL     1      20.137  22.587  40.863  1.00  0.00     0.016 A 
ATOM     14  C   UNL     1      20.615  21.874  39.762  1.00  0.00     0.051 A 
ATOM     15  C   UNL     1      20.126  22.140  38.480  1.00  0.00     0.157 A 
ATOM     16  C   UNL     1      18.661  23.840  39.407  1.00  0.00     0.062 A 
ATOM     17  C   UNL     1      19.143  23.126  38.300  1.00  0.00     0.158 A 
BRANCH  15  18
ATOM     18  O   UNL     1      20.624  21.412  37.399  1.00  0.00    -0.504 OA
ATOM     19  H   UNL     1      20.989  21.863  36.569  1.00  0.00     0.293 HD
ENDBRANCH  15  18
BRANCH  17  20
ATOM     20  O   UNL     1      18.646  23.393  37.025  1.00  0.00    -0.504 OA
ATOM     21  H   UNL     1      19.154  23.973  36.368  1.00  0.00     0.293 HD
ENDBRANCH  17  20
ENDBRANCH   1  12
BRANCH   6  22
ATOM     22  O   UNL     1      16.123  26.444  45.770  1.00  0.00    -0.507 OA
ATOM     23  H   UNL     1      15.855  26.987  46.582  1.00  0.00     0.293 HD
ENDBRANCH   6  22
BRANCH   8  24
ATOM     24  O   UNL     1      20.176  29.019  45.300  1.00  0.00    -0.508 OA
ATOM     25  H   UNL     1      19.847  29.694  45.981  1.00  0.00     0.293 HD
ENDBRANCH   8  24
TORSDOF 5
ENDMDL
MODEL 5
REMARK VINA RESULT:    -6.598      1.730      7.048
REMARK INTER + INTRA:          -8.021
REMARK INTER:                  -7.756
REMARK INTRA:                  -0.265
REMARK UNBOUND:                -0.266
REMARK SMILES O=c1cc(-c2ccc(O)c(O)c2)oc2cc(O)cc(O)c12
REMARK SMILES IDX 4 1 3 2 2 3 1 4 21 5 19 6 18 7 16 8 15 9 14 10 13 11 5 12
REMARK SMILES IDX 6 13 7 14 8 15 12 16 10 17 9 18 11 20 20 22 17 24
REMARK H PARENT 9 19 11 21 20 23 17 25
REMARK Flexibility Score: inf
ROOT
ATOM      1  C   UNL     1      17.292  25.397  42.545  1.00  0.00     0.138 A 
ATOM      2  C   UNL     1      16.470  25.688  41.443  1.00  0.00     0.100 A 
ATOM      3  C   UNL     1      16.755  25.116  40.203  1.00  0.00     0.197 A 
ATOM      4  O   UNL     1      16.013  25.385  39.220  1.00  0.00    -0.289 OA
ATOM      5  C   UNL     1      17.865  24.258  40.071  1.00  0.00     0.107 A 
ATOM      6  C   UNL     1      18.223  23.636  38.852  1.00  0.00     0.134 A 
ATOM      7  C   UNL     1      19.348  22.799  38.803  1.00  0.00     0.093 A 
ATOM      8  C   UNL     1      20.118  22.572  39.947  1.00  0.00     0.123 A 
ATOM      9  C   UNL     1      19.768  23.184  41.155  1.00  0.00     0.094 A 
ATOM     10  C   UNL     1      18.651  24.021  41.225  1.00  0.00     0.146 A 
ATOM     11  O   UNL     1      18.337  24.589  42.385  1.00  0.00    -0.456 OA
ENDROOT
BRANCH   1  12
ATOM     12  C   UNL     1      17.036  25.977  43.887  1.00  0.00     0.021 A 
ATOM     13  C   UNL     1      16.155  25.370  44.802  1.00  0.00     0.016 A 
ATOM     14  C   UNL     1      15.942  25.933  46.062  1.00  0.00     0.051 A 
ATOM     15  C   UNL     1      16.607  27.104  46.435  1.00  0.00     0.157 A 
ATOM     16  C   UNL     1      17.713  27.149  44.275  1.00  0.00     0.062 A 
ATOM     17  C   UNL     1      17.498  27.715  45.540  1.00  0.00     0.158 A 
BRANCH  15  18
ATOM     18  O   UNL     1      16.372  27.643  47.701  1.00  0.00    -0.504 OA
ATOM     19  H   UNL     1      16.187  27.060  48.508  1.00  0.00     0.293 HD
ENDBRANCH  15  18
BRANCH  17  20
ATOM     20  O   UNL     1      18.168  28.881  45.907  1.00  0.00    -0.504 OA
ATOM     21  H   UNL     1      18.829  28.895  46.675  1.00  0.00     0.293 HD
ENDBRANCH  17  20
ENDBRANCH   1  12
BRANCH   6  22
ATOM     22  O   UNL     1      17.475  23.844  37.693  1.00  0.00    -0.507 OA
ATOM     23  H   UNL     1      17.189  23.076  37.098  1.00  0.00     0.293 HD
ENDBRANCH   6  22
BRANCH   8  24
ATOM     24  O   UNL     1      21.229  21.736  39.870  1.00  0.00    -0.508 OA
ATOM     25  H   UNL     1      22.036  21.978  39.307  1.00  0.00     0.293 HD
ENDBRANCH   8  24
TORSDOF 5
ENDMDL
MODEL 6
REMARK VINA RESULT:    -6.572      1.847      7.263
REMARK INTER + INTRA:          -7.991
REMARK INTER:                  -7.728
REMARK INTRA:                  -0.263
REMARK UNBOUND:                -0.266
REMARK SMILES O=c1cc(-c2ccc(O)c(O)c2)oc2cc(O)cc(O)c12
REMARK SMILES IDX 4 1 3 2 2 3 1 4 21 5 19 6 18 7 16 8 15 9 14 10 13 11 5 12
REMARK SMILES IDX 6 13 7 14 8 15 12 16 10 17 9 18 11 20 20 22 17 24
REMARK H PARENT 9 19 11 21 20 23 17 25
REMARK Flexibility Score: inf
ROOT
ATOM      1  C   UNL     1      18.992  24.822  41.067  1.00  0.00     0.138 A 
ATOM      2  C   UNL     1      19.597  23.558  41.168  1.00  0.00     0.100 A 
ATOM      3  C   UNL     1      19.972  22.882  40.007  1.00  0.00     0.197 A 
ATOM      4  O   UNL     1      20.513  21.747  40.108  1.00  0.00    -0.289 OA
ATOM      5  C   UNL     1      19.737  23.473  38.750  1.00  0.00     0.107 A 
ATOM      6  C   UNL     1      20.088  22.856  37.526  1.00  0.00     0.134 A 
ATOM      7  C   UNL     1      19.813  23.509  36.314  1.00  0.00     0.093 A 
ATOM      8  C   UNL     1      19.198  24.764  36.305  1.00  0.00     0.123 A 
ATOM      9  C   UNL     1      18.849  25.378  37.513  1.00  0.00     0.094 A 
ATOM     10  C   UNL     1      19.114  24.744  38.729  1.00  0.00     0.146 A 
ATOM     11  O   UNL     1      18.775  25.349  39.864  1.00  0.00    -0.456 OA
ENDROOT
BRANCH   1  12
ATOM     12  C   UNL     1      18.571  25.587  42.267  1.00  0.00     0.021 A 
ATOM     13  C   UNL     1      17.261  25.504  42.777  1.00  0.00     0.016 A 
ATOM     14  C   UNL     1      16.896  26.227  43.915  1.00  0.00     0.051 A 
ATOM     15  C   UNL     1      17.828  27.037  44.568  1.00  0.00     0.157 A 
ATOM     16  C   UNL     1      19.509  26.393  42.939  1.00  0.00     0.062 A 
ATOM     17  C   UNL     1      19.141  27.120  44.080  1.00  0.00     0.158 A 
BRANCH  15  18
ATOM     18  O   UNL     1      17.433  27.748  45.702  1.00  0.00    -0.504 OA
ATOM     19  H   UNL     1      16.472  28.030  45.851  1.00  0.00     0.293 HD
ENDBRANCH  15  18
BRANCH  17  20
ATOM     20  O   UNL     1      20.078  27.923  44.729  1.00  0.00    -0.504 OA
ATOM     21  H   UNL     1      19.870  28.377  45.611  1.00  0.00     0.293 HD
ENDBRANCH  17  20
ENDBRANCH   1  12
BRANCH   6  22
ATOM     22  O   UNL     1      20.703  21.604  37.503  1.00  0.00    -0.507 OA
ATOM     23  H   UNL     1      21.130  21.205  38.329  1.00  0.00     0.293 HD
ENDBRANCH   6  22
BRANCH   8  24
ATOM     24  O   UNL     1      18.937  25.390  35.089  1.00  0.00    -0.508 OA
ATOM     25  H   UNL     1      19.077  26.387  34.965  1.00  0.00     0.293 HD
ENDBRANCH   8  24
TORSDOF 5
ENDMDL
MODEL 7
REMARK VINA RESULT:    -6.482      4.068      6.802
REMARK INTER + INTRA:          -7.885
REMARK INTER:                  -7.608
REMARK INTRA:                  -0.277
REMARK UNBOUND:                -0.266
REMARK SMILES O=c1cc(-c2ccc(O)c(O)c2)oc2cc(O)cc(O)c12
REMARK SMILES IDX 4 1 3 2 2 3 1 4 21 5 19 6 18 7 16 8 15 9 14 10 13 11 5 12
REMARK SMILES IDX 6 13 7 14 8 15 12 16 10 17 9 18 11 20 20 22 17 24
REMARK H PARENT 9 19 11 21 20 23 17 25
REMARK Flexibility Score: inf
ROOT
ATOM      1  C   UNL     1      16.300  24.398  44.665  1.00  0.00     0.138 A 
ATOM      2  C   UNL     1      14.998  24.360  44.140  1.00  0.00     0.100 A 
ATOM      3  C   UNL     1      14.411  23.128  43.848  1.00  0.00     0.197 A 
ATOM      4  O   UNL     1      13.242  23.104  43.376  1.00  0.00    -0.289 OA
ATOM      5  C   UNL     1      15.133  21.940  44.080  1.00  0.00     0.107 A 
ATOM      6  C   UNL     1      14.612  20.652  43.814  1.00  0.00     0.134 A 
ATOM      7  C   UNL     1      15.398  19.518  44.067  1.00  0.00     0.093 A 
ATOM      8  C   UNL     1      16.691  19.648  44.582  1.00  0.00     0.123 A 
ATOM      9  C   UNL     1      17.211  20.919  44.847  1.00  0.00     0.094 A 
ATOM     10  C   UNL     1      16.443  22.061  44.601  1.00  0.00     0.146 A 
ATOM     11  O   UNL     1      16.959  23.258  44.864  1.00  0.00    -0.456 OA
ENDROOT
BRANCH   1  12
ATOM     12  C   UNL     1      16.975  25.679  44.993  1.00  0.00     0.021 A 
ATOM     13  C   UNL     1      16.477  26.546  45.985  1.00  0.00     0.016 A 
ATOM     14  C   UNL     1      17.138  27.740  46.280  1.00  0.00     0.051 A 
ATOM     15  C   UNL     1      18.308  28.087  45.599  1.00  0.00     0.157 A 
ATOM     16  C   UNL     1      18.161  26.028  44.322  1.00  0.00     0.062 A 
ATOM     17  C   UNL     1      18.825  27.228  44.617  1.00  0.00     0.158 A 
BRANCH  15  18
ATOM     18  O   UNL     1      18.946  29.288  45.916  1.00  0.00    -0.504 OA
ATOM     19  H   UNL     1      19.347  29.887  45.205  1.00  0.00     0.293 HD
ENDBRANCH  15  18
BRANCH  17  20
ATOM     20  O   UNL     1      19.994  27.566  43.937  1.00  0.00    -0.504 OA
ATOM     21  H   UNL     1      20.162  28.508  43.606  1.00  0.00     0.293 HD
ENDBRANCH  17  20
ENDBRANCH   1  12
BRANCH   6  22
ATOM     22  O   UNL     1      13.325  20.490  43.300  1.00  0.00    -0.507 OA
ATOM     23  H   UNL     1      13.158  20.019  42.419  1.00  0.00     0.293 HD
ENDBRANCH   6  22
BRANCH   8  24
ATOM     24  O   UNL     1      17.450  18.506  44.824  1.00  0.00    -0.508 OA
ATOM     25  H   UNL     1      17.217  17.615  44.400  1.00  0.00     0.293 HD
ENDBRANCH   8  24
TORSDOF 5
ENDMDL
MODEL 8
REMARK VINA RESULT:    -6.401      3.086      5.784
REMARK INTER + INTRA:          -7.789
REMARK INTER:                  -7.526
REMARK INTRA:                  -0.264
REMARK UNBOUND:                -0.266
REMARK SMILES O=c1cc(-c2ccc(O)c(O)c2)oc2cc(O)cc(O)c12
REMARK SMILES IDX 4 1 3 2 2 3 1 4 21 5 19 6 18 7 16 8 15 9 14 10 13 11 5 12
REMARK SMILES IDX 6 13 7 14 8 15 12 16 10 17 9 18 11 20 20 22 17 24
REMARK H PARENT 9 19 11 21 20 23 17 25
REMARK Flexibility Score: inf
ROOT
ATOM      1  C   UNL     1      17.205  24.222  43.081  1.00  0.00     0.138 A 
ATOM      2  C   UNL     1      15.851  24.525  42.858  1.00  0.00     0.100 A 
ATOM      3  C   UNL     1      14.886  23.534  43.045  1.00  0.00     0.197 A 
ATOM      4  O   UNL     1      13.674  23.815  42.842  1.00  0.00    -0.289 OA
ATOM      5  C   UNL     1      15.282  22.244  43.451  1.00  0.00     0.107 A 
ATOM      6  C   UNL     1      14.369  21.185  43.665  1.00  0.00     0.134 A 
ATOM      7  C   UNL     1      14.845  19.926  44.063  1.00  0.00     0.093 A 
ATOM      8  C   UNL     1      16.213  19.709  44.252  1.00  0.00     0.123 A 
ATOM      9  C   UNL     1      17.120  20.754  44.042  1.00  0.00     0.094 A 
ATOM     10  C   UNL     1      16.665  22.014  43.645  1.00  0.00     0.146 A 
ATOM     11  O   UNL     1      17.547  22.991  43.455  1.00  0.00    -0.456 OA
ENDROOT
BRANCH   1  12
ATOM     12  C   UNL     1      18.274  25.235  42.896  1.00  0.00     0.021 A 
ATOM     13  C   UNL     1      18.940  25.394  41.666  1.00  0.00     0.016 A 
ATOM     14  C   UNL     1      19.935  26.363  41.519  1.00  0.00     0.051 A 
ATOM     15  C   UNL     1      20.278  27.194  42.588  1.00  0.00     0.157 A 
ATOM     16  C   UNL     1      18.614  26.085  43.965  1.00  0.00     0.062 A 
ATOM     17  C   UNL     1      19.614  27.057  43.817  1.00  0.00     0.158 A 
BRANCH  15  18
ATOM     18  O   UNL     1      21.277  28.152  42.410  1.00  0.00    -0.504 OA
ATOM     19  H   UNL     1      21.627  28.712  43.177  1.00  0.00     0.293 HD
ENDBRANCH  15  18
BRANCH  17  20
ATOM     20  O   UNL     1      19.947  27.886  44.887  1.00  0.00    -0.504 OA
ATOM     21  H   UNL     1      20.252  27.509  45.777  1.00  0.00     0.293 HD
ENDBRANCH  17  20
ENDBRANCH   1  12
BRANCH   6  22
ATOM     22  O   UNL     1      12.998  21.371  43.484  1.00  0.00    -0.507 OA
ATOM     23  H   UNL     1      12.540  21.142  42.611  1.00  0.00     0.293 HD
ENDBRANCH   6  22
BRANCH   8  24
ATOM     24  O   UNL     1      16.659  18.450  44.647  1.00  0.00    -0.508 OA
ATOM     25  H   UNL     1      17.081  17.807  43.987  1.00  0.00     0.293 HD
ENDBRANCH   8  24
TORSDOF 5
ENDMDL
MODEL 9
REMARK VINA RESULT:    -6.379      4.010      7.234
REMARK INTER + INTRA:          -7.764
REMARK INTER:                  -7.487
REMARK INTRA:                  -0.277
REMARK UNBOUND:                -0.266
REMARK SMILES O=c1cc(-c2ccc(O)c(O)c2)oc2cc(O)cc(O)c12
REMARK SMILES IDX 4 1 3 2 2 3 1 4 21 5 19 6 18 7 16 8 15 9 14 10 13 11 5 12
REMARK SMILES IDX 6 13 7 14 8 15 12 16 10 17 9 18 11 20 20 22 17 24
REMARK H PARENT 9 19 11 21 20 23 17 25
REMARK Flexibility Score: inf
ROOT
ATOM      1  C   UNL     1      16.920  23.567  45.689  1.00  0.00     0.138 A 
ATOM      2  C   UNL     1      16.687  22.858  44.498  1.00  0.00     0.100 A 
ATOM      3  C   UNL     1      16.487  21.478  44.549  1.00  0.00     0.197 A 
ATOM      4  O   UNL     1      16.280  20.851  43.474  1.00  0.00    -0.289 OA
ATOM      5  C   UNL     1      16.526  20.814  45.790  1.00  0.00     0.107 A 
ATOM      6  C   UNL     1      16.332  19.419  45.930  1.00  0.00     0.134 A 
ATOM      7  C   UNL     1      16.392  18.832  47.203  1.00  0.00     0.093 A 
ATOM      8  C   UNL     1      16.640  19.612  48.336  1.00  0.00     0.123 A 
ATOM      9  C   UNL     1      16.832  20.992  48.204  1.00  0.00     0.094 A 
ATOM     10  C   UNL     1      16.776  21.595  46.944  1.00  0.00     0.146 A 
ATOM     11  O   UNL     1      16.959  22.908  46.845  1.00  0.00    -0.456 OA
ENDROOT
BRANCH   1  12
ATOM     12  C   UNL     1      17.140  25.035  45.696  1.00  0.00     0.021 A 
ATOM     13  C   UNL     1      16.542  25.869  46.660  1.00  0.00     0.016 A 
ATOM     14  C   UNL     1      16.775  27.246  46.649  1.00  0.00     0.051 A 
ATOM     15  C   UNL     1      17.611  27.814  45.684  1.00  0.00     0.157 A 
ATOM     16  C   UNL     1      17.992  25.612  44.736  1.00  0.00     0.062 A 
ATOM     17  C   UNL     1      18.224  26.995  44.724  1.00  0.00     0.158 A 
BRANCH  15  18
ATOM     18  O   UNL     1      17.824  29.193  45.698  1.00  0.00    -0.504 OA
ATOM     19  H   UNL     1      18.752  29.594  45.746  1.00  0.00     0.293 HD
ENDBRANCH  15  18
BRANCH  17  20
ATOM     20  O   UNL     1      19.064  27.554  43.761  1.00  0.00    -0.504 OA
ATOM     21  H   UNL     1      19.932  28.011  44.014  1.00  0.00     0.293 HD
ENDBRANCH  17  20
ENDBRANCH   1  12
BRANCH   6  22
ATOM     22  O   UNL     1      16.084  18.614  44.817  1.00  0.00    -0.507 OA
ATOM     23  H   UNL     1      15.202  18.131  44.696  1.00  0.00     0.293 HD
ENDBRANCH   6  22
BRANCH   8  24
ATOM     24  O   UNL     1      16.694  19.004  49.588  1.00  0.00    -0.508 OA
ATOM     25  H   UNL     1      17.484  19.140  50.209  1.00  0.00     0.293 HD
ENDBRANCH   8  24
TORSDOF 5
ENDMDL
