MODEL 1
REMARK VINA RESULT:    -5.408      0.000      0.000
REMARK INTER + INTRA:          -6.343
REMARK INTER:                  -6.199
REMARK INTRA:                  -0.144
REMARK UNBOUND:                -0.144
REMARK SMILES O=C([O-])C=Cc1ccc(O)cc1
REMARK SMILES IDX 6 1 7 2 12 3 8 4 11 5 9 6 5 7 4 8 2 9 1 10 3 11 10 12
REMARK H PARENT 10 13
REMARK Flexibility Score: inf
ROOT
ATOM      1  C   UNL     1      10.890 -26.020   7.488  1.00  0.00    -0.025 A 
ATOM      2  C   UNL     1       9.500 -26.118   7.309  1.00  0.00     0.012 A 
ATOM      3  C   UNL     1      11.387 -25.179   8.505  1.00  0.00     0.012 A 
ATOM      4  C   UNL     1       8.624 -25.415   8.141  1.00  0.00     0.047 A 
ATOM      5  C   UNL     1      10.507 -24.478   9.336  1.00  0.00     0.047 A 
ATOM      6  C   UNL     1       9.123 -24.596   9.157  1.00  0.00     0.115 A 
ENDROOT
BRANCH   1   7
ATOM      7  C   UNL     1      11.779 -26.778   6.572  1.00  0.00     0.010 C 
ATOM      8  C   UNL     1      11.602 -26.840   5.245  1.00  0.00     0.025 C 
BRANCH   8   9
ATOM      9  C   UNL     1      12.516 -27.594   4.374  1.00  0.00     0.064 C 
ATOM     10  O   UNL     1      12.045 -28.365   3.497  1.00  0.00    -0.545 OA
ATOM     11  O   UNL     1      13.895 -27.472   4.503  1.00  0.00    -0.545 OA
ENDBRANCH   8   9
ENDBRANCH   1   7
BRANCH   6  12
ATOM     12  O   UNL     1       8.239 -23.901   9.980  1.00  0.00    -0.508 OA
ATOM     13  H   UNL     1       7.710 -23.108   9.639  1.00  0.00     0.293 HD
ENDBRANCH   6  12
TORSDOF 3
ENDMDL
MODEL 2
REMARK VINA RESULT:    -5.337      1.223      1.591
REMARK INTER + INTRA:          -6.261
REMARK INTER:                  -6.117
REMARK INTRA:                  -0.144
REMARK UNBOUND:                -0.144
REMARK SMILES O=C([O-])C=Cc1ccc(O)cc1
REMARK SMILES IDX 6 1 7 2 12 3 8 4 11 5 9 6 5 7 4 8 2 9 1 10 3 11 10 12
REMARK H PARENT 10 13
REMARK Flexibility Score: inf
ROOT
ATOM      1  C   UNL     1      10.774 -26.014   7.476  1.00  0.00    -0.025 A 
ATOM      2  C   UNL     1      10.177 -26.380   8.694  1.00  0.00     0.012 A 
ATOM      3  C   UNL     1      10.228 -24.934   6.749  1.00  0.00     0.012 A 
ATOM      4  C   UNL     1       9.080 -25.671   9.191  1.00  0.00     0.047 A 
ATOM      5  C   UNL     1       9.129 -24.228   7.250  1.00  0.00     0.047 A 
ATOM      6  C   UNL     1       8.554 -24.594   8.474  1.00  0.00     0.115 A 
ENDROOT
BRANCH   1   7
ATOM      7  C   UNL     1      11.931 -26.803   6.986  1.00  0.00     0.010 C 
ATOM      8  C   UNL     1      12.301 -26.861   5.700  1.00  0.00     0.025 C 
BRANCH   8   9
ATOM      9  C   UNL     1      13.464 -27.648   5.260  1.00  0.00     0.064 C 
ATOM     10  O   UNL     1      14.018 -28.442   6.065  1.00  0.00    -0.545 OA
ATOM     11  O   UNL     1      13.965 -27.529   3.968  1.00  0.00    -0.545 OA
ENDBRANCH   8   9
ENDBRANCH   1   7
BRANCH   6  12
ATOM     12  O   UNL     1       7.460 -23.896   8.980  1.00  0.00    -0.508 OA
ATOM     13  H   UNL     1       6.707 -23.584   8.380  1.00  0.00     0.293 HD
ENDBRANCH   6  12
TORSDOF 3
ENDMDL
MODEL 3
REMARK VINA RESULT:    -5.330     11.588     13.357
REMARK INTER + INTRA:          -6.254
REMARK INTER:                  -6.102
REMARK INTRA:                  -0.151
REMARK UNBOUND:                -0.144
REMARK SMILES O=C([O-])C=Cc1ccc(O)cc1
REMARK SMILES IDX 6 1 7 2 12 3 8 4 11 5 9 6 5 7 4 8 2 9 1 10 3 11 10 12
REMARK H PARENT 10 13
REMARK Flexibility Score: inf
ROOT
ATOM      1  C   UNL     1       0.352 -19.667   4.989  1.00  0.00    -0.025 A 
ATOM      2  C   UNL     1      -0.762 -18.838   5.206  1.00  0.00     0.012 A 
ATOM      3  C   UNL     1       1.084 -19.520   3.792  1.00  0.00     0.012 A 
ATOM      4  C   UNL     1      -1.123 -17.869   4.266  1.00  0.00     0.047 A 
ATOM      5  C   UNL     1       0.720 -18.549   2.854  1.00  0.00     0.047 A 
ATOM      6  C   UNL     1      -0.384 -17.719   3.091  1.00  0.00     0.115 A 
ENDROOT
BRANCH   1   7
ATOM      7  C   UNL     1       0.688 -20.688   6.012  1.00  0.00     0.010 C 
ATOM      8  C   UNL     1      -0.152 -21.078   6.979  1.00  0.00     0.025 C 
BRANCH   8   9
ATOM      9  C   UNL     1       0.220 -22.103   7.966  1.00  0.00     0.064 C 
ATOM     10  O   UNL     1       1.139 -21.867   8.793  1.00  0.00    -0.545 OA
ATOM     11  O   UNL     1      -0.426 -23.335   8.000  1.00  0.00    -0.545 OA
ENDBRANCH   8   9
ENDBRANCH   1   7
BRANCH   6  12
ATOM     12  O   UNL     1      -0.754 -16.749   2.162  1.00  0.00    -0.508 OA
ATOM     13  H   UNL     1      -1.290 -16.984   1.335  1.00  0.00     0.293 HD
ENDBRANCH   6  12
TORSDOF 3
ENDMDL
MODEL 4
REMARK VINA RESULT:    -5.315      3.274      4.074
REMARK INTER + INTRA:          -6.236
REMARK INTER:                  -6.099
REMARK INTRA:                  -0.137
REMARK UNBOUND:                -0.144
REMARK SMILES O=C([O-])C=Cc1ccc(O)cc1
REMARK SMILES IDX 6 1 7 2 12 3 8 4 11 5 9 6 5 7 4 8 2 9 1 10 3 11 10 12
REMARK H PARENT 10 13
REMARK Flexibility Score: inf
ROOT
ATOM      1  C   UNL     1      10.806 -24.489   8.889  1.00  0.00    -0.025 A 
ATOM      2  C   UNL     1       9.766 -24.430   9.832  1.00  0.00     0.012 A 
ATOM      3  C   UNL     1      10.478 -24.619   7.523  1.00  0.00     0.012 A 
ATOM      4  C   UNL     1       8.430 -24.473   9.422  1.00  0.00     0.047 A 
ATOM      5  C   UNL     1       9.140 -24.661   7.118  1.00  0.00     0.047 A 
ATOM      6  C   UNL     1       8.113 -24.586   8.067  1.00  0.00     0.115 A 
ENDROOT
BRANCH   1   7
ATOM      7  C   UNL     1      12.208 -24.452   9.374  1.00  0.00     0.010 C 
ATOM      8  C   UNL     1      13.125 -25.382   9.075  1.00  0.00     0.025 C 
BRANCH   8   9
ATOM      9  C   UNL     1      14.508 -25.297   9.569  1.00  0.00     0.064 C 
ATOM     10  O   UNL     1      15.428 -25.890   8.947  1.00  0.00    -0.545 OA
ATOM     11  O   UNL     1      14.818 -24.575  10.716  1.00  0.00    -0.545 OA
ENDBRANCH   8   9
ENDBRANCH   1   7
BRANCH   6  12
ATOM     12  O   UNL     1       6.777 -24.626   7.672  1.00  0.00    -0.508 OA
ATOM     13  H   UNL     1       6.092 -23.986   8.056  1.00  0.00     0.293 HD
ENDBRANCH   6  12
TORSDOF 3
ENDMDL
MODEL 5
REMARK VINA RESULT:    -5.276     11.537     13.452
REMARK INTER + INTRA:          -6.191
REMARK INTER:                  -6.053
REMARK INTRA:                  -0.138
REMARK UNBOUND:                -0.144
REMARK SMILES O=C([O-])C=Cc1ccc(O)cc1
REMARK SMILES IDX 6 1 7 2 12 3 8 4 11 5 9 6 5 7 4 8 2 9 1 10 3 11 10 12
REMARK H PARENT 10 13
REMARK Flexibility Score: inf
ROOT
ATOM      1  C   UNL     1       1.123 -19.045   5.807  1.00  0.00    -0.025 A 
ATOM      2  C   UNL     1       0.033 -18.591   5.045  1.00  0.00     0.012 A 
ATOM      3  C   UNL     1       2.223 -19.626   5.141  1.00  0.00     0.012 A 
ATOM      4  C   UNL     1       0.050 -18.689   3.651  1.00  0.00     0.047 A 
ATOM      5  C   UNL     1       2.235 -19.722   3.746  1.00  0.00     0.047 A 
ATOM      6  C   UNL     1       1.148 -19.251   2.998  1.00  0.00     0.115 A 
ENDROOT
BRANCH   1   7
ATOM      7  C   UNL     1       1.054 -18.928   7.285  1.00  0.00     0.010 C 
ATOM      8  C   UNL     1       0.971 -17.761   7.937  1.00  0.00     0.025 C 
BRANCH   8   9
ATOM      9  C   UNL     1       0.893 -17.694   9.404  1.00  0.00     0.064 C 
ATOM     10  O   UNL     1      -0.214 -17.466   9.958  1.00  0.00    -0.545 OA
ATOM     11  O   UNL     1       2.024 -17.876  10.193  1.00  0.00    -0.545 OA
ENDBRANCH   8   9
ENDBRANCH   1   7
BRANCH   6  12
ATOM     12  O   UNL     1       1.152 -19.342   1.607  1.00  0.00    -0.508 OA
ATOM     13  H   UNL     1       0.416 -19.825   1.106  1.00  0.00     0.293 HD
ENDBRANCH   6  12
TORSDOF 3
ENDMDL
MODEL 6
REMARK VINA RESULT:    -5.221      3.561      4.283
REMARK INTER + INTRA:          -6.128
REMARK INTER:                  -5.993
REMARK INTRA:                  -0.135
REMARK UNBOUND:                -0.144
REMARK SMILES O=C([O-])C=Cc1ccc(O)cc1
REMARK SMILES IDX 6 1 7 2 12 3 8 4 11 5 9 6 5 7 4 8 2 9 1 10 3 11 10 12
REMARK H PARENT 10 13
REMARK Flexibility Score: inf
ROOT
ATOM      1  C   UNL     1      14.390 -26.347   7.837  1.00  0.00    -0.025 A 
ATOM      2  C   UNL     1      13.465 -25.774   8.726  1.00  0.00     0.012 A 
ATOM      3  C   UNL     1      15.763 -26.082   8.022  1.00  0.00     0.012 A 
ATOM      4  C   UNL     1      13.898 -24.978   9.790  1.00  0.00     0.047 A 
ATOM      5  C   UNL     1      16.193 -25.285   9.089  1.00  0.00     0.047 A 
ATOM      6  C   UNL     1      15.260 -24.733   9.976  1.00  0.00     0.115 A 
ENDROOT
BRANCH   1   7
ATOM      7  C   UNL     1      13.880 -27.175   6.717  1.00  0.00     0.010 C 
ATOM      8  C   UNL     1      13.475 -26.673   5.543  1.00  0.00     0.025 C 
BRANCH   8   9
ATOM      9  C   UNL     1      12.988 -27.534   4.455  1.00  0.00     0.064 C 
ATOM     10  O   UNL     1      11.754 -27.586   4.208  1.00  0.00    -0.545 OA
ATOM     11  O   UNL     1      13.867 -28.296   3.693  1.00  0.00    -0.545 OA
ENDBRANCH   8   9
ENDBRANCH   1   7
BRANCH   6  12
ATOM     12  O   UNL     1      15.679 -23.939  11.042  1.00  0.00    -0.508 OA
ATOM     13  H   UNL     1      16.019 -22.995  10.897  1.00  0.00     0.293 HD
ENDBRANCH   6  12
TORSDOF 3
ENDMDL
MODEL 7
REMARK VINA RESULT:    -5.202      2.747      3.416
REMARK INTER + INTRA:          -6.106
REMARK INTER:                  -5.964
REMARK INTRA:                  -0.143
REMARK UNBOUND:                -0.144
REMARK SMILES O=C([O-])C=Cc1ccc(O)cc1
REMARK SMILES IDX 6 1 7 2 12 3 8 4 11 5 9 6 5 7 4 8 2 9 1 10 3 11 10 12
REMARK H PARENT 10 13
REMARK Flexibility Score: inf
ROOT
ATOM      1  C   UNL     1      10.794 -25.963   7.845  1.00  0.00    -0.025 A 
ATOM      2  C   UNL     1      10.405 -24.664   7.479  1.00  0.00     0.012 A 
ATOM      3  C   UNL     1       9.796 -26.903   8.179  1.00  0.00     0.012 A 
ATOM      4  C   UNL     1       9.053 -24.315   7.421  1.00  0.00     0.047 A 
ATOM      5  C   UNL     1       8.444 -26.549   8.120  1.00  0.00     0.047 A 
ATOM      6  C   UNL     1       8.069 -25.254   7.738  1.00  0.00     0.115 A 
ENDROOT
BRANCH   1   7
ATOM      7  C   UNL     1      12.242 -26.282   7.902  1.00  0.00     0.010 C 
ATOM      8  C   UNL     1      13.105 -25.678   8.729  1.00  0.00     0.025 C 
BRANCH   8   9
ATOM      9  C   UNL     1      14.532 -26.034   8.760  1.00  0.00     0.064 C 
ATOM     10  O   UNL     1      14.912 -27.122   8.252  1.00  0.00    -0.545 OA
ATOM     11  O   UNL     1      15.471 -25.191   9.345  1.00  0.00    -0.545 OA
ENDBRANCH   8   9
ENDBRANCH   1   7
BRANCH   6  12
ATOM     12  O   UNL     1       6.725 -24.894   7.676  1.00  0.00    -0.508 OA
ATOM     13  H   UNL     1       6.231 -24.839   6.793  1.00  0.00     0.293 HD
ENDBRANCH   6  12
TORSDOF 3
ENDMDL
MODEL 8
REMARK VINA RESULT:    -5.168      4.323      6.517
REMARK INTER + INTRA:          -6.068
REMARK INTER:                  -5.933
REMARK INTRA:                  -0.135
REMARK UNBOUND:                -0.144
REMARK SMILES O=C([O-])C=Cc1ccc(O)cc1
REMARK SMILES IDX 6 1 7 2 12 3 8 4 11 5 9 6 5 7 4 8 2 9 1 10 3 11 10 12
REMARK H PARENT 10 13
REMARK Flexibility Score: inf
ROOT
ATOM      1  C   UNL     1      13.785 -28.714   7.771  1.00  0.00    -0.025 A 
ATOM      2  C   UNL     1      14.002 -29.583   6.688  1.00  0.00     0.012 A 
ATOM      3  C   UNL     1      13.726 -27.326   7.527  1.00  0.00     0.012 A 
ATOM      4  C   UNL     1      14.130 -29.083   5.389  1.00  0.00     0.047 A 
ATOM      5  C   UNL     1      13.855 -26.830   6.226  1.00  0.00     0.047 A 
ATOM      6  C   UNL     1      14.055 -27.708   5.153  1.00  0.00     0.115 A 
ENDROOT
BRANCH   1   7
ATOM      7  C   UNL     1      13.666 -29.292   9.133  1.00  0.00     0.010 C 
ATOM      8  C   UNL     1      12.521 -29.332   9.827  1.00  0.00     0.025 C 
BRANCH   8   9
ATOM      9  C   UNL     1      12.447 -29.926  11.171  1.00  0.00     0.064 C 
ATOM     10  O   UNL     1      13.386 -29.736  11.987  1.00  0.00    -0.545 OA
ATOM     11  O   UNL     1      11.357 -30.700  11.555  1.00  0.00    -0.545 OA
ENDBRANCH   8   9
ENDBRANCH   1   7
BRANCH   6  12
ATOM     12  O   UNL     1      14.184 -27.223   3.853  1.00  0.00    -0.508 OA
ATOM     13  H   UNL     1      13.817 -26.317   3.587  1.00  0.00     0.293 HD
ENDBRANCH   6  12
TORSDOF 3
ENDMDL
MODEL 9
REMARK VINA RESULT:    -5.148      1.223      5.702
REMARK INTER + INTRA:          -6.045
REMARK INTER:                  -5.905
REMARK INTRA:                  -0.140
REMARK UNBOUND:                -0.144
REMARK SMILES O=C([O-])C=Cc1ccc(O)cc1
REMARK SMILES IDX 6 1 7 2 12 3 8 4 11 5 9 6 5 7 4 8 2 9 1 10 3 11 10 12
REMARK H PARENT 10 13
REMARK Flexibility Score: inf
ROOT
ATOM      1  C   UNL     1      11.598 -26.317   6.944  1.00  0.00    -0.025 A 
ATOM      2  C   UNL     1      11.184 -26.527   5.617  1.00  0.00     0.012 A 
ATOM      3  C   UNL     1      12.963 -26.472   7.262  1.00  0.00     0.012 A 
ATOM      4  C   UNL     1      12.112 -26.858   4.626  1.00  0.00     0.047 A 
ATOM      5  C   UNL     1      13.888 -26.803   6.266  1.00  0.00     0.047 A 
ATOM      6  C   UNL     1      13.464 -26.994   4.945  1.00  0.00     0.115 A 
ENDROOT
BRANCH   1   7
ATOM      7  C   UNL     1      10.573 -25.979   7.962  1.00  0.00     0.010 C 
ATOM      8  C   UNL     1       9.816 -24.875   7.918  1.00  0.00     0.025 C 
BRANCH   8   9
ATOM      9  C   UNL     1       8.803 -24.585   8.945  1.00  0.00     0.064 C 
ATOM     10  O   UNL     1       9.102 -24.696  10.163  1.00  0.00    -0.545 OA
ATOM     11  O   UNL     1       7.516 -24.193   8.593  1.00  0.00    -0.545 OA
ENDBRANCH   8   9
ENDBRANCH   1   7
BRANCH   6  12
ATOM     12  O   UNL     1      14.379 -27.324   3.947  1.00  0.00    -0.508 OA
ATOM     13  H   UNL     1      15.085 -28.036   4.089  1.00  0.00     0.293 HD
ENDBRANCH   6  12
TORSDOF 3
ENDMDL
