MODEL 1
REMARK VINA RESULT:    -7.033      0.000      0.000
REMARK INTER + INTRA:          -8.738
REMARK INTER:                  -8.472
REMARK INTRA:                  -0.266
REMARK UNBOUND:                -0.266
REMARK SMILES O=c1c(O)c(-c2ccc(O)c(O)c2)oc2cc(O)cc(O)c12
REMARK SMILES IDX 5 1 3 2 2 3 1 4 22 5 20 6 19 7 17 8 16 9 15 10 14 11 6 12
REMARK SMILES IDX 7 13 8 14 9 15 13 16 11 17 10 18 12 20 4 22 21 24 18 26
REMARK H PARENT 10 19 12 21 4 23 21 25 18 27
REMARK Flexibility Score: inf
ROOT
ATOM      1  C   UNL     1       8.448  84.957  79.627  1.00  0.00     0.180 A 
ATOM      2  C   UNL     1       7.903  85.023  80.924  1.00  0.00     0.208 A 
ATOM      3  C   UNL     1       6.610  84.520  81.143  1.00  0.00     0.238 A 
ATOM      4  O   UNL     1       6.108  84.583  82.298  1.00  0.00    -0.285 OA
ATOM      5  C   UNL     1       5.895  83.945  80.072  1.00  0.00     0.111 A 
ATOM      6  C   UNL     1       4.590  83.414  80.210  1.00  0.00     0.134 A 
ATOM      7  C   UNL     1       3.948  82.850  79.097  1.00  0.00     0.093 A 
ATOM      8  C   UNL     1       4.583  82.807  77.854  1.00  0.00     0.123 A 
ATOM      9  C   UNL     1       5.872  83.331  77.712  1.00  0.00     0.094 A 
ATOM     10  C   UNL     1       6.528  83.899  78.809  1.00  0.00     0.146 A 
ATOM     11  O   UNL     1       7.749  84.394  78.646  1.00  0.00    -0.452 OA
ENDROOT
BRANCH   1  12
ATOM     12  C   UNL     1       9.795  85.482  79.313  1.00  0.00     0.025 A 
ATOM     13  C   UNL     1      10.959  84.790  79.694  1.00  0.00     0.016 A 
ATOM     14  C   UNL     1      12.221  85.318  79.407  1.00  0.00     0.051 A 
ATOM     15  C   UNL     1      12.338  86.549  78.749  1.00  0.00     0.157 A 
ATOM     16  C   UNL     1       9.920  86.727  78.672  1.00  0.00     0.062 A 
ATOM     17  C   UNL     1      11.186  87.256  78.384  1.00  0.00     0.158 A 
BRANCH  15  18
ATOM     18  O   UNL     1      13.595  87.077  78.460  1.00  0.00    -0.504 OA
ATOM     19  H   UNL     1      13.900  87.229  77.506  1.00  0.00     0.293 HD
ENDBRANCH  15  18
BRANCH  17  20
ATOM     20  O   UNL     1      11.306  88.484  77.735  1.00  0.00    -0.504 OA
ATOM     21  H   UNL     1      12.090  88.690  77.127  1.00  0.00     0.293 HD
ENDBRANCH  17  20
ENDBRANCH   1  12
BRANCH   2  22
ATOM     22  O   UNL     1       8.651  85.551  81.979  1.00  0.00    -0.502 OA
ATOM     23  H   UNL     1       9.491  86.097  81.827  1.00  0.00     0.293 HD
ENDBRANCH   2  22
BRANCH   6  24
ATOM     24  O   UNL     1       3.929  83.440  81.439  1.00  0.00    -0.507 OA
ATOM     25  H   UNL     1       3.569  82.596  81.869  1.00  0.00     0.293 HD
ENDBRANCH   6  24
BRANCH   8  26
ATOM     26  O   UNL     1       3.924  82.241  76.765  1.00  0.00    -0.508 OA
ATOM     27  H   UNL     1       3.380  81.391  76.859  1.00  0.00     0.293 HD
ENDBRANCH   8  26
TORSDOF 6
ENDMDL
MODEL 2
REMARK VINA RESULT:    -6.800      9.155     11.039
REMARK INTER + INTRA:          -8.457
REMARK INTER:                  -8.144
REMARK INTRA:                  -0.314
REMARK UNBOUND:                -0.266
REMARK SMILES O=c1c(O)c(-c2ccc(O)c(O)c2)oc2cc(O)cc(O)c12
REMARK SMILES IDX 5 1 3 2 2 3 1 4 22 5 20 6 19 7 17 8 16 9 15 10 14 11 6 12
REMARK SMILES IDX 7 13 8 14 9 15 13 16 11 17 10 18 12 20 4 22 21 24 18 26
REMARK H PARENT 10 19 12 21 4 23 21 25 18 27
REMARK Flexibility Score: inf
ROOT
ATOM      1  C   UNL     1       0.343  82.127  73.601  1.00  0.00     0.180 A 
ATOM      2  C   UNL     1       1.557  81.878  74.268  1.00  0.00     0.208 A 
ATOM      3  C   UNL     1       1.807  80.588  74.763  1.00  0.00     0.238 A 
ATOM      4  O   UNL     1       2.887  80.355  75.371  1.00  0.00    -0.285 OA
ATOM      5  C   UNL     1       0.853  79.568  74.565  1.00  0.00     0.111 A 
ATOM      6  C   UNL     1       1.029  78.243  75.028  1.00  0.00     0.134 A 
ATOM      7  C   UNL     1       0.035  77.282  74.784  1.00  0.00     0.093 A 
ATOM      8  C   UNL     1      -1.127  77.621  74.088  1.00  0.00     0.123 A 
ATOM      9  C   UNL     1      -1.307  78.930  73.628  1.00  0.00     0.094 A 
ATOM     10  C   UNL     1      -0.329  79.902  73.863  1.00  0.00     0.146 A 
ATOM     11  O   UNL     1      -0.527  81.138  73.421  1.00  0.00    -0.452 OA
ENDROOT
BRANCH   1  12
ATOM     12  C   UNL     1      -0.002  83.465  73.069  1.00  0.00     0.025 A 
ATOM     13  C   UNL     1      -0.818  84.353  73.792  1.00  0.00     0.016 A 
ATOM     14  C   UNL     1      -1.149  85.602  73.258  1.00  0.00     0.051 A 
ATOM     15  C   UNL     1      -0.682  85.975  71.992  1.00  0.00     0.157 A 
ATOM     16  C   UNL     1       0.447  83.837  71.790  1.00  0.00     0.062 A 
ATOM     17  C   UNL     1       0.115  85.090  71.256  1.00  0.00     0.158 A 
BRANCH  15  18
ATOM     18  O   UNL     1      -1.009  87.220  71.457  1.00  0.00    -0.504 OA
ATOM     19  H   UNL     1      -0.361  87.732  70.872  1.00  0.00     0.293 HD
ENDBRANCH  15  18
BRANCH  17  20
ATOM     20  O   UNL     1       0.573  85.460  69.992  1.00  0.00    -0.504 OA
ATOM     21  H   UNL     1       1.311  86.145  69.874  1.00  0.00     0.293 HD
ENDBRANCH  17  20
ENDBRANCH   1  12
BRANCH   2  22
ATOM     22  O   UNL     1       2.508  82.892  74.407  1.00  0.00    -0.502 OA
ATOM     23  H   UNL     1       3.498  82.731  74.260  1.00  0.00     0.293 HD
ENDBRANCH   2  22
BRANCH   6  24
ATOM     24  O   UNL     1       2.179  77.872  75.726  1.00  0.00    -0.507 OA
ATOM     25  H   UNL     1       2.607  76.961  75.604  1.00  0.00     0.293 HD
ENDBRANCH   6  24
BRANCH   8  26
ATOM     26  O   UNL     1      -2.098  76.649  73.858  1.00  0.00    -0.508 OA
ATOM     27  H   UNL     1      -3.086  76.868  73.893  1.00  0.00     0.293 HD
ENDBRANCH   8  26
TORSDOF 6
ENDMDL
MODEL 3
REMARK VINA RESULT:    -6.531      9.641     11.442
REMARK INTER + INTRA:          -8.133
REMARK INTER:                  -7.817
REMARK INTRA:                  -0.316
REMARK UNBOUND:                -0.266
REMARK SMILES O=c1c(O)c(-c2ccc(O)c(O)c2)oc2cc(O)cc(O)c12
REMARK SMILES IDX 5 1 3 2 2 3 1 4 22 5 20 6 19 7 17 8 16 9 15 10 14 11 6 12
REMARK SMILES IDX 7 13 8 14 9 15 13 16 11 17 10 18 12 20 4 22 21 24 18 26
REMARK H PARENT 10 19 12 21 4 23 21 25 18 27
REMARK Flexibility Score: inf
ROOT
ATOM      1  C   UNL     1       0.205  82.315  73.898  1.00  0.00     0.180 A 
ATOM      2  C   UNL     1      -0.562  83.119  74.764  1.00  0.00     0.208 A 
ATOM      3  C   UNL     1      -0.953  84.397  74.333  1.00  0.00     0.238 A 
ATOM      4  O   UNL     1      -1.631  85.130  75.103  1.00  0.00    -0.285 OA
ATOM      5  C   UNL     1      -0.592  84.840  73.044  1.00  0.00     0.111 A 
ATOM      6  C   UNL     1      -0.950  86.111  72.534  1.00  0.00     0.134 A 
ATOM      7  C   UNL     1      -0.559  86.474  71.235  1.00  0.00     0.093 A 
ATOM      8  C   UNL     1       0.180  85.595  70.442  1.00  0.00     0.123 A 
ATOM      9  C   UNL     1       0.537  84.338  70.941  1.00  0.00     0.094 A 
ATOM     10  C   UNL     1       0.158  83.957  72.232  1.00  0.00     0.146 A 
ATOM     11  O   UNL     1       0.514  82.761  72.684  1.00  0.00    -0.452 OA
ENDROOT
BRANCH   1  12
ATOM     12  C   UNL     1       0.673  80.966  74.286  1.00  0.00     0.025 A 
ATOM     13  C   UNL     1       1.966  80.757  74.797  1.00  0.00     0.016 A 
ATOM     14  C   UNL     1       2.393  79.470  75.135  1.00  0.00     0.051 A 
ATOM     15  C   UNL     1       1.541  78.373  74.955  1.00  0.00     0.157 A 
ATOM     16  C   UNL     1      -0.170  79.859  74.088  1.00  0.00     0.062 A 
ATOM     17  C   UNL     1       0.259  78.567  74.428  1.00  0.00     0.158 A 
BRANCH  15  18
ATOM     18  O   UNL     1       1.964  77.088  75.292  1.00  0.00    -0.504 OA
ATOM     19  H   UNL     1       2.531  76.535  74.661  1.00  0.00     0.293 HD
ENDBRANCH  15  18
BRANCH  17  20
ATOM     20  O   UNL     1      -0.585  77.473  74.242  1.00  0.00    -0.504 OA
ATOM     21  H   UNL     1      -1.289  77.463  73.512  1.00  0.00     0.293 HD
ENDBRANCH  17  20
ENDBRANCH   1  12
BRANCH   2  22
ATOM     22  O   UNL     1      -0.949  82.638  76.016  1.00  0.00    -0.502 OA
ATOM     23  H   UNL     1      -1.810  82.122  76.157  1.00  0.00     0.293 HD
ENDBRANCH   2  22
BRANCH   6  24
ATOM     24  O   UNL     1      -1.689  87.012  73.302  1.00  0.00    -0.507 OA
ATOM     25  H   UNL     1      -2.681  86.887  73.463  1.00  0.00     0.293 HD
ENDBRANCH   6  24
BRANCH   8  26
ATOM     26  O   UNL     1       0.554  85.979  69.156  1.00  0.00    -0.508 OA
ATOM     27  H   UNL     1       0.733  86.949  68.924  1.00  0.00     0.293 HD
ENDBRANCH   8  26
TORSDOF 6
ENDMDL
MODEL 4
REMARK VINA RESULT:    -6.531      8.875     11.364
REMARK INTER + INTRA:          -8.133
REMARK INTER:                  -7.965
REMARK INTRA:                  -0.168
REMARK UNBOUND:                -0.266
REMARK SMILES O=c1c(O)c(-c2ccc(O)c(O)c2)oc2cc(O)cc(O)c12
REMARK SMILES IDX 5 1 3 2 2 3 1 4 22 5 20 6 19 7 17 8 16 9 15 10 14 11 6 12
REMARK SMILES IDX 7 13 8 14 9 15 13 16 11 17 10 18 12 20 4 22 21 24 18 26
REMARK H PARENT 10 19 12 21 4 23 21 25 18 27
REMARK Flexibility Score: inf
ROOT
ATOM      1  C   UNL     1       0.012  83.960  72.448  1.00  0.00     0.180 A 
ATOM      2  C   UNL     1      -1.075  83.135  72.101  1.00  0.00     0.208 A 
ATOM      3  C   UNL     1      -1.100  81.812  72.571  1.00  0.00     0.238 A 
ATOM      4  O   UNL     1      -2.063  81.061  72.258  1.00  0.00    -0.285 OA
ATOM      5  C   UNL     1      -0.053  81.344  73.391  1.00  0.00     0.111 A 
ATOM      6  C   UNL     1      -0.005  80.027  73.908  1.00  0.00     0.134 A 
ATOM      7  C   UNL     1       1.069  79.639  74.725  1.00  0.00     0.093 A 
ATOM      8  C   UNL     1       2.090  80.540  75.035  1.00  0.00     0.123 A 
ATOM      9  C   UNL     1       2.048  81.843  74.527  1.00  0.00     0.094 A 
ATOM     10  C   UNL     1       0.988  82.248  73.709  1.00  0.00     0.146 A 
ATOM     11  O   UNL     1       0.974  83.488  73.236  1.00  0.00    -0.452 OA
ENDROOT
BRANCH   1  12
ATOM     12  C   UNL     1       0.120  85.359  71.976  1.00  0.00     0.025 A 
ATOM     13  C   UNL     1       0.024  86.442  72.868  1.00  0.00     0.016 A 
ATOM     14  C   UNL     1       0.105  87.755  72.396  1.00  0.00     0.051 A 
ATOM     15  C   UNL     1       0.268  88.004  71.027  1.00  0.00     0.157 A 
ATOM     16  C   UNL     1       0.263  85.616  70.602  1.00  0.00     0.062 A 
ATOM     17  C   UNL     1       0.344  86.934  70.129  1.00  0.00     0.158 A 
BRANCH  15  18
ATOM     18  O   UNL     1       0.350  89.313  70.553  1.00  0.00    -0.504 OA
ATOM     19  H   UNL     1      -0.434  89.760  70.094  1.00  0.00     0.293 HD
ENDBRANCH  15  18
BRANCH  17  20
ATOM     20  O   UNL     1       0.500  87.184  68.766  1.00  0.00    -0.504 OA
ATOM     21  H   UNL     1       1.257  87.759  68.415  1.00  0.00     0.293 HD
ENDBRANCH  17  20
ENDBRANCH   1  12
BRANCH   2  22
ATOM     22  O   UNL     1      -2.125  83.638  71.329  1.00  0.00    -0.502 OA
ATOM     23  H   UNL     1      -3.055  83.237  71.351  1.00  0.00     0.293 HD
ENDBRANCH   2  22
BRANCH   6  24
ATOM     24  O   UNL     1      -1.009  79.103  73.618  1.00  0.00    -0.507 OA
ATOM     25  H   UNL     1      -1.162  78.283  74.193  1.00  0.00     0.293 HD
ENDBRANCH   6  24
BRANCH   8  26
ATOM     26  O   UNL     1       3.143  80.131  75.849  1.00  0.00    -0.508 OA
ATOM     27  H   UNL     1       4.109  80.267  75.575  1.00  0.00     0.293 HD
ENDBRANCH   8  26
TORSDOF 6
ENDMDL
MODEL 5
REMARK VINA RESULT:    -6.391      9.928     11.404
REMARK INTER + INTRA:          -7.964
REMARK INTER:                  -7.678
REMARK INTRA:                  -0.286
REMARK UNBOUND:                -0.266
REMARK SMILES O=c1c(O)c(-c2ccc(O)c(O)c2)oc2cc(O)cc(O)c12
REMARK SMILES IDX 5 1 3 2 2 3 1 4 22 5 20 6 19 7 17 8 16 9 15 10 14 11 6 12
REMARK SMILES IDX 7 13 8 14 9 15 13 16 11 17 10 18 12 20 4 22 21 24 18 26
REMARK H PARENT 10 19 12 21 4 23 21 25 18 27
REMARK Flexibility Score: inf
ROOT
ATOM      1  C   UNL     1       0.152  80.274  74.134  1.00  0.00     0.180 A 
ATOM      2  C   UNL     1      -0.904  79.370  73.909  1.00  0.00     0.208 A 
ATOM      3  C   UNL     1      -0.739  78.027  74.284  1.00  0.00     0.238 A 
ATOM      4  O   UNL     1      -1.673  77.206  74.078  1.00  0.00    -0.285 OA
ATOM      5  C   UNL     1       0.465  77.616  74.894  1.00  0.00     0.111 A 
ATOM      6  C   UNL     1       0.709  76.284  75.304  1.00  0.00     0.134 A 
ATOM      7  C   UNL     1       1.932  75.956  75.912  1.00  0.00     0.093 A 
ATOM      8  C   UNL     1       2.909  76.932  76.116  1.00  0.00     0.123 A 
ATOM      9  C   UNL     1       2.674  78.250  75.712  1.00  0.00     0.094 A 
ATOM     10  C   UNL     1       1.463  78.596  75.103  1.00  0.00     0.146 A 
ATOM     11  O   UNL     1       1.267  79.853  74.724  1.00  0.00    -0.452 OA
ENDROOT
BRANCH   1  12
ATOM     12  C   UNL     1       0.062  81.700  73.748  1.00  0.00     0.025 A 
ATOM     13  C   UNL     1       0.711  82.192  72.602  1.00  0.00     0.016 A 
ATOM     14  C   UNL     1       0.630  83.548  72.271  1.00  0.00     0.051 A 
ATOM     15  C   UNL     1      -0.087  84.432  73.087  1.00  0.00     0.157 A 
ATOM     16  C   UNL     1      -0.639  82.596  74.574  1.00  0.00     0.062 A 
ATOM     17  C   UNL     1      -0.720  83.956  74.242  1.00  0.00     0.158 A 
BRANCH  15  18
ATOM     18  O   UNL     1      -0.170  85.784  72.760  1.00  0.00    -0.504 OA
ATOM     19  H   UNL     1      -0.954  86.354  73.054  1.00  0.00     0.293 HD
ENDBRANCH  15  18
BRANCH  17  20
ATOM     20  O   UNL     1      -1.427  84.840  75.056  1.00  0.00    -0.504 OA
ATOM     21  H   UNL     1      -2.406  85.045  74.893  1.00  0.00     0.293 HD
ENDBRANCH  17  20
ENDBRANCH   1  12
BRANCH   2  22
ATOM     22  O   UNL     1      -2.105  79.812  73.350  1.00  0.00    -0.502 OA
ATOM     23  H   UNL     1      -2.138  80.517  72.622  1.00  0.00     0.293 HD
ENDBRANCH   2  22
BRANCH   6  24
ATOM     24  O   UNL     1      -0.248  75.286  75.115  1.00  0.00    -0.507 OA
ATOM     25  H   UNL     1      -0.011  74.390  74.705  1.00  0.00     0.293 HD
ENDBRANCH   6  24
BRANCH   8  26
ATOM     26  O   UNL     1       4.113  76.580  76.723  1.00  0.00    -0.508 OA
ATOM     27  H   UNL     1       4.173  75.805  77.373  1.00  0.00     0.293 HD
ENDBRANCH   8  26
TORSDOF 6
ENDMDL
MODEL 6
REMARK VINA RESULT:    -6.363      1.870      7.231
REMARK INTER + INTRA:          -7.931
REMARK INTER:                  -7.609
REMARK INTRA:                  -0.322
REMARK UNBOUND:                -0.266
REMARK SMILES O=c1c(O)c(-c2ccc(O)c(O)c2)oc2cc(O)cc(O)c12
REMARK SMILES IDX 5 1 3 2 2 3 1 4 22 5 20 6 19 7 17 8 16 9 15 10 14 11 6 12
REMARK SMILES IDX 7 13 8 14 9 15 13 16 11 17 10 18 12 20 4 22 21 24 18 26
REMARK H PARENT 10 19 12 21 4 23 21 25 18 27
REMARK Flexibility Score: inf
ROOT
ATOM      1  C   UNL     1       7.760  86.223  78.360  1.00  0.00     0.180 A 
ATOM      2  C   UNL     1       7.377  87.458  77.801  1.00  0.00     0.208 A 
ATOM      3  C   UNL     1       8.372  88.401  77.495  1.00  0.00     0.238 A 
ATOM      4  O   UNL     1       8.041  89.514  77.004  1.00  0.00    -0.285 OA
ATOM      5  C   UNL     1       9.726  88.088  77.733  1.00  0.00     0.111 A 
ATOM      6  C   UNL     1      10.787  88.981  77.449  1.00  0.00     0.134 A 
ATOM      7  C   UNL     1      12.112  88.591  77.706  1.00  0.00     0.093 A 
ATOM      8  C   UNL     1      12.392  87.331  78.239  1.00  0.00     0.123 A 
ATOM      9  C   UNL     1      11.347  86.445  78.521  1.00  0.00     0.094 A 
ATOM     10  C   UNL     1      10.021  86.815  78.274  1.00  0.00     0.146 A 
ATOM     11  O   UNL     1       9.048  85.958  78.556  1.00  0.00    -0.452 OA
ENDROOT
BRANCH   1  12
ATOM     12  C   UNL     1       6.769  85.186  78.727  1.00  0.00     0.025 A 
ATOM     13  C   UNL     1       6.305  84.250  77.786  1.00  0.00     0.016 A 
ATOM     14  C   UNL     1       5.352  83.295  78.151  1.00  0.00     0.051 A 
ATOM     15  C   UNL     1       4.840  83.270  79.454  1.00  0.00     0.157 A 
ATOM     16  C   UNL     1       6.236  85.169  80.028  1.00  0.00     0.062 A 
ATOM     17  C   UNL     1       5.280  84.210  80.393  1.00  0.00     0.158 A 
BRANCH  15  18
ATOM     18  O   UNL     1       3.890  82.318  79.821  1.00  0.00    -0.504 OA
ATOM     19  H   UNL     1       4.084  81.326  79.761  1.00  0.00     0.293 HD
ENDBRANCH  15  18
BRANCH  17  20
ATOM     20  O   UNL     1       4.764  84.188  81.688  1.00  0.00    -0.504 OA
ATOM     21  H   UNL     1       5.279  84.572  82.472  1.00  0.00     0.293 HD
ENDBRANCH  17  20
ENDBRANCH   1  12
BRANCH   2  22
ATOM     22  O   UNL     1       6.033  87.724  77.529  1.00  0.00    -0.502 OA
ATOM     23  H   UNL     1       5.291  87.085  77.788  1.00  0.00     0.293 HD
ENDBRANCH   2  22
BRANCH   6  24
ATOM     24  O   UNL     1      10.540  90.246  76.916  1.00  0.00    -0.507 OA
ATOM     25  H   UNL     1      11.001  90.569  76.073  1.00  0.00     0.293 HD
ENDBRANCH   6  24
BRANCH   8  26
ATOM     26  O   UNL     1      13.715  86.968  78.483  1.00  0.00    -0.508 OA
ATOM     27  H   UNL     1      14.121  86.136  78.072  1.00  0.00     0.293 HD
ENDBRANCH   8  26
TORSDOF 6
ENDMDL
MODEL 7
REMARK VINA RESULT:    -6.275      1.648      7.067
REMARK INTER + INTRA:          -7.824
REMARK INTER:                  -7.527
REMARK INTRA:                  -0.297
REMARK UNBOUND:                -0.266
REMARK SMILES O=c1c(O)c(-c2ccc(O)c(O)c2)oc2cc(O)cc(O)c12
REMARK SMILES IDX 5 1 3 2 2 3 1 4 22 5 20 6 19 7 17 8 16 9 15 10 14 11 6 12
REMARK SMILES IDX 7 13 8 14 9 15 13 16 11 17 10 18 12 20 4 22 21 24 18 26
REMARK H PARENT 10 19 12 21 4 23 21 25 18 27
REMARK Flexibility Score: inf
ROOT
ATOM      1  C   UNL     1       8.458  85.528  78.702  1.00  0.00     0.180 A 
ATOM      2  C   UNL     1       9.697  84.932  79.006  1.00  0.00     0.208 A 
ATOM      3  C   UNL     1      10.877  85.647  78.745  1.00  0.00     0.238 A 
ATOM      4  O   UNL     1      11.993  85.120  79.004  1.00  0.00    -0.285 OA
ATOM      5  C   UNL     1      10.798  86.948  78.205  1.00  0.00     0.111 A 
ATOM      6  C   UNL     1      11.938  87.736  77.917  1.00  0.00     0.134 A 
ATOM      7  C   UNL     1      11.775  89.027  77.388  1.00  0.00     0.093 A 
ATOM      8  C   UNL     1      10.500  89.541  77.145  1.00  0.00     0.123 A 
ATOM      9  C   UNL     1       9.370  88.767  77.428  1.00  0.00     0.094 A 
ATOM     10  C   UNL     1       9.511  87.478  77.953  1.00  0.00     0.146 A 
ATOM     11  O   UNL     1       8.423  86.762  78.208  1.00  0.00    -0.452 OA
ENDROOT
BRANCH   1  12
ATOM     12  C   UNL     1       7.173  84.830  78.930  1.00  0.00     0.025 A 
ATOM     13  C   UNL     1       6.473  84.220  77.873  1.00  0.00     0.016 A 
ATOM     14  C   UNL     1       5.249  83.588  78.110  1.00  0.00     0.051 A 
ATOM     15  C   UNL     1       4.702  83.567  79.399  1.00  0.00     0.157 A 
ATOM     16  C   UNL     1       6.609  84.824  80.217  1.00  0.00     0.062 A 
ATOM     17  C   UNL     1       5.381  84.188  80.453  1.00  0.00     0.158 A 
BRANCH  15  18
ATOM     18  O   UNL     1       3.482  82.936  79.638  1.00  0.00    -0.504 OA
ATOM     19  H   UNL     1       3.107  82.247  78.996  1.00  0.00     0.293 HD
ENDBRANCH  15  18
BRANCH  17  20
ATOM     20  O   UNL     1       4.831  84.173  81.735  1.00  0.00    -0.504 OA
ATOM     21  H   UNL     1       3.861  83.926  81.893  1.00  0.00     0.293 HD
ENDBRANCH  17  20
ENDBRANCH   1  12
BRANCH   2  22
ATOM     22  O   UNL     1       9.747  83.662  79.587  1.00  0.00    -0.502 OA
ATOM     23  H   UNL     1       9.285  83.448  80.463  1.00  0.00     0.293 HD
ENDBRANCH   2  22
BRANCH   6  24
ATOM     24  O   UNL     1      13.225  87.251  78.150  1.00  0.00    -0.507 OA
ATOM     25  H   UNL     1      13.432  86.642  78.933  1.00  0.00     0.293 HD
ENDBRANCH   6  24
BRANCH   8  26
ATOM     26  O   UNL     1      10.367  90.825  76.621  1.00  0.00    -0.508 OA
ATOM     27  H   UNL     1      10.762  91.632  77.089  1.00  0.00     0.293 HD
ENDBRANCH   8  26
TORSDOF 6
ENDMDL
MODEL 8
REMARK VINA RESULT:    -6.139      9.011     12.230
REMARK INTER + INTRA:          -7.661
REMARK INTER:                  -7.337
REMARK INTRA:                  -0.325
REMARK UNBOUND:                -0.266
REMARK SMILES O=c1c(O)c(-c2ccc(O)c(O)c2)oc2cc(O)cc(O)c12
REMARK SMILES IDX 5 1 3 2 2 3 1 4 22 5 20 6 19 7 17 8 16 9 15 10 14 11 6 12
REMARK SMILES IDX 7 13 8 14 9 15 13 16 11 17 10 18 12 20 4 22 21 24 18 26
REMARK H PARENT 10 19 12 21 4 23 21 25 18 27
REMARK Flexibility Score: inf
ROOT
ATOM      1  C   UNL     1       0.827  77.121  76.021  1.00  0.00     0.180 A 
ATOM      2  C   UNL     1      -0.400  77.094  75.329  1.00  0.00     0.208 A 
ATOM      3  C   UNL     1      -0.754  78.194  74.532  1.00  0.00     0.238 A 
ATOM      4  O   UNL     1      -1.854  78.186  73.916  1.00  0.00    -0.285 OA
ATOM      5  C   UNL     1       0.128  79.289  74.424  1.00  0.00     0.111 A 
ATOM      6  C   UNL     1      -0.152  80.434  73.639  1.00  0.00     0.134 A 
ATOM      7  C   UNL     1       0.783  81.480  73.577  1.00  0.00     0.093 A 
ATOM      8  C   UNL     1       1.987  81.402  74.280  1.00  0.00     0.123 A 
ATOM      9  C   UNL     1       2.269  80.274  75.057  1.00  0.00     0.094 A 
ATOM     10  C   UNL     1       1.350  79.222  75.134  1.00  0.00     0.146 A 
ATOM     11  O   UNL     1       1.640  78.165  75.883  1.00  0.00    -0.452 OA
ENDROOT
BRANCH   1  12
ATOM     12  C   UNL     1       1.261  76.009  76.895  1.00  0.00     0.025 A 
ATOM     13  C   UNL     1       2.014  74.933  76.393  1.00  0.00     0.016 A 
ATOM     14  C   UNL     1       2.393  73.882  77.233  1.00  0.00     0.051 A 
ATOM     15  C   UNL     1       2.013  73.885  78.581  1.00  0.00     0.157 A 
ATOM     16  C   UNL     1       0.866  75.995  78.244  1.00  0.00     0.062 A 
ATOM     17  C   UNL     1       1.246  74.941  79.087  1.00  0.00     0.158 A 
BRANCH  15  18
ATOM     18  O   UNL     1       2.390  72.838  79.422  1.00  0.00    -0.504 OA
ATOM     19  H   UNL     1       3.100  72.960  80.134  1.00  0.00     0.293 HD
ENDBRANCH  15  18
BRANCH  17  20
ATOM     20  O   UNL     1       0.863  74.937  80.428  1.00  0.00    -0.504 OA
ATOM     21  H   UNL     1       0.546  74.092  80.887  1.00  0.00     0.293 HD
ENDBRANCH  17  20
ENDBRANCH   1  12
BRANCH   2  22
ATOM     22  O   UNL     1      -1.233  75.976  75.413  1.00  0.00    -0.502 OA
ATOM     23  H   UNL     1      -2.093  75.900  74.883  1.00  0.00     0.293 HD
ENDBRANCH   2  22
BRANCH   6  24
ATOM     24  O   UNL     1      -1.345  80.541  72.924  1.00  0.00    -0.507 OA
ATOM     25  H   UNL     1      -1.506  81.294  72.266  1.00  0.00     0.293 HD
ENDBRANCH   6  24
BRANCH   8  26
ATOM     26  O   UNL     1       2.898  82.453  74.199  1.00  0.00    -0.508 OA
ATOM     27  H   UNL     1       2.984  83.138  74.941  1.00  0.00     0.293 HD
ENDBRANCH   8  26
TORSDOF 6
ENDMDL
MODEL 9
REMARK VINA RESULT:    -6.045      8.639     11.443
REMARK INTER + INTRA:          -7.548
REMARK INTER:                  -7.715
REMARK INTRA:                   0.168
REMARK UNBOUND:                -0.266
REMARK SMILES O=c1c(O)c(-c2ccc(O)c(O)c2)oc2cc(O)cc(O)c12
REMARK SMILES IDX 5 1 3 2 2 3 1 4 22 5 20 6 19 7 17 8 16 9 15 10 14 11 6 12
REMARK SMILES IDX 7 13 8 14 9 15 13 16 11 17 10 18 12 20 4 22 21 24 18 26
REMARK H PARENT 10 19 12 21 4 23 21 25 18 27
REMARK Flexibility Score: inf
ROOT
ATOM      1  C   UNL     1       0.486  78.269  75.471  1.00  0.00     0.180 A 
ATOM      2  C   UNL     1      -0.805  77.715  75.566  1.00  0.00     0.208 A 
ATOM      3  C   UNL     1      -0.959  76.453  76.161  1.00  0.00     0.238 A 
ATOM      4  O   UNL     1      -2.109  75.942  76.242  1.00  0.00    -0.285 OA
ATOM      5  C   UNL     1       0.171  75.777  76.666  1.00  0.00     0.111 A 
ATOM      6  C   UNL     1       0.101  74.505  77.283  1.00  0.00     0.134 A 
ATOM      7  C   UNL     1       1.272  73.902  77.769  1.00  0.00     0.093 A 
ATOM      8  C   UNL     1       2.505  74.545  77.651  1.00  0.00     0.123 A 
ATOM      9  C   UNL     1       2.581  75.802  77.042  1.00  0.00     0.094 A 
ATOM     10  C   UNL     1       1.426  76.419  76.550  1.00  0.00     0.146 A 
ATOM     11  O   UNL     1       1.526  77.610  75.972  1.00  0.00    -0.452 OA
ENDROOT
BRANCH   1  12
ATOM     12  C   UNL     1       0.732  79.586  74.841  1.00  0.00     0.025 A 
ATOM     13  C   UNL     1      -0.012  80.016  73.727  1.00  0.00     0.016 A 
ATOM     14  C   UNL     1       0.255  81.253  73.135  1.00  0.00     0.051 A 
ATOM     15  C   UNL     1       1.275  82.071  73.636  1.00  0.00     0.157 A 
ATOM     16  C   UNL     1       1.769  80.401  75.326  1.00  0.00     0.062 A 
ATOM     17  C   UNL     1       2.036  81.643  74.731  1.00  0.00     0.158 A 
BRANCH  15  18
ATOM     18  O   UNL     1       1.543  83.306  73.048  1.00  0.00    -0.504 OA
ATOM     19  H   UNL     1       0.924  84.098  73.173  1.00  0.00     0.293 HD
ENDBRANCH  15  18
BRANCH  17  20
ATOM     20  O   UNL     1       3.056  82.455  75.223  1.00  0.00    -0.504 OA
ATOM     21  H   UNL     1       3.310  83.325  74.769  1.00  0.00     0.293 HD
ENDBRANCH  17  20
ENDBRANCH   1  12
BRANCH   2  22
ATOM     22  O   UNL     1      -1.915  78.426  75.103  1.00  0.00    -0.502 OA
ATOM     23  H   UNL     1      -2.601  78.015  74.481  1.00  0.00     0.293 HD
ENDBRANCH   2  22
BRANCH   6  24
ATOM     24  O   UNL     1      -1.117  73.837  77.416  1.00  0.00    -0.507 OA
ATOM     25  H   UNL     1      -1.445  73.501  78.315  1.00  0.00     0.293 HD
ENDBRANCH   6  24
BRANCH   8  26
ATOM     26  O   UNL     1       3.652  73.925  78.143  1.00  0.00    -0.508 OA
ATOM     27  H   UNL     1       4.183  74.324  78.908  1.00  0.00     0.293 HD
ENDBRANCH   8  26
TORSDOF 6
ENDMDL
