MODEL 1
REMARK VINA RESULT:    -4.714      0.000      0.000
REMARK INTER + INTRA:          -4.990
REMARK INTER:                  -4.990
REMARK INTRA:                   0.000
REMARK UNBOUND:                 0.000
REMARK SMILES O=c1ccc2cc(O)c(O)cc2o1
REMARK SMILES IDX 4 1 3 2 2 3 1 4 13 5 12 6 11 7 9 8 7 9 6 10 5 11 8 12 10 14
REMARK H PARENT 8 13 10 15
REMARK Flexibility Score: inf
ROOT
ATOM      1  C   UNL     1      22.056   6.150  24.495  1.00  0.00     0.019 A 
ATOM      2  C   UNL     1      20.767   6.503  24.892  1.00  0.00     0.094 A 
ATOM      3  C   UNL     1      20.080   5.671  25.783  1.00  0.00     0.336 A 
ATOM      4  O   UNL     1      18.916   5.973  26.153  1.00  0.00    -0.246 OA
ATOM      5  O   UNL     1      20.650   4.560  26.242  1.00  0.00    -0.423 OA
ATOM      6  C   UNL     1      21.877   4.186  25.888  1.00  0.00     0.142 A 
ATOM      7  C   UNL     1      22.425   3.008  26.404  1.00  0.00     0.098 A 
ATOM      8  C   UNL     1      23.718   2.609  26.033  1.00  0.00     0.161 A 
ATOM      9  C   UNL     1      24.467   3.394  25.143  1.00  0.00     0.158 A 
ATOM     10  C   UNL     1      23.923   4.578  24.624  1.00  0.00     0.062 A 
ATOM     11  C   UNL     1      22.630   4.976  24.993  1.00  0.00     0.022 A 
ENDROOT
BRANCH   9  12
ATOM     12  O   UNL     1      25.751   2.991  24.781  1.00  0.00    -0.504 OA
ATOM     13  H   UNL     1      26.568   3.300  25.294  1.00  0.00     0.293 HD
ENDBRANCH   9  12
BRANCH   8  14
ATOM     14  O   UNL     1      24.267   1.434  26.545  1.00  0.00    -0.504 OA
ATOM     15  H   UNL     1      24.027   0.527  26.163  1.00  0.00     0.293 HD
ENDBRANCH   8  14
TORSDOF 2
ENDMDL
MODEL 2
REMARK VINA RESULT:    -4.417      1.648      2.666
REMARK INTER + INTRA:          -4.675
REMARK INTER:                  -4.675
REMARK INTRA:                   0.000
REMARK UNBOUND:                 0.000
REMARK SMILES O=c1ccc2cc(O)c(O)cc2o1
REMARK SMILES IDX 4 1 3 2 2 3 1 4 13 5 12 6 11 7 9 8 7 9 6 10 5 11 8 12 10 14
REMARK H PARENT 8 13 10 15
REMARK Flexibility Score: inf
ROOT
ATOM      1  C   UNL     1      21.148   3.970  25.169  1.00  0.00     0.019 A 
ATOM      2  C   UNL     1      20.134   4.914  25.332  1.00  0.00     0.094 A 
ATOM      3  C   UNL     1      20.409   6.259  25.059  1.00  0.00     0.336 A 
ATOM      4  O   UNL     1      19.507   7.125  25.199  1.00  0.00    -0.246 OA
ATOM      5  O   UNL     1      21.620   6.629  24.651  1.00  0.00    -0.423 OA
ATOM      6  C   UNL     1      22.615   5.761  24.484  1.00  0.00     0.142 A 
ATOM      7  C   UNL     1      23.868   6.209  24.053  1.00  0.00     0.098 A 
ATOM      8  C   UNL     1      24.920   5.298  23.875  1.00  0.00     0.161 A 
ATOM      9  C   UNL     1      24.718   3.933  24.129  1.00  0.00     0.158 A 
ATOM     10  C   UNL     1      23.464   3.479  24.562  1.00  0.00     0.062 A 
ATOM     11  C   UNL     1      22.411   4.388  24.740  1.00  0.00     0.022 A 
ENDROOT
BRANCH   9  12
ATOM     12  O   UNL     1      25.769   3.036  23.950  1.00  0.00    -0.504 OA
ATOM     13  H   UNL     1      25.767   2.123  24.391  1.00  0.00     0.293 HD
ENDBRANCH   9  12
BRANCH   8  14
ATOM     14  O   UNL     1      26.170   5.741  23.445  1.00  0.00    -0.504 OA
ATOM     15  H   UNL     1      26.633   6.528  23.885  1.00  0.00     0.293 HD
ENDBRANCH   8  14
TORSDOF 2
ENDMDL
MODEL 3
REMARK VINA RESULT:    -4.401      2.782      3.888
REMARK INTER + INTRA:          -4.659
REMARK INTER:                  -4.659
REMARK INTRA:                   0.000
REMARK UNBOUND:                 0.000
REMARK SMILES O=c1ccc2cc(O)c(O)cc2o1
REMARK SMILES IDX 4 1 3 2 2 3 1 4 13 5 12 6 11 7 9 8 7 9 6 10 5 11 8 12 10 14
REMARK H PARENT 8 13 10 15
REMARK Flexibility Score: inf
ROOT
ATOM      1  C   UNL     1      23.862   6.714  24.527  1.00  0.00     0.019 A 
ATOM      2  C   UNL     1      22.759   6.136  25.155  1.00  0.00     0.094 A 
ATOM      3  C   UNL     1      22.462   4.792  24.904  1.00  0.00     0.336 A 
ATOM      4  O   UNL     1      21.472   4.253  25.461  1.00  0.00    -0.246 OA
ATOM      5  O   UNL     1      23.223   4.078  24.078  1.00  0.00    -0.423 OA
ATOM      6  C   UNL     1      24.283   4.590  23.457  1.00  0.00     0.142 A 
ATOM      7  C   UNL     1      25.045   3.790  22.600  1.00  0.00     0.098 A 
ATOM      8  C   UNL     1      26.163   4.326  21.944  1.00  0.00     0.161 A 
ATOM      9  C   UNL     1      26.522   5.667  22.147  1.00  0.00     0.158 A 
ATOM     10  C   UNL     1      25.761   6.473  23.007  1.00  0.00     0.062 A 
ATOM     11  C   UNL     1      24.643   5.939  23.663  1.00  0.00     0.022 A 
ENDROOT
BRANCH   9  12
ATOM     12  O   UNL     1      27.635   6.190  21.492  1.00  0.00    -0.504 OA
ATOM     13  H   UNL     1      27.817   5.990  20.515  1.00  0.00     0.293 HD
ENDBRANCH   9  12
BRANCH   8  14
ATOM     14  O   UNL     1      26.925   3.531  21.088  1.00  0.00    -0.504 OA
ATOM     15  H   UNL     1      26.700   2.557  20.930  1.00  0.00     0.293 HD
ENDBRANCH   8  14
TORSDOF 2
ENDMDL
MODEL 4
REMARK VINA RESULT:    -4.291      2.881      4.142
REMARK INTER + INTRA:          -4.542
REMARK INTER:                  -4.542
REMARK INTRA:                   0.000
REMARK UNBOUND:                 0.000
REMARK SMILES O=c1ccc2cc(O)c(O)cc2o1
REMARK SMILES IDX 4 1 3 2 2 3 1 4 13 5 12 6 11 7 9 8 7 9 6 10 5 11 8 12 10 14
REMARK H PARENT 8 13 10 15
REMARK Flexibility Score: inf
ROOT
ATOM      1  C   UNL     1      23.229   3.974  24.466  1.00  0.00     0.019 A 
ATOM      2  C   UNL     1      22.486   4.785  25.324  1.00  0.00     0.094 A 
ATOM      3  C   UNL     1      22.774   6.153  25.384  1.00  0.00     0.336 A 
ATOM      4  O   UNL     1      22.115   6.901  26.152  1.00  0.00    -0.246 OA
ATOM      5  O   UNL     1      23.742   6.671  24.631  1.00  0.00    -0.423 OA
ATOM      6  C   UNL     1      24.474   5.933  23.800  1.00  0.00     0.142 A 
ATOM      7  C   UNL     1      25.478   6.533  23.034  1.00  0.00     0.098 A 
ATOM      8  C   UNL     1      26.253   5.760  22.156  1.00  0.00     0.161 A 
ATOM      9  C   UNL     1      26.021   4.381  22.043  1.00  0.00     0.158 A 
ATOM     10  C   UNL     1      25.015   3.774  22.809  1.00  0.00     0.062 A 
ATOM     11  C   UNL     1      24.241   4.546  23.688  1.00  0.00     0.022 A 
ENDROOT
BRANCH   9  12
ATOM     12  O   UNL     1      26.795   3.621  21.169  1.00  0.00    -0.504 OA
ATOM     13  H   UNL     1      27.641   3.991  20.751  1.00  0.00     0.293 HD
ENDBRANCH   9  12
BRANCH   8  14
ATOM     14  O   UNL     1      27.255   6.355  21.390  1.00  0.00    -0.504 OA
ATOM     15  H   UNL     1      27.845   5.808  20.775  1.00  0.00     0.293 HD
ENDBRANCH   8  14
TORSDOF 2
ENDMDL
MODEL 5
REMARK VINA RESULT:    -4.277      1.648      2.529
REMARK INTER + INTRA:          -4.527
REMARK INTER:                  -4.527
REMARK INTRA:                   0.000
REMARK UNBOUND:                 0.000
REMARK SMILES O=c1ccc2cc(O)c(O)cc2o1
REMARK SMILES IDX 4 1 3 2 2 3 1 4 13 5 12 6 11 7 9 8 7 9 6 10 5 11 8 12 10 14
REMARK H PARENT 8 13 10 15
REMARK Flexibility Score: inf
ROOT
ATOM      1  C   UNL     1      21.129   3.921  25.615  1.00  0.00     0.019 A 
ATOM      2  C   UNL     1      20.799   5.129  25.001  1.00  0.00     0.094 A 
ATOM      3  C   UNL     1      21.821   6.030  24.682  1.00  0.00     0.336 A 
ATOM      4  O   UNL     1      21.543   7.125  24.128  1.00  0.00    -0.246 OA
ATOM      5  O   UNL     1      23.088   5.736  24.961  1.00  0.00    -0.423 OA
ATOM      6  C   UNL     1      23.447   4.596  25.547  1.00  0.00     0.142 A 
ATOM      7  C   UNL     1      24.795   4.342  25.816  1.00  0.00     0.098 A 
ATOM      8  C   UNL     1      25.178   3.142  26.433  1.00  0.00     0.161 A 
ATOM      9  C   UNL     1      24.207   2.191  26.782  1.00  0.00     0.158 A 
ATOM     10  C   UNL     1      22.853   2.440  26.514  1.00  0.00     0.062 A 
ATOM     11  C   UNL     1      22.470   3.640  25.897  1.00  0.00     0.022 A 
ENDROOT
BRANCH   9  12
ATOM     12  O   UNL     1      24.597   1.001  27.394  1.00  0.00    -0.504 OA
ATOM     13  H   UNL     1      25.252   0.993  28.167  1.00  0.00     0.293 HD
ENDBRANCH   9  12
BRANCH   8  14
ATOM     14  O   UNL     1      26.522   2.886  26.703  1.00  0.00    -0.504 OA
ATOM     15  H   UNL     1      26.802   2.263  27.451  1.00  0.00     0.293 HD
ENDBRANCH   8  14
TORSDOF 2
ENDMDL
MODEL 6
REMARK VINA RESULT:    -4.224      1.365      2.156
REMARK INTER + INTRA:          -4.471
REMARK INTER:                  -4.471
REMARK INTRA:                   0.000
REMARK UNBOUND:                 0.000
REMARK SMILES O=c1ccc2cc(O)c(O)cc2o1
REMARK SMILES IDX 4 1 3 2 2 3 1 4 13 5 12 6 11 7 9 8 7 9 6 10 5 11 8 12 10 14
REMARK H PARENT 8 13 10 15
REMARK Flexibility Score: inf
ROOT
ATOM      1  C   UNL     1      21.773   4.825  27.229  1.00  0.00     0.019 A 
ATOM      2  C   UNL     1      20.601   5.408  26.749  1.00  0.00     0.094 A 
ATOM      3  C   UNL     1      20.458   5.611  25.372  1.00  0.00     0.336 A 
ATOM      4  O   UNL     1      19.407   6.135  24.920  1.00  0.00    -0.246 OA
ATOM      5  O   UNL     1      21.429   5.252  24.534  1.00  0.00    -0.423 OA
ATOM      6  C   UNL     1      22.563   4.695  24.950  1.00  0.00     0.142 A 
ATOM      7  C   UNL     1      23.548   4.339  24.023  1.00  0.00     0.098 A 
ATOM      8  C   UNL     1      24.745   3.751  24.457  1.00  0.00     0.161 A 
ATOM      9  C   UNL     1      24.959   3.517  25.824  1.00  0.00     0.158 A 
ATOM     10  C   UNL     1      23.974   3.871  26.758  1.00  0.00     0.062 A 
ATOM     11  C   UNL     1      22.777   4.460  26.325  1.00  0.00     0.022 A 
ENDROOT
BRANCH   9  12
ATOM     12  O   UNL     1      26.151   2.932  26.245  1.00  0.00    -0.504 OA
ATOM     13  H   UNL     1      26.711   2.362  25.622  1.00  0.00     0.293 HD
ENDBRANCH   9  12
BRANCH   8  14
ATOM     14  O   UNL     1      25.729   3.395  23.535  1.00  0.00    -0.504 OA
ATOM     15  H   UNL     1      26.359   4.084  23.141  1.00  0.00     0.293 HD
ENDBRANCH   8  14
TORSDOF 2
ENDMDL
MODEL 7
REMARK VINA RESULT:    -4.096      2.024      4.595
REMARK INTER + INTRA:          -4.336
REMARK INTER:                  -4.336
REMARK INTRA:                   0.000
REMARK UNBOUND:                 0.000
REMARK SMILES O=c1ccc2cc(O)c(O)cc2o1
REMARK SMILES IDX 4 1 3 2 2 3 1 4 13 5 12 6 11 7 9 8 7 9 6 10 5 11 8 12 10 14
REMARK H PARENT 8 13 10 15
REMARK Flexibility Score: inf
ROOT
ATOM      1  C   UNL     1      25.024   6.364  23.324  1.00  0.00     0.019 A 
ATOM      2  C   UNL     1      25.809   5.673  22.401  1.00  0.00     0.094 A 
ATOM      3  C   UNL     1      25.685   4.282  22.312  1.00  0.00     0.336 A 
ATOM      4  O   UNL     1      26.384   3.641  21.485  1.00  0.00    -0.246 OA
ATOM      5  O   UNL     1      24.832   3.630  23.098  1.00  0.00    -0.423 OA
ATOM      6  C   UNL     1      24.066   4.250  23.993  1.00  0.00     0.142 A 
ATOM      7  C   UNL     1      23.187   3.513  24.792  1.00  0.00     0.098 A 
ATOM      8  C   UNL     1      22.378   4.162  25.736  1.00  0.00     0.161 A 
ATOM      9  C   UNL     1      22.447   5.556  25.881  1.00  0.00     0.158 A 
ATOM     10  C   UNL     1      23.327   6.301  25.082  1.00  0.00     0.062 A 
ATOM     11  C   UNL     1      24.137   5.652  24.138  1.00  0.00     0.022 A 
ENDROOT
BRANCH   9  12
ATOM     12  O   UNL     1      21.640   6.192  26.821  1.00  0.00    -0.504 OA
ATOM     13  H   UNL     1      21.770   7.169  27.057  1.00  0.00     0.293 HD
ENDBRANCH   9  12
BRANCH   8  14
ATOM     14  O   UNL     1      21.501   3.429  26.534  1.00  0.00    -0.504 OA
ATOM     15  H   UNL     1      21.658   2.448  26.731  1.00  0.00     0.293 HD
ENDBRANCH   8  14
TORSDOF 2
ENDMDL
MODEL 8
REMARK VINA RESULT:    -4.010      1.974      4.604
REMARK INTER + INTRA:          -4.244
REMARK INTER:                  -4.244
REMARK INTRA:                   0.000
REMARK UNBOUND:                 0.000
REMARK SMILES O=c1ccc2cc(O)c(O)cc2o1
REMARK SMILES IDX 4 1 3 2 2 3 1 4 13 5 12 6 11 7 9 8 7 9 6 10 5 11 8 12 10 14
REMARK H PARENT 8 13 10 15
REMARK Flexibility Score: inf
ROOT
ATOM      1  C   UNL     1      25.128   5.649  26.756  1.00  0.00     0.019 A 
ATOM      2  C   UNL     1      26.131   4.804  27.232  1.00  0.00     0.094 A 
ATOM      3  C   UNL     1      25.940   3.420  27.164  1.00  0.00     0.336 A 
ATOM      4  O   UNL     1      26.833   2.641  27.588  1.00  0.00    -0.246 OA
ATOM      5  O   UNL     1      24.819   2.919  26.652  1.00  0.00    -0.423 OA
ATOM      6  C   UNL     1      23.837   3.689  26.188  1.00  0.00     0.142 A 
ATOM      7  C   UNL     1      22.681   3.105  25.661  1.00  0.00     0.098 A 
ATOM      8  C   UNL     1      21.644   3.913  25.171  1.00  0.00     0.161 A 
ATOM      9  C   UNL     1      21.764   5.310  25.206  1.00  0.00     0.158 A 
ATOM     10  C   UNL     1      22.923   5.901  25.733  1.00  0.00     0.062 A 
ATOM     11  C   UNL     1      23.960   5.094  26.224  1.00  0.00     0.022 A 
ENDROOT
BRANCH   9  12
ATOM     12  O   UNL     1      20.729   6.104  24.716  1.00  0.00    -0.504 OA
ATOM     13  H   UNL     1      20.436   6.054  23.748  1.00  0.00     0.293 HD
ENDBRANCH   9  12
BRANCH   8  14
ATOM     14  O   UNL     1      20.489   3.334  24.645  1.00  0.00    -0.504 OA
ATOM     15  H   UNL     1      19.648   3.235  25.199  1.00  0.00     0.293 HD
ENDBRANCH   8  14
TORSDOF 2
ENDMDL
MODEL 9
REMARK VINA RESULT:    -4.008      9.227     10.814
REMARK INTER + INTRA:          -4.243
REMARK INTER:                  -4.243
REMARK INTRA:                   0.000
REMARK UNBOUND:                 0.000
REMARK SMILES O=c1ccc2cc(O)c(O)cc2o1
REMARK SMILES IDX 4 1 3 2 2 3 1 4 13 5 12 6 11 7 9 8 7 9 6 10 5 11 8 12 10 14
REMARK H PARENT 8 13 10 15
REMARK Flexibility Score: inf
ROOT
ATOM      1  C   UNL     1      15.785  -4.469  28.535  1.00  0.00     0.019 A 
ATOM      2  C   UNL     1      15.361  -5.624  27.879  1.00  0.00     0.094 A 
ATOM      3  C   UNL     1      16.316  -6.451  27.277  1.00  0.00     0.336 A 
ATOM      4  O   UNL     1      15.953  -7.498  26.681  1.00  0.00    -0.246 OA
ATOM      5  O   UNL     1      17.608  -6.138  27.332  1.00  0.00    -0.423 OA
ATOM      6  C   UNL     1      18.055  -5.045  27.946  1.00  0.00     0.142 A 
ATOM      7  C   UNL     1      19.425  -4.768  27.971  1.00  0.00     0.098 A 
ATOM      8  C   UNL     1      19.901  -3.618  28.618  1.00  0.00     0.161 A 
ATOM      9  C   UNL     1      19.002  -2.741  29.244  1.00  0.00     0.158 A 
ATOM     10  C   UNL     1      17.626  -3.015  29.223  1.00  0.00     0.062 A 
ATOM     11  C   UNL     1      17.150  -4.164  28.576  1.00  0.00     0.022 A 
ENDROOT
BRANCH   9  12
ATOM     12  O   UNL     1      19.483  -1.601  29.885  1.00  0.00    -0.504 OA
ATOM     13  H   UNL     1      20.345  -1.616  30.416  1.00  0.00     0.293 HD
ENDBRANCH   9  12
BRANCH   8  14
ATOM     14  O   UNL     1      21.266  -3.339  28.645  1.00  0.00    -0.504 OA
ATOM     15  H   UNL     1      21.839  -3.574  29.447  1.00  0.00     0.293 HD
ENDBRANCH   8  14
TORSDOF 2
ENDMDL
