MODEL 1
REMARK VINA RESULT:    -4.508      0.000      0.000
REMARK INTER + INTRA:          -7.812
REMARK INTER:                  -7.143
REMARK INTRA:                  -0.668
REMARK UNBOUND:                -0.668
REMARK SMILES CCCCCCCCCCCC(=O)[O-]
REMARK SMILES IDX 7 1 8 2 9 3 10 4 11 5 12 6 13 7 14 8 6 9 5 10 4 11 3 12 2 13
REMARK SMILES IDX 1 14
REMARK H PARENT
REMARK Flexibility Score: inf
ROOT
ATOM      1  C   UNL     1       9.510 -12.537   5.321  1.00  0.00     0.000 C 
ENDROOT
BRANCH   1   2
ATOM      2  C   UNL     1      10.262 -11.372   4.655  1.00  0.00     0.000 C 
BRANCH   2   3
ATOM      3  C   UNL     1      11.788 -11.561   4.683  1.00  0.00     0.000 C 
BRANCH   3   4
ATOM      4  C   UNL     1      12.510 -10.442   5.455  1.00  0.00     0.006 C 
BRANCH   4   5
ATOM      5  C   UNL     1      13.384  -9.577   4.537  1.00  0.00     0.053 C 
BRANCH   5   6
ATOM      6  C   UNL     1      12.560  -8.770   3.581  1.00  0.00     0.041 C 
ATOM      7  O   UNL     1      11.843  -7.825   4.004  1.00  0.00    -0.550 OA
ATOM      8  O   UNL     1      12.559  -9.081   2.226  1.00  0.00    -0.550 OA
ENDBRANCH   5   6
ENDBRANCH   4   5
ENDBRANCH   3   4
ENDBRANCH   2   3
ENDBRANCH   1   2
BRANCH   1   9
ATOM      9  C   UNL     1       8.442 -12.057   6.318  1.00  0.00     0.000 C 
BRANCH   9  10
ATOM     10  C   UNL     1       7.967 -13.171   7.263  1.00  0.00    -0.000 C 
BRANCH  10  11
ATOM     11  C   UNL     1       8.737 -14.472   7.008  1.00  0.00    -0.000 C 
BRANCH  11  12
ATOM     12  C   UNL     1       7.779 -15.615   6.639  1.00  0.00    -0.000 C 
BRANCH  12  13
ATOM     13  C   UNL     1       7.563 -15.738   5.123  1.00  0.00    -0.003 C 
ATOM     14  C   UNL     1       6.090 -15.904   4.747  1.00  0.00     0.004 C 
ENDBRANCH  12  13
ENDBRANCH  11  12
ENDBRANCH  10  11
ENDBRANCH   9  10
ENDBRANCH   1   9
TORSDOF 10
ENDMDL
MODEL 2
REMARK VINA RESULT:    -4.503     12.128     14.416
REMARK INTER + INTRA:          -7.804
REMARK INTER:                  -7.120
REMARK INTRA:                  -0.684
REMARK UNBOUND:                -0.668
REMARK SMILES CCCCCCCCCCCC(=O)[O-]
REMARK SMILES IDX 7 1 8 2 9 3 10 4 11 5 12 6 13 7 14 8 6 9 5 10 4 11 3 12 2 13
REMARK SMILES IDX 1 14
REMARK H PARENT
REMARK Flexibility Score: inf
ROOT
ATOM      1  C   UNL     1       5.418 -15.612  -6.100  1.00  0.00     0.000 C 
ENDROOT
BRANCH   1   2
ATOM      2  C   UNL     1       4.720 -16.123  -4.828  1.00  0.00     0.000 C 
BRANCH   2   3
ATOM      3  C   UNL     1       4.875 -17.641  -4.639  1.00  0.00     0.000 C 
BRANCH   3   4
ATOM      4  C   UNL     1       3.543 -18.397  -4.794  1.00  0.00     0.006 C 
BRANCH   4   5
ATOM      5  C   UNL     1       3.116 -19.090  -3.493  1.00  0.00     0.053 C 
BRANCH   5   6
ATOM      6  C   UNL     1       2.638 -18.106  -2.469  1.00  0.00     0.041 C 
ATOM      7  O   UNL     1       1.656 -17.357  -2.719  1.00  0.00    -0.550 OA
ATOM      8  O   UNL     1       3.296 -17.993  -1.250  1.00  0.00    -0.550 OA
ENDBRANCH   5   6
ENDBRANCH   4   5
ENDBRANCH   3   4
ENDBRANCH   2   3
ENDBRANCH   1   2
BRANCH   1   9
ATOM      9  C   UNL     1       4.468 -14.828  -7.021  1.00  0.00     0.000 C 
BRANCH   9  10
ATOM     10  C   UNL     1       5.069 -14.565  -8.410  1.00  0.00    -0.000 C 
BRANCH  10  11
ATOM     11  C   UNL     1       6.424 -15.266  -8.564  1.00  0.00    -0.000 C 
BRANCH  11  12
ATOM     12  C   UNL     1       7.534 -14.255  -8.890  1.00  0.00    -0.000 C 
BRANCH  12  13
ATOM     13  C   UNL     1       8.233 -13.718  -7.632  1.00  0.00    -0.003 C 
ATOM     14  C   UNL     1       8.437 -12.204  -7.668  1.00  0.00     0.004 C 
ENDBRANCH  12  13
ENDBRANCH  11  12
ENDBRANCH  10  11
ENDBRANCH   9  10
ENDBRANCH   1   9
TORSDOF 10
ENDMDL
MODEL 3
REMARK VINA RESULT:    -4.502      3.532      5.979
REMARK INTER + INTRA:          -7.803
REMARK INTER:                  -7.155
REMARK INTRA:                  -0.648
REMARK UNBOUND:                -0.668
REMARK SMILES CCCCCCCCCCCC(=O)[O-]
REMARK SMILES IDX 7 1 8 2 9 3 10 4 11 5 12 6 13 7 14 8 6 9 5 10 4 11 3 12 2 13
REMARK SMILES IDX 1 14
REMARK H PARENT
REMARK Flexibility Score: inf
ROOT
ATOM      1  C   UNL     1      11.743  -8.442   2.585  1.00  0.00     0.000 C 
ENDROOT
BRANCH   1   2
ATOM      2  C   UNL     1      12.741  -9.127   1.635  1.00  0.00     0.000 C 
BRANCH   2   3
ATOM      3  C   UNL     1      12.804  -8.449   0.257  1.00  0.00     0.000 C 
BRANCH   3   4
ATOM      4  C   UNL     1      14.076  -8.816  -0.528  1.00  0.00     0.006 C 
BRANCH   4   5
ATOM      5  C   UNL     1      14.514  -7.694  -1.479  1.00  0.00     0.053 C 
BRANCH   5   6
ATOM      6  C   UNL     1      13.557  -7.525  -2.619  1.00  0.00     0.041 C 
ATOM      7  O   UNL     1      13.319  -8.488  -3.395  1.00  0.00    -0.550 OA
ATOM      8  O   UNL     1      12.950  -6.295  -2.843  1.00  0.00    -0.550 OA
ENDBRANCH   5   6
ENDBRANCH   4   5
ENDBRANCH   3   4
ENDBRANCH   2   3
ENDBRANCH   1   2
BRANCH   1   9
ATOM      9  C   UNL     1      12.282  -8.321   4.020  1.00  0.00     0.000 C 
BRANCH   9  10
ATOM     10  C   UNL     1      13.206  -9.485   4.409  1.00  0.00    -0.000 C 
BRANCH  10  11
ATOM     11  C   UNL     1      12.521 -10.416   5.417  1.00  0.00    -0.000 C 
BRANCH  11  12
ATOM     12  C   UNL     1      11.743 -11.529   4.699  1.00  0.00    -0.000 C 
BRANCH  12  13
ATOM     13  C   UNL     1      10.234 -11.251   4.639  1.00  0.00    -0.003 C 
ATOM     14  C   UNL     1       9.438 -12.084   5.643  1.00  0.00     0.004 C 
ENDBRANCH  12  13
ENDBRANCH  11  12
ENDBRANCH  10  11
ENDBRANCH   9  10
ENDBRANCH   1   9
TORSDOF 10
ENDMDL
MODEL 4
REMARK VINA RESULT:    -4.476      3.110      6.531
REMARK INTER + INTRA:          -7.760
REMARK INTER:                  -6.907
REMARK INTRA:                  -0.854
REMARK UNBOUND:                -0.668
REMARK SMILES CCCCCCCCCCCC(=O)[O-]
REMARK SMILES IDX 7 1 8 2 9 3 10 4 11 5 12 6 13 7 14 8 6 9 5 10 4 11 3 12 2 13
REMARK SMILES IDX 1 14
REMARK H PARENT
REMARK Flexibility Score: inf
ROOT
ATOM      1  C   UNL     1       8.920 -11.851   4.648  1.00  0.00     0.000 C 
ENDROOT
BRANCH   1   2
ATOM      2  C   UNL     1       7.711 -12.242   5.515  1.00  0.00     0.000 C 
BRANCH   2   3
ATOM      3  C   UNL     1       8.121 -12.733   6.913  1.00  0.00     0.000 C 
BRANCH   3   4
ATOM      4  C   UNL     1       8.071 -14.265   7.042  1.00  0.00     0.006 C 
BRANCH   4   5
ATOM      5  C   UNL     1       9.455 -14.906   6.869  1.00  0.00     0.053 C 
BRANCH   5   6
ATOM      6  C   UNL     1       9.694 -15.340   5.455  1.00  0.00     0.041 C 
ATOM      7  O   UNL     1      10.870 -15.481   5.026  1.00  0.00    -0.550 OA
ATOM      8  O   UNL     1       8.619 -15.560   4.602  1.00  0.00    -0.550 OA
ENDBRANCH   5   6
ENDBRANCH   4   5
ENDBRANCH   3   4
ENDBRANCH   2   3
ENDBRANCH   1   2
BRANCH   1   9
ATOM      9  C   UNL     1      10.179 -11.568   5.485  1.00  0.00     0.000 C 
BRANCH   9  10
ATOM     10  C   UNL     1      11.428 -11.338   4.621  1.00  0.00    -0.000 C 
BRANCH  10  11
ATOM     11  C   UNL     1      12.509 -10.589   5.408  1.00  0.00    -0.000 C 
BRANCH  11  12
ATOM     12  C   UNL     1      13.159  -9.495   4.547  1.00  0.00    -0.000 C 
BRANCH  12  13
ATOM     13  C   UNL     1      12.130  -8.524   3.950  1.00  0.00    -0.003 C 
ATOM     14  C   UNL     1      12.264  -8.377   2.434  1.00  0.00     0.004 C 
ENDBRANCH  12  13
ENDBRANCH  11  12
ENDBRANCH  10  11
ENDBRANCH   9  10
ENDBRANCH   1   9
TORSDOF 10
ENDMDL
MODEL 5
REMARK VINA RESULT:    -4.459     11.194     12.843
REMARK INTER + INTRA:          -7.734
REMARK INTER:                  -7.035
REMARK INTRA:                  -0.699
REMARK UNBOUND:                -0.668
REMARK SMILES CCCCCCCCCCCC(=O)[O-]
REMARK SMILES IDX 7 1 8 2 9 3 10 4 11 5 12 6 13 7 14 8 6 9 5 10 4 11 3 12 2 13
REMARK SMILES IDX 1 14
REMARK H PARENT
REMARK Flexibility Score: inf
ROOT
ATOM      1  C   UNL     1       5.861 -15.851  -5.865  1.00  0.00     0.000 C 
ENDROOT
BRANCH   1   2
ATOM      2  C   UNL     1       4.685 -15.268  -6.666  1.00  0.00     0.000 C 
BRANCH   2   3
ATOM      3  C   UNL     1       5.130 -14.644  -8.000  1.00  0.00     0.000 C 
BRANCH   3   4
ATOM      4  C   UNL     1       6.332 -15.374  -8.624  1.00  0.00     0.006 C 
BRANCH   4   5
ATOM      5  C   UNL     1       7.405 -14.399  -9.126  1.00  0.00     0.053 C 
BRANCH   5   6
ATOM      6  C   UNL     1       8.044 -13.646  -7.999  1.00  0.00     0.041 C 
ATOM      7  O   UNL     1       8.016 -12.387  -7.982  1.00  0.00    -0.550 OA
ATOM      8  O   UNL     1       8.695 -14.333  -6.982  1.00  0.00    -0.550 OA
ENDBRANCH   5   6
ENDBRANCH   4   5
ENDBRANCH   3   4
ENDBRANCH   2   3
ENDBRANCH   1   2
BRANCH   1   9
ATOM      9  C   UNL     1       5.423 -16.961  -4.895  1.00  0.00     0.000 C 
BRANCH   9  10
ATOM     10  C   UNL     1       3.913 -17.237  -4.951  1.00  0.00    -0.000 C 
BRANCH  10  11
ATOM     11  C   UNL     1       3.596 -18.654  -4.459  1.00  0.00    -0.000 C 
BRANCH  11  12
ATOM     12  C   UNL     1       2.576 -18.623  -3.310  1.00  0.00    -0.000 C 
BRANCH  12  13
ATOM     13  C   UNL     1       2.714 -17.370  -2.432  1.00  0.00    -0.003 C 
ATOM     14  C   UNL     1       3.174 -17.692  -1.010  1.00  0.00     0.004 C 
ENDBRANCH  12  13
ENDBRANCH  11  12
ENDBRANCH  10  11
ENDBRANCH   9  10
ENDBRANCH   1   9
TORSDOF 10
ENDMDL
MODEL 6
REMARK VINA RESULT:    -4.442      8.059     11.412
REMARK INTER + INTRA:          -7.707
REMARK INTER:                  -6.971
REMARK INTRA:                  -0.737
REMARK UNBOUND:                -0.668
REMARK SMILES CCCCCCCCCCCC(=O)[O-]
REMARK SMILES IDX 7 1 8 2 9 3 10 4 11 5 12 6 13 7 14 8 6 9 5 10 4 11 3 12 2 13
REMARK SMILES IDX 1 14
REMARK H PARENT
REMARK Flexibility Score: inf
ROOT
ATOM      1  C   UNL     1       4.287 -18.043  -1.163  1.00  0.00     0.000 C 
ENDROOT
BRANCH   1   2
ATOM      2  C   UNL     1       4.669 -18.589   0.223  1.00  0.00     0.000 C 
BRANCH   2   3
ATOM      3  C   UNL     1       3.744 -18.070   1.337  1.00  0.00     0.000 C 
BRANCH   3   4
ATOM      4  C   UNL     1       3.712 -18.999   2.563  1.00  0.00     0.006 C 
BRANCH   4   5
ATOM      5  C   UNL     1       5.010 -18.928   3.378  1.00  0.00     0.053 C 
BRANCH   5   6
ATOM      6  C   UNL     1       5.352 -17.520   3.758  1.00  0.00     0.041 C 
ATOM      7  O   UNL     1       6.493 -17.053   3.501  1.00  0.00    -0.550 OA
ATOM      8  O   UNL     1       4.420 -16.731   4.424  1.00  0.00    -0.550 OA
ENDBRANCH   5   6
ENDBRANCH   4   5
ENDBRANCH   3   4
ENDBRANCH   2   3
ENDBRANCH   1   2
BRANCH   1   9
ATOM      9  C   UNL     1       2.774 -17.809  -1.309  1.00  0.00     0.000 C 
BRANCH   9  10
ATOM     10  C   UNL     1       2.285 -17.963  -2.757  1.00  0.00    -0.000 C 
BRANCH  10  11
ATOM     11  C   UNL     1       3.061 -19.067  -3.484  1.00  0.00    -0.000 C 
BRANCH  11  12
ATOM     12  C   UNL     1       3.606 -18.564  -4.830  1.00  0.00    -0.000 C 
BRANCH  12  13
ATOM     13  C   UNL     1       3.998 -17.079  -4.790  1.00  0.00    -0.003 C 
ATOM     14  C   UNL     1       5.464 -16.845  -5.155  1.00  0.00     0.004 C 
ENDBRANCH  12  13
ENDBRANCH  11  12
ENDBRANCH  10  11
ENDBRANCH   9  10
ENDBRANCH   1   9
TORSDOF 10
ENDMDL
MODEL 7
REMARK VINA RESULT:    -4.388      7.880     11.229
REMARK INTER + INTRA:          -7.622
REMARK INTER:                  -6.962
REMARK INTRA:                  -0.659
REMARK UNBOUND:                -0.668
REMARK SMILES CCCCCCCCCCCC(=O)[O-]
REMARK SMILES IDX 7 1 8 2 9 3 10 4 11 5 12 6 13 7 14 8 6 9 5 10 4 11 3 12 2 13
REMARK SMILES IDX 1 14
REMARK H PARENT
REMARK Flexibility Score: inf
ROOT
ATOM      1  C   UNL     1       3.802 -17.857  -0.648  1.00  0.00     0.000 C 
ENDROOT
BRANCH   1   2
ATOM      2  C   UNL     1       2.378 -17.715  -1.213  1.00  0.00     0.000 C 
BRANCH   2   3
ATOM      3  C   UNL     1       2.356 -17.649  -2.749  1.00  0.00     0.000 C 
BRANCH   3   4
ATOM      4  C   UNL     1       2.943 -18.911  -3.406  1.00  0.00     0.006 C 
BRANCH   4   5
ATOM      5  C   UNL     1       3.585 -18.610  -4.767  1.00  0.00     0.053 C 
BRANCH   5   6
ATOM      6  C   UNL     1       4.557 -17.473  -4.684  1.00  0.00     0.041 C 
ATOM      7  O   UNL     1       5.563 -17.552  -3.930  1.00  0.00    -0.550 OA
ATOM      8  O   UNL     1       4.337 -16.313  -5.418  1.00  0.00    -0.550 OA
ENDBRANCH   5   6
ENDBRANCH   4   5
ENDBRANCH   3   4
ENDBRANCH   2   3
ENDBRANCH   1   2
BRANCH   1   9
ATOM      9  C   UNL     1       3.865 -17.603   0.867  1.00  0.00     0.000 C 
BRANCH   9  10
ATOM     10  C   UNL     1       3.824 -18.899   1.690  1.00  0.00    -0.000 C 
BRANCH  10  11
ATOM     11  C   UNL     1       3.807 -18.595   3.193  1.00  0.00    -0.000 C 
BRANCH  11  12
ATOM     12  C   UNL     1       3.447 -17.124   3.453  1.00  0.00    -0.000 C 
BRANCH  12  13
ATOM     13  C   UNL     1       4.412 -16.445   4.436  1.00  0.00    -0.003 C 
ATOM     14  C   UNL     1       5.815 -16.260   3.856  1.00  0.00     0.004 C 
ENDBRANCH  12  13
ENDBRANCH  11  12
ENDBRANCH  10  11
ENDBRANCH   9  10
ENDBRANCH   1   9
TORSDOF 10
ENDMDL
MODEL 8
REMARK VINA RESULT:    -4.385      8.633     11.657
REMARK INTER + INTRA:          -7.617
REMARK INTER:                  -6.906
REMARK INTRA:                  -0.710
REMARK UNBOUND:                -0.668
REMARK SMILES CCCCCCCCCCCC(=O)[O-]
REMARK SMILES IDX 7 1 8 2 9 3 10 4 11 5 12 6 13 7 14 8 6 9 5 10 4 11 3 12 2 13
REMARK SMILES IDX 1 14
REMARK H PARENT
REMARK Flexibility Score: inf
ROOT
ATOM      1  C   UNL     1      11.825  -9.155  -3.712  1.00  0.00     0.000 C 
ENDROOT
BRANCH   1   2
ATOM      2  C   UNL     1      12.068 -10.093  -4.908  1.00  0.00     0.000 C 
BRANCH   2   3
ATOM      3  C   UNL     1      12.164  -9.335  -6.242  1.00  0.00     0.000 C 
BRANCH   3   4
ATOM      4  C   UNL     1      11.847 -10.227  -7.455  1.00  0.00     0.006 C 
BRANCH   4   5
ATOM      5  C   UNL     1      10.682  -9.676  -8.289  1.00  0.00     0.053 C 
BRANCH   5   6
ATOM      6  C   UNL     1       9.354 -10.009  -7.680  1.00  0.00     0.041 C 
ATOM      7  O   UNL     1       8.762  -9.167  -6.954  1.00  0.00    -0.550 OA
ATOM      8  O   UNL     1       8.785 -11.260  -7.888  1.00  0.00    -0.550 OA
ENDBRANCH   5   6
ENDBRANCH   4   5
ENDBRANCH   3   4
ENDBRANCH   2   3
ENDBRANCH   1   2
BRANCH   1   9
ATOM      9  C   UNL     1      12.346  -7.730  -3.964  1.00  0.00     0.000 C 
BRANCH   9  10
ATOM     10  C   UNL     1      12.952  -7.088  -2.707  1.00  0.00    -0.000 C 
BRANCH  10  11
ATOM     11  C   UNL     1      14.349  -7.650  -2.423  1.00  0.00    -0.000 C 
BRANCH  11  12
ATOM     12  C   UNL     1      14.513  -7.992  -0.934  1.00  0.00    -0.000 C 
BRANCH  12  13
ATOM     13  C   UNL     1      13.487  -9.028  -0.449  1.00  0.00    -0.003 C 
ATOM     14  C   UNL     1      12.883  -8.671   0.909  1.00  0.00     0.004 C 
ENDBRANCH  12  13
ENDBRANCH  11  12
ENDBRANCH  10  11
ENDBRANCH   9  10
ENDBRANCH   1   9
TORSDOF 10
ENDMDL
MODEL 9
REMARK VINA RESULT:    -4.365     11.632     12.726
REMARK INTER + INTRA:          -7.584
REMARK INTER:                  -6.812
REMARK INTRA:                  -0.772
REMARK UNBOUND:                -0.668
REMARK SMILES CCCCCCCCCCCC(=O)[O-]
REMARK SMILES IDX 7 1 8 2 9 3 10 4 11 5 12 6 13 7 14 8 6 9 5 10 4 11 3 12 2 13
REMARK SMILES IDX 1 14
REMARK H PARENT
REMARK Flexibility Score: inf
ROOT
ATOM      1  C   UNL     1       9.542 -12.521  -7.543  1.00  0.00     0.000 C 
ENDROOT
BRANCH   1   2
ATOM      2  C   UNL     1       8.788 -11.183  -7.625  1.00  0.00     0.000 C 
BRANCH   2   3
ATOM      3  C   UNL     1       9.721  -9.997  -7.922  1.00  0.00     0.000 C 
BRANCH   3   4
ATOM      4  C   UNL     1      11.170 -10.436  -8.196  1.00  0.00     0.006 C 
BRANCH   4   5
ATOM      5  C   UNL     1      12.184  -9.629  -7.373  1.00  0.00     0.053 C 
BRANCH   5   6
ATOM      6  C   UNL     1      11.915  -9.731  -5.903  1.00  0.00     0.041 C 
ATOM      7  O   UNL     1      11.777  -8.688  -5.211  1.00  0.00    -0.550 OA
ATOM      8  O   UNL     1      11.848 -10.977  -5.291  1.00  0.00    -0.550 OA
ENDBRANCH   5   6
ENDBRANCH   4   5
ENDBRANCH   3   4
ENDBRANCH   2   3
ENDBRANCH   1   2
BRANCH   1   9
ATOM      9  C   UNL     1       8.595 -13.733  -7.530  1.00  0.00     0.000 C 
BRANCH   9  10
ATOM     10  C   UNL     1       7.772 -13.857  -8.820  1.00  0.00    -0.000 C 
BRANCH  10  11
ATOM     11  C   UNL     1       6.746 -14.991  -8.710  1.00  0.00    -0.000 C 
BRANCH  11  12
ATOM     12  C   UNL     1       6.441 -15.316  -7.239  1.00  0.00    -0.000 C 
BRANCH  12  13
ATOM     13  C   UNL     1       4.943 -15.224  -6.912  1.00  0.00    -0.003 C 
ATOM     14  C   UNL     1       4.218 -14.170  -7.749  1.00  0.00     0.004 C 
ENDBRANCH  12  13
ENDBRANCH  11  12
ENDBRANCH  10  11
ENDBRANCH   9  10
ENDBRANCH   1   9
TORSDOF 10
ENDMDL
