MODEL 1
REMARK VINA RESULT:    -4.725      0.000      0.000
REMARK INTER + INTRA:          -5.806
REMARK INTER:                  -5.554
REMARK INTRA:                  -0.252
REMARK UNBOUND:                -0.252
REMARK SMILES O=C([O-])C=Cc1ccc(O)c(O)c1
REMARK SMILES IDX 6 1 13 2 7 3 11 4 8 5 9 6 5 7 4 8 2 9 1 10 3 11 12 12 10 14
REMARK H PARENT 12 13 10 15
REMARK Flexibility Score: inf
ROOT
ATOM      1  C   UNL     1       9.929 -18.700   7.333  1.00  0.00    -0.022 A 
ATOM      2  C   UNL     1      10.406 -17.400   7.108  1.00  0.00     0.058 A 
ATOM      3  C   UNL     1      10.576 -19.516   8.275  1.00  0.00     0.012 A 
ATOM      4  C   UNL     1      11.548 -16.936   7.777  1.00  0.00     0.157 A 
ATOM      5  C   UNL     1      11.713 -19.056   8.943  1.00  0.00     0.051 A 
ATOM      6  C   UNL     1      12.207 -17.771   8.696  1.00  0.00     0.157 A 
ENDROOT
BRANCH   1   7
ATOM      7  C   UNL     1       8.694 -19.145   6.655  1.00  0.00     0.010 C 
ATOM      8  C   UNL     1       7.448 -18.977   7.121  1.00  0.00     0.025 C 
BRANCH   8   9
ATOM      9  C   UNL     1       7.097 -18.494   8.470  1.00  0.00     0.064 C 
ATOM     10  O   UNL     1       6.719 -19.321   9.340  1.00  0.00    -0.545 OA
ATOM     11  O   UNL     1       7.241 -17.159   8.824  1.00  0.00    -0.545 OA
ENDBRANCH   8   9
ENDBRANCH   1   7
BRANCH   4  12
ATOM     12  O   UNL     1      12.027 -15.650   7.534  1.00  0.00    -0.504 OA
ATOM     13  H   UNL     1      12.818 -15.485   6.922  1.00  0.00     0.293 HD
ENDBRANCH   4  12
BRANCH   6  14
ATOM     14  O   UNL     1      13.346 -17.340   9.374  1.00  0.00    -0.504 OA
ATOM     15  H   UNL     1      13.693 -17.815  10.200  1.00  0.00     0.293 HD
ENDBRANCH   6  14
TORSDOF 4
ENDMDL
MODEL 2
REMARK VINA RESULT:    -4.334      0.987      1.965
REMARK INTER + INTRA:          -5.346
REMARK INTER:                  -5.086
REMARK INTRA:                  -0.260
REMARK UNBOUND:                -0.252
REMARK SMILES O=C([O-])C=Cc1ccc(O)c(O)c1
REMARK SMILES IDX 6 1 13 2 7 3 11 4 8 5 9 6 5 7 4 8 2 9 1 10 3 11 12 12 10 14
REMARK H PARENT 12 13 10 15
REMARK Flexibility Score: inf
ROOT
ATOM      1  C   UNL     1       9.530 -18.853   7.310  1.00  0.00    -0.022 A 
ATOM      2  C   UNL     1      10.385 -19.731   7.993  1.00  0.00     0.058 A 
ATOM      3  C   UNL     1       9.870 -17.493   7.221  1.00  0.00     0.012 A 
ATOM      4  C   UNL     1      11.541 -19.249   8.625  1.00  0.00     0.157 A 
ATOM      5  C   UNL     1      11.020 -17.011   7.850  1.00  0.00     0.051 A 
ATOM      6  C   UNL     1      11.857 -17.881   8.557  1.00  0.00     0.157 A 
ENDROOT
BRANCH   1   7
ATOM      7  C   UNL     1       8.348 -19.394   6.609  1.00  0.00     0.010 C 
ATOM      8  C   UNL     1       7.104 -19.446   7.109  1.00  0.00     0.025 C 
BRANCH   8   9
ATOM      9  C   UNL     1       6.731 -19.152   8.506  1.00  0.00     0.064 C 
ATOM     10  O   UNL     1       6.474 -20.105   9.287  1.00  0.00    -0.545 OA
ATOM     11  O   UNL     1       6.725 -17.853   8.998  1.00  0.00    -0.545 OA
ENDBRANCH   8   9
ENDBRANCH   1   7
BRANCH   4  12
ATOM     12  O   UNL     1      12.377 -20.125   9.318  1.00  0.00    -0.504 OA
ATOM     13  H   UNL     1      13.238 -19.809   9.747  1.00  0.00     0.293 HD
ENDBRANCH   4  12
BRANCH   6  14
ATOM     14  O   UNL     1      12.996 -17.372   9.177  1.00  0.00    -0.504 OA
ATOM     15  H   UNL     1      13.901 -17.368   8.721  1.00  0.00     0.293 HD
ENDBRANCH   6  14
TORSDOF 4
ENDMDL
MODEL 3
REMARK VINA RESULT:    -3.945      2.222      3.002
REMARK INTER + INTRA:          -4.889
REMARK INTER:                  -4.945
REMARK INTRA:                   0.056
REMARK UNBOUND:                -0.252
REMARK SMILES O=C([O-])C=Cc1ccc(O)c(O)c1
REMARK SMILES IDX 6 1 13 2 7 3 11 4 8 5 9 6 5 7 4 8 2 9 1 10 3 11 12 12 10 14
REMARK H PARENT 12 13 10 15
REMARK Flexibility Score: inf
ROOT
ATOM      1  C   UNL     1      10.423 -17.630   8.273  1.00  0.00    -0.022 A 
ATOM      2  C   UNL     1      11.458 -17.918   9.175  1.00  0.00     0.058 A 
ATOM      3  C   UNL     1      10.671 -16.761   7.198  1.00  0.00     0.012 A 
ATOM      4  C   UNL     1      12.712 -17.306   9.038  1.00  0.00     0.157 A 
ATOM      5  C   UNL     1      11.919 -16.149   7.059  1.00  0.00     0.051 A 
ATOM      6  C   UNL     1      12.942 -16.413   7.977  1.00  0.00     0.157 A 
ENDROOT
BRANCH   1   7
ATOM      7  C   UNL     1       9.129 -18.329   8.410  1.00  0.00     0.010 C 
ATOM      8  C   UNL     1       8.728 -19.375   7.671  1.00  0.00     0.025 C 
BRANCH   8   9
ATOM      9  C   UNL     1       9.419 -19.890   6.473  1.00  0.00     0.064 C 
ATOM     10  O   UNL     1       8.764 -20.062   5.412  1.00  0.00    -0.545 OA
ATOM     11  O   UNL     1      10.788 -20.125   6.469  1.00  0.00    -0.545 OA
ENDBRANCH   8   9
ENDBRANCH   1   7
BRANCH   4  12
ATOM     12  O   UNL     1      13.730 -17.583   9.950  1.00  0.00    -0.504 OA
ATOM     13  H   UNL     1      13.581 -18.199  10.740  1.00  0.00     0.293 HD
ENDBRANCH   4  12
BRANCH   6  14
ATOM     14  O   UNL     1      14.176 -15.787   7.815  1.00  0.00    -0.504 OA
ATOM     15  H   UNL     1      14.748 -15.927   6.990  1.00  0.00     0.293 HD
ENDBRANCH   6  14
TORSDOF 4
ENDMDL
MODEL 4
REMARK VINA RESULT:    -3.740      1.566      4.909
REMARK INTER + INTRA:          -4.648
REMARK INTER:                  -4.876
REMARK INTRA:                   0.228
REMARK UNBOUND:                -0.252
REMARK SMILES O=C([O-])C=Cc1ccc(O)c(O)c1
REMARK SMILES IDX 6 1 13 2 7 3 11 4 8 5 9 6 5 7 4 8 2 9 1 10 3 11 12 12 10 14
REMARK H PARENT 12 13 10 15
REMARK Flexibility Score: inf
ROOT
ATOM      1  C   UNL     1      11.233 -18.183   8.485  1.00  0.00    -0.022 A 
ATOM      2  C   UNL     1      10.022 -17.510   8.701  1.00  0.00     0.058 A 
ATOM      3  C   UNL     1      11.301 -19.174   7.491  1.00  0.00     0.012 A 
ATOM      4  C   UNL     1       8.876 -17.856   7.970  1.00  0.00     0.157 A 
ATOM      5  C   UNL     1      10.162 -19.519   6.761  1.00  0.00     0.051 A 
ATOM      6  C   UNL     1       8.946 -18.869   6.998  1.00  0.00     0.157 A 
ENDROOT
BRANCH   1   7
ATOM      7  C   UNL     1      12.437 -17.764   9.231  1.00  0.00     0.010 C 
ATOM      8  C   UNL     1      13.224 -16.725   8.916  1.00  0.00     0.025 C 
BRANCH   8   9
ATOM      9  C   UNL     1      13.143 -15.936   7.672  1.00  0.00     0.064 C 
ATOM     10  O   UNL     1      12.019 -15.541   7.266  1.00  0.00    -0.545 OA
ATOM     11  O   UNL     1      14.284 -15.561   6.974  1.00  0.00    -0.545 OA
ENDBRANCH   8   9
ENDBRANCH   1   7
BRANCH   4  12
ATOM     12  O   UNL     1       7.671 -17.195   8.203  1.00  0.00    -0.504 OA
ATOM     13  H   UNL     1       7.646 -16.255   8.580  1.00  0.00     0.293 HD
ENDBRANCH   4  12
BRANCH   6  14
ATOM     14  O   UNL     1       7.825 -19.237   6.257  1.00  0.00    -0.504 OA
ATOM     15  H   UNL     1       7.624 -20.204   6.028  1.00  0.00     0.293 HD
ENDBRANCH   6  14
TORSDOF 4
ENDMDL
MODEL 5
REMARK VINA RESULT:    -3.500      2.115      5.028
REMARK INTER + INTRA:          -4.366
REMARK INTER:                  -4.520
REMARK INTRA:                   0.153
REMARK UNBOUND:                -0.252
REMARK SMILES O=C([O-])C=Cc1ccc(O)c(O)c1
REMARK SMILES IDX 6 1 13 2 7 3 11 4 8 5 9 6 5 7 4 8 2 9 1 10 3 11 12 12 10 14
REMARK H PARENT 12 13 10 15
REMARK Flexibility Score: inf
ROOT
ATOM      1  C   UNL     1      11.171 -18.141   8.509  1.00  0.00    -0.022 A 
ATOM      2  C   UNL     1      11.232 -18.976   7.384  1.00  0.00     0.058 A 
ATOM      3  C   UNL     1       9.921 -17.681   8.957  1.00  0.00     0.012 A 
ATOM      4  C   UNL     1      10.064 -19.309   6.681  1.00  0.00     0.157 A 
ATOM      5  C   UNL     1       8.758 -18.011   8.259  1.00  0.00     0.051 A 
ATOM      6  C   UNL     1       8.822 -18.820   7.119  1.00  0.00     0.157 A 
ENDROOT
BRANCH   1   7
ATOM      7  C   UNL     1      12.409 -17.848   9.261  1.00  0.00     0.010 C 
ATOM      8  C   UNL     1      13.262 -16.849   8.994  1.00  0.00     0.025 C 
BRANCH   8   9
ATOM      9  C   UNL     1      13.223 -15.986   7.798  1.00  0.00     0.064 C 
ATOM     10  O   UNL     1      12.112 -15.580   7.368  1.00  0.00    -0.545 OA
ATOM     11  O   UNL     1      14.387 -15.554   7.176  1.00  0.00    -0.545 OA
ENDBRANCH   8   9
ENDBRANCH   1   7
BRANCH   4  12
ATOM     12  O   UNL     1      10.135 -20.125   5.553  1.00  0.00    -0.504 OA
ATOM     13  H   UNL     1       9.301 -20.426   5.063  1.00  0.00     0.293 HD
ENDBRANCH   4  12
BRANCH   6  14
ATOM     14  O   UNL     1       7.644 -19.130   6.441  1.00  0.00    -0.504 OA
ATOM     15  H   UNL     1       6.860 -18.489   6.402  1.00  0.00     0.293 HD
ENDBRANCH   6  14
TORSDOF 4
ENDMDL
MODEL 6
REMARK VINA RESULT:    -3.139      1.505      4.878
REMARK INTER + INTRA:          -3.941
REMARK INTER:                  -3.893
REMARK INTRA:                  -0.049
REMARK UNBOUND:                -0.252
REMARK SMILES O=C([O-])C=Cc1ccc(O)c(O)c1
REMARK SMILES IDX 6 1 13 2 7 3 11 4 8 5 9 6 5 7 4 8 2 9 1 10 3 11 12 12 10 14
REMARK H PARENT 12 13 10 15
REMARK Flexibility Score: inf
ROOT
ATOM      1  C   UNL     1       9.458 -17.425   7.446  1.00  0.00    -0.022 A 
ATOM      2  C   UNL     1       8.978 -18.442   6.608  1.00  0.00     0.058 A 
ATOM      3  C   UNL     1       8.770 -17.134   8.636  1.00  0.00     0.012 A 
ATOM      4  C   UNL     1       7.796 -19.128   6.926  1.00  0.00     0.157 A 
ATOM      5  C   UNL     1       7.593 -17.815   8.955  1.00  0.00     0.051 A 
ATOM      6  C   UNL     1       7.099 -18.809   8.103  1.00  0.00     0.157 A 
ENDROOT
BRANCH   1   7
ATOM      7  C   UNL     1      10.732 -16.755   7.115  1.00  0.00     0.010 C 
ATOM      8  C   UNL     1      11.936 -17.093   7.600  1.00  0.00     0.025 C 
BRANCH   8   9
ATOM      9  C   UNL     1      12.180 -18.059   8.688  1.00  0.00     0.064 C 
ATOM     10  O   UNL     1      12.826 -17.692   9.704  1.00  0.00    -0.545 OA
ATOM     11  O   UNL     1      11.654 -19.345   8.648  1.00  0.00    -0.545 OA
ENDBRANCH   8   9
ENDBRANCH   1   7
BRANCH   4  12
ATOM     12  O   UNL     1       7.316 -20.125   6.078  1.00  0.00    -0.504 OA
ATOM     13  H   UNL     1       6.768 -20.901   6.429  1.00  0.00     0.293 HD
ENDBRANCH   4  12
BRANCH   6  14
ATOM     14  O   UNL     1       5.920 -19.469   8.445  1.00  0.00    -0.504 OA
ATOM     15  H   UNL     1       5.556 -19.466   9.391  1.00  0.00     0.293 HD
ENDBRANCH   6  14
TORSDOF 4
ENDMDL
MODEL 7
REMARK VINA RESULT:    -3.095      1.290      4.871
REMARK INTER + INTRA:          -3.890
REMARK INTER:                  -3.830
REMARK INTRA:                  -0.060
REMARK UNBOUND:                -0.252
REMARK SMILES O=C([O-])C=Cc1ccc(O)c(O)c1
REMARK SMILES IDX 6 1 13 2 7 3 11 4 8 5 9 6 5 7 4 8 2 9 1 10 3 11 12 12 10 14
REMARK H PARENT 12 13 10 15
REMARK Flexibility Score: inf
ROOT
ATOM      1  C   UNL     1       9.297 -17.881   7.199  1.00  0.00    -0.022 A 
ATOM      2  C   UNL     1       8.375 -17.496   8.183  1.00  0.00     0.058 A 
ATOM      3  C   UNL     1       9.011 -18.990   6.385  1.00  0.00     0.012 A 
ATOM      4  C   UNL     1       7.204 -18.239   8.390  1.00  0.00     0.157 A 
ATOM      5  C   UNL     1       7.845 -19.731   6.589  1.00  0.00     0.051 A 
ATOM      6  C   UNL     1       6.940 -19.365   7.591  1.00  0.00     0.157 A 
ENDROOT
BRANCH   1   7
ATOM      7  C   UNL     1      10.497 -17.052   6.967  1.00  0.00     0.010 C 
ATOM      8  C   UNL     1      11.695 -17.240   7.541  1.00  0.00     0.025 C 
BRANCH   8   9
ATOM      9  C   UNL     1      11.978 -18.181   8.641  1.00  0.00     0.064 C 
ATOM     10  O   UNL     1      12.518 -17.753   9.694  1.00  0.00    -0.545 OA
ATOM     11  O   UNL     1      11.598 -19.516   8.570  1.00  0.00    -0.545 OA
ENDBRANCH   8   9
ENDBRANCH   1   7
BRANCH   4  12
ATOM     12  O   UNL     1       6.301 -17.861   9.383  1.00  0.00    -0.504 OA
ATOM     13  H   UNL     1       5.440 -18.370   9.539  1.00  0.00     0.293 HD
ENDBRANCH   4  12
BRANCH   6  14
ATOM     14  O   UNL     1       5.786 -20.125   7.773  1.00  0.00    -0.504 OA
ATOM     15  H   UNL     1       5.681 -20.766   8.552  1.00  0.00     0.293 HD
ENDBRANCH   6  14
TORSDOF 4
ENDMDL
MODEL 8
REMARK VINA RESULT:    -3.050      2.085      2.271
REMARK INTER + INTRA:          -3.837
REMARK INTER:                  -3.874
REMARK INTRA:                   0.037
REMARK UNBOUND:                -0.252
REMARK SMILES O=C([O-])C=Cc1ccc(O)c(O)c1
REMARK SMILES IDX 6 1 13 2 7 3 11 4 8 5 9 6 5 7 4 8 2 9 1 10 3 11 12 12 10 14
REMARK H PARENT 12 13 10 15
REMARK Flexibility Score: inf
ROOT
ATOM      1  C   UNL     1       9.848 -18.486   8.163  1.00  0.00    -0.022 A 
ATOM      2  C   UNL     1      10.129 -17.241   7.581  1.00  0.00     0.058 A 
ATOM      3  C   UNL     1      10.834 -19.122   8.934  1.00  0.00     0.012 A 
ATOM      4  C   UNL     1      11.397 -16.660   7.722  1.00  0.00     0.157 A 
ATOM      5  C   UNL     1      12.098 -18.545   9.077  1.00  0.00     0.051 A 
ATOM      6  C   UNL     1      12.388 -17.318   8.471  1.00  0.00     0.157 A 
ENDROOT
BRANCH   1   7
ATOM      7  C   UNL     1       8.488 -19.051   8.042  1.00  0.00     0.010 C 
ATOM      8  C   UNL     1       7.987 -19.643   6.947  1.00  0.00     0.025 C 
BRANCH   8   9
ATOM      9  C   UNL     1       8.628 -19.667   5.618  1.00  0.00     0.064 C 
ATOM     10  O   UNL     1       9.795 -20.125   5.506  1.00  0.00    -0.545 OA
ATOM     11  O   UNL     1       7.947 -19.260   4.477  1.00  0.00    -0.545 OA
ENDBRANCH   8   9
ENDBRANCH   1   7
BRANCH   4  12
ATOM     12  O   UNL     1      11.675 -15.431   7.125  1.00  0.00    -0.504 OA
ATOM     13  H   UNL     1      10.946 -14.752   6.946  1.00  0.00     0.293 HD
ENDBRANCH   4  12
BRANCH   6  14
ATOM     14  O   UNL     1      13.659 -16.768   8.628  1.00  0.00    -0.504 OA
ATOM     15  H   UNL     1      14.281 -17.055   9.375  1.00  0.00     0.293 HD
ENDBRANCH   6  14
TORSDOF 4
ENDMDL
