MODEL 1
REMARK VINA RESULT:    -6.292      0.000      0.000
REMARK INTER + INTRA:          -7.529
REMARK INTER:                  -7.396
REMARK INTRA:                  -0.133
REMARK UNBOUND:                -0.133
REMARK SMILES O=C([O-])C=Cc1ccc(O)c(O)c1
REMARK SMILES IDX 6 1 13 2 7 3 11 4 8 5 9 6 5 7 4 8 2 9 1 10 3 11 12 12 10 14
REMARK H PARENT 12 13 10 15
REMARK Flexibility Score: inf
ROOT
ATOM      1  C   UNL     1     -31.873  -3.385 -18.028  1.00  0.00    -0.022 A 
ATOM      2  C   UNL     1     -32.680  -2.896 -19.070  1.00  0.00     0.058 A 
ATOM      3  C   UNL     1     -30.473  -3.318 -18.164  1.00  0.00     0.012 A 
ATOM      4  C   UNL     1     -32.104  -2.328 -20.216  1.00  0.00     0.157 A 
ATOM      5  C   UNL     1     -29.899  -2.752 -19.307  1.00  0.00     0.051 A 
ATOM      6  C   UNL     1     -30.712  -2.254 -20.333  1.00  0.00     0.157 A 
ENDROOT
BRANCH   1   7
ATOM      7  C   UNL     1     -32.532  -3.985 -16.841  1.00  0.00     0.010 C 
ATOM      8  C   UNL     1     -33.856  -4.161 -16.734  1.00  0.00     0.025 C 
BRANCH   8   9
ATOM      9  C   UNL     1     -34.466  -4.772 -15.543  1.00  0.00     0.064 C 
ATOM     10  O   UNL     1     -34.423  -4.163 -14.441  1.00  0.00    -0.545 OA
ATOM     11  O   UNL     1     -35.089  -6.013 -15.612  1.00  0.00    -0.545 OA
ENDBRANCH   8   9
ENDBRANCH   1   7
BRANCH   4  12
ATOM     12  O   UNL     1     -32.911  -1.836 -21.241  1.00  0.00    -0.504 OA
ATOM     13  H   UNL     1     -33.102  -2.382 -22.073  1.00  0.00     0.293 HD
ENDBRANCH   4  12
BRANCH   6  14
ATOM     14  O   UNL     1     -30.143  -1.688 -21.472  1.00  0.00    -0.504 OA
ATOM     15  H   UNL     1     -29.437  -0.964 -21.408  1.00  0.00     0.293 HD
ENDBRANCH   6  14
TORSDOF 4
ENDMDL
MODEL 2
REMARK VINA RESULT:    -5.868      4.099      8.411
REMARK INTER + INTRA:          -7.031
REMARK INTER:                  -6.899
REMARK INTRA:                  -0.132
REMARK UNBOUND:                -0.133
REMARK SMILES O=C([O-])C=Cc1ccc(O)c(O)c1
REMARK SMILES IDX 6 1 13 2 7 3 11 4 8 5 9 6 5 7 4 8 2 9 1 10 3 11 12 12 10 14
REMARK H PARENT 12 13 10 15
REMARK Flexibility Score: inf
ROOT
ATOM      1  C   UNL     1     -36.712  -6.874 -15.373  1.00  0.00    -0.022 A 
ATOM      2  C   UNL     1     -37.936  -7.447 -15.757  1.00  0.00     0.058 A 
ATOM      3  C   UNL     1     -36.141  -7.252 -14.142  1.00  0.00     0.012 A 
ATOM      4  C   UNL     1     -38.569  -8.398 -14.943  1.00  0.00     0.157 A 
ATOM      5  C   UNL     1     -36.772  -8.199 -13.330  1.00  0.00     0.051 A 
ATOM      6  C   UNL     1     -37.984  -8.777 -13.729  1.00  0.00     0.157 A 
ENDROOT
BRANCH   1   7
ATOM      7  C   UNL     1     -36.090  -5.865 -16.266  1.00  0.00     0.010 C 
ATOM      8  C   UNL     1     -34.848  -5.971 -16.759  1.00  0.00     0.025 C 
BRANCH   8   9
ATOM      9  C   UNL     1     -34.275  -4.951 -17.650  1.00  0.00     0.064 C 
ATOM     10  O   UNL     1     -34.947  -4.534 -18.631  1.00  0.00    -0.545 OA
ATOM     11  O   UNL     1     -33.002  -4.438 -17.429  1.00  0.00    -0.545 OA
ENDBRANCH   8   9
ENDBRANCH   1   7
BRANCH   4  12
ATOM     12  O   UNL     1     -39.778  -8.971 -15.335  1.00  0.00    -0.504 OA
ATOM     13  H   UNL     1     -40.388  -9.429 -14.668  1.00  0.00     0.293 HD
ENDBRANCH   4  12
BRANCH   6  14
ATOM     14  O   UNL     1     -38.614  -9.723 -12.923  1.00  0.00    -0.504 OA
ATOM     15  H   UNL     1     -39.199  -9.449 -12.142  1.00  0.00     0.293 HD
ENDBRANCH   6  14
TORSDOF 4
ENDMDL
MODEL 3
REMARK VINA RESULT:    -5.696      4.061      8.551
REMARK INTER + INTRA:          -6.829
REMARK INTER:                  -6.695
REMARK INTRA:                  -0.134
REMARK UNBOUND:                -0.133
REMARK SMILES O=C([O-])C=Cc1ccc(O)c(O)c1
REMARK SMILES IDX 6 1 13 2 7 3 11 4 8 5 9 6 5 7 4 8 2 9 1 10 3 11 12 12 10 14
REMARK H PARENT 12 13 10 15
REMARK Flexibility Score: inf
ROOT
ATOM      1  C   UNL     1     -36.958  -7.021 -15.696  1.00  0.00    -0.022 A 
ATOM      2  C   UNL     1     -36.237  -7.356 -14.537  1.00  0.00     0.058 A 
ATOM      3  C   UNL     1     -38.212  -7.624 -15.915  1.00  0.00     0.012 A 
ATOM      4  C   UNL     1     -36.766  -8.255 -13.600  1.00  0.00     0.157 A 
ATOM      5  C   UNL     1     -38.738  -8.522 -14.981  1.00  0.00     0.051 A 
ATOM      6  C   UNL     1     -38.019  -8.836 -13.821  1.00  0.00     0.157 A 
ENDROOT
BRANCH   1   7
ATOM      7  C   UNL     1     -36.349  -6.072 -16.661  1.00  0.00     0.010 C 
ATOM      8  C   UNL     1     -35.032  -5.847 -16.755  1.00  0.00     0.025 C 
BRANCH   8   9
ATOM      9  C   UNL     1     -34.471  -4.905 -17.736  1.00  0.00     0.064 C 
ATOM     10  O   UNL     1     -35.042  -4.751 -18.847  1.00  0.00    -0.545 OA
ATOM     11  O   UNL     1     -33.318  -4.181 -17.456  1.00  0.00    -0.545 OA
ENDBRANCH   8   9
ENDBRANCH   1   7
BRANCH   4  12
ATOM     12  O   UNL     1     -36.050  -8.575 -12.447  1.00  0.00    -0.504 OA
ATOM     13  H   UNL     1     -36.503  -8.989 -11.640  1.00  0.00     0.293 HD
ENDBRANCH   4  12
BRANCH   6  14
ATOM     14  O   UNL     1     -38.543  -9.729 -12.887  1.00  0.00    -0.504 OA
ATOM     15  H   UNL     1     -38.223  -9.739 -11.925  1.00  0.00     0.293 HD
ENDBRANCH   6  14
TORSDOF 4
ENDMDL
MODEL 4
REMARK VINA RESULT:    -5.573      4.737      9.218
REMARK INTER + INTRA:          -6.683
REMARK INTER:                  -6.557
REMARK INTRA:                  -0.126
REMARK UNBOUND:                -0.133
REMARK SMILES O=C([O-])C=Cc1ccc(O)c(O)c1
REMARK SMILES IDX 6 1 13 2 7 3 11 4 8 5 9 6 5 7 4 8 2 9 1 10 3 11 12 12 10 14
REMARK H PARENT 12 13 10 15
REMARK Flexibility Score: inf
ROOT
ATOM      1  C   UNL     1     -37.272  -7.247 -13.944  1.00  0.00    -0.022 A 
ATOM      2  C   UNL     1     -38.526  -6.612 -13.967  1.00  0.00     0.058 A 
ATOM      3  C   UNL     1     -37.212  -8.623 -13.649  1.00  0.00     0.012 A 
ATOM      4  C   UNL     1     -39.701  -7.339 -13.725  1.00  0.00     0.157 A 
ATOM      5  C   UNL     1     -38.384  -9.347 -13.408  1.00  0.00     0.051 A 
ATOM      6  C   UNL     1     -39.630  -8.708 -13.449  1.00  0.00     0.157 A 
ENDROOT
BRANCH   1   7
ATOM      7  C   UNL     1     -36.058  -6.431 -14.196  1.00  0.00     0.010 C 
ATOM      8  C   UNL     1     -35.632  -6.087 -15.419  1.00  0.00     0.025 C 
BRANCH   8   9
ATOM      9  C   UNL     1     -34.428  -5.266 -15.621  1.00  0.00     0.064 C 
ATOM     10  O   UNL     1     -33.622  -5.562 -16.541  1.00  0.00    -0.545 OA
ATOM     11  O   UNL     1     -34.165  -4.167 -14.811  1.00  0.00    -0.545 OA
ENDBRANCH   8   9
ENDBRANCH   1   7
BRANCH   4  12
ATOM     12  O   UNL     1     -40.942  -6.705 -13.760  1.00  0.00    -0.504 OA
ATOM     13  H   UNL     1     -41.473  -6.533 -12.913  1.00  0.00     0.293 HD
ENDBRANCH   4  12
BRANCH   6  14
ATOM     14  O   UNL     1     -40.799  -9.428 -13.211  1.00  0.00    -0.504 OA
ATOM     15  H   UNL     1     -41.396  -9.223 -12.418  1.00  0.00     0.293 HD
ENDBRANCH   6  14
TORSDOF 4
ENDMDL
MODEL 5
REMARK VINA RESULT:    -5.490      1.577      2.041
REMARK INTER + INTRA:          -6.586
REMARK INTER:                  -6.459
REMARK INTRA:                  -0.127
REMARK UNBOUND:                -0.133
REMARK SMILES O=C([O-])C=Cc1ccc(O)c(O)c1
REMARK SMILES IDX 6 1 13 2 7 3 11 4 8 5 9 6 5 7 4 8 2 9 1 10 3 11 12 12 10 14
REMARK H PARENT 12 13 10 15
REMARK Flexibility Score: inf
ROOT
ATOM      1  C   UNL     1     -32.141  -3.015 -18.749  1.00  0.00    -0.022 A 
ATOM      2  C   UNL     1     -32.100  -2.513 -20.062  1.00  0.00     0.058 A 
ATOM      3  C   UNL     1     -30.927  -3.269 -18.081  1.00  0.00     0.012 A 
ATOM      4  C   UNL     1     -30.874  -2.245 -20.689  1.00  0.00     0.157 A 
ATOM      5  C   UNL     1     -29.705  -3.001 -18.706  1.00  0.00     0.051 A 
ATOM      6  C   UNL     1     -29.676  -2.487 -20.009  1.00  0.00     0.157 A 
ENDROOT
BRANCH   1   7
ATOM      7  C   UNL     1     -33.463  -3.291 -18.136  1.00  0.00     0.010 C 
ATOM      8  C   UNL     1     -34.256  -4.309 -18.500  1.00  0.00     0.025 C 
BRANCH   8   9
ATOM      9  C   UNL     1     -35.555  -4.552 -17.856  1.00  0.00     0.064 C 
ATOM     10  O   UNL     1     -36.422  -5.248 -18.447  1.00  0.00    -0.545 OA
ATOM     11  O   UNL     1     -35.845  -4.025 -16.602  1.00  0.00    -0.545 OA
ENDBRANCH   8   9
ENDBRANCH   1   7
BRANCH   4  12
ATOM     12  O   UNL     1     -30.842  -1.738 -21.987  1.00  0.00    -0.504 OA
ATOM     13  H   UNL     1     -30.740  -0.746 -22.166  1.00  0.00     0.293 HD
ENDBRANCH   4  12
BRANCH   6  14
ATOM     14  O   UNL     1     -28.459  -2.218 -20.633  1.00  0.00    -0.504 OA
ATOM     15  H   UNL     1     -27.577  -2.487 -20.214  1.00  0.00     0.293 HD
ENDBRANCH   6  14
TORSDOF 4
ENDMDL
MODEL 6
REMARK VINA RESULT:    -5.471      4.516      9.152
REMARK INTER + INTRA:          -6.564
REMARK INTER:                  -6.432
REMARK INTRA:                  -0.133
REMARK UNBOUND:                -0.133
REMARK SMILES O=C([O-])C=Cc1ccc(O)c(O)c1
REMARK SMILES IDX 6 1 13 2 7 3 11 4 8 5 9 6 5 7 4 8 2 9 1 10 3 11 12 12 10 14
REMARK H PARENT 12 13 10 15
REMARK Flexibility Score: inf
ROOT
ATOM      1  C   UNL     1     -37.148  -6.891 -14.073  1.00  0.00    -0.022 A 
ATOM      2  C   UNL     1     -37.268  -8.245 -13.716  1.00  0.00     0.058 A 
ATOM      3  C   UNL     1     -38.304  -6.087 -14.086  1.00  0.00     0.012 A 
ATOM      4  C   UNL     1     -38.512  -8.784 -13.355  1.00  0.00     0.157 A 
ATOM      5  C   UNL     1     -39.544  -6.624 -13.727  1.00  0.00     0.051 A 
ATOM      6  C   UNL     1     -39.651  -7.971 -13.358  1.00  0.00     0.157 A 
ENDROOT
BRANCH   1   7
ATOM      7  C   UNL     1     -35.811  -6.374 -14.457  1.00  0.00     0.010 C 
ATOM      8  C   UNL     1     -35.518  -5.896 -15.674  1.00  0.00     0.025 C 
BRANCH   8   9
ATOM      9  C   UNL     1     -34.181  -5.383 -16.007  1.00  0.00     0.064 C 
ATOM     10  O   UNL     1     -33.693  -4.436 -15.335  1.00  0.00    -0.545 OA
ATOM     11  O   UNL     1     -33.444  -5.925 -17.054  1.00  0.00    -0.545 OA
ENDBRANCH   8   9
ENDBRANCH   1   7
BRANCH   4  12
ATOM     12  O   UNL     1     -38.622 -10.125 -12.993  1.00  0.00    -0.504 OA
ATOM     13  H   UNL     1     -39.041 -10.404 -12.112  1.00  0.00     0.293 HD
ENDBRANCH   4  12
BRANCH   6  14
ATOM     14  O   UNL     1     -40.885  -8.508 -12.997  1.00  0.00    -0.504 OA
ATOM     15  H   UNL     1     -41.553  -7.980 -12.447  1.00  0.00     0.293 HD
ENDBRANCH   6  14
TORSDOF 4
ENDMDL
MODEL 7
REMARK VINA RESULT:    -5.445      3.189      4.584
REMARK INTER + INTRA:          -6.534
REMARK INTER:                  -6.403
REMARK INTRA:                  -0.130
REMARK UNBOUND:                -0.133
REMARK SMILES O=C([O-])C=Cc1ccc(O)c(O)c1
REMARK SMILES IDX 6 1 13 2 7 3 11 4 8 5 9 6 5 7 4 8 2 9 1 10 3 11 12 12 10 14
REMARK H PARENT 12 13 10 15
REMARK Flexibility Score: inf
ROOT
ATOM      1  C   UNL     1     -35.633  -5.843 -16.973  1.00  0.00    -0.022 A 
ATOM      2  C   UNL     1     -34.243  -5.697 -16.822  1.00  0.00     0.058 A 
ATOM      3  C   UNL     1     -36.254  -5.296 -18.113  1.00  0.00     0.012 A 
ATOM      4  C   UNL     1     -33.482  -5.040 -17.800  1.00  0.00     0.157 A 
ATOM      5  C   UNL     1     -35.495  -4.640 -19.087  1.00  0.00     0.051 A 
ATOM      6  C   UNL     1     -34.108  -4.513 -18.935  1.00  0.00     0.157 A 
ENDROOT
BRANCH   1   7
ATOM      7  C   UNL     1     -36.394  -6.538 -15.905  1.00  0.00     0.010 C 
ATOM      8  C   UNL     1     -36.026  -6.552 -14.617  1.00  0.00     0.025 C 
BRANCH   8   9
ATOM      9  C   UNL     1     -36.817  -7.245 -13.589  1.00  0.00     0.064 C 
ATOM     10  O   UNL     1     -36.316  -8.220 -12.971  1.00  0.00    -0.545 OA
ATOM     11  O   UNL     1     -38.114  -6.841 -13.289  1.00  0.00    -0.545 OA
ENDBRANCH   8   9
ENDBRANCH   1   7
BRANCH   4  12
ATOM     12  O   UNL     1     -32.102  -4.907 -17.649  1.00  0.00    -0.504 OA
ATOM     13  H   UNL     1     -31.602  -4.108 -18.022  1.00  0.00     0.293 HD
ENDBRANCH   4  12
BRANCH   6  14
ATOM     14  O   UNL     1     -33.349  -3.862 -19.905  1.00  0.00    -0.504 OA
ATOM     15  H   UNL     1     -33.503  -4.021 -20.894  1.00  0.00     0.293 HD
ENDBRANCH   6  14
TORSDOF 4
ENDMDL
MODEL 8
REMARK VINA RESULT:    -5.382      7.805      9.861
REMARK INTER + INTRA:          -6.459
REMARK INTER:                  -6.329
REMARK INTRA:                  -0.130
REMARK UNBOUND:                -0.133
REMARK SMILES O=C([O-])C=Cc1ccc(O)c(O)c1
REMARK SMILES IDX 6 1 13 2 7 3 11 4 8 5 9 6 5 7 4 8 2 9 1 10 3 11 12 12 10 14
REMARK H PARENT 12 13 10 15
REMARK Flexibility Score: inf
ROOT
ATOM      1  C   UNL     1     -38.543  -6.179 -13.471  1.00  0.00    -0.022 A 
ATOM      2  C   UNL     1     -39.926  -6.430 -13.449  1.00  0.00     0.058 A 
ATOM      3  C   UNL     1     -37.654  -7.273 -13.441  1.00  0.00     0.012 A 
ATOM      4  C   UNL     1     -40.416  -7.743 -13.424  1.00  0.00     0.157 A 
ATOM      5  C   UNL     1     -38.144  -8.582 -13.417  1.00  0.00     0.051 A 
ATOM      6  C   UNL     1     -39.524  -8.821 -13.412  1.00  0.00     0.157 A 
ENDROOT
BRANCH   1   7
ATOM      7  C   UNL     1     -38.076  -4.771 -13.486  1.00  0.00     0.010 C 
ATOM      8  C   UNL     1     -37.556  -4.147 -12.420  1.00  0.00     0.025 C 
BRANCH   8   9
ATOM      9  C   UNL     1     -37.095  -2.752 -12.484  1.00  0.00     0.064 C 
ATOM     10  O   UNL     1     -37.074  -2.154 -13.591  1.00  0.00    -0.545 OA
ATOM     11  O   UNL     1     -36.680  -2.080 -11.339  1.00  0.00    -0.545 OA
ENDBRANCH   8   9
ENDBRANCH   1   7
BRANCH   4  12
ATOM     12  O   UNL     1     -41.789  -7.984 -13.414  1.00  0.00    -0.504 OA
ATOM     13  H   UNL     1     -42.210  -8.622 -12.748  1.00  0.00     0.293 HD
ENDBRANCH   4  12
BRANCH   6  14
ATOM     14  O   UNL     1     -40.014 -10.125 -13.389  1.00  0.00    -0.504 OA
ATOM     15  H   UNL     1     -40.791 -10.410 -13.974  1.00  0.00     0.293 HD
ENDBRANCH   6  14
TORSDOF 4
ENDMDL
MODEL 9
REMARK VINA RESULT:    -5.363      2.093      2.820
REMARK INTER + INTRA:          -6.437
REMARK INTER:                  -6.298
REMARK INTRA:                  -0.139
REMARK UNBOUND:                -0.133
REMARK SMILES O=C([O-])C=Cc1ccc(O)c(O)c1
REMARK SMILES IDX 6 1 13 2 7 3 11 4 8 5 9 6 5 7 4 8 2 9 1 10 3 11 12 12 10 14
REMARK H PARENT 12 13 10 15
REMARK Flexibility Score: inf
ROOT
ATOM      1  C   UNL     1     -34.143  -4.621 -17.758  1.00  0.00    -0.022 A 
ATOM      2  C   UNL     1     -34.161  -3.796 -18.895  1.00  0.00     0.058 A 
ATOM      3  C   UNL     1     -32.963  -4.696 -16.992  1.00  0.00     0.012 A 
ATOM      4  C   UNL     1     -33.034  -3.039 -19.250  1.00  0.00     0.157 A 
ATOM      5  C   UNL     1     -31.840  -3.942 -17.345  1.00  0.00     0.051 A 
ATOM      6  C   UNL     1     -31.874  -3.111 -18.472  1.00  0.00     0.157 A 
ENDROOT
BRANCH   1   7
ATOM      7  C   UNL     1     -35.358  -5.409 -17.433  1.00  0.00     0.010 C 
ATOM      8  C   UNL     1     -35.458  -6.222 -16.372  1.00  0.00     0.025 C 
BRANCH   8   9
ATOM      9  C   UNL     1     -36.687  -6.975 -16.082  1.00  0.00     0.064 C 
ATOM     10  O   UNL     1     -36.607  -8.175 -15.709  1.00  0.00    -0.545 OA
ATOM     11  O   UNL     1     -37.939  -6.385 -16.215  1.00  0.00    -0.545 OA
ENDBRANCH   8   9
ENDBRANCH   1   7
BRANCH   4  12
ATOM     12  O   UNL     1     -33.062  -2.215 -20.373  1.00  0.00    -0.504 OA
ATOM     13  H   UNL     1     -33.785  -1.515 -20.499  1.00  0.00     0.293 HD
ENDBRANCH   4  12
BRANCH   6  14
ATOM     14  O   UNL     1     -30.756  -2.357 -18.825  1.00  0.00    -0.504 OA
ATOM     15  H   UNL     1     -30.401  -1.621 -18.226  1.00  0.00     0.293 HD
ENDBRANCH   6  14
TORSDOF 4
ENDMDL
