MODEL 1
REMARK VINA RESULT:    -4.684      0.000      0.000
REMARK INTER + INTRA:         -16.945
REMARK INTER:                 -12.352
REMARK INTRA:                  -4.593
REMARK UNBOUND:                -4.593
REMARK SMILES CCCCCCCCCCCCCCCCCCCCCCCCCCCCCC(=O)[O-]
REMARK SMILES IDX 16 1 17 2 18 3 19 4 20 5 21 6 22 7 23 8 24 9 25 10 26 11
REMARK SMILES IDX 27 12 28 13 29 14 30 15 31 16 32 17 15 18 14 19 13 20 12 21
REMARK SMILES IDX 11 22 10 23 9 24 8 25 7 26 6 27 5 28 4 29 3 30 2 31 1 32
REMARK H PARENT
REMARK Flexibility Score: inf
ROOT
ATOM      1  C   UNL     1      15.643  68.827  33.341  1.00  0.00     0.000 C 
ENDROOT
BRANCH   1   2
ATOM      2  C   UNL     1      15.264  67.449  32.770  1.00  0.00     0.000 C 
BRANCH   2   3
ATOM      3  C   UNL     1      15.004  66.409  33.874  1.00  0.00     0.000 C 
BRANCH   3   4
ATOM      4  C   UNL     1      14.726  65.002  33.317  1.00  0.00     0.000 C 
BRANCH   4   5
ATOM      5  C   UNL     1      15.905  64.440  32.505  1.00  0.00     0.000 C 
BRANCH   5   6
ATOM      6  C   UNL     1      15.476  63.863  31.143  1.00  0.00     0.000 C 
BRANCH   6   7
ATOM      7  C   UNL     1      14.604  62.593  31.212  1.00  0.00     0.000 C 
BRANCH   7   8
ATOM      8  C   UNL     1      13.574  62.512  30.072  1.00  0.00     0.000 C 
BRANCH   8   9
ATOM      9  C   UNL     1      12.124  62.695  30.559  1.00  0.00     0.000 C 
BRANCH   9  10
ATOM     10  C   UNL     1      11.971  63.491  31.869  1.00  0.00     0.000 C 
BRANCH  10  11
ATOM     11  C   UNL     1      11.141  62.799  32.969  1.00  0.00     0.000 C 
BRANCH  11  12
ATOM     12  C   UNL     1      11.645  61.387  33.338  1.00  0.00     0.000 C 
BRANCH  12  13
ATOM     13  C   UNL     1      12.952  61.422  34.147  1.00  0.00     0.006 C 
BRANCH  13  14
ATOM     14  C   UNL     1      13.900  60.275  33.771  1.00  0.00     0.053 C 
BRANCH  14  15
ATOM     15  C   UNL     1      15.199  60.358  34.516  1.00  0.00     0.041 C 
ATOM     16  O   UNL     1      15.205  60.374  35.777  1.00  0.00    -0.550 OA
ATOM     17  O   UNL     1      16.400  60.432  33.820  1.00  0.00    -0.550 OA
ENDBRANCH  14  15
ENDBRANCH  13  14
ENDBRANCH  12  13
ENDBRANCH  11  12
ENDBRANCH  10  11
ENDBRANCH   9  10
ENDBRANCH   8   9
ENDBRANCH   7   8
ENDBRANCH   6   7
ENDBRANCH   5   6
ENDBRANCH   4   5
ENDBRANCH   3   4
ENDBRANCH   2   3
ENDBRANCH   1   2
BRANCH   1  18
ATOM     18  C   UNL     1      17.123  68.904  33.754  1.00  0.00     0.000 C 
BRANCH  18  19
ATOM     19  C   UNL     1      17.309  68.980  35.284  1.00  0.00     0.000 C 
BRANCH  19  20
ATOM     20  C   UNL     1      18.704  69.469  35.718  1.00  0.00     0.000 C 
BRANCH  20  21
ATOM     21  C   UNL     1      19.164  68.975  37.102  1.00  0.00     0.000 C 
BRANCH  21  22
ATOM     22  C   UNL     1      18.369  69.538  38.299  1.00  0.00     0.000 C 
BRANCH  22  23
ATOM     23  C   UNL     1      18.681  68.882  39.656  1.00  0.00     0.000 C 
BRANCH  23  24
ATOM     24  C   UNL     1      19.852  67.893  39.586  1.00  0.00    -0.000 C 
BRANCH  24  25
ATOM     25  C   UNL     1      19.446  66.524  40.150  1.00  0.00    -0.000 C 
BRANCH  25  26
ATOM     26  C   UNL     1      18.959  65.550  39.063  1.00  0.00    -0.000 C 
BRANCH  26  27
ATOM     27  C   UNL     1      17.428  65.572  38.859  1.00  0.00    -0.000 C 
BRANCH  27  28
ATOM     28  C   UNL     1      17.041  65.840  37.395  1.00  0.00    -0.000 C 
BRANCH  28  29
ATOM     29  C   UNL     1      18.224  65.625  36.426  1.00  0.00    -0.000 C 
BRANCH  29  30
ATOM     30  C   UNL     1      18.002  64.482  35.423  1.00  0.00    -0.000 C 
BRANCH  30  31
ATOM     31  C   UNL     1      17.185  63.324  36.009  1.00  0.00    -0.003 C 
ATOM     32  C   UNL     1      18.087  62.311  36.708  1.00  0.00     0.004 C 
ENDBRANCH  30  31
ENDBRANCH  29  30
ENDBRANCH  28  29
ENDBRANCH  27  28
ENDBRANCH  26  27
ENDBRANCH  25  26
ENDBRANCH  24  25
ENDBRANCH  23  24
ENDBRANCH  22  23
ENDBRANCH  21  22
ENDBRANCH  20  21
ENDBRANCH  19  20
ENDBRANCH  18  19
ENDBRANCH   1  18
TORSDOF 28
ENDMDL
MODEL 2
REMARK VINA RESULT:    -4.586      2.329      3.082
REMARK INTER + INTRA:         -16.685
REMARK INTER:                 -12.912
REMARK INTRA:                  -3.773
REMARK UNBOUND:                -4.593
REMARK SMILES CCCCCCCCCCCCCCCCCCCCCCCCCCCCCC(=O)[O-]
REMARK SMILES IDX 16 1 17 2 18 3 19 4 20 5 21 6 22 7 23 8 24 9 25 10 26 11
REMARK SMILES IDX 27 12 28 13 29 14 30 15 31 16 32 17 15 18 14 19 13 20 12 21
REMARK SMILES IDX 11 22 10 23 9 24 8 25 7 26 6 27 5 28 4 29 3 30 2 31 1 32
REMARK H PARENT
REMARK Flexibility Score: inf
ROOT
ATOM      1  C   UNL     1      16.135  69.657  32.124  1.00  0.00     0.000 C 
ENDROOT
BRANCH   1   2
ATOM      2  C   UNL     1      14.898  68.812  32.478  1.00  0.00     0.000 C 
BRANCH   2   3
ATOM      3  C   UNL     1      15.222  67.311  32.577  1.00  0.00     0.000 C 
BRANCH   3   4
ATOM      4  C   UNL     1      14.869  66.712  33.950  1.00  0.00     0.000 C 
BRANCH   4   5
ATOM      5  C   UNL     1      16.097  66.148  34.686  1.00  0.00     0.000 C 
BRANCH   5   6
ATOM      6  C   UNL     1      17.058  65.387  33.753  1.00  0.00     0.000 C 
BRANCH   6   7
ATOM      7  C   UNL     1      16.630  63.949  33.400  1.00  0.00     0.000 C 
BRANCH   7   8
ATOM      8  C   UNL     1      16.197  63.796  31.932  1.00  0.00     0.000 C 
BRANCH   8   9
ATOM      9  C   UNL     1      15.164  62.671  31.725  1.00  0.00     0.000 C 
BRANCH   9  10
ATOM     10  C   UNL     1      13.775  63.139  31.249  1.00  0.00     0.000 C 
BRANCH  10  11
ATOM     11  C   UNL     1      12.912  63.837  32.319  1.00  0.00     0.000 C 
BRANCH  11  12
ATOM     12  C   UNL     1      11.566  63.135  32.594  1.00  0.00     0.000 C 
BRANCH  12  13
ATOM     13  C   UNL     1      11.572  61.659  32.158  1.00  0.00     0.006 C 
BRANCH  13  14
ATOM     14  C   UNL     1      10.373  61.312  31.265  1.00  0.00     0.053 C 
BRANCH  14  15
ATOM     15  C   UNL     1       9.620  60.122  31.782  1.00  0.00     0.041 C 
ATOM     16  O   UNL     1       8.418  59.940  31.448  1.00  0.00    -0.550 OA
ATOM     17  O   UNL     1      10.240  59.223  32.641  1.00  0.00    -0.550 OA
ENDBRANCH  14  15
ENDBRANCH  13  14
ENDBRANCH  12  13
ENDBRANCH  11  12
ENDBRANCH  10  11
ENDBRANCH   9  10
ENDBRANCH   8   9
ENDBRANCH   7   8
ENDBRANCH   6   7
ENDBRANCH   5   6
ENDBRANCH   4   5
ENDBRANCH   3   4
ENDBRANCH   2   3
ENDBRANCH   1   2
BRANCH   1  18
ATOM     18  C   UNL     1      17.325  69.375  33.057  1.00  0.00     0.000 C 
BRANCH  18  19
ATOM     19  C   UNL     1      17.100  69.916  34.486  1.00  0.00     0.000 C 
BRANCH  19  20
ATOM     20  C   UNL     1      18.316  69.745  35.415  1.00  0.00     0.000 C 
BRANCH  20  21
ATOM     21  C   UNL     1      18.166  68.651  36.488  1.00  0.00     0.000 C 
BRANCH  21  22
ATOM     22  C   UNL     1      19.370  68.493  37.439  1.00  0.00     0.000 C 
BRANCH  22  23
ATOM     23  C   UNL     1      19.154  69.036  38.863  1.00  0.00     0.000 C 
BRANCH  23  24
ATOM     24  C   UNL     1      18.027  68.313  39.613  1.00  0.00    -0.000 C 
BRANCH  24  25
ATOM     25  C   UNL     1      18.341  66.819  39.764  1.00  0.00    -0.000 C 
BRANCH  25  26
ATOM     26  C   UNL     1      17.160  65.916  39.368  1.00  0.00    -0.000 C 
BRANCH  26  27
ATOM     27  C   UNL     1      17.221  65.430  37.903  1.00  0.00    -0.000 C 
BRANCH  27  28
ATOM     28  C   UNL     1      18.064  64.153  37.750  1.00  0.00    -0.000 C 
BRANCH  28  29
ATOM     29  C   UNL     1      19.375  64.404  36.974  1.00  0.00    -0.000 C 
BRANCH  29  30
ATOM     30  C   UNL     1      19.477  63.613  35.660  1.00  0.00    -0.000 C 
BRANCH  30  31
ATOM     31  C   UNL     1      20.726  62.725  35.593  1.00  0.00    -0.003 C 
ATOM     32  C   UNL     1      21.635  63.140  34.440  1.00  0.00     0.004 C 
ENDBRANCH  30  31
ENDBRANCH  29  30
ENDBRANCH  28  29
ENDBRANCH  27  28
ENDBRANCH  26  27
ENDBRANCH  25  26
ENDBRANCH  24  25
ENDBRANCH  23  24
ENDBRANCH  22  23
ENDBRANCH  21  22
ENDBRANCH  20  21
ENDBRANCH  19  20
ENDBRANCH  18  19
ENDBRANCH   1  18
TORSDOF 28
ENDMDL
MODEL 3
REMARK VINA RESULT:    -4.568      2.676      8.729
REMARK INTER + INTRA:         -16.639
REMARK INTER:                 -12.067
REMARK INTRA:                  -4.572
REMARK UNBOUND:                -4.593
REMARK SMILES CCCCCCCCCCCCCCCCCCCCCCCCCCCCCC(=O)[O-]
REMARK SMILES IDX 16 1 17 2 18 3 19 4 20 5 21 6 22 7 23 8 24 9 25 10 26 11
REMARK SMILES IDX 27 12 28 13 29 14 30 15 31 16 32 17 15 18 14 19 13 20 12 21
REMARK SMILES IDX 11 22 10 23 9 24 8 25 7 26 6 27 5 28 4 29 3 30 2 31 1 32
REMARK H PARENT
REMARK Flexibility Score: inf
ROOT
ATOM      1  C   UNL     1      18.572  64.135  35.357  1.00  0.00     0.000 C 
ENDROOT
BRANCH   1   2
ATOM      2  C   UNL     1      18.451  63.421  36.715  1.00  0.00     0.000 C 
BRANCH   2   3
ATOM      3  C   UNL     1      19.420  63.992  37.765  1.00  0.00     0.000 C 
BRANCH   3   4
ATOM      4  C   UNL     1      19.226  65.499  38.003  1.00  0.00     0.000 C 
BRANCH   4   5
ATOM      5  C   UNL     1      17.831  65.839  38.554  1.00  0.00     0.000 C 
BRANCH   5   6
ATOM      6  C   UNL     1      17.823  67.111  39.424  1.00  0.00     0.000 C 
BRANCH   6   7
ATOM      7  C   UNL     1      19.018  68.061  39.211  1.00  0.00     0.000 C 
BRANCH   7   8
ATOM      8  C   UNL     1      18.681  69.249  38.293  1.00  0.00     0.000 C 
BRANCH   8   9
ATOM      9  C   UNL     1      19.268  69.098  36.876  1.00  0.00     0.000 C 
BRANCH   9  10
ATOM     10  C   UNL     1      18.232  69.109  35.736  1.00  0.00     0.000 C 
BRANCH  10  11
ATOM     11  C   UNL     1      16.963  68.272  35.990  1.00  0.00     0.000 C 
BRANCH  11  12
ATOM     12  C   UNL     1      16.736  67.148  34.957  1.00  0.00     0.000 C 
BRANCH  12  13
ATOM     13  C   UNL     1      15.296  67.128  34.417  1.00  0.00     0.006 C 
BRANCH  13  14
ATOM     14  C   UNL     1      15.251  67.096  32.883  1.00  0.00     0.053 C 
BRANCH  14  15
ATOM     15  C   UNL     1      15.110  68.471  32.301  1.00  0.00     0.041 C 
ATOM     16  O   UNL     1      14.488  68.640  31.218  1.00  0.00    -0.550 OA
ATOM     17  O   UNL     1      15.678  69.564  32.947  1.00  0.00    -0.550 OA
ENDBRANCH  14  15
ENDBRANCH  13  14
ENDBRANCH  12  13
ENDBRANCH  11  12
ENDBRANCH  10  11
ENDBRANCH   9  10
ENDBRANCH   8   9
ENDBRANCH   7   8
ENDBRANCH   6   7
ENDBRANCH   5   6
ENDBRANCH   4   5
ENDBRANCH   3   4
ENDBRANCH   2   3
ENDBRANCH   1   2
BRANCH   1  18
ATOM     18  C   UNL     1      17.956  63.318  34.207  1.00  0.00     0.000 C 
BRANCH  18  19
ATOM     19  C   UNL     1      16.425  63.490  34.111  1.00  0.00     0.000 C 
BRANCH  19  20
ATOM     20  C   UNL     1      15.733  62.426  33.238  1.00  0.00     0.000 C 
BRANCH  20  21
ATOM     21  C   UNL     1      15.732  62.725  31.728  1.00  0.00     0.000 C 
BRANCH  21  22
ATOM     22  C   UNL     1      14.422  63.327  31.177  1.00  0.00     0.000 C 
BRANCH  22  23
ATOM     23  C   UNL     1      13.437  63.832  32.246  1.00  0.00     0.000 C 
BRANCH  23  24
ATOM     24  C   UNL     1      11.976  63.789  31.779  1.00  0.00    -0.000 C 
BRANCH  24  25
ATOM     25  C   UNL     1      11.136  62.885  32.692  1.00  0.00    -0.000 C 
BRANCH  25  26
ATOM     26  C   UNL     1      11.993  62.037  33.646  1.00  0.00    -0.000 C 
BRANCH  26  27
ATOM     27  C   UNL     1      11.913  60.521  33.363  1.00  0.00    -0.000 C 
BRANCH  27  28
ATOM     28  C   UNL     1      13.299  59.853  33.379  1.00  0.00    -0.000 C 
BRANCH  28  29
ATOM     29  C   UNL     1      13.676  59.251  32.008  1.00  0.00    -0.000 C 
BRANCH  29  30
ATOM     30  C   UNL     1      12.939  59.896  30.825  1.00  0.00    -0.000 C 
BRANCH  30  31
ATOM     31  C   UNL     1      13.854  60.160  29.623  1.00  0.00    -0.003 C 
ATOM     32  C   UNL     1      15.237  59.552  29.839  1.00  0.00     0.004 C 
ENDBRANCH  30  31
ENDBRANCH  29  30
ENDBRANCH  28  29
ENDBRANCH  27  28
ENDBRANCH  26  27
ENDBRANCH  25  26
ENDBRANCH  24  25
ENDBRANCH  23  24
ENDBRANCH  22  23
ENDBRANCH  21  22
ENDBRANCH  20  21
ENDBRANCH  19  20
ENDBRANCH  18  19
ENDBRANCH   1  18
TORSDOF 28
ENDMDL
MODEL 4
REMARK VINA RESULT:    -4.539      2.615      7.414
REMARK INTER + INTRA:         -16.561
REMARK INTER:                 -12.142
REMARK INTRA:                  -4.419
REMARK UNBOUND:                -4.593
REMARK SMILES CCCCCCCCCCCCCCCCCCCCCCCCCCCCCC(=O)[O-]
REMARK SMILES IDX 16 1 17 2 18 3 19 4 20 5 21 6 22 7 23 8 24 9 25 10 26 11
REMARK SMILES IDX 27 12 28 13 29 14 30 15 31 16 32 17 15 18 14 19 13 20 12 21
REMARK SMILES IDX 11 22 10 23 9 24 8 25 7 26 6 27 5 28 4 29 3 30 2 31 1 32
REMARK H PARENT
REMARK Flexibility Score: inf
ROOT
ATOM      1  C   UNL     1      17.869  69.423  34.797  1.00  0.00     0.000 C 
ENDROOT
BRANCH   1   2
ATOM      2  C   UNL     1      17.904  69.018  36.281  1.00  0.00     0.000 C 
BRANCH   2   3
ATOM      3  C   UNL     1      19.340  68.843  36.807  1.00  0.00     0.000 C 
BRANCH   3   4
ATOM      4  C   UNL     1      19.457  67.739  37.872  1.00  0.00     0.000 C 
BRANCH   4   5
ATOM      5  C   UNL     1      18.191  67.612  38.739  1.00  0.00     0.000 C 
BRANCH   5   6
ATOM      6  C   UNL     1      17.656  66.170  38.810  1.00  0.00     0.000 C 
BRANCH   6   7
ATOM      7  C   UNL     1      17.115  65.603  37.483  1.00  0.00     0.000 C 
BRANCH   7   8
ATOM      8  C   UNL     1      17.665  64.202  37.162  1.00  0.00     0.000 C 
BRANCH   8   9
ATOM      9  C   UNL     1      18.801  64.226  36.121  1.00  0.00     0.000 C 
BRANCH   9  10
ATOM     10  C   UNL     1      19.398  62.849  35.774  1.00  0.00     0.000 C 
BRANCH  10  11
ATOM     11  C   UNL     1      19.256  62.421  34.301  1.00  0.00     0.000 C 
BRANCH  11  12
ATOM     12  C   UNL     1      19.912  63.394  33.299  1.00  0.00     0.000 C 
BRANCH  12  13
ATOM     13  C   UNL     1      20.229  62.724  31.950  1.00  0.00     0.006 C 
BRANCH  13  14
ATOM     14  C   UNL     1      19.505  63.404  30.780  1.00  0.00     0.053 C 
BRANCH  14  15
ATOM     15  C   UNL     1      20.412  63.599  29.602  1.00  0.00     0.041 C 
ATOM     16  O   UNL     1      21.115  62.642  29.178  1.00  0.00    -0.550 OA
ATOM     17  O   UNL     1      20.492  64.840  28.980  1.00  0.00    -0.550 OA
ENDBRANCH  14  15
ENDBRANCH  13  14
ENDBRANCH  12  13
ENDBRANCH  11  12
ENDBRANCH  10  11
ENDBRANCH   9  10
ENDBRANCH   8   9
ENDBRANCH   7   8
ENDBRANCH   6   7
ENDBRANCH   5   6
ENDBRANCH   4   5
ENDBRANCH   3   4
ENDBRANCH   2   3
ENDBRANCH   1   2
BRANCH   1  18
ATOM     18  C   UNL     1      16.770  68.685  34.012  1.00  0.00     0.000 C 
BRANCH  18  19
ATOM     19  C   UNL     1      15.785  67.935  34.934  1.00  0.00     0.000 C 
BRANCH  19  20
ATOM     20  C   UNL     1      15.433  66.517  34.446  1.00  0.00     0.000 C 
BRANCH  20  21
ATOM     21  C   UNL     1      15.014  66.424  32.968  1.00  0.00     0.000 C 
BRANCH  21  22
ATOM     22  C   UNL     1      14.675  65.004  32.469  1.00  0.00     0.000 C 
BRANCH  22  23
ATOM     23  C   UNL     1      15.821  64.276  31.743  1.00  0.00     0.000 C 
BRANCH  23  24
ATOM     24  C   UNL     1      16.132  62.900  32.347  1.00  0.00    -0.000 C 
BRANCH  24  25
ATOM     25  C   UNL     1      15.749  62.856  33.833  1.00  0.00    -0.000 C 
BRANCH  25  26
ATOM     26  C   UNL     1      15.221  61.480  34.273  1.00  0.00    -0.000 C 
BRANCH  26  27
ATOM     27  C   UNL     1      13.888  61.088  33.598  1.00  0.00    -0.000 C 
BRANCH  27  28
ATOM     28  C   UNL     1      12.759  62.079  33.923  1.00  0.00    -0.000 C 
BRANCH  28  29
ATOM     29  C   UNL     1      11.603  62.008  32.902  1.00  0.00    -0.000 C 
BRANCH  29  30
ATOM     30  C   UNL     1      11.524  63.227  31.971  1.00  0.00    -0.000 C 
BRANCH  30  31
ATOM     31  C   UNL     1      11.706  62.862  30.492  1.00  0.00    -0.003 C 
ATOM     32  C   UNL     1      13.135  62.405  30.210  1.00  0.00     0.004 C 
ENDBRANCH  30  31
ENDBRANCH  29  30
ENDBRANCH  28  29
ENDBRANCH  27  28
ENDBRANCH  26  27
ENDBRANCH  25  26
ENDBRANCH  24  25
ENDBRANCH  23  24
ENDBRANCH  22  23
ENDBRANCH  21  22
ENDBRANCH  20  21
ENDBRANCH  19  20
ENDBRANCH  18  19
ENDBRANCH   1  18
TORSDOF 28
ENDMDL
MODEL 5
REMARK VINA RESULT:    -4.522      2.412      6.573
REMARK INTER + INTRA:         -16.517
REMARK INTER:                 -11.330
REMARK INTRA:                  -5.187
REMARK UNBOUND:                -4.593
REMARK SMILES CCCCCCCCCCCCCCCCCCCCCCCCCCCCCC(=O)[O-]
REMARK SMILES IDX 16 1 17 2 18 3 19 4 20 5 21 6 22 7 23 8 24 9 25 10 26 11
REMARK SMILES IDX 27 12 28 13 29 14 30 15 31 16 32 17 15 18 14 19 13 20 12 21
REMARK SMILES IDX 11 22 10 23 9 24 8 25 7 26 6 27 5 28 4 29 3 30 2 31 1 32
REMARK H PARENT
REMARK Flexibility Score: inf
ROOT
ATOM      1  C   UNL     1      12.106  62.945  30.770  1.00  0.00     0.000 C 
ENDROOT
BRANCH   1   2
ATOM      2  C   UNL     1      11.378  61.936  31.675  1.00  0.00     0.000 C 
BRANCH   2   3
ATOM      3  C   UNL     1      11.333  62.393  33.144  1.00  0.00     0.000 C 
BRANCH   3   4
ATOM      4  C   UNL     1      12.209  61.527  34.066  1.00  0.00     0.000 C 
BRANCH   4   5
ATOM      5  C   UNL     1      12.839  60.328  33.335  1.00  0.00     0.000 C 
BRANCH   5   6
ATOM      6  C   UNL     1      14.363  60.237  33.535  1.00  0.00     0.000 C 
BRANCH   6   7
ATOM      7  C   UNL     1      14.977  61.333  34.428  1.00  0.00     0.000 C 
BRANCH   7   8
ATOM      8  C   UNL     1      16.324  60.919  35.045  1.00  0.00     0.000 C 
BRANCH   8   9
ATOM      9  C   UNL     1      17.412  60.653  33.987  1.00  0.00     0.000 C 
BRANCH   9  10
ATOM     10  C   UNL     1      18.829  60.429  34.550  1.00  0.00     0.000 C 
BRANCH  10  11
ATOM     11  C   UNL     1      19.983  60.864  33.625  1.00  0.00     0.000 C 
BRANCH  11  12
ATOM     12  C   UNL     1      20.509  62.288  33.907  1.00  0.00     0.000 C 
BRANCH  12  13
ATOM     13  C   UNL     1      20.842  63.057  32.617  1.00  0.00     0.006 C 
BRANCH  13  14
ATOM     14  C   UNL     1      20.598  62.215  31.358  1.00  0.00     0.053 C 
BRANCH  14  15
ATOM     15  C   UNL     1      19.357  62.641  30.634  1.00  0.00     0.041 C 
ATOM     16  O   UNL     1      19.303  63.774  30.083  1.00  0.00    -0.550 OA
ATOM     17  O   UNL     1      18.255  61.795  30.578  1.00  0.00    -0.550 OA
ENDBRANCH  14  15
ENDBRANCH  13  14
ENDBRANCH  12  13
ENDBRANCH  11  12
ENDBRANCH  10  11
ENDBRANCH   9  10
ENDBRANCH   8   9
ENDBRANCH   7   8
ENDBRANCH   6   7
ENDBRANCH   5   6
ENDBRANCH   4   5
ENDBRANCH   3   4
ENDBRANCH   2   3
ENDBRANCH   1   2
BRANCH   1  18
ATOM     18  C   UNL     1      13.487  62.437  30.318  1.00  0.00     0.000 C 
BRANCH  18  19
ATOM     19  C   UNL     1      14.642  63.054  31.136  1.00  0.00     0.000 C 
BRANCH  19  20
ATOM     20  C   UNL     1      14.213  64.232  32.030  1.00  0.00     0.000 C 
BRANCH  20  21
ATOM     21  C   UNL     1      15.336  64.836  32.893  1.00  0.00     0.000 C 
BRANCH  21  22
ATOM     22  C   UNL     1      16.698  64.120  32.794  1.00  0.00     0.000 C 
BRANCH  22  23
ATOM     23  C   UNL     1      17.708  64.484  33.897  1.00  0.00     0.000 C 
BRANCH  23  24
ATOM     24  C   UNL     1      17.077  64.522  35.296  1.00  0.00    -0.000 C 
BRANCH  24  25
ATOM     25  C   UNL     1      18.000  65.237  36.293  1.00  0.00    -0.000 C 
BRANCH  25  26
ATOM     26  C   UNL     1      17.354  66.486  36.916  1.00  0.00    -0.000 C 
BRANCH  26  27
ATOM     27  C   UNL     1      17.580  67.772  36.091  1.00  0.00    -0.000 C 
BRANCH  27  28
ATOM     28  C   UNL     1      16.304  68.225  35.362  1.00  0.00    -0.000 C 
BRANCH  28  29
ATOM     29  C   UNL     1      16.450  68.157  33.826  1.00  0.00    -0.000 C 
BRANCH  29  30
ATOM     30  C   UNL     1      15.396  68.978  33.068  1.00  0.00    -0.000 C 
BRANCH  30  31
ATOM     31  C   UNL     1      14.891  68.278  31.800  1.00  0.00    -0.003 C 
ATOM     32  C   UNL     1      14.534  69.290  30.716  1.00  0.00     0.004 C 
ENDBRANCH  30  31
ENDBRANCH  29  30
ENDBRANCH  28  29
ENDBRANCH  27  28
ENDBRANCH  26  27
ENDBRANCH  25  26
ENDBRANCH  24  25
ENDBRANCH  23  24
ENDBRANCH  22  23
ENDBRANCH  21  22
ENDBRANCH  20  21
ENDBRANCH  19  20
ENDBRANCH  18  19
ENDBRANCH   1  18
TORSDOF 28
ENDMDL
MODEL 6
REMARK VINA RESULT:    -4.518      1.514      8.259
REMARK INTER + INTRA:         -16.508
REMARK INTER:                 -12.088
REMARK INTRA:                  -4.420
REMARK UNBOUND:                -4.593
REMARK SMILES CCCCCCCCCCCCCCCCCCCCCCCCCCCCCC(=O)[O-]
REMARK SMILES IDX 16 1 17 2 18 3 19 4 20 5 21 6 22 7 23 8 24 9 25 10 26 11
REMARK SMILES IDX 27 12 28 13 29 14 30 15 31 16 32 17 15 18 14 19 13 20 12 21
REMARK SMILES IDX 11 22 10 23 9 24 8 25 7 26 6 27 5 28 4 29 3 30 2 31 1 32
REMARK H PARENT
REMARK Flexibility Score: inf
ROOT
ATOM      1  C   UNL     1      15.246  67.535  33.980  1.00  0.00     0.000 C 
ENDROOT
BRANCH   1   2
ATOM      2  C   UNL     1      15.350  68.346  32.676  1.00  0.00     0.000 C 
BRANCH   2   3
ATOM      3  C   UNL     1      16.465  69.406  32.732  1.00  0.00     0.000 C 
BRANCH   3   4
ATOM      4  C   UNL     1      16.544  70.120  34.093  1.00  0.00     0.000 C 
BRANCH   4   5
ATOM      5  C   UNL     1      17.935  70.014  34.740  1.00  0.00     0.000 C 
BRANCH   5   6
ATOM      6  C   UNL     1      18.016  68.910  35.811  1.00  0.00     0.000 C 
BRANCH   6   7
ATOM      7  C   UNL     1      19.215  69.013  36.774  1.00  0.00     0.000 C 
BRANCH   7   8
ATOM      8  C   UNL     1      18.796  69.322  38.221  1.00  0.00     0.000 C 
BRANCH   8   9
ATOM      9  C   UNL     1      19.645  68.571  39.265  1.00  0.00     0.000 C 
BRANCH   9  10
ATOM     10  C   UNL     1      18.880  67.522  40.095  1.00  0.00     0.000 C 
BRANCH  10  11
ATOM     11  C   UNL     1      18.601  66.188  39.375  1.00  0.00     0.000 C 
BRANCH  11  12
ATOM     12  C   UNL     1      17.129  66.001  38.950  1.00  0.00     0.000 C 
BRANCH  12  13
ATOM     13  C   UNL     1      16.976  65.803  37.432  1.00  0.00     0.006 C 
BRANCH  13  14
ATOM     14  C   UNL     1      18.290  65.374  36.766  1.00  0.00     0.053 C 
BRANCH  14  15
ATOM     15  C   UNL     1      18.209  63.978  36.224  1.00  0.00     0.041 C 
ATOM     16  O   UNL     1      18.844  63.667  35.180  1.00  0.00    -0.550 OA
ATOM     17  O   UNL     1      17.424  63.025  36.862  1.00  0.00    -0.550 OA
ENDBRANCH  14  15
ENDBRANCH  13  14
ENDBRANCH  12  13
ENDBRANCH  11  12
ENDBRANCH  10  11
ENDBRANCH   9  10
ENDBRANCH   8   9
ENDBRANCH   7   8
ENDBRANCH   6   7
ENDBRANCH   5   6
ENDBRANCH   4   5
ENDBRANCH   3   4
ENDBRANCH   2   3
ENDBRANCH   1   2
BRANCH   1  18
ATOM     18  C   UNL     1      15.827  66.117  33.836  1.00  0.00     0.000 C 
BRANCH  18  19
ATOM     19  C   UNL     1      15.386  65.424  32.529  1.00  0.00     0.000 C 
BRANCH  19  20
ATOM     20  C   UNL     1      15.726  63.923  32.475  1.00  0.00     0.000 C 
BRANCH  20  21
ATOM     21  C   UNL     1      15.569  63.172  33.810  1.00  0.00     0.000 C 
BRANCH  21  22
ATOM     22  C   UNL     1      15.565  61.633  33.702  1.00  0.00     0.000 C 
BRANCH  22  23
ATOM     23  C   UNL     1      14.440  60.928  34.481  1.00  0.00     0.000 C 
BRANCH  23  24
ATOM     24  C   UNL     1      13.772  59.803  33.678  1.00  0.00    -0.000 C 
BRANCH  24  25
ATOM     25  C   UNL     1      14.728  59.249  32.613  1.00  0.00    -0.000 C 
BRANCH  25  26
ATOM     26  C   UNL     1      14.113  59.242  31.203  1.00  0.00    -0.000 C 
BRANCH  26  27
ATOM     27  C   UNL     1      14.597  60.410  30.315  1.00  0.00    -0.000 C 
BRANCH  27  28
ATOM     28  C   UNL     1      13.446  61.347  29.910  1.00  0.00    -0.000 C 
BRANCH  28  29
ATOM     29  C   UNL     1      13.335  62.575  30.838  1.00  0.00    -0.000 C 
BRANCH  29  30
ATOM     30  C   UNL     1      11.895  63.074  31.036  1.00  0.00    -0.000 C 
BRANCH  30  31
ATOM     31  C   UNL     1      11.280  62.610  32.362  1.00  0.00    -0.003 C 
ATOM     32  C   UNL     1      11.863  63.385  33.540  1.00  0.00     0.004 C 
ENDBRANCH  30  31
ENDBRANCH  29  30
ENDBRANCH  28  29
ENDBRANCH  27  28
ENDBRANCH  26  27
ENDBRANCH  25  26
ENDBRANCH  24  25
ENDBRANCH  23  24
ENDBRANCH  22  23
ENDBRANCH  21  22
ENDBRANCH  20  21
ENDBRANCH  19  20
ENDBRANCH  18  19
ENDBRANCH   1  18
TORSDOF 28
ENDMDL
MODEL 7
REMARK VINA RESULT:    -4.477      2.478      6.271
REMARK INTER + INTRA:         -16.399
REMARK INTER:                 -11.945
REMARK INTRA:                  -4.454
REMARK UNBOUND:                -4.593
REMARK SMILES CCCCCCCCCCCCCCCCCCCCCCCCCCCCCC(=O)[O-]
REMARK SMILES IDX 16 1 17 2 18 3 19 4 20 5 21 6 22 7 23 8 24 9 25 10 26 11
REMARK SMILES IDX 27 12 28 13 29 14 30 15 31 16 32 17 15 18 14 19 13 20 12 21
REMARK SMILES IDX 11 22 10 23 9 24 8 25 7 26 6 27 5 28 4 29 3 30 2 31 1 32
REMARK H PARENT
REMARK Flexibility Score: inf
ROOT
ATOM      1  C   UNL     1      19.855  65.765  37.498  1.00  0.00     0.000 C 
ENDROOT
BRANCH   1   2
ATOM      2  C   UNL     1      20.042  66.928  38.488  1.00  0.00     0.000 C 
BRANCH   2   3
ATOM      3  C   UNL     1      19.633  68.283  37.885  1.00  0.00     0.000 C 
BRANCH   3   4
ATOM      4  C   UNL     1      18.225  68.262  37.265  1.00  0.00     0.000 C 
BRANCH   4   5
ATOM      5  C   UNL     1      18.134  69.086  35.969  1.00  0.00     0.000 C 
BRANCH   5   6
ATOM      6  C   UNL     1      17.353  68.366  34.854  1.00  0.00     0.000 C 
BRANCH   6   7
ATOM      7  C   UNL     1      16.634  69.290  33.852  1.00  0.00     0.000 C 
BRANCH   7   8
ATOM      8  C   UNL     1      15.570  68.556  33.017  1.00  0.00     0.000 C 
BRANCH   8   9
ATOM      9  C   UNL     1      15.199  67.177  33.596  1.00  0.00     0.000 C 
BRANCH   9  10
ATOM     10  C   UNL     1      14.870  66.096  32.549  1.00  0.00     0.000 C 
BRANCH  10  11
ATOM     11  C   UNL     1      14.062  64.893  33.074  1.00  0.00     0.000 C 
BRANCH  11  12
ATOM     12  C   UNL     1      13.384  64.061  31.964  1.00  0.00     0.000 C 
BRANCH  12  13
ATOM     13  C   UNL     1      11.936  63.680  32.317  1.00  0.00     0.006 C 
BRANCH  13  14
ATOM     14  C   UNL     1      11.817  63.095  33.731  1.00  0.00     0.053 C 
BRANCH  14  15
ATOM     15  C   UNL     1      12.346  61.693  33.799  1.00  0.00     0.041 C 
ATOM     16  O   UNL     1      11.613  60.723  33.467  1.00  0.00    -0.550 OA
ATOM     17  O   UNL     1      13.642  61.457  34.243  1.00  0.00    -0.550 OA
ENDBRANCH  14  15
ENDBRANCH  13  14
ENDBRANCH  12  13
ENDBRANCH  11  12
ENDBRANCH  10  11
ENDBRANCH   9  10
ENDBRANCH   8   9
ENDBRANCH   7   8
ENDBRANCH   6   7
ENDBRANCH   5   6
ENDBRANCH   4   5
ENDBRANCH   3   4
ENDBRANCH   2   3
ENDBRANCH   1   2
BRANCH   1  18
ATOM     18  C   UNL     1      18.916  64.674  38.043  1.00  0.00     0.000 C 
BRANCH  18  19
ATOM     19  C   UNL     1      17.661  64.479  37.167  1.00  0.00     0.000 C 
BRANCH  19  20
ATOM     20  C   UNL     1      17.867  64.864  35.690  1.00  0.00     0.000 C 
BRANCH  20  21
ATOM     21  C   UNL     1      17.063  64.025  34.681  1.00  0.00     0.000 C 
BRANCH  21  22
ATOM     22  C   UNL     1      17.468  62.539  34.590  1.00  0.00     0.000 C 
BRANCH  22  23
ATOM     23  C   UNL     1      17.780  62.034  33.170  1.00  0.00     0.000 C 
BRANCH  23  24
ATOM     24  C   UNL     1      16.773  62.531  32.124  1.00  0.00    -0.000 C 
BRANCH  24  25
ATOM     25  C   UNL     1      17.470  63.384  31.056  1.00  0.00    -0.000 C 
BRANCH  25  26
ATOM     26  C   UNL     1      18.882  62.879  30.714  1.00  0.00    -0.000 C 
BRANCH  26  27
ATOM     27  C   UNL     1      19.947  63.998  30.688  1.00  0.00    -0.000 C 
BRANCH  27  28
ATOM     28  C   UNL     1      21.279  63.546  31.308  1.00  0.00    -0.000 C 
BRANCH  28  29
ATOM     29  C   UNL     1      21.184  63.369  32.839  1.00  0.00    -0.000 C 
BRANCH  29  30
ATOM     30  C   UNL     1      21.872  62.097  33.359  1.00  0.00    -0.000 C 
BRANCH  30  31
ATOM     31  C   UNL     1      21.230  61.553  34.641  1.00  0.00    -0.003 C 
ATOM     32  C   UNL     1      20.901  62.681  35.614  1.00  0.00     0.004 C 
ENDBRANCH  30  31
ENDBRANCH  29  30
ENDBRANCH  28  29
ENDBRANCH  27  28
ENDBRANCH  26  27
ENDBRANCH  25  26
ENDBRANCH  24  25
ENDBRANCH  23  24
ENDBRANCH  22  23
ENDBRANCH  21  22
ENDBRANCH  20  21
ENDBRANCH  19  20
ENDBRANCH  18  19
ENDBRANCH   1  18
TORSDOF 28
ENDMDL
MODEL 8
REMARK VINA RESULT:    -4.431      3.747      7.934
REMARK INTER + INTRA:         -16.277
REMARK INTER:                 -12.344
REMARK INTRA:                  -3.933
REMARK UNBOUND:                -4.593
REMARK SMILES CCCCCCCCCCCCCCCCCCCCCCCCCCCCCC(=O)[O-]
REMARK SMILES IDX 16 1 17 2 18 3 19 4 20 5 21 6 22 7 23 8 24 9 25 10 26 11
REMARK SMILES IDX 27 12 28 13 29 14 30 15 31 16 32 17 15 18 14 19 13 20 12 21
REMARK SMILES IDX 11 22 10 23 9 24 8 25 7 26 6 27 5 28 4 29 3 30 2 31 1 32
REMARK H PARENT
REMARK Flexibility Score: inf
ROOT
ATOM      1  C   UNL     1      16.707  66.022  34.510  1.00  0.00     0.000 C 
ENDROOT
BRANCH   1   2
ATOM      2  C   UNL     1      15.411  66.835  34.344  1.00  0.00     0.000 C 
BRANCH   2   3
ATOM      3  C   UNL     1      15.317  67.514  32.966  1.00  0.00     0.000 C 
BRANCH   3   4
ATOM      4  C   UNL     1      15.554  69.033  33.029  1.00  0.00     0.000 C 
BRANCH   4   5
ATOM      5  C   UNL     1      17.046  69.399  33.114  1.00  0.00     0.000 C 
BRANCH   5   6
ATOM      6  C   UNL     1      17.386  70.248  34.354  1.00  0.00     0.000 C 
BRANCH   6   7
ATOM      7  C   UNL     1      17.661  69.450  35.643  1.00  0.00     0.000 C 
BRANCH   7   8
ATOM      8  C   UNL     1      19.156  69.379  35.996  1.00  0.00     0.000 C 
BRANCH   8   9
ATOM      9  C   UNL     1      19.411  68.887  37.434  1.00  0.00     0.000 C 
BRANCH   9  10
ATOM     10  C   UNL     1      18.143  68.579  38.254  1.00  0.00     0.000 C 
BRANCH  10  11
ATOM     11  C   UNL     1      18.324  67.554  39.390  1.00  0.00     0.000 C 
BRANCH  11  12
ATOM     12  C   UNL     1      19.562  67.813  40.275  1.00  0.00     0.000 C 
BRANCH  12  13
ATOM     13  C   UNL     1      20.558  66.641  40.251  1.00  0.00     0.006 C 
BRANCH  13  14
ATOM     14  C   UNL     1      20.197  65.593  39.188  1.00  0.00     0.053 C 
BRANCH  14  15
ATOM     15  C   UNL     1      19.901  64.257  39.802  1.00  0.00     0.041 C 
ATOM     16  O   UNL     1      19.938  64.113  41.054  1.00  0.00    -0.550 OA
ATOM     17  O   UNL     1      19.597  63.169  38.992  1.00  0.00    -0.550 OA
ENDBRANCH  14  15
ENDBRANCH  13  14
ENDBRANCH  12  13
ENDBRANCH  11  12
ENDBRANCH  10  11
ENDBRANCH   9  10
ENDBRANCH   8   9
ENDBRANCH   7   8
ENDBRANCH   6   7
ENDBRANCH   5   6
ENDBRANCH   4   5
ENDBRANCH   3   4
ENDBRANCH   2   3
ENDBRANCH   1   2
BRANCH   1  18
ATOM     18  C   UNL     1      17.133  65.890  35.983  1.00  0.00     0.000 C 
BRANCH  18  19
ATOM     19  C   UNL     1      18.167  64.765  36.203  1.00  0.00     0.000 C 
BRANCH  19  20
ATOM     20  C   UNL     1      17.880  63.488  35.391  1.00  0.00     0.000 C 
BRANCH  20  21
ATOM     21  C   UNL     1      19.111  62.858  34.715  1.00  0.00     0.000 C 
BRANCH  21  22
ATOM     22  C   UNL     1      20.412  62.903  35.543  1.00  0.00     0.000 C 
BRANCH  22  23
ATOM     23  C   UNL     1      21.693  63.169  34.733  1.00  0.00     0.000 C 
BRANCH  23  24
ATOM     24  C   UNL     1      22.656  61.974  34.728  1.00  0.00    -0.000 C 
BRANCH  24  25
ATOM     25  C   UNL     1      21.983  60.731  34.131  1.00  0.00    -0.000 C 
BRANCH  25  26
ATOM     26  C   UNL     1      22.890  59.974  33.147  1.00  0.00    -0.000 C 
BRANCH  26  27
ATOM     27  C   UNL     1      23.456  60.866  32.020  1.00  0.00    -0.000 C 
BRANCH  27  28
ATOM     28  C   UNL     1      22.344  61.552  31.209  1.00  0.00    -0.000 C 
BRANCH  28  29
ATOM     29  C   UNL     1      22.616  63.057  30.994  1.00  0.00    -0.000 C 
BRANCH  29  30
ATOM     30  C   UNL     1      21.413  63.829  30.431  1.00  0.00    -0.000 C 
BRANCH  30  31
ATOM     31  C   UNL     1      20.282  64.000  31.453  1.00  0.00    -0.003 C 
ATOM     32  C   UNL     1      19.004  63.312  30.981  1.00  0.00     0.004 C 
ENDBRANCH  30  31
ENDBRANCH  29  30
ENDBRANCH  28  29
ENDBRANCH  27  28
ENDBRANCH  26  27
ENDBRANCH  25  26
ENDBRANCH  24  25
ENDBRANCH  23  24
ENDBRANCH  22  23
ENDBRANCH  21  22
ENDBRANCH  20  21
ENDBRANCH  19  20
ENDBRANCH  18  19
ENDBRANCH   1  18
TORSDOF 28
ENDMDL
MODEL 9
REMARK VINA RESULT:    -4.416      2.008      2.994
REMARK INTER + INTRA:         -16.238
REMARK INTER:                 -11.652
REMARK INTRA:                  -4.586
REMARK UNBOUND:                -4.593
REMARK SMILES CCCCCCCCCCCCCCCCCCCCCCCCCCCCCC(=O)[O-]
REMARK SMILES IDX 16 1 17 2 18 3 19 4 20 5 21 6 22 7 23 8 24 9 25 10 26 11
REMARK SMILES IDX 27 12 28 13 29 14 30 15 31 16 32 17 15 18 14 19 13 20 12 21
REMARK SMILES IDX 11 22 10 23 9 24 8 25 7 26 6 27 5 28 4 29 3 30 2 31 1 32
REMARK H PARENT
REMARK Flexibility Score: inf
ROOT
ATOM      1  C   UNL     1      15.642  68.804  33.058  1.00  0.00     0.000 C 
ENDROOT
BRANCH   1   2
ATOM      2  C   UNL     1      14.875  67.755  32.233  1.00  0.00     0.000 C 
BRANCH   2   3
ATOM      3  C   UNL     1      15.314  66.317  32.559  1.00  0.00     0.000 C 
BRANCH   3   4
ATOM      4  C   UNL     1      14.137  65.406  32.949  1.00  0.00     0.000 C 
BRANCH   4   5
ATOM      5  C   UNL     1      14.532  63.920  33.018  1.00  0.00     0.000 C 
BRANCH   5   6
ATOM      6  C   UNL     1      14.696  63.278  31.628  1.00  0.00     0.000 C 
BRANCH   6   7
ATOM      7  C   UNL     1      15.935  62.377  31.462  1.00  0.00     0.000 C 
BRANCH   7   8
ATOM      8  C   UNL     1      16.831  62.354  32.712  1.00  0.00     0.000 C 
BRANCH   8   9
ATOM      9  C   UNL     1      16.711  61.042  33.513  1.00  0.00     0.000 C 
BRANCH   9  10
ATOM     10  C   UNL     1      15.944  61.157  34.844  1.00  0.00     0.000 C 
BRANCH  10  11
ATOM     11  C   UNL     1      14.541  60.519  34.855  1.00  0.00     0.000 C 
BRANCH  11  12
ATOM     12  C   UNL     1      14.256  59.613  33.639  1.00  0.00     0.000 C 
BRANCH  12  13
ATOM     13  C   UNL     1      13.028  60.076  32.836  1.00  0.00     0.006 C 
BRANCH  13  14
ATOM     14  C   UNL     1      12.216  61.145  33.580  1.00  0.00     0.053 C 
BRANCH  14  15
ATOM     15  C   UNL     1      11.319  61.909  32.652  1.00  0.00     0.041 C 
ATOM     16  O   UNL     1      11.092  63.132  32.856  1.00  0.00    -0.550 OA
ATOM     17  O   UNL     1      10.722  61.268  31.572  1.00  0.00    -0.550 OA
ENDBRANCH  14  15
ENDBRANCH  13  14
ENDBRANCH  12  13
ENDBRANCH  11  12
ENDBRANCH  10  11
ENDBRANCH   9  10
ENDBRANCH   8   9
ENDBRANCH   7   8
ENDBRANCH   6   7
ENDBRANCH   5   6
ENDBRANCH   4   5
ENDBRANCH   3   4
ENDBRANCH   2   3
ENDBRANCH   1   2
BRANCH   1  18
ATOM     18  C   UNL     1      16.708  68.169  33.968  1.00  0.00     0.000 C 
BRANCH  18  19
ATOM     19  C   UNL     1      17.436  69.211  34.844  1.00  0.00     0.000 C 
BRANCH  19  20
ATOM     20  C   UNL     1      17.760  68.712  36.265  1.00  0.00     0.000 C 
BRANCH  20  21
ATOM     21  C   UNL     1      19.191  69.011  36.748  1.00  0.00     0.000 C 
BRANCH  21  22
ATOM     22  C   UNL     1      19.385  68.999  38.278  1.00  0.00     0.000 C 
BRANCH  22  23
ATOM     23  C   UNL     1      18.125  68.654  39.092  1.00  0.00     0.000 C 
BRANCH  23  24
ATOM     24  C   UNL     1      18.177  67.249  39.707  1.00  0.00    -0.000 C 
BRANCH  24  25
ATOM     25  C   UNL     1      17.209  66.300  38.987  1.00  0.00    -0.000 C 
BRANCH  25  26
ATOM     26  C   UNL     1      17.916  65.378  37.979  1.00  0.00    -0.000 C 
BRANCH  26  27
ATOM     27  C   UNL     1      17.209  65.310  36.607  1.00  0.00    -0.000 C 
BRANCH  27  28
ATOM     28  C   UNL     1      17.844  64.260  35.679  1.00  0.00    -0.000 C 
BRANCH  28  29
ATOM     29  C   UNL     1      19.302  63.937  36.068  1.00  0.00    -0.000 C 
BRANCH  29  30
ATOM     30  C   UNL     1      19.657  62.447  35.955  1.00  0.00    -0.000 C 
BRANCH  30  31
ATOM     31  C   UNL     1      20.088  62.041  34.541  1.00  0.00    -0.003 C 
ATOM     32  C   UNL     1      21.041  63.069  33.939  1.00  0.00     0.004 C 
ENDBRANCH  30  31
ENDBRANCH  29  30
ENDBRANCH  28  29
ENDBRANCH  27  28
ENDBRANCH  26  27
ENDBRANCH  25  26
ENDBRANCH  24  25
ENDBRANCH  23  24
ENDBRANCH  22  23
ENDBRANCH  21  22
ENDBRANCH  20  21
ENDBRANCH  19  20
ENDBRANCH  18  19
ENDBRANCH   1  18
TORSDOF 28
ENDMDL
