MODEL 1
REMARK VINA RESULT:    -8.247      0.000      0.000
REMARK INTER + INTRA:          -8.535
REMARK INTER:                  -8.970
REMARK INTRA:                   0.435
REMARK UNBOUND:                 0.435
REMARK SMILES CC1(C)CC[C@@]2(C(=O)[O-])CC[C@]3(C)C(=CC[C@H]4[C@@]5(C)CC[C@@H](O)C(C)(C)[C@@H]5CC[C@@]43C)[C@H]2C1
REMARK SMILES IDX 6 1 5 2 10 3 32 4 4 5 11 6 14 7 33 8 2 9 12 10 15 11 1 12
REMARK SMILES IDX 3 13 13 14 30 15 16 16 17 17 29 18 31 19 18 20 28 21 27 22
REMARK SMILES IDX 20 23 19 24 24 25 21 26 22 27 25 28 26 29 7 30 8 31 9 32
REMARK SMILES IDX 23 33
REMARK H PARENT 23 34
REMARK Flexibility Score: inf
ROOT
ATOM      1  C   UNL     1       9.175   9.473 -16.639  1.00  0.00     0.017 C 
ATOM      2  C   UNL     1       7.700   9.325 -17.165  1.00  0.00     0.014 C 
ATOM      3  C   UNL     1      10.005  10.189 -17.740  1.00  0.00     0.014 C 
ATOM      4  C   UNL     1       9.335  10.227 -15.258  1.00  0.00     0.028 C 
ATOM      5  C   UNL     1       6.667   9.873 -16.173  1.00  0.00     0.007 C 
ATOM      6  C   UNL     1       9.751  11.713 -17.784  1.00  0.00     0.013 C 
ATOM      7  C   UNL     1       9.422  11.781 -15.276  1.00  0.00    -0.064 C 
ATOM      8  C   UNL     1       8.311   9.650 -14.230  1.00  0.00     0.015 C 
ATOM      9  C   UNL     1       6.875   9.379 -14.720  1.00  0.00    -0.035 C 
ATOM     10  C   UNL     1      10.206  12.430 -16.478  1.00  0.00    -0.006 C 
ATOM     11  C   UNL     1       8.875  12.673 -14.326  1.00  0.00    -0.027 C 
ATOM     12  C   UNL     1       6.658   7.836 -14.674  1.00  0.00     0.011 C 
ATOM     13  C   UNL     1       5.875  10.084 -13.754  1.00  0.00     0.011 C 
ATOM     14  C   UNL     1      11.763  12.136 -16.375  1.00  0.00     0.017 C 
ATOM     15  C   UNL     1       9.931  14.064 -16.486  1.00  0.00    -0.020 C 
ATOM     16  C   UNL     1       7.707  13.623 -15.009  1.00  0.00     0.032 C 
ATOM     17  C   UNL     1       8.305  14.283 -16.332  1.00  0.00     0.006 C 
ATOM     18  C   UNL     1      10.560  14.715 -17.816  1.00  0.00     0.008 C 
ATOM     19  C   UNL     1      10.681  14.767 -15.278  1.00  0.00     0.012 C 
ATOM     20  C   UNL     1       7.484  15.373 -17.274  1.00  0.00    -0.025 C 
ATOM     21  C   UNL     1       9.580  15.369 -18.767  1.00  0.00     0.005 C 
ATOM     22  C   UNL     1       8.581  16.244 -18.048  1.00  0.00     0.003 C 
ATOM     23  C   UNL     1       6.459  16.318 -16.508  1.00  0.00     0.010 C 
ATOM     24  C   UNL     1       6.605  14.597 -18.349  1.00  0.00     0.012 C 
ATOM     25  C   UNL     1       8.202  17.665 -18.724  1.00  0.00    -0.006 C 
ATOM     26  C   UNL     1       6.646  17.827 -16.721  1.00  0.00     0.033 C 
ATOM     27  C   UNL     1       6.768  18.081 -18.227  1.00  0.00     0.120 C 
ATOM     28  C   UNL     1       8.069  17.625 -20.302  1.00  0.00     0.014 C 
ATOM     29  C   UNL     1       9.321  18.727 -18.369  1.00  0.00     0.014 C 
ENDROOT
BRANCH   1  30
ATOM     30  C   UNL     1       9.718   8.041 -16.522  1.00  0.00     0.048 C 
ATOM     31  O   UNL     1      10.952   7.805 -16.375  1.00  0.00    -0.550 OA
ATOM     32  O   UNL     1      11.142   7.956 -16.338  1.00  0.00    -0.550 OA
ENDBRANCH   1  30
BRANCH  27  33
ATOM     33  O   UNL     1       6.328  19.367 -18.631  1.00  0.00    -0.393 OA
ATOM     34  H   UNL     1       6.795  19.675 -19.431  1.00  0.00     0.210 HD
ENDBRANCH  27  33
TORSDOF 2
ENDMDL
MODEL 2
REMARK VINA RESULT:    -7.671      2.141      3.451
REMARK INTER + INTRA:          -7.909
REMARK INTER:                  -8.298
REMARK INTRA:                   0.389
REMARK UNBOUND:                 0.435
REMARK SMILES CC1(C)CC[C@@]2(C(=O)[O-])CC[C@]3(C)C(=CC[C@H]4[C@@]5(C)CC[C@@H](O)C(C)(C)[C@@H]5CC[C@@]43C)[C@H]2C1
REMARK SMILES IDX 6 1 5 2 10 3 32 4 4 5 11 6 14 7 33 8 2 9 12 10 15 11 1 12
REMARK SMILES IDX 3 13 13 14 30 15 16 16 17 17 29 18 31 19 18 20 28 21 27 22
REMARK SMILES IDX 20 23 19 24 24 25 21 26 22 27 25 28 26 29 7 30 8 31 9 32
REMARK SMILES IDX 23 33
REMARK H PARENT 23 34
REMARK Flexibility Score: inf
ROOT
ATOM      1  C   UNL     1       8.590   8.403 -15.133  1.00  0.00     0.017 C 
ATOM      2  C   UNL     1       9.230   7.841 -16.456  1.00  0.00     0.014 C 
ATOM      3  C   UNL     1       9.521   9.522 -14.591  1.00  0.00     0.014 C 
ATOM      4  C   UNL     1       7.109   8.942 -15.267  1.00  0.00     0.028 C 
ATOM      5  C   UNL     1       8.243   7.838 -17.628  1.00  0.00     0.007 C 
ATOM      6  C   UNL     1       9.367  10.853 -15.362  1.00  0.00     0.013 C 
ATOM      7  C   UNL     1       6.903  10.414 -15.729  1.00  0.00    -0.064 C 
ATOM      8  C   UNL     1       6.244   7.895 -16.038  1.00  0.00     0.015 C 
ATOM      9  C   UNL     1       6.862   7.227 -17.282  1.00  0.00    -0.035 C 
ATOM     10  C   UNL     1       7.946  11.471 -15.205  1.00  0.00    -0.006 C 
ATOM     11  C   UNL     1       5.875  10.903 -16.567  1.00  0.00    -0.027 C 
ATOM     12  C   UNL     1       7.049   5.716 -16.944  1.00  0.00     0.011 C 
ATOM     13  C   UNL     1       5.876   7.386 -18.478  1.00  0.00     0.011 C 
ATOM     14  C   UNL     1       7.780  11.718 -13.646  1.00  0.00     0.017 C 
ATOM     15  C   UNL     1       7.742  12.890 -16.035  1.00  0.00    -0.020 C 
ATOM     16  C   UNL     1       6.496  11.487 -17.984  1.00  0.00     0.032 C 
ATOM     17  C   UNL     1       7.669  12.510 -17.637  1.00  0.00     0.006 C 
ATOM     18  C   UNL     1       8.922  13.917 -15.656  1.00  0.00     0.008 C 
ATOM     19  C   UNL     1       6.399  13.612 -15.596  1.00  0.00     0.012 C 
ATOM     20  C   UNL     1       8.502  13.384 -18.774  1.00  0.00    -0.025 C 
ATOM     21  C   UNL     1       9.835  14.333 -16.789  1.00  0.00     0.005 C 
ATOM     22  C   UNL     1       9.069  14.688 -18.041  1.00  0.00     0.003 C 
ATOM     23  C   UNL     1       7.681  13.787 -20.076  1.00  0.00     0.010 C 
ATOM     24  C   UNL     1       9.731  12.529 -19.311  1.00  0.00     0.012 C 
ATOM     25  C   UNL     1       9.562  15.978 -18.884  1.00  0.00    -0.006 C 
ATOM     26  C   UNL     1       7.666  15.282 -20.427  1.00  0.00     0.033 C 
ATOM     27  C   UNL     1       9.110  15.793 -20.380  1.00  0.00     0.120 C 
ATOM     28  C   UNL     1      11.136  16.141 -18.972  1.00  0.00     0.014 C 
ATOM     29  C   UNL     1       8.987  17.291 -18.214  1.00  0.00     0.014 C 
ENDROOT
BRANCH   1  30
ATOM     30  C   UNL     1       8.639   7.246 -14.125  1.00  0.00     0.048 C 
ATOM     31  O   UNL     1       8.074   7.320 -12.996  1.00  0.00    -0.550 OA
ATOM     32  O   UNL     1       7.926   7.491 -12.899  1.00  0.00    -0.550 OA
ENDBRANCH   1  30
BRANCH  27  33
ATOM     33  O   UNL     1       9.358  16.895 -21.237  1.00  0.00    -0.393 OA
ATOM     34  H   UNL     1       9.315  16.638 -22.178  1.00  0.00     0.210 HD
ENDBRANCH  27  33
TORSDOF 2
ENDMDL
MODEL 3
REMARK VINA RESULT:    -7.608      2.123      2.989
REMARK INTER + INTRA:          -7.841
REMARK INTER:                  -8.400
REMARK INTRA:                   0.559
REMARK UNBOUND:                 0.435
REMARK SMILES CC1(C)CC[C@@]2(C(=O)[O-])CC[C@]3(C)C(=CC[C@H]4[C@@]5(C)CC[C@@H](O)C(C)(C)[C@@H]5CC[C@@]43C)[C@H]2C1
REMARK SMILES IDX 6 1 5 2 10 3 32 4 4 5 11 6 14 7 33 8 2 9 12 10 15 11 1 12
REMARK SMILES IDX 3 13 13 14 30 15 16 16 17 17 29 18 31 19 18 20 28 21 27 22
REMARK SMILES IDX 20 23 19 24 24 25 21 26 22 27 25 28 26 29 7 30 8 31 9 32
REMARK SMILES IDX 23 33
REMARK H PARENT 23 34
REMARK Flexibility Score: inf
ROOT
ATOM      1  C   UNL     1       7.663   7.303 -15.629  1.00  0.00     0.017 C 
ATOM      2  C   UNL     1       6.181   7.754 -15.353  1.00  0.00     0.014 C 
ATOM      3  C   UNL     1       7.946   7.501 -17.144  1.00  0.00     0.014 C 
ATOM      4  C   UNL     1       8.770   8.031 -14.767  1.00  0.00     0.028 C 
ATOM      5  C   UNL     1       6.084   8.771 -14.210  1.00  0.00     0.007 C 
ATOM      6  C   UNL     1       8.211   8.978 -17.514  1.00  0.00     0.013 C 
ATOM      7  C   UNL     1       9.324   9.392 -15.281  1.00  0.00    -0.064 C 
ATOM      8  C   UNL     1       8.340   8.034 -13.266  1.00  0.00     0.015 C 
ATOM      9  C   UNL     1       6.869   8.361 -12.939  1.00  0.00    -0.035 C 
ATOM     10  C   UNL     1       9.497   9.540 -16.839  1.00  0.00    -0.006 C 
ATOM     11  C   UNL     1       9.692  10.509 -14.496  1.00  0.00    -0.027 C 
ATOM     12  C   UNL     1       6.234   7.067 -12.346  1.00  0.00     0.011 C 
ATOM     13  C   UNL     1       6.834   9.504 -11.880  1.00  0.00     0.011 C 
ATOM     14  C   UNL     1      10.674   8.621 -17.378  1.00  0.00     0.017 C 
ATOM     15  C   UNL     1       9.798  11.128 -17.202  1.00  0.00    -0.020 C 
ATOM     16  C   UNL     1       8.716  11.804 -14.816  1.00  0.00     0.032 C 
ATOM     17  C   UNL     1       8.682  12.032 -16.394  1.00  0.00     0.006 C 
ATOM     18  C   UNL     1       9.782  11.335 -18.798  1.00  0.00     0.008 C 
ATOM     19  C   UNL     1      11.258  11.545 -16.739  1.00  0.00     0.012 C 
ATOM     20  C   UNL     1       7.882  13.283 -17.131  1.00  0.00    -0.025 C 
ATOM     21  C   UNL     1       8.714  12.261 -19.340  1.00  0.00     0.005 C 
ATOM     22  C   UNL     1       8.600  13.536 -18.539  1.00  0.00     0.003 C 
ATOM     23  C   UNL     1       7.796  14.636 -16.298  1.00  0.00     0.010 C 
ATOM     24  C   UNL     1       6.371  12.868 -17.401  1.00  0.00     0.012 C 
ATOM     25  C   UNL     1       8.394  14.919 -19.352  1.00  0.00    -0.006 C 
ATOM     26  C   UNL     1       8.307  15.898 -17.007  1.00  0.00     0.033 C 
ATOM     27  C   UNL     1       7.674  15.947 -18.402  1.00  0.00     0.120 C 
ATOM     28  C   UNL     1       7.429  14.806 -20.603  1.00  0.00     0.014 C 
ATOM     29  C   UNL     1       9.796  15.429 -19.879  1.00  0.00     0.014 C 
ENDROOT
BRANCH   1  30
ATOM     30  C   UNL     1       7.693   5.792 -15.357  1.00  0.00     0.048 C 
ATOM     31  O   UNL     1       6.632   5.112 -15.251  1.00  0.00    -0.550 OA
ATOM     32  O   UNL     1       6.396   5.172 -15.287  1.00  0.00    -0.550 OA
ENDBRANCH   1  30
BRANCH  27  33
ATOM     33  O   UNL     1       7.523  17.259 -18.919  1.00  0.00    -0.393 OA
ATOM     34  H   UNL     1       8.117  17.894 -18.474  1.00  0.00     0.210 HD
ENDBRANCH  27  33
TORSDOF 2
ENDMDL
MODEL 4
REMARK VINA RESULT:    -7.265      1.674      7.836
REMARK INTER + INTRA:          -7.468
REMARK INTER:                  -8.052
REMARK INTRA:                   0.584
REMARK UNBOUND:                 0.435
REMARK SMILES CC1(C)CC[C@@]2(C(=O)[O-])CC[C@]3(C)C(=CC[C@H]4[C@@]5(C)CC[C@@H](O)C(C)(C)[C@@H]5CC[C@@]43C)[C@H]2C1
REMARK SMILES IDX 6 1 5 2 10 3 32 4 4 5 11 6 14 7 33 8 2 9 12 10 15 11 1 12
REMARK SMILES IDX 3 13 13 14 30 15 16 16 17 17 29 18 31 19 18 20 28 21 27 22
REMARK SMILES IDX 20 23 19 24 24 25 21 26 22 27 25 28 26 29 7 30 8 31 9 32
REMARK SMILES IDX 23 33
REMARK H PARENT 23 34
REMARK Flexibility Score: inf
ROOT
ATOM      1  C   UNL     1       8.311  16.661 -17.818  1.00  0.00     0.017 C 
ATOM      2  C   UNL     1       6.972  16.343 -18.582  1.00  0.00     0.014 C 
ATOM      3  C   UNL     1       8.089  16.342 -16.314  1.00  0.00     0.014 C 
ATOM      4  C   UNL     1       9.596  15.909 -18.351  1.00  0.00     0.028 C 
ATOM      5  C   UNL     1       7.190  15.414 -19.782  1.00  0.00     0.007 C 
ATOM      6  C   UNL     1       8.146  14.829 -16.009  1.00  0.00     0.013 C 
ATOM      7  C   UNL     1       9.887  14.479 -17.810  1.00  0.00    -0.064 C 
ATOM      8  C   UNL     1       9.665  16.037 -19.906  1.00  0.00     0.015 C 
ATOM      9  C   UNL     1       8.359  15.845 -20.702  1.00  0.00    -0.035 C 
ATOM     10  C   UNL     1       9.549  14.215 -16.295  1.00  0.00    -0.006 C 
ATOM     11  C   UNL     1      10.427  13.391 -18.534  1.00  0.00    -0.027 C 
ATOM     12  C   UNL     1       8.011  17.220 -21.350  1.00  0.00     0.011 C 
ATOM     13  C   UNL     1       8.602  14.781 -21.814  1.00  0.00     0.011 C 
ATOM     14  C   UNL     1      10.539  15.005 -15.338  1.00  0.00     0.017 C 
ATOM     15  C   UNL     1       9.637  12.588 -15.995  1.00  0.00    -0.020 C 
ATOM     16  C   UNL     1       9.334  12.156 -18.648  1.00  0.00     0.032 C 
ATOM     17  C   UNL     1       8.790  11.828 -17.185  1.00  0.00     0.006 C 
ATOM     18  C   UNL     1       9.104  12.279 -14.508  1.00  0.00     0.008 C 
ATOM     19  C   UNL     1      11.144  12.094 -16.013  1.00  0.00     0.012 C 
ATOM     20  C   UNL     1       7.734  10.595 -16.847  1.00  0.00    -0.025 C 
ATOM     21  C   UNL     1       7.874  11.404 -14.408  1.00  0.00     0.005 C 
ATOM     22  C   UNL     1       7.955  10.197 -15.313  1.00  0.00     0.003 C 
ATOM     23  C   UNL     1       7.847   9.310 -17.778  1.00  0.00     0.010 C 
ATOM     24  C   UNL     1       6.238  11.105 -17.027  1.00  0.00     0.012 C 
ATOM     25  C   UNL     1       7.430   8.782 -14.728  1.00  0.00    -0.006 C 
ATOM     26  C   UNL     1       8.042   7.969 -17.057  1.00  0.00     0.033 C 
ATOM     27  C   UNL     1       6.996   7.877 -15.940  1.00  0.00     0.120 C 
ATOM     28  C   UNL     1       6.125   8.886 -13.835  1.00  0.00     0.014 C 
ATOM     29  C   UNL     1       8.564   8.133 -13.835  1.00  0.00     0.014 C 
ENDROOT
BRANCH   1  30
ATOM     30  C   UNL     1       8.504  18.180 -17.936  1.00  0.00     0.048 C 
ATOM     31  O   UNL     1       7.590  18.936 -18.377  1.00  0.00    -0.550 OA
ATOM     32  O   UNL     1       7.356  18.890 -18.437  1.00  0.00    -0.550 OA
ENDBRANCH   1  30
BRANCH  27  33
ATOM     33  O   UNL     1       6.622   6.549 -15.611  1.00  0.00    -0.393 OA
ATOM     34  H   UNL     1       5.927   6.529 -14.926  1.00  0.00     0.210 HD
ENDBRANCH  27  33
TORSDOF 2
ENDMDL
MODEL 5
REMARK VINA RESULT:    -6.838      1.994      3.830
REMARK INTER + INTRA:          -7.003
REMARK INTER:                  -7.393
REMARK INTRA:                   0.390
REMARK UNBOUND:                 0.435
REMARK SMILES CC1(C)CC[C@@]2(C(=O)[O-])CC[C@]3(C)C(=CC[C@H]4[C@@]5(C)CC[C@@H](O)C(C)(C)[C@@H]5CC[C@@]43C)[C@H]2C1
REMARK SMILES IDX 6 1 5 2 10 3 32 4 4 5 11 6 14 7 33 8 2 9 12 10 15 11 1 12
REMARK SMILES IDX 3 13 13 14 30 15 16 16 17 17 29 18 31 19 18 20 28 21 27 22
REMARK SMILES IDX 20 23 19 24 24 25 21 26 22 27 25 28 26 29 7 30 8 31 9 32
REMARK SMILES IDX 23 33
REMARK H PARENT 23 34
REMARK Flexibility Score: inf
ROOT
ATOM      1  C   UNL     1       7.023   9.088 -15.836  1.00  0.00     0.017 C 
ATOM      2  C   UNL     1       7.620   9.683 -14.507  1.00  0.00     0.014 C 
ATOM      3  C   UNL     1       5.875  10.025 -16.303  1.00  0.00     0.014 C 
ATOM      4  C   UNL     1       8.058   8.866 -17.010  1.00  0.00     0.028 C 
ATOM      5  C   UNL     1       9.142   9.852 -14.575  1.00  0.00     0.007 C 
ATOM      6  C   UNL     1       6.393  11.312 -16.983  1.00  0.00     0.013 C 
ATOM      7  C   UNL     1       8.371  10.067 -17.950  1.00  0.00    -0.064 C 
ATOM      8  C   UNL     1       9.321   8.134 -16.456  1.00  0.00     0.015 C 
ATOM      9  C   UNL     1       9.888   8.600 -15.100  1.00  0.00    -0.035 C 
ATOM     10  C   UNL     1       7.167  11.019 -18.302  1.00  0.00    -0.006 C 
ATOM     11  C   UNL     1       9.621  10.391 -18.525  1.00  0.00    -0.027 C 
ATOM     12  C   UNL     1       9.684   7.429 -14.092  1.00  0.00     0.011 C 
ATOM     13  C   UNL     1      11.408   8.898 -15.269  1.00  0.00     0.011 C 
ATOM     14  C   UNL     1       6.113  10.291 -19.239  1.00  0.00     0.017 C 
ATOM     15  C   UNL     1       7.753  12.379 -19.046  1.00  0.00    -0.020 C 
ATOM     16  C   UNL     1      10.173  11.844 -17.961  1.00  0.00     0.032 C 
ATOM     17  C   UNL     1       9.014  12.925 -18.138  1.00  0.00     0.006 C 
ATOM     18  C   UNL     1       6.566  13.449 -19.236  1.00  0.00     0.008 C 
ATOM     19  C   UNL     1       8.256  12.046 -20.513  1.00  0.00     0.012 C 
ATOM     20  C   UNL     1       9.186  14.533 -17.771  1.00  0.00    -0.025 C 
ATOM     21  C   UNL     1       6.732  14.766 -18.508  1.00  0.00     0.005 C 
ATOM     22  C   UNL     1       8.123  15.334 -18.660  1.00  0.00     0.003 C 
ATOM     23  C   UNL     1      10.645  15.137 -17.968  1.00  0.00     0.010 C 
ATOM     24  C   UNL     1       8.845  14.772 -16.236  1.00  0.00     0.012 C 
ATOM     25  C   UNL     1       8.262  16.927 -18.905  1.00  0.00    -0.006 C 
ATOM     26  C   UNL     1      10.745  16.382 -18.860  1.00  0.00     0.033 C 
ATOM     27  C   UNL     1       9.680  17.383 -18.397  1.00  0.00     0.120 C 
ATOM     28  C   UNL     1       7.248  17.810 -18.067  1.00  0.00     0.014 C 
ATOM     29  C   UNL     1       8.014  17.244 -20.435  1.00  0.00     0.014 C 
ENDROOT
BRANCH   1  30
ATOM     30  C   UNL     1       6.382   7.750 -15.439  1.00  0.00     0.048 C 
ATOM     31  O   UNL     1       5.907   6.956 -16.301  1.00  0.00    -0.550 OA
ATOM     32  O   UNL     1       5.912   6.962 -16.547  1.00  0.00    -0.550 OA
ENDBRANCH   1  30
BRANCH  27  33
ATOM     33  O   UNL     1      10.016  18.737 -18.648  1.00  0.00    -0.393 OA
ATOM     34  H   UNL     1       9.384  19.159 -19.262  1.00  0.00     0.210 HD
ENDBRANCH  27  33
TORSDOF 2
ENDMDL
MODEL 6
REMARK VINA RESULT:    -6.173      2.325      7.874
REMARK INTER + INTRA:          -6.279
REMARK INTER:                  -6.969
REMARK INTRA:                   0.690
REMARK UNBOUND:                 0.435
REMARK SMILES CC1(C)CC[C@@]2(C(=O)[O-])CC[C@]3(C)C(=CC[C@H]4[C@@]5(C)CC[C@@H](O)C(C)(C)[C@@H]5CC[C@@]43C)[C@H]2C1
REMARK SMILES IDX 6 1 5 2 10 3 32 4 4 5 11 6 14 7 33 8 2 9 12 10 15 11 1 12
REMARK SMILES IDX 3 13 13 14 30 15 16 16 17 17 29 18 31 19 18 20 28 21 27 22
REMARK SMILES IDX 20 23 19 24 24 25 21 26 22 27 25 28 26 29 7 30 8 31 9 32
REMARK SMILES IDX 23 33
REMARK H PARENT 23 34
REMARK Flexibility Score: inf
ROOT
ATOM      1  C   UNL     1       9.110  14.677 -17.248  1.00  0.00     0.017 C 
ATOM      2  C   UNL     1       7.541  14.809 -17.247  1.00  0.00     0.014 C 
ATOM      3  C   UNL     1       9.542  14.127 -15.861  1.00  0.00     0.014 C 
ATOM      4  C   UNL     1       9.719  13.787 -18.403  1.00  0.00     0.028 C 
ATOM      5  C   UNL     1       6.895  14.108 -18.447  1.00  0.00     0.007 C 
ATOM      6  C   UNL     1       9.305  12.606 -15.721  1.00  0.00     0.013 C 
ATOM      7  C   UNL     1       9.812  12.250 -18.174  1.00  0.00    -0.064 C 
ATOM      8  C   UNL     1       9.081  14.198 -19.767  1.00  0.00     0.015 C 
ATOM      9  C   UNL     1       7.560  14.450 -19.804  1.00  0.00    -0.035 C 
ATOM     10  C   UNL     1      10.169  11.775 -16.715  1.00  0.00    -0.006 C 
ATOM     11  C   UNL     1       9.615  11.235 -19.138  1.00  0.00    -0.027 C 
ATOM     12  C   UNL     1       7.354  15.967 -20.100  1.00  0.00     0.011 C 
ATOM     13  C   UNL     1       6.938  13.596 -20.950  1.00  0.00     0.011 C 
ATOM     14  C   UNL     1      11.671  12.131 -16.345  1.00  0.00     0.017 C 
ATOM     15  C   UNL     1       9.923  10.140 -16.603  1.00  0.00    -0.020 C 
ATOM     16  C   UNL     1       8.298  10.309 -18.760  1.00  0.00     0.032 C 
ATOM     17  C   UNL     1       8.439   9.826 -17.246  1.00  0.00     0.006 C 
ATOM     18  C   UNL     1      10.091   9.668 -15.074  1.00  0.00     0.008 C 
ATOM     19  C   UNL     1      11.034   9.347 -17.412  1.00  0.00     0.012 C 
ATOM     20  C   UNL     1       7.368   8.806 -16.497  1.00  0.00    -0.025 C 
ATOM     21  C   UNL     1       8.862   9.074 -14.420  1.00  0.00     0.005 C 
ATOM     22  C   UNL     1       8.162   8.078 -15.313  1.00  0.00     0.003 C 
ATOM     23  C   UNL     1       6.659   7.734 -17.435  1.00  0.00     0.010 C 
ATOM     24  C   UNL     1       6.178   9.650 -15.864  1.00  0.00     0.012 C 
ATOM     25  C   UNL     1       7.598   6.723 -14.633  1.00  0.00    -0.006 C 
ATOM     26  C   UNL     1       6.782   6.268 -16.997  1.00  0.00     0.033 C 
ATOM     27  C   UNL     1       6.409   6.186 -15.512  1.00  0.00     0.120 C 
ATOM     28  C   UNL     1       6.958   6.927 -13.198  1.00  0.00     0.014 C 
ATOM     29  C   UNL     1       8.783   5.685 -14.479  1.00  0.00     0.014 C 
ENDROOT
BRANCH   1  30
ATOM     30  C   UNL     1       9.645  16.113 -17.352  1.00  0.00     0.048 C 
ATOM     31  O   UNL     1      10.697  16.388 -17.999  1.00  0.00    -0.550 OA
ATOM     32  O   UNL     1      10.840  16.248 -18.143  1.00  0.00    -0.550 OA
ENDBRANCH   1  30
BRANCH  27  33
ATOM     33  O   UNL     1       5.875   4.931 -15.123  1.00  0.00    -0.393 OA
ATOM     34  H   UNL     1       6.247   4.628 -14.272  1.00  0.00     0.210 HD
ENDBRANCH  27  33
TORSDOF 2
ENDMDL
MODEL 7
REMARK VINA RESULT:    -5.307      2.195      4.114
REMARK INTER + INTRA:          -5.338
REMARK INTER:                  -5.908
REMARK INTRA:                   0.570
REMARK UNBOUND:                 0.435
REMARK SMILES CC1(C)CC[C@@]2(C(=O)[O-])CC[C@]3(C)C(=CC[C@H]4[C@@]5(C)CC[C@@H](O)C(C)(C)[C@@H]5CC[C@@]43C)[C@H]2C1
REMARK SMILES IDX 6 1 5 2 10 3 32 4 4 5 11 6 14 7 33 8 2 9 12 10 15 11 1 12
REMARK SMILES IDX 3 13 13 14 30 15 16 16 17 17 29 18 31 19 18 20 28 21 27 22
REMARK SMILES IDX 20 23 19 24 24 25 21 26 22 27 25 28 26 29 7 30 8 31 9 32
REMARK SMILES IDX 23 33
REMARK H PARENT 23 34
REMARK Flexibility Score: inf
ROOT
ATOM      1  C   UNL     1       8.235   7.291 -15.259  1.00  0.00     0.017 C 
ATOM      2  C   UNL     1       9.203   6.886 -16.431  1.00  0.00     0.014 C 
ATOM      3  C   UNL     1       8.963   8.348 -14.383  1.00  0.00     0.014 C 
ATOM      4  C   UNL     1       6.816   7.831 -15.701  1.00  0.00     0.028 C 
ATOM      5  C   UNL     1       8.538   7.009 -17.807  1.00  0.00     0.007 C 
ATOM      6  C   UNL     1       8.958   9.756 -15.020  1.00  0.00     0.013 C 
ATOM      7  C   UNL     1       6.680   9.345 -16.039  1.00  0.00    -0.064 C 
ATOM      8  C   UNL     1       6.207   6.873 -16.772  1.00  0.00     0.015 C 
ATOM      9  C   UNL     1       7.137   6.353 -17.886  1.00  0.00    -0.035 C 
ATOM     10  C   UNL     1       7.522  10.343 -15.159  1.00  0.00    -0.006 C 
ATOM     11  C   UNL     1       5.876   9.919 -17.050  1.00  0.00    -0.027 C 
ATOM     12  C   UNL     1       7.286   4.815 -17.677  1.00  0.00     0.011 C 
ATOM     13  C   UNL     1       6.475   6.640 -19.267  1.00  0.00     0.011 C 
ATOM     14  C   UNL     1       6.966  10.411 -13.674  1.00  0.00     0.017 C 
ATOM     15  C   UNL     1       7.482  11.845 -15.856  1.00  0.00    -0.020 C 
ATOM     16  C   UNL     1       6.809  10.663 -18.195  1.00  0.00     0.032 C 
ATOM     17  C   UNL     1       7.823  11.648 -17.456  1.00  0.00     0.006 C 
ATOM     18  C   UNL     1       8.494  12.830 -15.085  1.00  0.00     0.008 C 
ATOM     19  C   UNL     1       6.048  12.504 -15.693  1.00  0.00     0.012 C 
ATOM     20  C   UNL     1       8.881  12.650 -18.247  1.00  0.00    -0.025 C 
ATOM     21  C   UNL     1       9.645  13.378 -15.901  1.00  0.00     0.005 C 
ATOM     22  C   UNL     1       9.203  13.867 -17.259  1.00  0.00     0.003 C 
ATOM     23  C   UNL     1       8.396  13.193 -19.662  1.00  0.00     0.010 C 
ATOM     24  C   UNL     1      10.235  11.870 -18.547  1.00  0.00     0.012 C 
ATOM     25  C   UNL     1       9.845  15.248 -17.808  1.00  0.00    -0.006 C 
ATOM     26  C   UNL     1       8.417  14.717 -19.842  1.00  0.00     0.033 C 
ATOM     27  C   UNL     1       9.785  15.229 -19.380  1.00  0.00     0.120 C 
ATOM     28  C   UNL     1      11.384  15.430 -17.480  1.00  0.00     0.014 C 
ATOM     29  C   UNL     1       9.076  16.473 -17.165  1.00  0.00     0.014 C 
ENDROOT
BRANCH   1  30
ATOM     30  C   UNL     1       8.072   6.027 -14.401  1.00  0.00     0.048 C 
ATOM     31  O   UNL     1       8.812   5.013 -14.560  1.00  0.00    -0.550 OA
ATOM     32  O   UNL     1       9.010   4.978 -14.702  1.00  0.00    -0.550 OA
ENDBRANCH   1  30
BRANCH  27  33
ATOM     33  O   UNL     1      10.200  16.423 -20.024  1.00  0.00    -0.393 OA
ATOM     34  H   UNL     1       9.443  17.007 -20.224  1.00  0.00     0.210 HD
ENDBRANCH  27  33
TORSDOF 2
ENDMDL
MODEL 8
REMARK VINA RESULT:    -5.296      1.683      8.037
REMARK INTER + INTRA:          -5.326
REMARK INTER:                  -5.720
REMARK INTRA:                   0.394
REMARK UNBOUND:                 0.435
REMARK SMILES CC1(C)CC[C@@]2(C(=O)[O-])CC[C@]3(C)C(=CC[C@H]4[C@@]5(C)CC[C@@H](O)C(C)(C)[C@@H]5CC[C@@]43C)[C@H]2C1
REMARK SMILES IDX 6 1 5 2 10 3 32 4 4 5 11 6 14 7 33 8 2 9 12 10 15 11 1 12
REMARK SMILES IDX 3 13 13 14 30 15 16 16 17 17 29 18 31 19 18 20 28 21 27 22
REMARK SMILES IDX 20 23 19 24 24 25 21 26 22 27 25 28 26 29 7 30 8 31 9 32
REMARK SMILES IDX 23 33
REMARK H PARENT 23 34
REMARK Flexibility Score: inf
ROOT
ATOM      1  C   UNL     1       7.150  15.410 -17.806  1.00  0.00     0.017 C 
ATOM      2  C   UNL     1       7.768  14.732 -19.085  1.00  0.00     0.014 C 
ATOM      3  C   UNL     1       5.875  14.613 -17.414  1.00  0.00     0.014 C 
ATOM      4  C   UNL     1       8.120  15.533 -16.563  1.00  0.00     0.028 C 
ATOM      5  C   UNL     1       9.254  14.397 -18.908  1.00  0.00     0.007 C 
ATOM      6  C   UNL     1       6.198  13.287 -16.690  1.00  0.00     0.013 C 
ATOM      7  C   UNL     1       8.230  14.320 -15.594  1.00  0.00    -0.064 C 
ATOM      8  C   UNL     1       9.492  16.113 -17.031  1.00  0.00     0.015 C 
ATOM      9  C   UNL     1      10.096  15.565 -18.340  1.00  0.00    -0.035 C 
ATOM     10  C   UNL     1       6.906  13.512 -15.321  1.00  0.00    -0.006 C 
ATOM     11  C   UNL     1       9.393  13.868 -14.930  1.00  0.00    -0.027 C 
ATOM     12  C   UNL     1      10.095  16.737 -19.369  1.00  0.00     0.011 C 
ATOM     13  C   UNL     1      11.558  15.103 -18.062  1.00  0.00     0.011 C 
ATOM     14  C   UNL     1       5.876  14.367 -14.467  1.00  0.00     0.017 C 
ATOM     15  C   UNL     1       7.282  12.107 -14.528  1.00  0.00    -0.020 C 
ATOM     16  C   UNL     1       9.817  12.354 -15.443  1.00  0.00     0.032 C 
ATOM     17  C   UNL     1       8.534  11.410 -15.341  1.00  0.00     0.006 C 
ATOM     18  C   UNL     1       5.973  11.178 -14.416  1.00  0.00     0.008 C 
ATOM     19  C   UNL     1       7.717  12.404 -13.032  1.00  0.00     0.012 C 
ATOM     20  C   UNL     1       8.551   9.788 -15.683  1.00  0.00    -0.025 C 
ATOM     21  C   UNL     1       6.041   9.840 -15.121  1.00  0.00     0.005 C 
ATOM     22  C   UNL     1       7.346   9.124 -14.866  1.00  0.00     0.003 C 
ATOM     23  C   UNL     1       9.916   9.029 -15.379  1.00  0.00     0.010 C 
ATOM     24  C   UNL     1       8.293   9.565 -17.237  1.00  0.00     0.012 C 
ATOM     25  C   UNL     1       7.289   7.529 -14.601  1.00  0.00    -0.006 C 
ATOM     26  C   UNL     1       9.813   7.794 -14.473  1.00  0.00     0.033 C 
ATOM     27  C   UNL     1       8.678   6.911 -15.004  1.00  0.00     0.120 C 
ATOM     28  C   UNL     1       6.243   6.752 -15.502  1.00  0.00     0.014 C 
ATOM     29  C   UNL     1       6.900   7.265 -13.089  1.00  0.00     0.014 C 
ENDROOT
BRANCH   1  30
ATOM     30  C   UNL     1       6.692  16.805 -18.257  1.00  0.00     0.048 C 
ATOM     31  O   UNL     1       6.184  17.634 -17.448  1.00  0.00    -0.550 OA
ATOM     32  O   UNL     1       6.156  17.626 -17.204  1.00  0.00    -0.550 OA
ENDBRANCH   1  30
BRANCH  27  33
ATOM     33  O   UNL     1       8.843   5.531 -14.720  1.00  0.00    -0.393 OA
ATOM     34  H   UNL     1       9.511   5.383 -14.024  1.00  0.00     0.210 HD
ENDBRANCH  27  33
TORSDOF 2
ENDMDL
