MODEL 1
REMARK VINA RESULT:    -5.621      0.000      0.000
REMARK INTER + INTRA:          -6.592
REMARK INTER:                  -6.442
REMARK INTRA:                  -0.149
REMARK UNBOUND:                -0.149
REMARK SMILES O=C([O-])C=Cc1ccc(O)cc1
REMARK SMILES IDX 6 1 7 2 12 3 8 4 11 5 9 6 5 7 4 8 2 9 1 10 3 11 10 12
REMARK H PARENT 10 13
REMARK Flexibility Score: inf
ROOT
ATOM      1  C   UNL     1       6.422  -2.418  -3.066  1.00  0.00    -0.025 A 
ATOM      2  C   UNL     1       6.716  -2.832  -4.380  1.00  0.00     0.012 A 
ATOM      3  C   UNL     1       5.077  -2.294  -2.678  1.00  0.00     0.012 A 
ATOM      4  C   UNL     1       5.684  -3.089  -5.288  1.00  0.00     0.047 A 
ATOM      5  C   UNL     1       4.048  -2.552  -3.589  1.00  0.00     0.047 A 
ATOM      6  C   UNL     1       4.350  -2.949  -4.897  1.00  0.00     0.115 A 
ENDROOT
BRANCH   1   7
ATOM      7  C   UNL     1       7.479  -2.143  -2.059  1.00  0.00     0.010 C 
ATOM      8  C   UNL     1       7.275  -1.436  -0.938  1.00  0.00     0.025 C 
BRANCH   8   9
ATOM      9  C   UNL     1       8.345  -1.193   0.043  1.00  0.00     0.064 C 
ATOM     10  O   UNL     1       8.641  -2.056   0.911  1.00  0.00    -0.545 OA
ATOM     11  O   UNL     1       9.040   0.009   0.009  1.00  0.00    -0.545 OA
ENDBRANCH   8   9
ENDBRANCH   1   7
BRANCH   6  12
ATOM     12  O   UNL     1       3.333  -3.208  -5.814  1.00  0.00    -0.508 OA
ATOM     13  H   UNL     1       2.714  -4.004  -5.707  1.00  0.00     0.293 HD
ENDBRANCH   6  12
TORSDOF 3
ENDMDL
MODEL 2
REMARK VINA RESULT:    -5.371     10.696     13.221
REMARK INTER + INTRA:          -6.305
REMARK INTER:                  -6.169
REMARK INTRA:                  -0.136
REMARK UNBOUND:                -0.149
REMARK SMILES O=C([O-])C=Cc1ccc(O)cc1
REMARK SMILES IDX 6 1 7 2 12 3 8 4 11 5 9 6 5 7 4 8 2 9 1 10 3 11 10 12
REMARK H PARENT 10 13
REMARK Flexibility Score: inf
ROOT
ATOM      1  C   UNL     1      -5.012  -7.047  -1.863  1.00  0.00    -0.025 A 
ATOM      2  C   UNL     1      -5.028  -7.447  -3.214  1.00  0.00     0.012 A 
ATOM      3  C   UNL     1      -3.774  -6.796  -1.245  1.00  0.00     0.012 A 
ATOM      4  C   UNL     1      -3.832  -7.615  -3.917  1.00  0.00     0.047 A 
ATOM      5  C   UNL     1      -2.579  -6.965  -1.951  1.00  0.00     0.047 A 
ATOM      6  C   UNL     1      -2.606  -7.377  -3.290  1.00  0.00     0.115 A 
ENDROOT
BRANCH   1   7
ATOM      7  C   UNL     1      -6.253  -6.843  -1.074  1.00  0.00     0.010 C 
ATOM      8  C   UNL     1      -6.911  -5.676  -1.008  1.00  0.00     0.025 C 
BRANCH   8   9
ATOM      9  C   UNL     1      -8.146  -5.515  -0.224  1.00  0.00     0.064 C 
ATOM     10  O   UNL     1      -8.524  -4.380   0.173  1.00  0.00    -0.545 OA
ATOM     11  O   UNL     1      -8.910  -6.634   0.083  1.00  0.00    -0.545 OA
ENDBRANCH   8   9
ENDBRANCH   1   7
BRANCH   6  12
ATOM     12  O   UNL     1      -1.422  -7.549  -4.003  1.00  0.00    -0.508 OA
ATOM     13  H   UNL     1      -1.404  -8.043  -4.888  1.00  0.00     0.293 HD
ENDBRANCH   6  12
TORSDOF 3
ENDMDL
MODEL 3
REMARK VINA RESULT:    -5.114     10.760     13.047
REMARK INTER + INTRA:          -6.010
REMARK INTER:                  -5.875
REMARK INTRA:                  -0.136
REMARK UNBOUND:                -0.149
REMARK SMILES O=C([O-])C=Cc1ccc(O)cc1
REMARK SMILES IDX 6 1 7 2 12 3 8 4 11 5 9 6 5 7 4 8 2 9 1 10 3 11 10 12
REMARK H PARENT 10 13
REMARK Flexibility Score: inf
ROOT
ATOM      1  C   UNL     1      -5.128  -7.718  -1.453  1.00  0.00    -0.025 A 
ATOM      2  C   UNL     1      -5.623  -6.414  -1.254  1.00  0.00     0.012 A 
ATOM      3  C   UNL     1      -6.009  -8.806  -1.324  1.00  0.00     0.012 A 
ATOM      4  C   UNL     1      -6.963  -6.212  -0.908  1.00  0.00     0.047 A 
ATOM      5  C   UNL     1      -7.348  -8.599  -0.978  1.00  0.00     0.047 A 
ATOM      6  C   UNL     1      -7.827  -7.300  -0.768  1.00  0.00     0.115 A 
ENDROOT
BRANCH   1   7
ATOM      7  C   UNL     1      -3.718  -7.989  -1.832  1.00  0.00     0.010 C 
ATOM      8  C   UNL     1      -3.141  -7.513  -2.946  1.00  0.00     0.025 C 
BRANCH   8   9
ATOM      9  C   UNL     1      -1.736  -7.793  -3.283  1.00  0.00     0.064 C 
ATOM     10  O   UNL     1      -1.430  -8.434  -4.323  1.00  0.00    -0.545 OA
ATOM     11  O   UNL     1      -0.730  -7.341  -2.439  1.00  0.00    -0.545 OA
ENDBRANCH   8   9
ENDBRANCH   1   7
BRANCH   6  12
ATOM     12  O   UNL     1      -9.159  -7.082  -0.423  1.00  0.00    -0.508 OA
ATOM     13  H   UNL     1      -9.747  -6.449  -0.952  1.00  0.00     0.293 HD
ENDBRANCH   6  12
TORSDOF 3
ENDMDL
MODEL 4
REMARK VINA RESULT:    -4.931      9.809     10.595
REMARK INTER + INTRA:          -5.802
REMARK INTER:                  -5.649
REMARK INTRA:                  -0.153
REMARK UNBOUND:                -0.149
REMARK SMILES O=C([O-])C=Cc1ccc(O)cc1
REMARK SMILES IDX 6 1 7 2 12 3 8 4 11 5 9 6 5 7 4 8 2 9 1 10 3 11 10 12
REMARK H PARENT 10 13
REMARK Flexibility Score: inf
ROOT
ATOM      1  C   UNL     1      -2.683  -7.499  -1.387  1.00  0.00    -0.025 A 
ATOM      2  C   UNL     1      -2.569  -8.071  -2.670  1.00  0.00     0.012 A 
ATOM      3  C   UNL     1      -3.905  -6.915  -1.011  1.00  0.00     0.012 A 
ATOM      4  C   UNL     1      -3.646  -8.032  -3.560  1.00  0.00     0.047 A 
ATOM      5  C   UNL     1      -4.980  -6.878  -1.904  1.00  0.00     0.047 A 
ATOM      6  C   UNL     1      -4.852  -7.435  -3.183  1.00  0.00     0.115 A 
ENDROOT
BRANCH   1   7
ATOM      7  C   UNL     1      -1.574  -7.523  -0.400  1.00  0.00     0.010 C 
ATOM      8  C   UNL     1      -1.664  -7.007   0.834  1.00  0.00     0.025 C 
BRANCH   8   9
ATOM      9  C   UNL     1      -0.546  -7.060   1.791  1.00  0.00     0.064 C 
ATOM     10  O   UNL     1       0.206  -8.068   1.861  1.00  0.00    -0.545 OA
ATOM     11  O   UNL     1      -0.315  -5.977   2.630  1.00  0.00    -0.545 OA
ENDBRANCH   8   9
ENDBRANCH   1   7
BRANCH   6  12
ATOM     12  O   UNL     1      -5.916  -7.404  -4.081  1.00  0.00    -0.508 OA
ATOM     13  H   UNL     1      -5.841  -6.932  -4.974  1.00  0.00     0.293 HD
ENDBRANCH   6  12
TORSDOF 3
ENDMDL
MODEL 5
REMARK VINA RESULT:    -4.838     10.472     13.090
REMARK INTER + INTRA:          -5.695
REMARK INTER:                  -5.544
REMARK INTRA:                  -0.151
REMARK UNBOUND:                -0.149
REMARK SMILES O=C([O-])C=Cc1ccc(O)cc1
REMARK SMILES IDX 6 1 7 2 12 3 8 4 11 5 9 6 5 7 4 8 2 9 1 10 3 11 10 12
REMARK H PARENT 10 13
REMARK Flexibility Score: inf
ROOT
ATOM      1  C   UNL     1      -4.485  -7.560  -1.468  1.00  0.00    -0.025 A 
ATOM      2  C   UNL     1      -4.017  -8.887  -1.550  1.00  0.00     0.012 A 
ATOM      3  C   UNL     1      -3.558  -6.507  -1.555  1.00  0.00     0.012 A 
ATOM      4  C   UNL     1      -2.651  -9.147  -1.690  1.00  0.00     0.047 A 
ATOM      5  C   UNL     1      -2.192  -6.772  -1.695  1.00  0.00     0.047 A 
ATOM      6  C   UNL     1      -1.735  -8.094  -1.761  1.00  0.00     0.115 A 
ENDROOT
BRANCH   1   7
ATOM      7  C   UNL     1      -5.926  -7.227  -1.331  1.00  0.00     0.010 C 
ATOM      8  C   UNL     1      -6.385  -5.993  -1.080  1.00  0.00     0.025 C 
BRANCH   8   9
ATOM      9  C   UNL     1      -7.823  -5.699  -0.963  1.00  0.00     0.064 C 
ATOM     10  O   UNL     1      -8.326  -5.331   0.132  1.00  0.00    -0.545 OA
ATOM     11  O   UNL     1      -8.638  -5.828  -2.079  1.00  0.00    -0.545 OA
ENDBRANCH   8   9
ENDBRANCH   1   7
BRANCH   6  12
ATOM     12  O   UNL     1      -0.377  -8.370  -1.899  1.00  0.00    -0.508 OA
ATOM     13  H   UNL     1       0.310  -7.629  -1.969  1.00  0.00     0.293 HD
ENDBRANCH   6  12
TORSDOF 3
ENDMDL
MODEL 6
REMARK VINA RESULT:    -4.838     11.239     13.330
REMARK INTER + INTRA:          -5.694
REMARK INTER:                  -5.543
REMARK INTRA:                  -0.151
REMARK UNBOUND:                -0.149
REMARK SMILES O=C([O-])C=Cc1ccc(O)cc1
REMARK SMILES IDX 6 1 7 2 12 3 8 4 11 5 9 6 5 7 4 8 2 9 1 10 3 11 10 12
REMARK H PARENT 10 13
REMARK Flexibility Score: inf
ROOT
ATOM      1  C   UNL     1      -5.874  -7.468  -1.243  1.00  0.00    -0.025 A 
ATOM      2  C   UNL     1      -6.804  -8.514  -1.079  1.00  0.00     0.012 A 
ATOM      3  C   UNL     1      -6.309  -6.142  -1.073  1.00  0.00     0.012 A 
ATOM      4  C   UNL     1      -8.140  -8.233  -0.777  1.00  0.00     0.047 A 
ATOM      5  C   UNL     1      -7.646  -5.865  -0.772  1.00  0.00     0.047 A 
ATOM      6  C   UNL     1      -8.565  -6.911  -0.625  1.00  0.00     0.115 A 
ENDROOT
BRANCH   1   7
ATOM      7  C   UNL     1      -4.442  -7.712  -1.552  1.00  0.00     0.010 C 
ATOM      8  C   UNL     1      -3.495  -6.766  -1.488  1.00  0.00     0.025 C 
BRANCH   8   9
ATOM      9  C   UNL     1      -2.082  -7.048  -1.791  1.00  0.00     0.064 C 
ATOM     10  O   UNL     1      -1.707  -7.319  -2.963  1.00  0.00    -0.545 OA
ATOM     11  O   UNL     1      -1.146  -7.012  -0.766  1.00  0.00    -0.545 OA
ENDBRANCH   8   9
ENDBRANCH   1   7
BRANCH   6  12
ATOM     12  O   UNL     1      -9.899  -6.646  -0.325  1.00  0.00    -0.508 OA
ATOM     13  H   UNL     1     -10.473  -6.065  -0.926  1.00  0.00     0.293 HD
ENDBRANCH   6  12
TORSDOF 3
ENDMDL
MODEL 7
REMARK VINA RESULT:    -4.737     12.410     14.953
REMARK INTER + INTRA:          -5.578
REMARK INTER:                  -5.440
REMARK INTRA:                  -0.138
REMARK UNBOUND:                -0.149
REMARK SMILES O=C([O-])C=Cc1ccc(O)cc1
REMARK SMILES IDX 6 1 7 2 12 3 8 4 11 5 9 6 5 7 4 8 2 9 1 10 3 11 10 12
REMARK H PARENT 10 13
REMARK Flexibility Score: inf
ROOT
ATOM      1  C   UNL     1      -7.543  -6.806  -1.265  1.00  0.00    -0.025 A 
ATOM      2  C   UNL     1      -8.415  -7.646  -0.543  1.00  0.00     0.012 A 
ATOM      3  C   UNL     1      -7.502  -5.438  -0.948  1.00  0.00     0.012 A 
ATOM      4  C   UNL     1      -9.242  -7.117   0.453  1.00  0.00     0.047 A 
ATOM      5  C   UNL     1      -8.331  -4.913   0.048  1.00  0.00     0.047 A 
ATOM      6  C   UNL     1      -9.205  -5.753   0.750  1.00  0.00     0.115 A 
ENDROOT
BRANCH   1   7
ATOM      7  C   UNL     1      -6.635  -7.317  -2.324  1.00  0.00     0.010 C 
ATOM      8  C   UNL     1      -5.300  -7.341  -2.212  1.00  0.00     0.025 C 
BRANCH   8   9
ATOM      9  C   UNL     1      -4.432  -7.866  -3.279  1.00  0.00     0.064 C 
ATOM     10  O   UNL     1      -3.467  -7.192  -3.727  1.00  0.00    -0.545 OA
ATOM     11  O   UNL     1      -4.682  -9.130  -3.801  1.00  0.00    -0.545 OA
ENDBRANCH   8   9
ENDBRANCH   1   7
BRANCH   6  12
ATOM     12  O   UNL     1     -10.036  -5.242   1.745  1.00  0.00    -0.508 OA
ATOM     13  H   UNL     1      -9.858  -4.340   2.171  1.00  0.00     0.293 HD
ENDBRANCH   6  12
TORSDOF 3
ENDMDL
MODEL 8
REMARK VINA RESULT:    -4.589      9.440     11.071
REMARK INTER + INTRA:          -5.409
REMARK INTER:                  -5.272
REMARK INTRA:                  -0.137
REMARK UNBOUND:                -0.149
REMARK SMILES O=C([O-])C=Cc1ccc(O)cc1
REMARK SMILES IDX 6 1 7 2 12 3 8 4 11 5 9 6 5 7 4 8 2 9 1 10 3 11 10 12
REMARK H PARENT 10 13
REMARK Flexibility Score: inf
ROOT
ATOM      1  C   UNL     1       3.139  -9.380   2.963  1.00  0.00    -0.025 A 
ATOM      2  C   UNL     1       3.103  -9.742   4.325  1.00  0.00     0.012 A 
ATOM      3  C   UNL     1       4.385  -9.288   2.320  1.00  0.00     0.012 A 
ATOM      4  C   UNL     1       4.289  -9.979   5.026  1.00  0.00     0.047 A 
ATOM      5  C   UNL     1       5.569  -9.525   3.024  1.00  0.00     0.047 A 
ATOM      6  C   UNL     1       5.523  -9.870   4.381  1.00  0.00     0.115 A 
ENDROOT
BRANCH   1   7
ATOM      7  C   UNL     1       1.910  -9.129   2.169  1.00  0.00     0.010 C 
ATOM      8  C   UNL     1       1.012  -8.179   2.467  1.00  0.00     0.025 C 
BRANCH   8   9
ATOM      9  C   UNL     1      -0.191  -7.951   1.649  1.00  0.00     0.064 C 
ATOM     10  O   UNL     1      -1.026  -7.057   1.952  1.00  0.00    -0.545 OA
ATOM     11  O   UNL     1      -0.407  -8.734   0.523  1.00  0.00    -0.545 OA
ENDBRANCH   8   9
ENDBRANCH   1   7
BRANCH   6  12
ATOM     12  O   UNL     1       6.696 -10.109   5.093  1.00  0.00    -0.508 OA
ATOM     13  H   UNL     1       6.940 -11.038   5.417  1.00  0.00     0.293 HD
ENDBRANCH   6  12
TORSDOF 3
ENDMDL
MODEL 9
REMARK VINA RESULT:    -4.266      9.233      9.719
REMARK INTER + INTRA:          -5.039
REMARK INTER:                  -4.901
REMARK INTRA:                  -0.137
REMARK UNBOUND:                -0.149
REMARK SMILES O=C([O-])C=Cc1ccc(O)cc1
REMARK SMILES IDX 6 1 7 2 12 3 8 4 11 5 9 6 5 7 4 8 2 9 1 10 3 11 10 12
REMARK H PARENT 10 13
REMARK Flexibility Score: inf
ROOT
ATOM      1  C   UNL     1       5.117  -9.576   3.568  1.00  0.00    -0.025 A 
ATOM      2  C   UNL     1       5.218  -9.577   2.162  1.00  0.00     0.012 A 
ATOM      3  C   UNL     1       3.843  -9.492   4.157  1.00  0.00     0.012 A 
ATOM      4  C   UNL     1       4.070  -9.469   1.371  1.00  0.00     0.047 A 
ATOM      5  C   UNL     1       2.698  -9.384   3.362  1.00  0.00     0.047 A 
ATOM      6  C   UNL     1       2.810  -9.371   1.966  1.00  0.00     0.115 A 
ENDROOT
BRANCH   1   7
ATOM      7  C   UNL     1       6.302  -9.700   4.455  1.00  0.00     0.010 C 
ATOM      8  C   UNL     1       7.546  -9.358   4.089  1.00  0.00     0.025 C 
BRANCH   8   9
ATOM      9  C   UNL     1       8.695  -9.483   5.000  1.00  0.00     0.064 C 
ATOM     10  O   UNL     1       8.653  -9.021   6.171  1.00  0.00    -0.545 OA
ATOM     11  O   UNL     1       9.846 -10.125   4.560  1.00  0.00    -0.545 OA
ENDBRANCH   8   9
ENDBRANCH   1   7
BRANCH   6  12
ATOM     12  O   UNL     1       1.676  -9.263   1.164  1.00  0.00    -0.508 OA
ATOM     13  H   UNL     1       0.759  -9.528   1.505  1.00  0.00     0.293 HD
ENDBRANCH   6  12
TORSDOF 3
ENDMDL
