MODEL 1
REMARK VINA RESULT:    -0.882      0.000      0.000
REMARK INTER + INTRA:          -1.352
REMARK INTER:                  -1.062
REMARK INTRA:                  -0.290
REMARK UNBOUND:                -0.290
REMARK SMILES O=c1c(O)c(-c2ccc(O)cc2O)oc2cc(O)cc(O)c12
REMARK SMILES IDX 5 1 3 2 2 3 1 4 22 5 20 6 19 7 17 8 16 9 15 10 14 11 6 12
REMARK SMILES IDX 8 13 7 14 9 15 11 16 12 17 10 18 13 20 4 22 21 24 18 26
REMARK H PARENT 10 19 13 21 4 23 21 25 18 27
REMARK Flexibility Score: inf
ROOT
ATOM      1  C   UNL     1       0.151  21.198  49.934  1.00  0.00     0.184 A 
ATOM      2  C   UNL     1       0.950  20.178  49.392  1.00  0.00     0.208 A 
ATOM      3  C   UNL     1       0.957  19.984  48.002  1.00  0.00     0.238 A 
ATOM      4  O   UNL     1       1.632  19.033  47.527  1.00  0.00    -0.285 OA
ATOM      5  C   UNL     1       0.180  20.825  47.169  1.00  0.00     0.111 A 
ATOM      6  C   UNL     1       0.142  20.746  45.745  1.00  0.00     0.134 A 
ATOM      7  C   UNL     1      -0.760  21.544  45.032  1.00  0.00     0.093 A 
ATOM      8  C   UNL     1      -1.579  22.467  45.687  1.00  0.00     0.123 A 
ATOM      9  C   UNL     1      -1.507  22.595  47.072  1.00  0.00     0.094 A 
ATOM     10  C   UNL     1      -0.642  21.785  47.814  1.00  0.00     0.146 A 
ATOM     11  O   UNL     1      -0.614  21.931  49.133  1.00  0.00    -0.451 OA
ENDROOT
BRANCH   1  12
ATOM     12  C   UNL     1       0.114  21.473  51.389  1.00  0.00     0.063 A 
ATOM     13  C   UNL     1      -1.020  21.314  53.537  1.00  0.00     0.047 A 
ATOM     14  C   UNL     1      -0.996  21.081  52.160  1.00  0.00     0.020 A 
ATOM     15  C   UNL     1       0.067  21.931  54.166  1.00  0.00     0.119 A 
ATOM     16  C   UNL     1       1.181  22.311  53.411  1.00  0.00     0.093 A 
ATOM     17  C   UNL     1       1.213  22.082  52.027  1.00  0.00     0.130 A 
BRANCH  15  18
ATOM     18  O   UNL     1       0.054  22.168  55.539  1.00  0.00    -0.508 OA
ATOM     19  H   UNL     1       0.573  21.582  56.182  1.00  0.00     0.293 HD
ENDBRANCH  15  18
BRANCH  17  20
ATOM     20  O   UNL     1       2.328  22.473  51.286  1.00  0.00    -0.507 OA
ATOM     21  H   UNL     1       3.104  21.844  51.120  1.00  0.00     0.293 HD
ENDBRANCH  17  20
ENDBRANCH   1  12
BRANCH   2  22
ATOM     22  O   UNL     1       1.698  19.351  50.235  1.00  0.00    -0.502 OA
ATOM     23  H   UNL     1       1.968  19.630  51.170  1.00  0.00     0.293 HD
ENDBRANCH   2  22
BRANCH   6  24
ATOM     24  O   UNL     1       0.982  19.924  44.986  1.00  0.00    -0.507 OA
ATOM     25  H   UNL     1       1.538  19.170  45.359  1.00  0.00     0.293 HD
ENDBRANCH   6  24
BRANCH   8  26
ATOM     26  O   UNL     1      -2.462  23.270  44.969  1.00  0.00    -0.508 OA
ATOM     27  H   UNL     1      -2.977  24.021  45.413  1.00  0.00     0.293 HD
ENDBRANCH   8  26
TORSDOF 6
ENDMDL
MODEL 2
REMARK VINA RESULT:     0.321      1.419      2.834
REMARK INTER + INTRA:           0.096
REMARK INTER:                   0.433
REMARK INTRA:                  -0.337
REMARK UNBOUND:                -0.290
REMARK SMILES O=c1c(O)c(-c2ccc(O)cc2O)oc2cc(O)cc(O)c12
REMARK SMILES IDX 5 1 3 2 2 3 1 4 22 5 20 6 19 7 17 8 16 9 15 10 14 11 6 12
REMARK SMILES IDX 8 13 7 14 9 15 11 16 12 17 10 18 13 20 4 22 21 24 18 26
REMARK H PARENT 10 19 13 21 4 23 21 25 18 27
REMARK Flexibility Score: inf
ROOT
ATOM      1  C   UNL     1      -0.352  21.917  50.532  1.00  0.00     0.184 A 
ATOM      2  C   UNL     1      -0.575  23.113  49.829  1.00  0.00     0.208 A 
ATOM      3  C   UNL     1      -0.584  23.087  48.425  1.00  0.00     0.238 A 
ATOM      4  O   UNL     1      -0.729  24.170  47.801  1.00  0.00    -0.285 OA
ATOM      5  C   UNL     1      -0.391  21.861  47.742  1.00  0.00     0.111 A 
ATOM      6  C   UNL     1      -0.421  21.710  46.324  1.00  0.00     0.134 A 
ATOM      7  C   UNL     1      -0.089  20.475  45.754  1.00  0.00     0.093 A 
ATOM      8  C   UNL     1       0.208  19.368  46.553  1.00  0.00     0.123 A 
ATOM      9  C   UNL     1       0.181  19.491  47.941  1.00  0.00     0.094 A 
ATOM     10  C   UNL     1      -0.110  20.720  48.538  1.00  0.00     0.146 A 
ATOM     11  O   UNL     1      -0.112  20.795  49.864  1.00  0.00    -0.451 OA
ENDROOT
BRANCH   1  12
ATOM     12  C   UNL     1      -0.352  21.870  52.012  1.00  0.00     0.063 A 
ATOM     13  C   UNL     1      -1.411  21.204  54.100  1.00  0.00     0.047 A 
ATOM     14  C   UNL     1      -1.422  21.275  52.705  1.00  0.00     0.020 A 
ATOM     15  C   UNL     1      -0.327  21.715  54.823  1.00  0.00     0.119 A 
ATOM     16  C   UNL     1       0.748  22.294  54.143  1.00  0.00     0.093 A 
ATOM     17  C   UNL     1       0.744  22.372  52.742  1.00  0.00     0.130 A 
BRANCH  15  18
ATOM     18  O   UNL     1      -0.305  21.649  56.214  1.00  0.00    -0.508 OA
ATOM     19  H   UNL     1      -0.024  22.444  56.777  1.00  0.00     0.293 HD
ENDBRANCH  15  18
BRANCH  17  20
ATOM     20  O   UNL     1       1.821  22.960  52.078  1.00  0.00    -0.507 OA
ATOM     21  H   UNL     1       1.779  23.187  51.092  1.00  0.00     0.293 HD
ENDBRANCH  17  20
ENDBRANCH   1  12
BRANCH   2  22
ATOM     22  O   UNL     1      -0.750  24.312  50.524  1.00  0.00    -0.502 OA
ATOM     23  H   UNL     1      -0.073  24.657  51.193  1.00  0.00     0.293 HD
ENDBRANCH   2  22
BRANCH   6  24
ATOM     24  O   UNL     1      -0.793  22.725  45.438  1.00  0.00    -0.507 OA
ATOM     25  H   UNL     1      -1.744  22.950  45.187  1.00  0.00     0.293 HD
ENDBRANCH   6  24
BRANCH   8  26
ATOM     26  O   UNL     1       0.520  18.139  45.978  1.00  0.00    -0.508 OA
ATOM     27  H   UNL     1       0.546  18.015  44.973  1.00  0.00     0.293 HD
ENDBRANCH   8  26
TORSDOF 6
ENDMDL
MODEL 3
REMARK VINA RESULT:     0.975      2.492      7.126
REMARK INTER + INTRA:           0.884
REMARK INTER:                   0.663
REMARK INTRA:                   0.221
REMARK UNBOUND:                -0.290
REMARK SMILES O=c1c(O)c(-c2ccc(O)cc2O)oc2cc(O)cc(O)c12
REMARK SMILES IDX 5 1 3 2 2 3 1 4 22 5 20 6 19 7 17 8 16 9 15 10 14 11 6 12
REMARK SMILES IDX 8 13 7 14 9 15 11 16 12 17 10 18 13 20 4 22 21 24 18 26
REMARK H PARENT 10 19 13 21 4 23 21 25 18 27
REMARK Flexibility Score: inf
ROOT
ATOM      1  C   UNL     1      -0.169  24.162  48.784  1.00  0.00     0.184 A 
ATOM      2  C   UNL     1       0.762  24.983  49.443  1.00  0.00     0.208 A 
ATOM      3  C   UNL     1       1.153  24.657  50.751  1.00  0.00     0.238 A 
ATOM      4  O   UNL     1       1.944  25.428  51.356  1.00  0.00    -0.285 OA
ATOM      5  C   UNL     1       0.624  23.503  51.377  1.00  0.00     0.111 A 
ATOM      6  C   UNL     1       0.979  23.054  52.684  1.00  0.00     0.134 A 
ATOM      7  C   UNL     1       0.297  21.971  53.252  1.00  0.00     0.093 A 
ATOM      8  C   UNL     1      -0.682  21.280  52.535  1.00  0.00     0.123 A 
ATOM      9  C   UNL     1      -0.994  21.673  51.235  1.00  0.00     0.094 A 
ATOM     10  C   UNL     1      -0.356  22.772  50.656  1.00  0.00     0.146 A 
ATOM     11  O   UNL     1      -0.694  23.121  49.420  1.00  0.00    -0.451 OA
ENDROOT
BRANCH   1  12
ATOM     12  C   UNL     1      -0.607  24.435  47.396  1.00  0.00     0.063 A 
ATOM     13  C   UNL     1      -0.986  26.004  45.574  1.00  0.00     0.047 A 
ATOM     14  C   UNL     1      -0.599  25.748  46.892  1.00  0.00     0.020 A 
ATOM     15  C   UNL     1      -1.374  24.952  44.737  1.00  0.00     0.119 A 
ATOM     16  C   UNL     1      -1.371  23.641  45.224  1.00  0.00     0.093 A 
ATOM     17  C   UNL     1      -0.986  23.376  46.548  1.00  0.00     0.130 A 
BRANCH  15  18
ATOM     18  O   UNL     1      -1.761  25.195  43.421  1.00  0.00    -0.508 OA
ATOM     19  H   UNL     1      -2.624  24.820  43.046  1.00  0.00     0.293 HD
ENDBRANCH  15  18
BRANCH  17  20
ATOM     20  O   UNL     1      -0.995  22.064  47.021  1.00  0.00    -0.507 OA
ATOM     21  H   UNL     1      -1.672  21.749  47.705  1.00  0.00     0.293 HD
ENDBRANCH  17  20
ENDBRANCH   1  12
BRANCH   2  22
ATOM     22  O   UNL     1       1.260  26.125  48.810  1.00  0.00    -0.502 OA
ATOM     23  H   UNL     1       2.246  26.254  48.619  1.00  0.00     0.293 HD
ENDBRANCH   2  22
BRANCH   6  24
ATOM     24  O   UNL     1       2.005  23.615  53.451  1.00  0.00    -0.507 OA
ATOM     25  H   UNL     1       2.609  24.363  53.143  1.00  0.00     0.293 HD
ENDBRANCH   6  24
BRANCH   8  26
ATOM     26  O   UNL     1      -1.344  20.193  53.101  1.00  0.00    -0.508 OA
ATOM     27  H   UNL     1      -2.166  20.316  53.680  1.00  0.00     0.293 HD
ENDBRANCH   8  26
TORSDOF 6
ENDMDL
MODEL 4
REMARK VINA RESULT:     1.018      1.749      6.967
REMARK INTER + INTRA:           0.936
REMARK INTER:                   1.329
REMARK INTRA:                  -0.394
REMARK UNBOUND:                -0.290
REMARK SMILES O=c1c(O)c(-c2ccc(O)cc2O)oc2cc(O)cc(O)c12
REMARK SMILES IDX 5 1 3 2 2 3 1 4 22 5 20 6 19 7 17 8 16 9 15 10 14 11 6 12
REMARK SMILES IDX 8 13 7 14 9 15 11 16 12 17 10 18 13 20 4 22 21 24 18 26
REMARK H PARENT 10 19 13 21 4 23 21 25 18 27
REMARK Flexibility Score: inf
ROOT
ATOM      1  C   UNL     1       0.483  21.269  50.742  1.00  0.00     0.184 A 
ATOM      2  C   UNL     1       1.288  22.352  51.133  1.00  0.00     0.208 A 
ATOM      3  C   UNL     1       1.278  22.761  52.476  1.00  0.00     0.238 A 
ATOM      4  O   UNL     1       1.959  23.767  52.807  1.00  0.00    -0.285 OA
ATOM      5  C   UNL     1       0.477  22.069  53.416  1.00  0.00     0.111 A 
ATOM      6  C   UNL     1       0.419  22.371  54.809  1.00  0.00     0.134 A 
ATOM      7  C   UNL     1      -0.505  21.704  55.623  1.00  0.00     0.093 A 
ATOM      8  C   UNL     1      -1.328  20.700  55.106  1.00  0.00     0.123 A 
ATOM      9  C   UNL     1      -1.237  20.357  53.759  1.00  0.00     0.094 A 
ATOM     10  C   UNL     1      -0.350  21.030  52.915  1.00  0.00     0.146 A 
ATOM     11  O   UNL     1      -0.304  20.679  51.635  1.00  0.00    -0.451 OA
ENDROOT
BRANCH   1  12
ATOM     12  C   UNL     1       0.464  20.772  49.348  1.00  0.00     0.063 A 
ATOM     13  C   UNL     1      -0.493  20.805  47.109  1.00  0.00     0.047 A 
ATOM     14  C   UNL     1      -0.491  21.253  48.433  1.00  0.00     0.020 A 
ATOM     15  C   UNL     1       0.464  19.879  46.678  1.00  0.00     0.119 A 
ATOM     16  C   UNL     1       1.426  19.406  47.576  1.00  0.00     0.093 A 
ATOM     17  C   UNL     1       1.434  19.849  48.907  1.00  0.00     0.130 A 
BRANCH  15  18
ATOM     18  O   UNL     1       0.472  19.426  45.361  1.00  0.00    -0.508 OA
ATOM     19  H   UNL     1       0.597  18.446  45.139  1.00  0.00     0.293 HD
ENDBRANCH  15  18
BRANCH  17  20
ATOM     20  O   UNL     1       2.395  19.362  49.793  1.00  0.00    -0.507 OA
ATOM     21  H   UNL     1       3.070  18.662  49.513  1.00  0.00     0.293 HD
ENDBRANCH  17  20
ENDBRANCH   1  12
BRANCH   2  22
ATOM     22  O   UNL     1       2.061  23.028  50.184  1.00  0.00    -0.502 OA
ATOM     23  H   UNL     1       2.976  22.703  49.896  1.00  0.00     0.293 HD
ENDBRANCH   2  22
BRANCH   6  24
ATOM     24  O   UNL     1       1.258  23.291  55.445  1.00  0.00    -0.507 OA
ATOM     25  H   UNL     1       2.167  23.073  55.823  1.00  0.00     0.293 HD
ENDBRANCH   6  24
BRANCH   8  26
ATOM     26  O   UNL     1      -2.233  20.030  55.926  1.00  0.00    -0.508 OA
ATOM     27  H   UNL     1      -2.540  19.087  55.717  1.00  0.00     0.293 HD
ENDBRANCH   8  26
TORSDOF 6
ENDMDL
MODEL 5
REMARK VINA RESULT:     1.666      2.462      6.999
REMARK INTER + INTRA:           1.716
REMARK INTER:                   1.382
REMARK INTRA:                   0.335
REMARK UNBOUND:                -0.290
REMARK SMILES O=c1c(O)c(-c2ccc(O)cc2O)oc2cc(O)cc(O)c12
REMARK SMILES IDX 5 1 3 2 2 3 1 4 22 5 20 6 19 7 17 8 16 9 15 10 14 11 6 12
REMARK SMILES IDX 8 13 7 14 9 15 11 16 12 17 10 18 13 20 4 22 21 24 18 26
REMARK H PARENT 10 19 13 21 4 23 21 25 18 27
REMARK Flexibility Score: inf
ROOT
ATOM      1  C   UNL     1      -0.335  23.593  49.141  1.00  0.00     0.184 A 
ATOM      2  C   UNL     1       0.602  24.449  49.744  1.00  0.00     0.208 A 
ATOM      3  C   UNL     1       0.995  24.205  51.069  1.00  0.00     0.238 A 
ATOM      4  O   UNL     1       1.791  25.008  51.622  1.00  0.00    -0.285 OA
ATOM      5  C   UNL     1       0.462  23.095  51.769  1.00  0.00     0.111 A 
ATOM      6  C   UNL     1       0.820  22.728  53.101  1.00  0.00     0.134 A 
ATOM      7  C   UNL     1       0.134  21.688  53.739  1.00  0.00     0.093 A 
ATOM      8  C   UNL     1      -0.850  20.957  53.069  1.00  0.00     0.123 A 
ATOM      9  C   UNL     1      -1.165  21.268  51.748  1.00  0.00     0.094 A 
ATOM     10  C   UNL     1      -0.524  22.325  51.098  1.00  0.00     0.146 A 
ATOM     11  O   UNL     1      -0.863  22.596  49.843  1.00  0.00    -0.451 OA
ENDROOT
BRANCH   1  12
ATOM     12  C   UNL     1      -0.776  23.778  47.740  1.00  0.00     0.063 A 
ATOM     13  C   UNL     1      -1.226  22.858  45.532  1.00  0.00     0.047 A 
ATOM     14  C   UNL     1      -0.784  22.692  46.846  1.00  0.00     0.020 A 
ATOM     15  C   UNL     1      -1.676  24.110  45.093  1.00  0.00     0.119 A 
ATOM     16  C   UNL     1      -1.685  25.192  45.978  1.00  0.00     0.093 A 
ATOM     17  C   UNL     1      -1.241  25.033  47.300  1.00  0.00     0.130 A 
BRANCH  15  18
ATOM     18  O   UNL     1      -2.119  24.287  43.785  1.00  0.00    -0.508 OA
ATOM     19  H   UNL     1      -2.012  25.174  43.306  1.00  0.00     0.293 HD
ENDBRANCH  15  18
BRANCH  17  20
ATOM     20  O   UNL     1      -1.249  26.125  48.168  1.00  0.00    -0.507 OA
ATOM     21  H   UNL     1      -1.109  27.071  47.835  1.00  0.00     0.293 HD
ENDBRANCH  17  20
ENDBRANCH   1  12
BRANCH   2  22
ATOM     22  O   UNL     1       1.104  25.546  49.038  1.00  0.00    -0.502 OA
ATOM     23  H   UNL     1       1.774  26.190  49.440  1.00  0.00     0.293 HD
ENDBRANCH   2  22
BRANCH   6  24
ATOM     24  O   UNL     1       1.850  23.333  53.827  1.00  0.00    -0.507 OA
ATOM     25  H   UNL     1       1.785  23.612  54.794  1.00  0.00     0.293 HD
ENDBRANCH   6  24
BRANCH   8  26
ATOM     26  O   UNL     1      -1.516  19.912  53.705  1.00  0.00    -0.508 OA
ATOM     27  H   UNL     1      -1.011  19.155  54.152  1.00  0.00     0.293 HD
ENDBRANCH   8  26
TORSDOF 6
ENDMDL
MODEL 6
REMARK VINA RESULT:     1.841      2.386      6.785
REMARK INTER + INTRA:           1.927
REMARK INTER:                   1.430
REMARK INTRA:                   0.497
REMARK UNBOUND:                -0.290
REMARK SMILES O=c1c(O)c(-c2ccc(O)cc2O)oc2cc(O)cc(O)c12
REMARK SMILES IDX 5 1 3 2 2 3 1 4 22 5 20 6 19 7 17 8 16 9 15 10 14 11 6 12
REMARK SMILES IDX 8 13 7 14 9 15 11 16 12 17 10 18 13 20 4 22 21 24 18 26
REMARK H PARENT 10 19 13 21 4 23 21 25 18 27
REMARK Flexibility Score: inf
ROOT
ATOM      1  C   UNL     1      -0.443  23.298  47.684  1.00  0.00     0.184 A 
ATOM      2  C   UNL     1      -0.648  21.914  47.809  1.00  0.00     0.208 A 
ATOM      3  C   UNL     1      -0.369  21.291  49.036  1.00  0.00     0.238 A 
ATOM      4  O   UNL     1      -0.502  20.042  49.124  1.00  0.00    -0.285 OA
ATOM      5  C   UNL     1       0.093  22.063  50.129  1.00  0.00     0.111 A 
ATOM      6  C   UNL     1       0.370  21.545  51.429  1.00  0.00     0.134 A 
ATOM      7  C   UNL     1       0.945  22.377  52.397  1.00  0.00     0.093 A 
ATOM      8  C   UNL     1       1.192  23.726  52.132  1.00  0.00     0.123 A 
ATOM      9  C   UNL     1       0.871  24.256  50.885  1.00  0.00     0.094 A 
ATOM     10  C   UNL     1       0.330  23.442  49.887  1.00  0.00     0.146 A 
ATOM     11  O   UNL     1       0.050  23.985  48.708  1.00  0.00    -0.451 OA
ENDROOT
BRANCH   1  12
ATOM     12  C   UNL     1      -0.739  24.022  46.427  1.00  0.00     0.063 A 
ATOM     13  C   UNL     1      -1.817  24.105  44.245  1.00  0.00     0.047 A 
ATOM     14  C   UNL     1      -1.512  23.414  45.421  1.00  0.00     0.020 A 
ATOM     15  C   UNL     1      -1.363  25.417  44.063  1.00  0.00     0.119 A 
ATOM     16  C   UNL     1      -0.606  26.035  45.063  1.00  0.00     0.093 A 
ATOM     17  C   UNL     1      -0.294  25.346  46.245  1.00  0.00     0.130 A 
BRANCH  15  18
ATOM     18  O   UNL     1      -1.660  26.116  42.895  1.00  0.00    -0.508 OA
ATOM     19  H   UNL     1      -0.930  26.517  42.318  1.00  0.00     0.293 HD
ENDBRANCH  15  18
BRANCH  17  20
ATOM     20  O   UNL     1       0.468  25.974  47.231  1.00  0.00    -0.507 OA
ATOM     21  H   UNL     1       1.419  25.690  47.430  1.00  0.00     0.293 HD
ENDBRANCH  17  20
ENDBRANCH   1  12
BRANCH   2  22
ATOM     22  O   UNL     1      -1.093  21.170  46.713  1.00  0.00    -0.502 OA
ATOM     23  H   UNL     1      -2.063  21.152  46.425  1.00  0.00     0.293 HD
ENDBRANCH   2  22
BRANCH   6  24
ATOM     24  O   UNL     1       0.076  20.237  51.827  1.00  0.00    -0.507 OA
ATOM     25  H   UNL     1      -0.796  19.764  51.647  1.00  0.00     0.293 HD
ENDBRANCH   6  24
BRANCH   8  26
ATOM     26  O   UNL     1       1.750  24.551  53.106  1.00  0.00    -0.508 OA
ATOM     27  H   UNL     1       1.560  24.411  54.092  1.00  0.00     0.293 HD
ENDBRANCH   8  26
TORSDOF 6
ENDMDL
