MODEL 1
REMARK VINA RESULT:    -4.885      0.000      0.000
REMARK INTER + INTRA:          -8.275
REMARK INTER:                  -7.740
REMARK INTRA:                  -0.534
REMARK UNBOUND:                -0.534
REMARK SMILES CCCCCCCCCCCC(=O)[O-]
REMARK SMILES IDX 7 1 8 2 9 3 10 4 11 5 12 6 13 7 14 8 6 9 5 10 4 11 3 12 2 13
REMARK SMILES IDX 1 14
REMARK H PARENT
REMARK Flexibility Score: inf
ROOT
ATOM      1  C   UNL     1       4.823 -37.783  20.263  1.00  0.00     0.000 C 
ENDROOT
BRANCH   1   2
ATOM      2  C   UNL     1       5.480 -36.391  20.276  1.00  0.00     0.000 C 
BRANCH   2   3
ATOM      3  C   UNL     1       6.017 -36.002  21.663  1.00  0.00     0.000 C 
BRANCH   3   4
ATOM      4  C   UNL     1       4.978 -36.211  22.778  1.00  0.00     0.006 C 
BRANCH   4   5
ATOM      5  C   UNL     1       5.614 -36.736  24.071  1.00  0.00     0.053 C 
BRANCH   5   6
ATOM      6  C   UNL     1       5.016 -38.042  24.495  1.00  0.00     0.041 C 
ATOM      7  O   UNL     1       4.940 -38.999  23.680  1.00  0.00    -0.550 OA
ATOM      8  O   UNL     1       4.516 -38.192  25.782  1.00  0.00    -0.550 OA
ENDBRANCH   5   6
ENDBRANCH   4   5
ENDBRANCH   3   4
ENDBRANCH   2   3
ENDBRANCH   1   2
BRANCH   1   9
ATOM      9  C   UNL     1       3.486 -37.800  19.506  1.00  0.00     0.000 C 
BRANCH   9  10
ATOM     10  C   UNL     1       3.579 -37.125  18.129  1.00  0.00    -0.000 C 
BRANCH  10  11
ATOM     11  C   UNL     1       2.755 -37.894  17.084  1.00  0.00    -0.000 C 
BRANCH  11  12
ATOM     12  C   UNL     1       2.024 -36.963  16.105  1.00  0.00    -0.000 C 
BRANCH  12  13
ATOM     13  C   UNL     1       2.500 -37.137  14.656  1.00  0.00    -0.003 C 
ATOM     14  C   UNL     1       3.589 -38.202  14.560  1.00  0.00     0.004 C 
ENDBRANCH  12  13
ENDBRANCH  11  12
ENDBRANCH  10  11
ENDBRANCH   9  10
ENDBRANCH   1   9
TORSDOF 10
ENDMDL
MODEL 2
REMARK VINA RESULT:    -4.868      1.220      1.702
REMARK INTER + INTRA:          -8.248
REMARK INTER:                  -7.716
REMARK INTRA:                  -0.532
REMARK UNBOUND:                -0.534
REMARK SMILES CCCCCCCCCCCC(=O)[O-]
REMARK SMILES IDX 7 1 8 2 9 3 10 4 11 5 12 6 13 7 14 8 6 9 5 10 4 11 3 12 2 13
REMARK SMILES IDX 1 14
REMARK H PARENT
REMARK Flexibility Score: inf
ROOT
ATOM      1  C   UNL     1       3.902 -36.865  19.610  1.00  0.00     0.000 C 
ENDROOT
BRANCH   1   2
ATOM      2  C   UNL     1       4.927 -37.345  20.655  1.00  0.00     0.000 C 
BRANCH   2   3
ATOM      3  C   UNL     1       4.472 -38.615  21.392  1.00  0.00     0.000 C 
BRANCH   3   4
ATOM      4  C   UNL     1       4.918 -38.635  22.864  1.00  0.00     0.006 C 
BRANCH   4   5
ATOM      5  C   UNL     1       5.731 -37.390  23.240  1.00  0.00     0.053 C 
BRANCH   5   6
ATOM      6  C   UNL     1       5.514 -36.994  24.668  1.00  0.00     0.041 C 
ATOM      7  O   UNL     1       6.024 -35.935  25.117  1.00  0.00    -0.550 OA
ATOM      8  O   UNL     1       4.770 -37.811  25.510  1.00  0.00    -0.550 OA
ENDBRANCH   5   6
ENDBRANCH   4   5
ENDBRANCH   3   4
ENDBRANCH   2   3
ENDBRANCH   1   2
BRANCH   1   9
ATOM      9  C   UNL     1       3.657 -37.903  18.503  1.00  0.00     0.000 C 
BRANCH   9  10
ATOM     10  C   UNL     1       2.163 -38.141  18.238  1.00  0.00    -0.000 C 
BRANCH  10  11
ATOM     11  C   UNL     1       1.725 -37.469  16.927  1.00  0.00    -0.000 C 
BRANCH  11  12
ATOM     12  C   UNL     1       2.914 -36.974  16.089  1.00  0.00    -0.000 C 
BRANCH  12  13
ATOM     13  C   UNL     1       2.753 -37.282  14.594  1.00  0.00    -0.003 C 
ATOM     14  C   UNL     1       3.813 -38.273  14.120  1.00  0.00     0.004 C 
ENDBRANCH  12  13
ENDBRANCH  11  12
ENDBRANCH  10  11
ENDBRANCH   9  10
ENDBRANCH   1   9
TORSDOF 10
ENDMDL
MODEL 3
REMARK VINA RESULT:    -4.810      3.090      6.283
REMARK INTER + INTRA:          -8.157
REMARK INTER:                  -6.922
REMARK INTRA:                  -1.235
REMARK UNBOUND:                -0.534
REMARK SMILES CCCCCCCCCCCC(=O)[O-]
REMARK SMILES IDX 7 1 8 2 9 3 10 4 11 5 12 6 13 7 14 8 6 9 5 10 4 11 3 12 2 13
REMARK SMILES IDX 1 14
REMARK H PARENT
REMARK Flexibility Score: inf
ROOT
ATOM      1  C   UNL     1       4.908 -35.799  22.405  1.00  0.00     0.000 C 
ENDROOT
BRANCH   1   2
ATOM      2  C   UNL     1       5.950 -36.105  21.313  1.00  0.00     0.000 C 
BRANCH   2   3
ATOM      3  C   UNL     1       5.323 -36.240  19.916  1.00  0.00     0.000 C 
BRANCH   3   4
ATOM      4  C   UNL     1       3.919 -36.868  19.959  1.00  0.00     0.006 C 
BRANCH   4   5
ATOM      5  C   UNL     1       3.792 -38.067  19.010  1.00  0.00     0.053 C 
BRANCH   5   6
ATOM      6  C   UNL     1       2.452 -38.109  18.342  1.00  0.00     0.041 C 
ATOM      7  O   UNL     1       2.324 -37.716  17.153  1.00  0.00    -0.550 OA
ATOM      8  O   UNL     1       1.340 -38.556  19.044  1.00  0.00    -0.550 OA
ENDBRANCH   5   6
ENDBRANCH   4   5
ENDBRANCH   3   4
ENDBRANCH   2   3
ENDBRANCH   1   2
BRANCH   1   9
ATOM      9  C   UNL     1       5.513 -35.805  23.818  1.00  0.00     0.000 C 
BRANCH   9  10
ATOM     10  C   UNL     1       6.082 -37.177  24.210  1.00  0.00    -0.000 C 
BRANCH  10  11
ATOM     11  C   UNL     1       4.985 -38.075  24.804  1.00  0.00    -0.000 C 
BRANCH  11  12
ATOM     12  C   UNL     1       4.964 -39.477  24.176  1.00  0.00    -0.000 C 
BRANCH  12  13
ATOM     13  C   UNL     1       4.421 -39.474  22.740  1.00  0.00    -0.003 C 
ATOM     14  C   UNL     1       5.454 -40.029  21.762  1.00  0.00     0.004 C 
ENDBRANCH  12  13
ENDBRANCH  11  12
ENDBRANCH  10  11
ENDBRANCH   9  10
ENDBRANCH   1   9
TORSDOF 10
ENDMDL
MODEL 4
REMARK VINA RESULT:    -4.795      3.649      6.913
REMARK INTER + INTRA:          -8.132
REMARK INTER:                  -7.207
REMARK INTRA:                  -0.925
REMARK UNBOUND:                -0.534
REMARK SMILES CCCCCCCCCCCC(=O)[O-]
REMARK SMILES IDX 7 1 8 2 9 3 10 4 11 5 12 6 13 7 14 8 6 9 5 10 4 11 3 12 2 13
REMARK SMILES IDX 1 14
REMARK H PARENT
REMARK Flexibility Score: inf
ROOT
ATOM      1  C   UNL     1       4.592 -36.125  21.227  1.00  0.00     0.000 C 
ENDROOT
BRANCH   1   2
ATOM      2  C   UNL     1       5.387 -37.265  20.563  1.00  0.00     0.000 C 
BRANCH   2   3
ATOM      3  C   UNL     1       4.530 -38.100  19.598  1.00  0.00     0.000 C 
BRANCH   3   4
ATOM      4  C   UNL     1       3.532 -37.242  18.802  1.00  0.00     0.006 C 
BRANCH   4   5
ATOM      5  C   UNL     1       2.571 -38.097  17.967  1.00  0.00     0.053 C 
BRANCH   5   6
ATOM      6  C   UNL     1       2.597 -37.711  16.519  1.00  0.00     0.041 C 
ATOM      7  O   UNL     1       2.020 -36.662  16.132  1.00  0.00    -0.550 OA
ATOM      8  O   UNL     1       3.236 -38.527  15.595  1.00  0.00    -0.550 OA
ENDBRANCH   5   6
ENDBRANCH   4   5
ENDBRANCH   3   4
ENDBRANCH   2   3
ENDBRANCH   1   2
BRANCH   1   9
ATOM      9  C   UNL     1       4.946 -35.944  22.712  1.00  0.00     0.000 C 
BRANCH   9  10
ATOM     10  C   UNL     1       5.764 -37.119  23.271  1.00  0.00    -0.000 C 
BRANCH  10  11
ATOM     11  C   UNL     1       5.053 -37.758  24.473  1.00  0.00    -0.000 C 
BRANCH  11  12
ATOM     12  C   UNL     1       4.936 -39.285  24.349  1.00  0.00    -0.000 C 
BRANCH  12  13
ATOM     13  C   UNL     1       4.514 -39.733  22.942  1.00  0.00    -0.003 C 
ATOM     14  C   UNL     1       5.439 -40.826  22.413  1.00  0.00     0.004 C 
ENDBRANCH  12  13
ENDBRANCH  11  12
ENDBRANCH  10  11
ENDBRANCH   9  10
ENDBRANCH   1   9
TORSDOF 10
ENDMDL
MODEL 5
REMARK VINA RESULT:    -4.755      3.841      7.282
REMARK INTER + INTRA:          -8.068
REMARK INTER:                  -7.341
REMARK INTRA:                  -0.728
REMARK UNBOUND:                -0.534
REMARK SMILES CCCCCCCCCCCC(=O)[O-]
REMARK SMILES IDX 7 1 8 2 9 3 10 4 11 5 12 6 13 7 14 8 6 9 5 10 4 11 3 12 2 13
REMARK SMILES IDX 1 14
REMARK H PARENT
REMARK Flexibility Score: inf
ROOT
ATOM      1  C   UNL     1       5.308 -36.787  20.639  1.00  0.00     0.000 C 
ENDROOT
BRANCH   1   2
ATOM      2  C   UNL     1       4.428 -36.698  19.379  1.00  0.00     0.000 C 
BRANCH   2   3
ATOM      3  C   UNL     1       3.633 -37.988  19.119  1.00  0.00     0.000 C 
BRANCH   3   4
ATOM      4  C   UNL     1       2.621 -37.836  17.970  1.00  0.00     0.006 C 
BRANCH   4   5
ATOM      5  C   UNL     1       3.165 -36.967  16.831  1.00  0.00     0.053 C 
BRANCH   5   6
ATOM      6  C   UNL     1       2.825 -37.534  15.486  1.00  0.00     0.041 C 
ATOM      7  O   UNL     1       1.888 -37.037  14.807  1.00  0.00    -0.550 OA
ATOM      8  O   UNL     1       3.525 -38.629  14.997  1.00  0.00    -0.550 OA
ENDBRANCH   5   6
ENDBRANCH   4   5
ENDBRANCH   3   4
ENDBRANCH   2   3
ENDBRANCH   1   2
BRANCH   1   9
ATOM      9  C   UNL     1       4.714 -36.021  21.831  1.00  0.00     0.000 C 
BRANCH   9  10
ATOM     10  C   UNL     1       5.744 -35.767  22.942  1.00  0.00    -0.000 C 
BRANCH  10  11
ATOM     11  C   UNL     1       6.125 -37.077  23.647  1.00  0.00    -0.000 C 
BRANCH  11  12
ATOM     12  C   UNL     1       4.910 -37.805  24.242  1.00  0.00    -0.000 C 
BRANCH  12  13
ATOM     13  C   UNL     1       4.971 -39.325  24.036  1.00  0.00    -0.003 C 
ATOM     14  C   UNL     1       4.437 -39.715  22.660  1.00  0.00     0.004 C 
ENDBRANCH  12  13
ENDBRANCH  11  12
ENDBRANCH  10  11
ENDBRANCH   9  10
ENDBRANCH   1   9
TORSDOF 10
ENDMDL
MODEL 6
REMARK VINA RESULT:    -4.593      1.171      1.820
REMARK INTER + INTRA:          -7.812
REMARK INTER:                  -7.134
REMARK INTRA:                  -0.678
REMARK UNBOUND:                -0.534
REMARK SMILES CCCCCCCCCCCC(=O)[O-]
REMARK SMILES IDX 7 1 8 2 9 3 10 4 11 5 12 6 13 7 14 8 6 9 5 10 4 11 3 12 2 13
REMARK SMILES IDX 1 14
REMARK H PARENT
REMARK Flexibility Score: inf
ROOT
ATOM      1  C   UNL     1       5.637 -36.392  20.685  1.00  0.00     0.000 C 
ENDROOT
BRANCH   1   2
ATOM      2  C   UNL     1       4.612 -36.021  21.772  1.00  0.00     0.000 C 
BRANCH   2   3
ATOM      3  C   UNL     1       5.250 -35.872  23.162  1.00  0.00     0.000 C 
BRANCH   3   4
ATOM      4  C   UNL     1       5.941 -37.162  23.635  1.00  0.00     0.006 C 
BRANCH   4   5
ATOM      5  C   UNL     1       4.960 -38.131  24.307  1.00  0.00     0.053 C 
BRANCH   5   6
ATOM      6  C   UNL     1       4.829 -39.411  23.539  1.00  0.00     0.041 C 
ATOM      7  O   UNL     1       5.300 -40.482  24.006  1.00  0.00    -0.550 OA
ATOM      8  O   UNL     1       4.211 -39.415  22.295  1.00  0.00    -0.550 OA
ENDBRANCH   5   6
ENDBRANCH   4   5
ENDBRANCH   3   4
ENDBRANCH   2   3
ENDBRANCH   1   2
BRANCH   1   9
ATOM      9  C   UNL     1       5.026 -37.247  19.563  1.00  0.00     0.000 C 
BRANCH   9  10
ATOM     10  C   UNL     1       3.492 -37.290  19.623  1.00  0.00    -0.000 C 
BRANCH  10  11
ATOM     11  C   UNL     1       2.911 -37.934  18.355  1.00  0.00    -0.000 C 
BRANCH  11  12
ATOM     12  C   UNL     1       3.148 -37.085  17.097  1.00  0.00    -0.000 C 
BRANCH  12  13
ATOM     13  C   UNL     1       1.969 -37.138  16.116  1.00  0.00    -0.003 C 
ATOM     14  C   UNL     1       2.458 -37.178  14.670  1.00  0.00     0.004 C 
ENDBRANCH  12  13
ENDBRANCH  11  12
ENDBRANCH  10  11
ENDBRANCH   9  10
ENDBRANCH   1   9
TORSDOF 10
ENDMDL
MODEL 7
REMARK VINA RESULT:    -4.166      3.519      6.944
REMARK INTER + INTRA:          -7.136
REMARK INTER:                  -6.329
REMARK INTRA:                  -0.807
REMARK UNBOUND:                -0.534
REMARK SMILES CCCCCCCCCCCC(=O)[O-]
REMARK SMILES IDX 7 1 8 2 9 3 10 4 11 5 12 6 13 7 14 8 6 9 5 10 4 11 3 12 2 13
REMARK SMILES IDX 1 14
REMARK H PARENT
REMARK Flexibility Score: inf
ROOT
ATOM      1  C   UNL     1       4.097 -38.994  21.863  1.00  0.00     0.000 C 
ENDROOT
BRANCH   1   2
ATOM      2  C   UNL     1       5.076 -38.963  20.675  1.00  0.00     0.000 C 
BRANCH   2   3
ATOM      3  C   UNL     1       4.979 -37.664  19.860  1.00  0.00     0.000 C 
BRANCH   3   4
ATOM      4  C   UNL     1       3.542 -37.363  19.399  1.00  0.00     0.006 C 
BRANCH   4   5
ATOM      5  C   UNL     1       3.140 -38.196  18.176  1.00  0.00     0.053 C 
BRANCH   5   6
ATOM      6  C   UNL     1       2.647 -37.334  17.053  1.00  0.00     0.041 C 
ATOM      7  O   UNL     1       3.413 -36.491  16.517  1.00  0.00    -0.550 OA
ATOM      8  O   UNL     1       1.332 -37.445  16.620  1.00  0.00    -0.550 OA
ENDBRANCH   5   6
ENDBRANCH   4   5
ENDBRANCH   3   4
ENDBRANCH   2   3
ENDBRANCH   1   2
BRANCH   1   9
ATOM      9  C   UNL     1       4.653 -39.769  23.068  1.00  0.00     0.000 C 
BRANCH   9  10
ATOM     10  C   UNL     1       4.902 -38.867  24.286  1.00  0.00    -0.000 C 
BRANCH  10  11
ATOM     11  C   UNL     1       5.832 -37.699  23.922  1.00  0.00    -0.000 C 
BRANCH  11  12
ATOM     12  C   UNL     1       5.553 -36.438  24.753  1.00  0.00    -0.000 C 
BRANCH  12  13
ATOM     13  C   UNL     1       5.771 -35.144  23.956  1.00  0.00    -0.003 C 
ATOM     14  C   UNL     1       6.125 -35.447  22.503  1.00  0.00     0.004 C 
ENDBRANCH  12  13
ENDBRANCH  11  12
ENDBRANCH  10  11
ENDBRANCH   9  10
ENDBRANCH   1   9
TORSDOF 10
ENDMDL
MODEL 8
REMARK VINA RESULT:    -3.829      2.620      6.526
REMARK INTER + INTRA:          -6.601
REMARK INTER:                  -5.951
REMARK INTRA:                  -0.650
REMARK UNBOUND:                -0.534
REMARK SMILES CCCCCCCCCCCC(=O)[O-]
REMARK SMILES IDX 7 1 8 2 9 3 10 4 11 5 12 6 13 7 14 8 6 9 5 10 4 11 3 12 2 13
REMARK SMILES IDX 1 14
REMARK H PARENT
REMARK Flexibility Score: inf
ROOT
ATOM      1  C   UNL     1       5.143 -36.300  19.427  1.00  0.00     0.000 C 
ENDROOT
BRANCH   1   2
ATOM      2  C   UNL     1       4.800 -35.326  18.285  1.00  0.00     0.000 C 
BRANCH   2   3
ATOM      3  C   UNL     1       3.779 -35.911  17.295  1.00  0.00     0.000 C 
BRANCH   3   4
ATOM      4  C   UNL     1       3.524 -37.410  17.527  1.00  0.00     0.006 C 
BRANCH   4   5
ATOM      5  C   UNL     1       2.030 -37.754  17.497  1.00  0.00     0.053 C 
BRANCH   5   6
ATOM      6  C   UNL     1       1.555 -38.292  18.812  1.00  0.00     0.041 C 
ATOM      7  O   UNL     1       2.368 -38.463  19.758  1.00  0.00    -0.550 OA
ATOM      8  O   UNL     1       0.219 -38.631  18.982  1.00  0.00    -0.550 OA
ENDBRANCH   5   6
ENDBRANCH   4   5
ENDBRANCH   3   4
ENDBRANCH   2   3
ENDBRANCH   1   2
BRANCH   1   9
ATOM      9  C   UNL     1       6.082 -35.676  20.473  1.00  0.00     0.000 C 
BRANCH   9  10
ATOM     10  C   UNL     1       6.051 -36.425  21.814  1.00  0.00    -0.000 C 
BRANCH  10  11
ATOM     11  C   UNL     1       4.973 -37.520  21.806  1.00  0.00    -0.000 C 
BRANCH  11  12
ATOM     12  C   UNL     1       4.946 -38.335  23.108  1.00  0.00    -0.000 C 
BRANCH  12  13
ATOM     13  C   UNL     1       5.047 -37.453  24.360  1.00  0.00    -0.003 C 
ATOM     14  C   UNL     1       4.813 -38.270  25.628  1.00  0.00     0.004 C 
ENDBRANCH  12  13
ENDBRANCH  11  12
ENDBRANCH  10  11
ENDBRANCH   9  10
ENDBRANCH   1   9
TORSDOF 10
ENDMDL
MODEL 9
REMARK VINA RESULT:    -3.545      1.386      2.526
REMARK INTER + INTRA:          -6.151
REMARK INTER:                  -5.611
REMARK INTRA:                  -0.540
REMARK UNBOUND:                -0.534
REMARK SMILES CCCCCCCCCCCC(=O)[O-]
REMARK SMILES IDX 7 1 8 2 9 3 10 4 11 5 12 6 13 7 14 8 6 9 5 10 4 11 3 12 2 13
REMARK SMILES IDX 1 14
REMARK H PARENT
REMARK Flexibility Score: inf
ROOT
ATOM      1  C   UNL     1       5.470 -35.909  19.046  1.00  0.00     0.000 C 
ENDROOT
BRANCH   1   2
ATOM      2  C   UNL     1       5.396 -36.438  20.490  1.00  0.00     0.000 C 
BRANCH   2   3
ATOM      3  C   UNL     1       4.918 -37.897  20.562  1.00  0.00     0.000 C 
BRANCH   3   4
ATOM      4  C   UNL     1       5.051 -38.492  21.975  1.00  0.00     0.006 C 
BRANCH   4   5
ATOM      5  C   UNL     1       5.054 -37.410  23.061  1.00  0.00     0.053 C 
BRANCH   5   6
ATOM      6  C   UNL     1       5.007 -38.001  24.437  1.00  0.00     0.041 C 
ATOM      7  O   UNL     1       4.953 -37.253  25.447  1.00  0.00    -0.550 OA
ATOM      8  O   UNL     1       5.052 -39.380  24.601  1.00  0.00    -0.550 OA
ENDBRANCH   5   6
ENDBRANCH   4   5
ENDBRANCH   3   4
ENDBRANCH   2   3
ENDBRANCH   1   2
BRANCH   1   9
ATOM      9  C   UNL     1       4.082 -35.707  18.418  1.00  0.00     0.000 C 
BRANCH   9  10
ATOM     10  C   UNL     1       3.954 -36.378  17.041  1.00  0.00    -0.000 C 
BRANCH  10  11
ATOM     11  C   UNL     1       2.504 -36.810  16.774  1.00  0.00    -0.000 C 
BRANCH  11  12
ATOM     12  C   UNL     1       2.215 -38.241  17.254  1.00  0.00    -0.000 C 
BRANCH  12  13
ATOM     13  C   UNL     1       1.998 -38.323  18.772  1.00  0.00    -0.003 C 
ATOM     14  C   UNL     1       0.514 -38.437  19.109  1.00  0.00     0.004 C 
ENDBRANCH  12  13
ENDBRANCH  11  12
ENDBRANCH  10  11
ENDBRANCH   9  10
ENDBRANCH   1   9
TORSDOF 10
ENDMDL
