MODEL 1
REMARK VINA RESULT:     1.204      0.000      0.000
REMARK INTER + INTRA:           1.711
REMARK INTER:                   2.753
REMARK INTRA:                  -1.042
REMARK UNBOUND:                -1.042
REMARK SMILES CCCCCCCCCCCCCCCCCCCCCCCC(=O)[O-]
REMARK SMILES IDX 13 1 14 2 15 3 16 4 17 5 18 6 19 7 20 8 21 9 22 10 23 11
REMARK SMILES IDX 24 12 25 13 26 14 12 15 11 16 10 17 9 18 8 19 7 20 6 21 5 22
REMARK SMILES IDX 4 23 3 24 2 25 1 26
REMARK H PARENT
REMARK Flexibility Score: inf
ROOT
ATOM      1  C   UNL     1      22.107 -18.078  12.168  1.00  0.00     0.000 C 
ENDROOT
BRANCH   1   2
ATOM      2  C   UNL     1      22.731 -17.950  13.566  1.00  0.00     0.000 C 
BRANCH   2   3
ATOM      3  C   UNL     1      23.125 -16.502  13.907  1.00  0.00     0.000 C 
BRANCH   3   4
ATOM      4  C   UNL     1      22.026 -15.491  13.542  1.00  0.00     0.000 C 
BRANCH   4   5
ATOM      5  C   UNL     1      21.870 -14.385  14.599  1.00  0.00     0.000 C 
BRANCH   5   6
ATOM      6  C   UNL     1      23.001 -14.394  15.642  1.00  0.00     0.000 C 
BRANCH   6   7
ATOM      7  C   UNL     1      22.670 -15.142  16.949  1.00  0.00     0.000 C 
BRANCH   7   8
ATOM      8  C   UNL     1      22.808 -16.676  16.846  1.00  0.00     0.000 C 
BRANCH   8   9
ATOM      9  C   UNL     1      21.475 -17.402  17.103  1.00  0.00     0.000 C 
BRANCH   9  10
ATOM     10  C   UNL     1      20.275 -16.708  16.436  1.00  0.00     0.006 C 
BRANCH  10  11
ATOM     11  C   UNL     1      19.038 -17.606  16.266  1.00  0.00     0.053 C 
BRANCH  11  12
ATOM     12  C   UNL     1      17.756 -16.835  16.357  1.00  0.00     0.041 C 
ATOM     13  O   UNL     1      16.651 -17.440  16.373  1.00  0.00    -0.550 OA
ATOM     14  O   UNL     1      17.782 -15.448  16.423  1.00  0.00    -0.550 OA
ENDBRANCH  11  12
ENDBRANCH  10  11
ENDBRANCH   9  10
ENDBRANCH   8   9
ENDBRANCH   7   8
ENDBRANCH   6   7
ENDBRANCH   5   6
ENDBRANCH   4   5
ENDBRANCH   3   4
ENDBRANCH   2   3
ENDBRANCH   1   2
BRANCH   1  15
ATOM     15  C   UNL     1      20.568 -18.065  12.205  1.00  0.00     0.000 C 
BRANCH  15  16
ATOM     16  C   UNL     1      19.991 -16.654  12.405  1.00  0.00     0.000 C 
BRANCH  16  17
ATOM     17  C   UNL     1      18.589 -16.675  13.040  1.00  0.00     0.000 C 
BRANCH  17  18
ATOM     18  C   UNL     1      17.813 -17.960  12.709  1.00  0.00    -0.000 C 
BRANCH  18  19
ATOM     19  C   UNL     1      16.307 -17.838  13.009  1.00  0.00    -0.000 C 
BRANCH  19  20
ATOM     20  C   UNL     1      15.440 -18.006  11.751  1.00  0.00    -0.000 C 
BRANCH  20  21
ATOM     21  C   UNL     1      16.278 -18.125  10.467  1.00  0.00    -0.000 C 
BRANCH  21  22
ATOM     22  C   UNL     1      15.793 -17.179   9.357  1.00  0.00    -0.000 C 
BRANCH  22  23
ATOM     23  C   UNL     1      16.896 -16.225   8.865  1.00  0.00    -0.000 C 
BRANCH  23  24
ATOM     24  C   UNL     1      18.307 -16.726   9.209  1.00  0.00    -0.000 C 
BRANCH  24  25
ATOM     25  C   UNL     1      19.300 -15.578   9.448  1.00  0.00    -0.003 C 
ATOM     26  C   UNL     1      18.711 -14.242   9.006  1.00  0.00     0.004 C 
ENDBRANCH  24  25
ENDBRANCH  23  24
ENDBRANCH  22  23
ENDBRANCH  21  22
ENDBRANCH  20  21
ENDBRANCH  19  20
ENDBRANCH  18  19
ENDBRANCH  17  18
ENDBRANCH  16  17
ENDBRANCH  15  16
ENDBRANCH   1  15
TORSDOF 22
ENDMDL
MODEL 2
REMARK VINA RESULT:     2.637      2.675      3.817
REMARK INTER + INTRA:           4.987
REMARK INTER:                   7.113
REMARK INTRA:                  -2.127
REMARK UNBOUND:                -1.042
REMARK SMILES CCCCCCCCCCCCCCCCCCCCCCCC(=O)[O-]
REMARK SMILES IDX 13 1 14 2 15 3 16 4 17 5 18 6 19 7 20 8 21 9 22 10 23 11
REMARK SMILES IDX 24 12 25 13 26 14 12 15 11 16 10 17 9 18 8 19 7 20 6 21 5 22
REMARK SMILES IDX 4 23 3 24 2 25 1 26
REMARK H PARENT
REMARK Flexibility Score: inf
ROOT
ATOM      1  C   UNL     1      22.034 -18.124  11.534  1.00  0.00     0.000 C 
ENDROOT
BRANCH   1   2
ATOM      2  C   UNL     1      22.172 -18.029  13.062  1.00  0.00     0.000 C 
BRANCH   2   3
ATOM      3  C   UNL     1      22.776 -16.690  13.518  1.00  0.00     0.000 C 
BRANCH   3   4
ATOM      4  C   UNL     1      21.763 -15.535  13.456  1.00  0.00     0.000 C 
BRANCH   4   5
ATOM      5  C   UNL     1      22.108 -14.399  14.434  1.00  0.00     0.000 C 
BRANCH   5   6
ATOM      6  C   UNL     1      22.858 -14.893  15.683  1.00  0.00     0.000 C 
BRANCH   6   7
ATOM      7  C   UNL     1      21.959 -15.493  16.783  1.00  0.00     0.000 C 
BRANCH   7   8
ATOM      8  C   UNL     1      22.270 -16.969  17.111  1.00  0.00     0.000 C 
BRANCH   8   9
ATOM      9  C   UNL     1      21.094 -17.903  16.775  1.00  0.00     0.000 C 
BRANCH   9  10
ATOM     10  C   UNL     1      19.765 -17.151  16.586  1.00  0.00     0.006 C 
BRANCH  10  11
ATOM     11  C   UNL     1      18.946 -17.611  15.369  1.00  0.00     0.053 C 
BRANCH  11  12
ATOM     12  C   UNL     1      17.570 -17.018  15.351  1.00  0.00     0.041 C 
ATOM     13  O   UNL     1      16.843 -17.129  14.327  1.00  0.00    -0.550 OA
ATOM     14  O   UNL     1      17.089 -16.342  16.464  1.00  0.00    -0.550 OA
ENDBRANCH  11  12
ENDBRANCH  10  11
ENDBRANCH   9  10
ENDBRANCH   8   9
ENDBRANCH   7   8
ENDBRANCH   6   7
ENDBRANCH   5   6
ENDBRANCH   4   5
ENDBRANCH   3   4
ENDBRANCH   2   3
ENDBRANCH   1   2
BRANCH   1  15
ATOM     15  C   UNL     1      20.566 -18.119  11.072  1.00  0.00     0.000 C 
BRANCH  15  16
ATOM     16  C   UNL     1      19.636 -17.391  12.056  1.00  0.00     0.000 C 
BRANCH  16  17
ATOM     17  C   UNL     1      18.767 -16.325  11.367  1.00  0.00     0.000 C 
BRANCH  17  18
ATOM     18  C   UNL     1      18.967 -16.297   9.843  1.00  0.00    -0.000 C 
BRANCH  18  19
ATOM     19  C   UNL     1      18.437 -15.004   9.197  1.00  0.00    -0.000 C 
BRANCH  19  20
ATOM     20  C   UNL     1      18.413 -13.820  10.177  1.00  0.00    -0.000 C 
BRANCH  20  21
ATOM     21  C   UNL     1      17.900 -12.524   9.525  1.00  0.00    -0.000 C 
BRANCH  21  22
ATOM     22  C   UNL     1      18.009 -11.310  10.461  1.00  0.00    -0.000 C 
BRANCH  22  23
ATOM     23  C   UNL     1      17.490 -10.014   9.816  1.00  0.00    -0.000 C 
BRANCH  23  24
ATOM     24  C   UNL     1      16.043  -9.692  10.221  1.00  0.00    -0.000 C 
BRANCH  24  25
ATOM     25  C   UNL     1      15.770  -8.181  10.286  1.00  0.00    -0.003 C 
ATOM     26  C   UNL     1      15.210  -7.666   8.963  1.00  0.00     0.004 C 
ENDBRANCH  24  25
ENDBRANCH  23  24
ENDBRANCH  22  23
ENDBRANCH  21  22
ENDBRANCH  20  21
ENDBRANCH  19  20
ENDBRANCH  18  19
ENDBRANCH  17  18
ENDBRANCH  16  17
ENDBRANCH  15  16
ENDBRANCH   1  15
TORSDOF 22
ENDMDL
MODEL 3
REMARK VINA RESULT:     3.085      2.098      4.143
REMARK INTER + INTRA:           6.009
REMARK INTER:                   0.016
REMARK INTRA:                   5.993
REMARK UNBOUND:                -1.042
REMARK SMILES CCCCCCCCCCCCCCCCCCCCCCCC(=O)[O-]
REMARK SMILES IDX 13 1 14 2 15 3 16 4 17 5 18 6 19 7 20 8 21 9 22 10 23 11
REMARK SMILES IDX 24 12 25 13 26 14 12 15 11 16 10 17 9 18 8 19 7 20 6 21 5 22
REMARK SMILES IDX 4 23 3 24 2 25 1 26
REMARK H PARENT
REMARK Flexibility Score: inf
ROOT
ATOM      1  C   UNL     1      16.461 -17.821  14.233  1.00  0.00     0.000 C 
ENDROOT
BRANCH   1   2
ATOM      2  C   UNL     1      15.850 -17.646  15.632  1.00  0.00     0.000 C 
BRANCH   2   3
ATOM      3  C   UNL     1      16.898 -17.762  16.753  1.00  0.00     0.000 C 
BRANCH   3   4
ATOM      4  C   UNL     1      17.591 -16.422  17.052  1.00  0.00     0.000 C 
BRANCH   4   5
ATOM      5  C   UNL     1      19.097 -16.458  16.740  1.00  0.00     0.000 C 
BRANCH   5   6
ATOM      6  C   UNL     1      19.678 -17.882  16.766  1.00  0.00     0.000 C 
BRANCH   6   7
ATOM      7  C   UNL     1      21.121 -18.004  16.237  1.00  0.00     0.000 C 
BRANCH   7   8
ATOM      8  C   UNL     1      22.175 -17.309  17.125  1.00  0.00     0.000 C 
BRANCH   8   9
ATOM      9  C   UNL     1      22.107 -15.774  17.021  1.00  0.00     0.000 C 
BRANCH   9  10
ATOM     10  C   UNL     1      21.607 -15.287  15.650  1.00  0.00     0.006 C 
BRANCH  10  11
ATOM     11  C   UNL     1      22.707 -15.164  14.582  1.00  0.00     0.053 C 
BRANCH  11  12
ATOM     12  C   UNL     1      22.559 -16.178  13.490  1.00  0.00     0.041 C 
ATOM     13  O   UNL     1      23.124 -17.300  13.583  1.00  0.00    -0.550 OA
ATOM     14  O   UNL     1      21.796 -15.884  12.367  1.00  0.00    -0.550 OA
ENDBRANCH  11  12
ENDBRANCH  10  11
ENDBRANCH   9  10
ENDBRANCH   8   9
ENDBRANCH   7   8
ENDBRANCH   6   7
ENDBRANCH   5   6
ENDBRANCH   4   5
ENDBRANCH   3   4
ENDBRANCH   2   3
ENDBRANCH   1   2
BRANCH   1  15
ATOM     15  C   UNL     1      16.421 -16.524  13.405  1.00  0.00     0.000 C 
BRANCH  15  16
ATOM     16  C   UNL     1      17.821 -16.031  13.006  1.00  0.00     0.000 C 
BRANCH  16  17
ATOM     17  C   UNL     1      18.940 -16.946  13.533  1.00  0.00     0.000 C 
BRANCH  17  18
ATOM     18  C   UNL     1      19.230 -18.125  12.590  1.00  0.00    -0.000 C 
BRANCH  18  19
ATOM     19  C   UNL     1      18.648 -17.916  11.180  1.00  0.00    -0.000 C 
BRANCH  19  20
ATOM     20  C   UNL     1      17.126 -18.124  11.132  1.00  0.00    -0.000 C 
BRANCH  20  21
ATOM     21  C   UNL     1      16.467 -17.396   9.948  1.00  0.00    -0.000 C 
BRANCH  21  22
ATOM     22  C   UNL     1      17.495 -16.872   8.933  1.00  0.00    -0.000 C 
BRANCH  22  23
ATOM     23  C   UNL     1      18.478 -15.861   9.550  1.00  0.00    -0.000 C 
BRANCH  23  24
ATOM     24  C   UNL     1      19.946 -16.272   9.356  1.00  0.00    -0.000 C 
BRANCH  24  25
ATOM     25  C   UNL     1      20.375 -17.397  10.309  1.00  0.00    -0.003 C 
ATOM     26  C   UNL     1      21.703 -18.010   9.876  1.00  0.00     0.004 C 
ENDBRANCH  24  25
ENDBRANCH  23  24
ENDBRANCH  22  23
ENDBRANCH  21  22
ENDBRANCH  20  21
ENDBRANCH  19  20
ENDBRANCH  18  19
ENDBRANCH  17  18
ENDBRANCH  16  17
ENDBRANCH  15  16
ENDBRANCH   1  15
TORSDOF 22
ENDMDL
MODEL 4
REMARK VINA RESULT:     3.154      4.111      7.857
REMARK INTER + INTRA:           6.168
REMARK INTER:                   8.150
REMARK INTRA:                  -1.982
REMARK UNBOUND:                -1.042
REMARK SMILES CCCCCCCCCCCCCCCCCCCCCCCC(=O)[O-]
REMARK SMILES IDX 13 1 14 2 15 3 16 4 17 5 18 6 19 7 20 8 21 9 22 10 23 11
REMARK SMILES IDX 24 12 25 13 26 14 12 15 11 16 10 17 9 18 8 19 7 20 6 21 5 22
REMARK SMILES IDX 4 23 3 24 2 25 1 26
REMARK H PARENT
REMARK Flexibility Score: inf
ROOT
ATOM      1  C   UNL     1      16.551 -18.079  12.026  1.00  0.00     0.000 C 
ENDROOT
BRANCH   1   2
ATOM      2  C   UNL     1      17.817 -17.567  11.321  1.00  0.00     0.000 C 
BRANCH   2   3
ATOM      3  C   UNL     1      17.808 -17.851   9.809  1.00  0.00     0.000 C 
BRANCH   3   4
ATOM      4  C   UNL     1      17.918 -16.568   8.968  1.00  0.00     0.000 C 
BRANCH   4   5
ATOM      5  C   UNL     1      18.740 -15.475   9.671  1.00  0.00     0.000 C 
BRANCH   5   6
ATOM      6  C   UNL     1      18.459 -14.068   9.117  1.00  0.00     0.000 C 
BRANCH   6   7
ATOM      7  C   UNL     1      17.764 -13.109  10.104  1.00  0.00     0.000 C 
BRANCH   7   8
ATOM      8  C   UNL     1      18.310 -11.665  10.063  1.00  0.00     0.000 C 
BRANCH   8   9
ATOM      9  C   UNL     1      17.376 -10.666  10.770  1.00  0.00     0.000 C 
BRANCH   9  10
ATOM     10  C   UNL     1      17.039  -9.442   9.902  1.00  0.00     0.006 C 
BRANCH  10  11
ATOM     11  C   UNL     1      15.551  -9.055   9.902  1.00  0.00     0.053 C 
BRANCH  11  12
ATOM     12  C   UNL     1      15.224  -8.042   8.848  1.00  0.00     0.041 C 
ATOM     13  O   UNL     1      15.655  -6.862   8.945  1.00  0.00    -0.550 OA
ATOM     14  O   UNL     1      14.443  -8.401   7.757  1.00  0.00    -0.550 OA
ENDBRANCH  11  12
ENDBRANCH  10  11
ENDBRANCH   9  10
ENDBRANCH   8   9
ENDBRANCH   7   8
ENDBRANCH   6   7
ENDBRANCH   5   6
ENDBRANCH   4   5
ENDBRANCH   3   4
ENDBRANCH   2   3
ENDBRANCH   1   2
BRANCH   1  15
ATOM     15  C   UNL     1      16.452 -17.600  13.485  1.00  0.00     0.000 C 
BRANCH  15  16
ATOM     16  C   UNL     1      17.829 -17.385  14.134  1.00  0.00     0.000 C 
BRANCH  16  17
ATOM     17  C   UNL     1      18.093 -15.910  14.484  1.00  0.00     0.000 C 
BRANCH  17  18
ATOM     18  C   UNL     1      18.135 -15.663  15.999  1.00  0.00    -0.000 C 
BRANCH  18  19
ATOM     19  C   UNL     1      19.459 -16.118  16.640  1.00  0.00    -0.000 C 
BRANCH  19  20
ATOM     20  C   UNL     1      20.691 -15.595  15.884  1.00  0.00    -0.000 C 
BRANCH  20  21
ATOM     21  C   UNL     1      22.008 -16.182  16.423  1.00  0.00    -0.000 C 
BRANCH  21  22
ATOM     22  C   UNL     1      22.165 -17.675  16.095  1.00  0.00    -0.000 C 
BRANCH  22  23
ATOM     23  C   UNL     1      21.277 -18.123  14.921  1.00  0.00    -0.000 C 
BRANCH  23  24
ATOM     24  C   UNL     1      22.005 -18.056  13.570  1.00  0.00    -0.000 C 
BRANCH  24  25
ATOM     25  C   UNL     1      21.189 -17.323  12.495  1.00  0.00    -0.003 C 
ATOM     26  C   UNL     1      21.541 -17.826  11.098  1.00  0.00     0.004 C 
ENDBRANCH  24  25
ENDBRANCH  23  24
ENDBRANCH  22  23
ENDBRANCH  21  22
ENDBRANCH  20  21
ENDBRANCH  19  20
ENDBRANCH  18  19
ENDBRANCH  17  18
ENDBRANCH  16  17
ENDBRANCH  15  16
ENDBRANCH   1  15
TORSDOF 22
ENDMDL
MODEL 5
REMARK VINA RESULT:     3.310      2.837      4.854
REMARK INTER + INTRA:           6.525
REMARK INTER:                   8.352
REMARK INTRA:                  -1.827
REMARK UNBOUND:                -1.042
REMARK SMILES CCCCCCCCCCCCCCCCCCCCCCCC(=O)[O-]
REMARK SMILES IDX 13 1 14 2 15 3 16 4 17 5 18 6 19 7 20 8 21 9 22 10 23 11
REMARK SMILES IDX 24 12 25 13 26 14 12 15 11 16 10 17 9 18 8 19 7 20 6 21 5 22
REMARK SMILES IDX 4 23 3 24 2 25 1 26
REMARK H PARENT
REMARK Flexibility Score: inf
ROOT
ATOM      1  C   UNL     1      16.984 -17.779  13.114  1.00  0.00     0.000 C 
ENDROOT
BRANCH   1   2
ATOM      2  C   UNL     1      16.718 -18.050  14.603  1.00  0.00     0.000 C 
BRANCH   2   3
ATOM      3  C   UNL     1      16.285 -16.785  15.365  1.00  0.00     0.000 C 
BRANCH   3   4
ATOM      4  C   UNL     1      17.283 -16.391  16.466  1.00  0.00     0.000 C 
BRANCH   4   5
ATOM      5  C   UNL     1      18.275 -15.311  16.000  1.00  0.00     0.000 C 
BRANCH   5   6
ATOM      6  C   UNL     1      19.706 -15.849  15.834  1.00  0.00     0.000 C 
BRANCH   6   7
ATOM      7  C   UNL     1      20.344 -16.401  17.125  1.00  0.00     0.000 C 
BRANCH   7   8
ATOM      8  C   UNL     1      21.445 -17.455  16.878  1.00  0.00     0.000 C 
BRANCH   8   9
ATOM      9  C   UNL     1      21.541 -17.864  15.397  1.00  0.00     0.000 C 
BRANCH   9  10
ATOM     10  C   UNL     1      22.982 -17.831  14.858  1.00  0.00     0.006 C 
BRANCH  10  11
ATOM     11  C   UNL     1      23.099 -18.102  13.348  1.00  0.00     0.053 C 
BRANCH  11  12
ATOM     12  C   UNL     1      22.815 -16.883  12.525  1.00  0.00     0.041 C 
ATOM     13  O   UNL     1      22.645 -16.983  11.281  1.00  0.00    -0.550 OA
ATOM     14  O   UNL     1      22.737 -15.637  13.132  1.00  0.00    -0.550 OA
ENDBRANCH  11  12
ENDBRANCH  10  11
ENDBRANCH   9  10
ENDBRANCH   8   9
ENDBRANCH   7   8
ENDBRANCH   6   7
ENDBRANCH   5   6
ENDBRANCH   4   5
ENDBRANCH   3   4
ENDBRANCH   2   3
ENDBRANCH   1   2
BRANCH   1  15
ATOM     15  C   UNL     1      18.366 -17.148  12.866  1.00  0.00     0.000 C 
BRANCH  15  16
ATOM     16  C   UNL     1      19.353 -18.123  12.204  1.00  0.00     0.000 C 
BRANCH  16  17
ATOM     17  C   UNL     1      19.322 -18.039  10.667  1.00  0.00     0.000 C 
BRANCH  17  18
ATOM     18  C   UNL     1      17.895 -17.904  10.114  1.00  0.00    -0.000 C 
BRANCH  18  19
ATOM     19  C   UNL     1      17.660 -16.561   9.398  1.00  0.00    -0.000 C 
BRANCH  19  20
ATOM     20  C   UNL     1      18.663 -15.479   9.828  1.00  0.00    -0.000 C 
BRANCH  20  21
ATOM     21  C   UNL     1      18.379 -14.117   9.169  1.00  0.00    -0.000 C 
BRANCH  21  22
ATOM     22  C   UNL     1      17.975 -13.042  10.190  1.00  0.00    -0.000 C 
BRANCH  22  23
ATOM     23  C   UNL     1      18.376 -11.623   9.749  1.00  0.00    -0.000 C 
BRANCH  23  24
ATOM     24  C   UNL     1      17.461 -10.540  10.342  1.00  0.00    -0.000 C 
BRANCH  24  25
ATOM     25  C   UNL     1      17.312  -9.322   9.418  1.00  0.00    -0.003 C 
ATOM     26  C   UNL     1      15.949  -8.659   9.596  1.00  0.00     0.004 C 
ENDBRANCH  24  25
ENDBRANCH  23  24
ENDBRANCH  22  23
ENDBRANCH  21  22
ENDBRANCH  20  21
ENDBRANCH  19  20
ENDBRANCH  18  19
ENDBRANCH  17  18
ENDBRANCH  16  17
ENDBRANCH  15  16
ENDBRANCH   1  15
TORSDOF 22
ENDMDL
MODEL 6
REMARK VINA RESULT:     3.471      3.801      7.685
REMARK INTER + INTRA:           6.893
REMARK INTER:                   8.599
REMARK INTRA:                  -1.705
REMARK UNBOUND:                -1.042
REMARK SMILES CCCCCCCCCCCCCCCCCCCCCCCC(=O)[O-]
REMARK SMILES IDX 13 1 14 2 15 3 16 4 17 5 18 6 19 7 20 8 21 9 22 10 23 11
REMARK SMILES IDX 24 12 25 13 26 14 12 15 11 16 10 17 9 18 8 19 7 20 6 21 5 22
REMARK SMILES IDX 4 23 3 24 2 25 1 26
REMARK H PARENT
REMARK Flexibility Score: inf
ROOT
ATOM      1  C   UNL     1      20.268 -17.552  12.051  1.00  0.00     0.000 C 
ENDROOT
BRANCH   1   2
ATOM      2  C   UNL     1      19.873 -17.254  10.596  1.00  0.00     0.000 C 
BRANCH   2   3
ATOM      3  C   UNL     1      18.368 -17.450  10.340  1.00  0.00     0.000 C 
BRANCH   3   4
ATOM      4  C   UNL     1      17.834 -16.526   9.234  1.00  0.00     0.000 C 
BRANCH   4   5
ATOM      5  C   UNL     1      18.645 -15.225   9.114  1.00  0.00     0.000 C 
BRANCH   5   6
ATOM      6  C   UNL     1      18.275 -14.189  10.188  1.00  0.00     0.000 C 
BRANCH   6   7
ATOM      7  C   UNL     1      18.274 -12.725   9.705  1.00  0.00     0.000 C 
BRANCH   7   8
ATOM      8  C   UNL     1      17.926 -11.702  10.807  1.00  0.00     0.000 C 
BRANCH   8   9
ATOM      9  C   UNL     1      17.200 -10.465  10.249  1.00  0.00     0.000 C 
BRANCH   9  10
ATOM     10  C   UNL     1      18.137  -9.512   9.486  1.00  0.00     0.006 C 
BRANCH  10  11
ATOM     11  C   UNL     1      17.436  -8.283   8.884  1.00  0.00     0.053 C 
BRANCH  11  12
ATOM     12  C   UNL     1      15.977  -8.235   9.222  1.00  0.00     0.041 C 
ATOM     13  O   UNL     1      15.606  -8.123  10.420  1.00  0.00    -0.550 OA
ATOM     14  O   UNL     1      15.027  -8.314   8.212  1.00  0.00    -0.550 OA
ENDBRANCH  11  12
ENDBRANCH  10  11
ENDBRANCH   9  10
ENDBRANCH   8   9
ENDBRANCH   7   8
ENDBRANCH   6   7
ENDBRANCH   5   6
ENDBRANCH   4   5
ENDBRANCH   3   4
ENDBRANCH   2   3
ENDBRANCH   1   2
BRANCH   1  15
ATOM     15  C   UNL     1      21.695 -18.115  12.173  1.00  0.00     0.000 C 
BRANCH  15  16
ATOM     16  C   UNL     1      22.769 -17.015  12.173  1.00  0.00     0.000 C 
BRANCH  16  17
ATOM     17  C   UNL     1      23.124 -16.538  13.592  1.00  0.00     0.000 C 
BRANCH  17  18
ATOM     18  C   UNL     1      22.418 -15.225  13.966  1.00  0.00    -0.000 C 
BRANCH  18  19
ATOM     19  C   UNL     1      22.361 -14.993  15.486  1.00  0.00    -0.000 C 
BRANCH  19  20
ATOM     20  C   UNL     1      22.132 -16.292  16.275  1.00  0.00    -0.000 C 
BRANCH  20  21
ATOM     21  C   UNL     1      20.684 -16.428  16.780  1.00  0.00    -0.000 C 
BRANCH  21  22
ATOM     22  C   UNL     1      19.928 -17.577  16.096  1.00  0.00    -0.000 C 
BRANCH  22  23
ATOM     23  C   UNL     1      18.401 -17.387  16.128  1.00  0.00    -0.000 C 
BRANCH  23  24
ATOM     24  C   UNL     1      17.966 -16.016  15.585  1.00  0.00    -0.000 C 
BRANCH  24  25
ATOM     25  C   UNL     1      17.883 -15.988  14.052  1.00  0.00    -0.003 C 
ATOM     26  C   UNL     1      18.916 -15.033  13.462  1.00  0.00     0.004 C 
ENDBRANCH  24  25
ENDBRANCH  23  24
ENDBRANCH  22  23
ENDBRANCH  21  22
ENDBRANCH  20  21
ENDBRANCH  19  20
ENDBRANCH  18  19
ENDBRANCH  17  18
ENDBRANCH  16  17
ENDBRANCH  15  16
ENDBRANCH   1  15
TORSDOF 22
ENDMDL
MODEL 7
REMARK VINA RESULT:     3.487      3.276      5.389
REMARK INTER + INTRA:           6.930
REMARK INTER:                   8.363
REMARK INTRA:                  -1.433
REMARK UNBOUND:                -1.042
REMARK SMILES CCCCCCCCCCCCCCCCCCCCCCCC(=O)[O-]
REMARK SMILES IDX 13 1 14 2 15 3 16 4 17 5 18 6 19 7 20 8 21 9 22 10 23 11
REMARK SMILES IDX 24 12 25 13 26 14 12 15 11 16 10 17 9 18 8 19 7 20 6 21 5 22
REMARK SMILES IDX 4 23 3 24 2 25 1 26
REMARK H PARENT
REMARK Flexibility Score: inf
ROOT
ATOM      1  C   UNL     1      18.865 -17.918  12.379  1.00  0.00     0.000 C 
ENDROOT
BRANCH   1   2
ATOM      2  C   UNL     1      18.764 -17.512  13.858  1.00  0.00     0.000 C 
BRANCH   2   3
ATOM      3  C   UNL     1      17.446 -16.787  14.183  1.00  0.00     0.000 C 
BRANCH   3   4
ATOM      4  C   UNL     1      17.512 -16.012  15.508  1.00  0.00     0.000 C 
BRANCH   4   5
ATOM      5  C   UNL     1      17.699 -16.939  16.722  1.00  0.00     0.000 C 
BRANCH   5   6
ATOM      6  C   UNL     1      19.175 -17.113  17.118  1.00  0.00     0.000 C 
BRANCH   6   7
ATOM      7  C   UNL     1      20.102 -15.957  16.689  1.00  0.00     0.000 C 
BRANCH   7   8
ATOM      8  C   UNL     1      21.605 -16.260  16.869  1.00  0.00     0.000 C 
BRANCH   8   9
ATOM      9  C   UNL     1      22.499 -15.178  16.238  1.00  0.00     0.000 C 
BRANCH   9  10
ATOM     10  C   UNL     1      22.099 -14.837  14.792  1.00  0.00     0.006 C 
BRANCH  10  11
ATOM     11  C   UNL     1      23.069 -15.368  13.724  1.00  0.00     0.053 C 
BRANCH  11  12
ATOM     12  C   UNL     1      22.781 -16.790  13.346  1.00  0.00     0.041 C 
ATOM     13  O   UNL     1      22.238 -17.056  12.241  1.00  0.00    -0.550 OA
ATOM     14  O   UNL     1      23.111 -17.821  14.216  1.00  0.00    -0.550 OA
ENDBRANCH  11  12
ENDBRANCH  10  11
ENDBRANCH   9  10
ENDBRANCH   8   9
ENDBRANCH   7   8
ENDBRANCH   6   7
ENDBRANCH   5   6
ENDBRANCH   4   5
ENDBRANCH   3   4
ENDBRANCH   2   3
ENDBRANCH   1   2
BRANCH   1  15
ATOM     15  C   UNL     1      17.538 -17.728  11.623  1.00  0.00     0.000 C 
BRANCH  15  16
ATOM     16  C   UNL     1      17.706 -17.821  10.097  1.00  0.00     0.000 C 
BRANCH  16  17
ATOM     17  C   UNL     1      18.637 -16.731   9.539  1.00  0.00     0.000 C 
BRANCH  17  18
ATOM     18  C   UNL     1      17.864 -15.526   8.979  1.00  0.00    -0.000 C 
BRANCH  18  19
ATOM     19  C   UNL     1      18.623 -14.199   9.155  1.00  0.00    -0.000 C 
BRANCH  19  20
ATOM     20  C   UNL     1      17.682 -13.005   9.379  1.00  0.00    -0.000 C 
BRANCH  20  21
ATOM     21  C   UNL     1      18.235 -12.001  10.406  1.00  0.00    -0.000 C 
BRANCH  21  22
ATOM     22  C   UNL     1      17.426 -10.696  10.449  1.00  0.00    -0.000 C 
BRANCH  22  23
ATOM     23  C   UNL     1      18.165  -9.516   9.792  1.00  0.00    -0.000 C 
BRANCH  23  24
ATOM     24  C   UNL     1      17.236  -8.644   8.932  1.00  0.00    -0.000 C 
BRANCH  24  25
ATOM     25  C   UNL     1      15.921  -8.299   9.647  1.00  0.00    -0.003 C 
ATOM     26  C   UNL     1      14.861  -7.833   8.654  1.00  0.00     0.004 C 
ENDBRANCH  24  25
ENDBRANCH  23  24
ENDBRANCH  22  23
ENDBRANCH  21  22
ENDBRANCH  20  21
ENDBRANCH  19  20
ENDBRANCH  18  19
ENDBRANCH  17  18
ENDBRANCH  16  17
ENDBRANCH  15  16
ENDBRANCH   1  15
TORSDOF 22
ENDMDL
MODEL 8
REMARK VINA RESULT:     3.521      3.651      7.889
REMARK INTER + INTRA:           7.006
REMARK INTER:                   8.821
REMARK INTRA:                  -1.814
REMARK UNBOUND:                -1.042
REMARK SMILES CCCCCCCCCCCCCCCCCCCCCCCC(=O)[O-]
REMARK SMILES IDX 13 1 14 2 15 3 16 4 17 5 18 6 19 7 20 8 21 9 22 10 23 11
REMARK SMILES IDX 24 12 25 13 26 14 12 15 11 16 10 17 9 18 8 19 7 20 6 21 5 22
REMARK SMILES IDX 4 23 3 24 2 25 1 26
REMARK H PARENT
REMARK Flexibility Score: inf
ROOT
ATOM      1  C   UNL     1      18.687 -17.093  12.758  1.00  0.00     0.000 C 
ENDROOT
BRANCH   1   2
ATOM      2  C   UNL     1      17.430 -17.852  12.306  1.00  0.00     0.000 C 
BRANCH   2   3
ATOM      3  C   UNL     1      17.287 -17.901  10.775  1.00  0.00     0.000 C 
BRANCH   3   4
ATOM      4  C   UNL     1      18.271 -16.961  10.061  1.00  0.00     0.000 C 
BRANCH   4   5
ATOM      5  C   UNL     1      17.593 -16.126   8.961  1.00  0.00     0.000 C 
BRANCH   5   6
ATOM      6  C   UNL     1      18.350 -14.824   8.649  1.00  0.00     0.000 C 
BRANCH   6   7
ATOM      7  C   UNL     1      18.516 -13.867   9.846  1.00  0.00     0.000 C 
BRANCH   7   8
ATOM      8  C   UNL     1      18.001 -12.437   9.582  1.00  0.00     0.000 C 
BRANCH   8   9
ATOM      9  C   UNL     1      17.824 -11.629  10.880  1.00  0.00     0.000 C 
BRANCH   9  10
ATOM     10  C   UNL     1      17.486 -10.150  10.625  1.00  0.00     0.006 C 
BRANCH  10  11
ATOM     11  C   UNL     1      16.008  -9.887  10.291  1.00  0.00     0.053 C 
BRANCH  11  12
ATOM     12  C   UNL     1      15.810  -8.598   9.553  1.00  0.00     0.041 C 
ATOM     13  O   UNL     1      16.275  -8.453   8.391  1.00  0.00    -0.550 OA
ATOM     14  O   UNL     1      15.112  -7.555  10.149  1.00  0.00    -0.550 OA
ENDBRANCH  11  12
ENDBRANCH  10  11
ENDBRANCH   9  10
ENDBRANCH   8   9
ENDBRANCH   7   8
ENDBRANCH   6   7
ENDBRANCH   5   6
ENDBRANCH   4   5
ENDBRANCH   3   4
ENDBRANCH   2   3
ENDBRANCH   1   2
BRANCH   1  15
ATOM     15  C   UNL     1      19.844 -18.037  13.133  1.00  0.00     0.000 C 
BRANCH  15  16
ATOM     16  C   UNL     1      20.919 -18.124  12.038  1.00  0.00     0.000 C 
BRANCH  16  17
ATOM     17  C   UNL     1      22.324 -17.780  12.563  1.00  0.00     0.000 C 
BRANCH  17  18
ATOM     18  C   UNL     1      22.629 -16.276  12.488  1.00  0.00    -0.000 C 
BRANCH  18  19
ATOM     19  C   UNL     1      22.448 -15.565  13.841  1.00  0.00    -0.000 C 
BRANCH  19  20
ATOM     20  C   UNL     1      22.741 -16.484  15.036  1.00  0.00    -0.000 C 
BRANCH  20  21
ATOM     21  C   UNL     1      22.769 -15.723  16.374  1.00  0.00    -0.000 C 
BRANCH  21  22
ATOM     22  C   UNL     1      21.411 -15.745  17.092  1.00  0.00    -0.000 C 
BRANCH  22  23
ATOM     23  C   UNL     1      20.224 -15.856  16.119  1.00  0.00    -0.000 C 
BRANCH  23  24
ATOM     24  C   UNL     1      18.966 -16.432  16.786  1.00  0.00    -0.000 C 
BRANCH  24  25
ATOM     25  C   UNL     1      17.693 -16.175  15.965  1.00  0.00    -0.003 C 
ATOM     26  C   UNL     1      16.504 -16.938  16.541  1.00  0.00     0.004 C 
ENDBRANCH  24  25
ENDBRANCH  23  24
ENDBRANCH  22  23
ENDBRANCH  21  22
ENDBRANCH  20  21
ENDBRANCH  19  20
ENDBRANCH  18  19
ENDBRANCH  17  18
ENDBRANCH  16  17
ENDBRANCH  15  16
ENDBRANCH   1  15
TORSDOF 22
ENDMDL
MODEL 9
REMARK VINA RESULT:     3.547      3.238      5.143
REMARK INTER + INTRA:           7.067
REMARK INTER:                   8.557
REMARK INTRA:                  -1.489
REMARK UNBOUND:                -1.042
REMARK SMILES CCCCCCCCCCCCCCCCCCCCCCCC(=O)[O-]
REMARK SMILES IDX 13 1 14 2 15 3 16 4 17 5 18 6 19 7 20 8 21 9 22 10 23 11
REMARK SMILES IDX 24 12 25 13 26 14 12 15 11 16 10 17 9 18 8 19 7 20 6 21 5 22
REMARK SMILES IDX 4 23 3 24 2 25 1 26
REMARK H PARENT
REMARK Flexibility Score: inf
ROOT
ATOM      1  C   UNL     1      19.667 -17.383  11.355  1.00  0.00     0.000 C 
ENDROOT
BRANCH   1   2
ATOM      2  C   UNL     1      20.083 -16.990  12.781  1.00  0.00     0.000 C 
BRANCH   2   3
ATOM      3  C   UNL     1      19.761 -15.521  13.107  1.00  0.00     0.000 C 
BRANCH   3   4
ATOM      4  C   UNL     1      19.243 -15.335  14.542  1.00  0.00     0.000 C 
BRANCH   4   5
ATOM      5  C   UNL     1      17.868 -15.990  14.759  1.00  0.00     0.000 C 
BRANCH   5   6
ATOM      6  C   UNL     1      17.539 -16.208  16.245  1.00  0.00     0.000 C 
BRANCH   6   7
ATOM      7  C   UNL     1      18.704 -16.758  17.093  1.00  0.00     0.000 C 
BRANCH   7   8
ATOM      8  C   UNL     1      19.520 -17.866  16.393  1.00  0.00     0.000 C 
BRANCH   8   9
ATOM      9  C   UNL     1      20.869 -18.125  17.086  1.00  0.00     0.000 C 
BRANCH   9  10
ATOM     10  C   UNL     1      22.071 -17.622  16.267  1.00  0.00     0.006 C 
BRANCH  10  11
ATOM     11  C   UNL     1      22.439 -16.150  16.522  1.00  0.00     0.053 C 
BRANCH  11  12
ATOM     12  C   UNL     1      22.867 -15.444  15.271  1.00  0.00     0.041 C 
ATOM     13  O   UNL     1      23.042 -14.197  15.274  1.00  0.00    -0.550 OA
ATOM     14  O   UNL     1      23.071 -16.165  14.101  1.00  0.00    -0.550 OA
ENDBRANCH  11  12
ENDBRANCH  10  11
ENDBRANCH   9  10
ENDBRANCH   8   9
ENDBRANCH   7   8
ENDBRANCH   6   7
ENDBRANCH   5   6
ENDBRANCH   4   5
ENDBRANCH   3   4
ENDBRANCH   2   3
ENDBRANCH   1   2
BRANCH   1  15
ATOM     15  C   UNL     1      18.195 -17.826  11.270  1.00  0.00     0.000 C 
BRANCH  15  16
ATOM     16  C   UNL     1      17.722 -18.039   9.823  1.00  0.00     0.000 C 
BRANCH  16  17
ATOM     17  C   UNL     1      17.395 -16.716   9.108  1.00  0.00     0.000 C 
BRANCH  17  18
ATOM     18  C   UNL     1      18.537 -15.694   9.211  1.00  0.00    -0.000 C 
BRANCH  18  19
ATOM     19  C   UNL     1      18.060 -14.246   8.996  1.00  0.00    -0.000 C 
BRANCH  19  20
ATOM     20  C   UNL     1      18.285 -13.359  10.231  1.00  0.00    -0.000 C 
BRANCH  20  21
ATOM     21  C   UNL     1      18.252 -11.858   9.894  1.00  0.00    -0.000 C 
BRANCH  21  22
ATOM     22  C   UNL     1      17.590 -11.021  10.999  1.00  0.00    -0.000 C 
BRANCH  22  23
ATOM     23  C   UNL     1      17.071  -9.665  10.488  1.00  0.00    -0.000 C 
BRANCH  23  24
ATOM     24  C   UNL     1      15.642  -9.753   9.929  1.00  0.00    -0.000 C 
BRANCH  24  25
ATOM     25  C   UNL     1      15.330  -8.629   8.929  1.00  0.00    -0.003 C 
ATOM     26  C   UNL     1      15.356  -7.264   9.610  1.00  0.00     0.004 C 
ENDBRANCH  24  25
ENDBRANCH  23  24
ENDBRANCH  22  23
ENDBRANCH  21  22
ENDBRANCH  20  21
ENDBRANCH  19  20
ENDBRANCH  18  19
ENDBRANCH  17  18
ENDBRANCH  16  17
ENDBRANCH  15  16
ENDBRANCH   1  15
TORSDOF 22
ENDMDL
