MODEL 1
REMARK VINA RESULT:    -3.132      0.000      0.000
REMARK INTER + INTRA:          -3.132
REMARK INTER:                  -3.132
REMARK INTRA:                   0.000
REMARK UNBOUND:                 0.000
REMARK SMILES CC1(C)C(=O)[C@]2(C)CC[C@H]1C2
REMARK SMILES IDX 1 1 2 2 10 3 9 4 8 5 6 6 11 7 4 8 5 9 7 10 3 11
REMARK H PARENT
REMARK Flexibility Score: inf
ROOT
ATOM      1  C   UNL     1     164.088 174.360 171.228  1.00  0.00     0.020 C 
ATOM      2  C   UNL     1     162.840 173.604 170.723  1.00  0.00     0.027 C 
ATOM      3  C   UNL     1     162.715 172.186 171.386  1.00  0.00     0.003 C 
ATOM      4  C   UNL     1     161.368 171.512 171.017  1.00  0.00     0.005 C 
ATOM      5  C   UNL     1     161.526 171.224 169.506  1.00  0.00     0.015 C 
ATOM      6  C   UNL     1     162.973 171.675 169.227  1.00  0.00     0.027 C 
ATOM      7  C   UNL     1     163.656 171.334 170.536  1.00  0.00     0.019 C 
ATOM      8  C   UNL     1     163.003 173.177 169.294  1.00  0.00     0.144 C 
ATOM      9  O   UNL     1     163.073 173.929 168.333  1.00  0.00    -0.298 OA
ATOM     10  C   UNL     1     163.623 171.060 167.986  1.00  0.00     0.020 C 
ATOM     11  C   UNL     1     161.596 174.502 170.907  1.00  0.00     0.020 C 
ENDROOT
TORSDOF 0
ENDMDL
MODEL 2
REMARK VINA RESULT:    -3.124     13.938     15.435
REMARK INTER + INTRA:          -3.124
REMARK INTER:                  -3.124
REMARK INTRA:                   0.000
REMARK UNBOUND:                 0.000
REMARK SMILES CC1(C)C(=O)[C@]2(C)CC[C@H]1C2
REMARK SMILES IDX 1 1 2 2 10 3 9 4 8 5 6 6 11 7 4 8 5 9 7 10 3 11
REMARK H PARENT
REMARK Flexibility Score: inf
ROOT
ATOM      1  C   UNL     1     167.192 156.807 171.222  1.00  0.00     0.020 C 
ATOM      2  C   UNL     1     168.426 157.583 170.715  1.00  0.00     0.027 C 
ATOM      3  C   UNL     1     168.531 159.002 171.380  1.00  0.00     0.003 C 
ATOM      4  C   UNL     1     169.866 159.698 171.007  1.00  0.00     0.005 C 
ATOM      5  C   UNL     1     169.697 159.986 169.497  1.00  0.00     0.015 C 
ATOM      6  C   UNL     1     168.256 159.513 169.223  1.00  0.00     0.027 C 
ATOM      7  C   UNL     1     167.574 159.840 170.535  1.00  0.00     0.019 C 
ATOM      8  C   UNL     1     168.251 158.011 169.287  1.00  0.00     0.144 C 
ATOM      9  O   UNL     1     168.189 157.259 168.325  1.00  0.00    -0.298 OA
ATOM     10  C   UNL     1     167.592 160.119 167.985  1.00  0.00     0.020 C 
ATOM     11  C   UNL     1     169.684 156.704 170.892  1.00  0.00     0.020 C 
ENDROOT
TORSDOF 0
ENDMDL
MODEL 3
REMARK VINA RESULT:    -3.114      1.411      2.173
REMARK INTER + INTRA:          -3.114
REMARK INTER:                  -3.114
REMARK INTRA:                   0.000
REMARK UNBOUND:                 0.000
REMARK SMILES CC1(C)C(=O)[C@]2(C)CC[C@H]1C2
REMARK SMILES IDX 1 1 2 2 10 3 9 4 8 5 6 6 11 7 4 8 5 9 7 10 3 11
REMARK H PARENT
REMARK Flexibility Score: inf
ROOT
ATOM      1  C   UNL     1     161.294 175.449 171.214  1.00  0.00     0.020 C 
ATOM      2  C   UNL     1     161.409 174.109 170.455  1.00  0.00     0.027 C 
ATOM      3  C   UNL     1     162.677 173.297 170.904  1.00  0.00     0.003 C 
ATOM      4  C   UNL     1     162.685 171.880 170.275  1.00  0.00     0.005 C 
ATOM      5  C   UNL     1     162.917 172.167 168.773  1.00  0.00     0.015 C 
ATOM      6  C   UNL     1     163.112 173.695 168.749  1.00  0.00     0.027 C 
ATOM      7  C   UNL     1     163.793 173.937 170.081  1.00  0.00     0.019 C 
ATOM      8  C   UNL     1     161.774 174.329 169.016  1.00  0.00     0.144 C 
ATOM      9  O   UNL     1     161.065 174.869 168.180  1.00  0.00    -0.298 OA
ATOM     10  C   UNL     1     163.865 174.241 167.534  1.00  0.00     0.020 C 
ATOM     11  C   UNL     1     160.079 173.335 170.590  1.00  0.00     0.020 C 
ENDROOT
TORSDOF 0
ENDMDL
MODEL 4
REMARK VINA RESULT:    -3.083     15.077     16.507
REMARK INTER + INTRA:          -3.083
REMARK INTER:                  -3.083
REMARK INTRA:                   0.000
REMARK UNBOUND:                 0.000
REMARK SMILES CC1(C)C(=O)[C@]2(C)CC[C@H]1C2
REMARK SMILES IDX 1 1 2 2 10 3 9 4 8 5 6 6 11 7 4 8 5 9 7 10 3 11
REMARK H PARENT
REMARK Flexibility Score: inf
ROOT
ATOM      1  C   UNL     1     169.981 155.875 171.318  1.00  0.00     0.020 C 
ATOM      2  C   UNL     1     169.826 157.194 170.530  1.00  0.00     0.027 C 
ATOM      3  C   UNL     1     168.558 157.998 170.993  1.00  0.00     0.003 C 
ATOM      4  C   UNL     1     168.512 159.399 170.330  1.00  0.00     0.005 C 
ATOM      5  C   UNL     1     168.246 159.073 168.843  1.00  0.00     0.015 C 
ATOM      6  C   UNL     1     168.074 157.541 168.860  1.00  0.00     0.027 C 
ATOM      7  C   UNL     1     167.430 157.323 170.215  1.00  0.00     0.019 C 
ATOM      8  C   UNL     1     169.427 156.934 169.107  1.00  0.00     0.144 C 
ATOM      9  O   UNL     1     170.123 156.383 168.266  1.00  0.00    -0.298 OA
ATOM     10  C   UNL     1     167.297 156.955 167.679  1.00  0.00     0.020 C 
ATOM     11  C   UNL     1     171.147 157.990 170.612  1.00  0.00     0.020 C 
ENDROOT
TORSDOF 0
ENDMDL
MODEL 5
REMARK VINA RESULT:    -2.917      1.677      3.290
REMARK INTER + INTRA:          -2.917
REMARK INTER:                  -2.917
REMARK INTRA:                   0.000
REMARK UNBOUND:                 0.000
REMARK SMILES CC1(C)C(=O)[C@]2(C)CC[C@H]1C2
REMARK SMILES IDX 1 1 2 2 10 3 9 4 8 5 6 6 11 7 4 8 5 9 7 10 3 11
REMARK H PARENT
REMARK Flexibility Score: inf
ROOT
ATOM      1  C   UNL     1     162.246 171.395 169.375  1.00  0.00     0.020 C 
ATOM      2  C   UNL     1     162.163 172.789 170.033  1.00  0.00     0.027 C 
ATOM      3  C   UNL     1     160.760 173.034 170.696  1.00  0.00     0.003 C 
ATOM      4  C   UNL     1     160.748 174.354 171.509  1.00  0.00     0.005 C 
ATOM      5  C   UNL     1     160.856 175.439 170.413  1.00  0.00     0.015 C 
ATOM      6  C   UNL     1     160.814 174.610 169.114  1.00  0.00     0.027 C 
ATOM      7  C   UNL     1     159.900 173.468 169.511  1.00  0.00     0.019 C 
ATOM      8  C   UNL     1     162.122 173.877 169.000  1.00  0.00     0.144 C 
ATOM      9  O   UNL     1     163.035 174.167 168.241  1.00  0.00    -0.298 OA
ATOM     10  C   UNL     1     160.379 175.375 167.862  1.00  0.00     0.020 C 
ATOM     11  C   UNL     1     163.359 172.966 170.995  1.00  0.00     0.020 C 
ENDROOT
TORSDOF 0
ENDMDL
MODEL 6
REMARK VINA RESULT:    -2.915      1.465      3.368
REMARK INTER + INTRA:          -2.915
REMARK INTER:                  -2.915
REMARK INTRA:                   0.000
REMARK UNBOUND:                 0.000
REMARK SMILES CC1(C)C(=O)[C@]2(C)CC[C@H]1C2
REMARK SMILES IDX 1 1 2 2 10 3 9 4 8 5 6 6 11 7 4 8 5 9 7 10 3 11
REMARK H PARENT
REMARK Flexibility Score: inf
ROOT
ATOM      1  C   UNL     1     163.519 171.193 168.319  1.00  0.00     0.020 C 
ATOM      2  C   UNL     1     162.683 171.942 169.379  1.00  0.00     0.027 C 
ATOM      3  C   UNL     1     162.421 173.434 168.961  1.00  0.00     0.003 C 
ATOM      4  C   UNL     1     161.432 174.122 169.936  1.00  0.00     0.005 C 
ATOM      5  C   UNL     1     162.246 174.222 171.246  1.00  0.00     0.015 C 
ATOM      6  C   UNL     1     163.624 173.672 170.828  1.00  0.00     0.027 C 
ATOM      7  C   UNL     1     163.711 174.132 169.387  1.00  0.00     0.019 C 
ATOM      8  C   UNL     1     163.481 172.189 170.626  1.00  0.00     0.144 C 
ATOM      9  O   UNL     1     163.883 171.325 171.392  1.00  0.00    -0.298 OA
ATOM     10  C   UNL     1     164.797 174.104 171.710  1.00  0.00     0.020 C 
ATOM     11  C   UNL     1     161.402 171.132 169.678  1.00  0.00     0.020 C 
ENDROOT
TORSDOF 0
ENDMDL
MODEL 7
REMARK VINA RESULT:    -2.910     14.475     15.901
REMARK INTER + INTRA:          -2.910
REMARK INTER:                  -2.910
REMARK INTRA:                   0.000
REMARK UNBOUND:                 0.000
REMARK SMILES CC1(C)C(=O)[C@]2(C)CC[C@H]1C2
REMARK SMILES IDX 1 1 2 2 10 3 9 4 8 5 6 6 11 7 4 8 5 9 7 10 3 11
REMARK H PARENT
REMARK Flexibility Score: inf
ROOT
ATOM      1  C   UNL     1     167.217 159.417 171.841  1.00  0.00     0.020 C 
ATOM      2  C   UNL     1     168.218 158.375 171.298  1.00  0.00     0.027 C 
ATOM      3  C   UNL     1     169.261 159.029 170.321  1.00  0.00     0.003 C 
ATOM      4  C   UNL     1     170.369 158.018 169.927  1.00  0.00     0.005 C 
ATOM      5  C   UNL     1     169.609 156.992 169.056  1.00  0.00     0.015 C 
ATOM      6  C   UNL     1     168.194 157.597 168.980  1.00  0.00     0.027 C 
ATOM      7  C   UNL     1     168.496 159.081 169.000  1.00  0.00     0.019 C 
ATOM      8  C   UNL     1     167.557 157.436 170.332  1.00  0.00     0.144 C 
ATOM      9  O   UNL     1     166.692 156.621 170.618  1.00  0.00    -0.298 OA
ATOM     10  C   UNL     1     167.345 157.131 167.795  1.00  0.00     0.020 C 
ATOM     11  C   UNL     1     168.850 157.615 172.484  1.00  0.00     0.020 C 
ENDROOT
TORSDOF 0
ENDMDL
MODEL 8
REMARK VINA RESULT:    -2.910      1.551      2.193
REMARK INTER + INTRA:          -2.910
REMARK INTER:                  -2.910
REMARK INTRA:                   0.000
REMARK UNBOUND:                 0.000
REMARK SMILES CC1(C)C(=O)[C@]2(C)CC[C@H]1C2
REMARK SMILES IDX 1 1 2 2 10 3 9 4 8 5 6 6 11 7 4 8 5 9 7 10 3 11
REMARK H PARENT
REMARK Flexibility Score: inf
ROOT
ATOM      1  C   UNL     1     164.129 171.830 171.776  1.00  0.00     0.020 C 
ATOM      2  C   UNL     1     163.098 172.858 171.264  1.00  0.00     0.027 C 
ATOM      3  C   UNL     1     162.026 172.188 170.332  1.00  0.00     0.003 C 
ATOM      4  C   UNL     1     160.894 173.185 169.973  1.00  0.00     0.005 C 
ATOM      5  C   UNL     1     161.610 174.213 169.068  1.00  0.00     0.015 C 
ATOM      6  C   UNL     1     163.028 173.621 168.942  1.00  0.00     0.027 C 
ATOM      7  C   UNL     1     162.741 172.134 168.983  1.00  0.00     0.019 C 
ATOM      8  C   UNL     1     163.713 173.797 170.269  1.00  0.00     0.144 C 
ATOM      9  O   UNL     1     164.580 174.624 170.516  1.00  0.00    -0.298 OA
ATOM     10  C   UNL     1     163.827 174.087 167.724  1.00  0.00     0.020 C 
ATOM     11  C   UNL     1     162.503 173.621 172.469  1.00  0.00     0.020 C 
ENDROOT
TORSDOF 0
ENDMDL
MODEL 9
REMARK VINA RESULT:    -2.855      9.904     11.456
REMARK INTER + INTRA:          -2.855
REMARK INTER:                  -2.855
REMARK INTRA:                   0.000
REMARK UNBOUND:                 0.000
REMARK SMILES CC1(C)C(=O)[C@]2(C)CC[C@H]1C2
REMARK SMILES IDX 1 1 2 2 10 3 9 4 8 5 6 6 11 7 4 8 5 9 7 10 3 11
REMARK H PARENT
REMARK Flexibility Score: inf
ROOT
ATOM      1  C   UNL     1     158.644 163.300 168.243  1.00  0.00     0.020 C 
ATOM      2  C   UNL     1     159.166 162.896 169.639  1.00  0.00     0.027 C 
ATOM      3  C   UNL     1     159.248 161.334 169.796  1.00  0.00     0.003 C 
ATOM      4  C   UNL     1     159.943 160.941 171.125  1.00  0.00     0.005 C 
ATOM      5  C   UNL     1     158.922 161.388 172.197  1.00  0.00     0.015 C 
ATOM      6  C   UNL     1     157.737 161.885 171.346  1.00  0.00     0.027 C 
ATOM      7  C   UNL     1     157.810 160.958 170.150  1.00  0.00     0.019 C 
ATOM      8  C   UNL     1     158.148 163.181 170.704  1.00  0.00     0.144 C 
ATOM      9  O   UNL     1     157.773 164.293 171.045  1.00  0.00    -0.298 OA
ATOM     10  C   UNL     1     156.383 161.907 172.059  1.00  0.00     0.020 C 
ATOM     11  C   UNL     1     160.496 163.631 169.914  1.00  0.00     0.020 C 
ENDROOT
TORSDOF 0
ENDMDL
