MODEL 1
REMARK VINA RESULT:    -4.106      0.000      0.000
REMARK INTER + INTRA:         -12.288
REMARK INTER:                  -8.907
REMARK INTRA:                  -3.381
REMARK UNBOUND:                -3.381
REMARK SMILES CCCCCCCCCCCCCCCCCCCCCC(=O)[O-]
REMARK SMILES IDX 12 1 11 2 10 3 9 4 8 5 7 6 6 7 5 8 4 9 3 10 2 11 1 12 13 13
REMARK SMILES IDX 14 14 15 15 16 16 17 17 18 18 19 19 20 20 21 21 22 22 23 23
REMARK SMILES IDX 24 24
REMARK H PARENT
REMARK Flexibility Score: inf
ROOT
ATOM      1  C   UNL     1    -111.616 -42.619 -65.246  1.00  0.00     0.000 C 
ENDROOT
BRANCH   1   2
ATOM      2  C   UNL     1    -110.749 -41.390 -65.561  1.00  0.00     0.000 C 
BRANCH   2   3
ATOM      3  C   UNL     1    -109.248 -41.655 -65.362  1.00  0.00     0.000 C 
BRANCH   3   4
ATOM      4  C   UNL     1    -108.981 -43.147 -65.111  1.00  0.00    -0.000 C 
BRANCH   4   5
ATOM      5  C   UNL     1    -107.808 -43.378 -64.142  1.00  0.00    -0.000 C 
BRANCH   5   6
ATOM      6  C   UNL     1    -108.218 -43.348 -62.653  1.00  0.00    -0.000 C 
BRANCH   6   7
ATOM      7  C   UNL     1    -107.614 -42.172 -61.858  1.00  0.00    -0.000 C 
BRANCH   7   8
ATOM      8  C   UNL     1    -106.183 -41.791 -62.291  1.00  0.00    -0.000 C 
BRANCH   8   9
ATOM      9  C   UNL     1    -105.981 -40.275 -62.475  1.00  0.00    -0.000 C 
BRANCH   9  10
ATOM     10  C   UNL     1    -107.273 -39.573 -62.930  1.00  0.00    -0.000 C 
BRANCH  10  11
ATOM     11  C   UNL     1    -107.054 -38.673 -64.157  1.00  0.00    -0.003 C 
ATOM     12  C   UNL     1    -106.310 -39.383 -65.287  1.00  0.00     0.004 C 
ENDBRANCH  10  11
ENDBRANCH   9  10
ENDBRANCH   8   9
ENDBRANCH   7   8
ENDBRANCH   6   7
ENDBRANCH   5   6
ENDBRANCH   4   5
ENDBRANCH   3   4
ENDBRANCH   2   3
ENDBRANCH   1   2
BRANCH   1  13
ATOM     13  C   UNL     1    -112.990 -42.244 -64.662  1.00  0.00     0.000 C 
BRANCH  13  14
ATOM     14  C   UNL     1    -113.701 -41.141 -65.468  1.00  0.00     0.000 C 
BRANCH  14  15
ATOM     15  C   UNL     1    -114.163 -41.554 -66.877  1.00  0.00     0.000 C 
BRANCH  15  16
ATOM     16  C   UNL     1    -113.433 -40.784 -67.993  1.00  0.00     0.000 C 
BRANCH  16  17
ATOM     17  C   UNL     1    -112.875 -41.712 -69.087  1.00  0.00     0.000 C 
BRANCH  17  18
ATOM     18  C   UNL     1    -112.909 -43.214 -68.743  1.00  0.00     0.000 C 
BRANCH  18  19
ATOM     19  C   UNL     1    -111.543 -43.918 -68.901  1.00  0.00     0.000 C 
BRANCH  19  20
ATOM     20  C   UNL     1    -110.335 -42.964 -68.783  1.00  0.00     0.006 C 
BRANCH  20  21
ATOM     21  C   UNL     1    -109.004 -43.606 -69.204  1.00  0.00     0.053 C 
BRANCH  21  22
ATOM     22  C   UNL     1    -107.825 -42.915 -68.594  1.00  0.00     0.041 C 
ATOM     23  O   UNL     1    -106.942 -43.578 -67.989  1.00  0.00    -0.550 OA
ATOM     24  O   UNL     1    -107.718 -41.531 -68.665  1.00  0.00    -0.550 OA
ENDBRANCH  21  22
ENDBRANCH  20  21
ENDBRANCH  19  20
ENDBRANCH  18  19
ENDBRANCH  17  18
ENDBRANCH  16  17
ENDBRANCH  15  16
ENDBRANCH  14  15
ENDBRANCH  13  14
ENDBRANCH   1  13
TORSDOF 20
ENDMDL
MODEL 2
REMARK VINA RESULT:    -4.093      1.750      4.933
REMARK INTER + INTRA:         -12.261
REMARK INTER:                  -8.601
REMARK INTRA:                  -3.660
REMARK UNBOUND:                -3.381
REMARK SMILES CCCCCCCCCCCCCCCCCCCCCC(=O)[O-]
REMARK SMILES IDX 12 1 11 2 10 3 9 4 8 5 7 6 6 7 5 8 4 9 3 10 2 11 1 12 13 13
REMARK SMILES IDX 14 14 15 15 16 16 17 17 18 18 19 19 20 20 21 21 22 22 23 23
REMARK SMILES IDX 24 24
REMARK H PARENT
REMARK Flexibility Score: inf
ROOT
ATOM      1  C   UNL     1    -107.821 -39.325 -65.219  1.00  0.00     0.000 C 
ENDROOT
BRANCH   1   2
ATOM      2  C   UNL     1    -107.412 -39.634 -63.770  1.00  0.00     0.000 C 
BRANCH   2   3
ATOM      3  C   UNL     1    -106.824 -41.044 -63.606  1.00  0.00     0.000 C 
BRANCH   3   4
ATOM      4  C   UNL     1    -107.473 -41.777 -62.422  1.00  0.00    -0.000 C 
BRANCH   4   5
ATOM      5  C   UNL     1    -108.368 -42.945 -62.875  1.00  0.00    -0.000 C 
BRANCH   5   6
ATOM      6  C   UNL     1    -108.127 -43.381 -64.337  1.00  0.00    -0.000 C 
BRANCH   6   7
ATOM      7  C   UNL     1    -109.413 -43.737 -65.108  1.00  0.00    -0.000 C 
BRANCH   7   8
ATOM      8  C   UNL     1    -110.714 -43.360 -64.367  1.00  0.00    -0.000 C 
BRANCH   8   9
ATOM      9  C   UNL     1    -111.743 -42.642 -65.261  1.00  0.00    -0.000 C 
BRANCH   9  10
ATOM     10  C   UNL     1    -112.960 -42.150 -64.458  1.00  0.00    -0.000 C 
BRANCH  10  11
ATOM     11  C   UNL     1    -113.881 -41.238 -65.284  1.00  0.00    -0.003 C 
ATOM     12  C   UNL     1    -114.470 -41.942 -66.506  1.00  0.00     0.004 C 
ENDBRANCH  10  11
ENDBRANCH   9  10
ENDBRANCH   8   9
ENDBRANCH   7   8
ENDBRANCH   6   7
ENDBRANCH   5   6
ENDBRANCH   4   5
ENDBRANCH   3   4
ENDBRANCH   2   3
ENDBRANCH   1   2
BRANCH   1  13
ATOM     13  C   UNL     1    -109.155 -39.982 -65.613  1.00  0.00     0.000 C 
BRANCH  13  14
ATOM     14  C   UNL     1    -109.121 -40.612 -67.019  1.00  0.00     0.000 C 
BRANCH  14  15
ATOM     15  C   UNL     1    -107.739 -41.109 -67.479  1.00  0.00     0.000 C 
BRANCH  15  16
ATOM     16  C   UNL     1    -107.795 -42.500 -68.135  1.00  0.00     0.000 C 
BRANCH  16  17
ATOM     17  C   UNL     1    -108.420 -42.468 -69.541  1.00  0.00     0.000 C 
BRANCH  17  18
ATOM     18  C   UNL     1    -109.532 -43.509 -69.780  1.00  0.00     0.000 C 
BRANCH  18  19
ATOM     19  C   UNL     1    -110.572 -43.579 -68.640  1.00  0.00     0.000 C 
BRANCH  19  20
ATOM     20  C   UNL     1    -111.969 -43.061 -69.042  1.00  0.00     0.006 C 
BRANCH  20  21
ATOM     21  C   UNL     1    -111.944 -42.095 -70.237  1.00  0.00     0.053 C 
BRANCH  21  22
ATOM     22  C   UNL     1    -111.879 -40.663 -69.806  1.00  0.00     0.041 C 
ATOM     23  O   UNL     1    -110.869 -39.962 -70.079  1.00  0.00    -0.550 OA
ATOM     24  O   UNL     1    -112.922 -40.111 -69.072  1.00  0.00    -0.550 OA
ENDBRANCH  21  22
ENDBRANCH  20  21
ENDBRANCH  19  20
ENDBRANCH  18  19
ENDBRANCH  17  18
ENDBRANCH  16  17
ENDBRANCH  15  16
ENDBRANCH  14  15
ENDBRANCH  13  14
ENDBRANCH   1  13
TORSDOF 20
ENDMDL
MODEL 3
REMARK VINA RESULT:    -4.079      2.137      3.366
REMARK INTER + INTRA:         -12.228
REMARK INTER:                  -8.699
REMARK INTRA:                  -3.529
REMARK UNBOUND:                -3.381
REMARK SMILES CCCCCCCCCCCCCCCCCCCCCC(=O)[O-]
REMARK SMILES IDX 12 1 11 2 10 3 9 4 8 5 7 6 6 7 5 8 4 9 3 10 2 11 1 12 13 13
REMARK SMILES IDX 14 14 15 15 16 16 17 17 18 18 19 19 20 20 21 21 22 22 23 23
REMARK SMILES IDX 24 24
REMARK H PARENT
REMARK Flexibility Score: inf
ROOT
ATOM      1  C   UNL     1    -110.409 -42.837 -65.126  1.00  0.00     0.000 C 
ENDROOT
BRANCH   1   2
ATOM      2  C   UNL     1    -109.718 -44.047 -65.778  1.00  0.00     0.000 C 
BRANCH   2   3
ATOM      3  C   UNL     1    -109.008 -43.688 -67.092  1.00  0.00     0.000 C 
BRANCH   3   4
ATOM      4  C   UNL     1    -107.535 -44.125 -67.059  1.00  0.00    -0.000 C 
BRANCH   4   5
ATOM      5  C   UNL     1    -106.843 -43.751 -65.735  1.00  0.00    -0.000 C 
BRANCH   5   6
ATOM      6  C   UNL     1    -106.493 -42.252 -65.619  1.00  0.00    -0.000 C 
BRANCH   6   7
ATOM      7  C   UNL     1    -106.185 -41.786 -64.182  1.00  0.00    -0.000 C 
BRANCH   7   8
ATOM      8  C   UNL     1    -107.404 -41.198 -63.438  1.00  0.00    -0.000 C 
BRANCH   8   9
ATOM      9  C   UNL     1    -107.645 -41.834 -62.057  1.00  0.00    -0.000 C 
BRANCH   9  10
ATOM     10  C   UNL     1    -107.339 -43.343 -62.056  1.00  0.00    -0.000 C 
BRANCH  10  11
ATOM     11  C   UNL     1    -106.226 -43.717 -61.065  1.00  0.00    -0.003 C 
ATOM     12  C   UNL     1    -105.955 -42.620 -60.036  1.00  0.00     0.004 C 
ENDBRANCH  10  11
ENDBRANCH   9  10
ENDBRANCH   8   9
ENDBRANCH   7   8
ENDBRANCH   6   7
ENDBRANCH   5   6
ENDBRANCH   4   5
ENDBRANCH   3   4
ENDBRANCH   2   3
ENDBRANCH   1   2
BRANCH   1  13
ATOM     13  C   UNL     1    -110.085 -41.513 -65.839  1.00  0.00     0.000 C 
BRANCH  13  14
ATOM     14  C   UNL     1    -111.332 -40.638 -66.071  1.00  0.00     0.000 C 
BRANCH  14  15
ATOM     15  C   UNL     1    -112.595 -41.084 -65.313  1.00  0.00     0.000 C 
BRANCH  15  16
ATOM     16  C   UNL     1    -113.778 -41.384 -66.251  1.00  0.00     0.000 C 
BRANCH  16  17
ATOM     17  C   UNL     1    -113.818 -42.854 -66.705  1.00  0.00     0.000 C 
BRANCH  17  18
ATOM     18  C   UNL     1    -113.657 -43.068 -68.223  1.00  0.00     0.000 C 
BRANCH  18  19
ATOM     19  C   UNL     1    -112.219 -43.435 -68.650  1.00  0.00     0.000 C 
BRANCH  19  20
ATOM     20  C   UNL     1    -111.765 -42.751 -69.957  1.00  0.00     0.006 C 
BRANCH  20  21
ATOM     21  C   UNL     1    -110.699 -41.665 -69.743  1.00  0.00     0.053 C 
BRANCH  21  22
ATOM     22  C   UNL     1    -111.261 -40.285 -69.889  1.00  0.00     0.041 C 
ATOM     23  O   UNL     1    -112.381 -39.999 -69.390  1.00  0.00    -0.550 OA
ATOM     24  O   UNL     1    -110.561 -39.323 -70.606  1.00  0.00    -0.550 OA
ENDBRANCH  21  22
ENDBRANCH  20  21
ENDBRANCH  19  20
ENDBRANCH  18  19
ENDBRANCH  17  18
ENDBRANCH  16  17
ENDBRANCH  15  16
ENDBRANCH  14  15
ENDBRANCH  13  14
ENDBRANCH   1  13
TORSDOF 20
ENDMDL
MODEL 4
REMARK VINA RESULT:    -4.074      1.852      3.890
REMARK INTER + INTRA:         -12.219
REMARK INTER:                  -8.753
REMARK INTRA:                  -3.466
REMARK UNBOUND:                -3.381
REMARK SMILES CCCCCCCCCCCCCCCCCCCCCC(=O)[O-]
REMARK SMILES IDX 12 1 11 2 10 3 9 4 8 5 7 6 6 7 5 8 4 9 3 10 2 11 1 12 13 13
REMARK SMILES IDX 14 14 15 15 16 16 17 17 18 18 19 19 20 20 21 21 22 22 23 23
REMARK SMILES IDX 24 24
REMARK H PARENT
REMARK Flexibility Score: inf
ROOT
ATOM      1  C   UNL     1    -109.701 -40.949 -65.797  1.00  0.00     0.000 C 
ENDROOT
BRANCH   1   2
ATOM      2  C   UNL     1    -108.495 -40.602 -64.909  1.00  0.00     0.000 C 
BRANCH   2   3
ATOM      3  C   UNL     1    -107.937 -39.197 -65.187  1.00  0.00     0.000 C 
BRANCH   3   4
ATOM      4  C   UNL     1    -106.821 -38.842 -64.193  1.00  0.00    -0.000 C 
BRANCH   4   5
ATOM      5  C   UNL     1    -107.069 -39.439 -62.795  1.00  0.00    -0.000 C 
BRANCH   5   6
ATOM      6  C   UNL     1    -105.803 -40.034 -62.141  1.00  0.00    -0.000 C 
BRANCH   6   7
ATOM      7  C   UNL     1    -105.940 -41.516 -61.738  1.00  0.00    -0.000 C 
BRANCH   7   8
ATOM      8  C   UNL     1    -107.395 -42.033 -61.734  1.00  0.00    -0.000 C 
BRANCH   8   9
ATOM      9  C   UNL     1    -107.586 -43.331 -62.541  1.00  0.00    -0.000 C 
BRANCH   9  10
ATOM     10  C   UNL     1    -106.310 -43.729 -63.303  1.00  0.00    -0.000 C 
BRANCH  10  11
ATOM     11  C   UNL     1    -106.424 -43.479 -64.815  1.00  0.00    -0.003 C 
ATOM     12  C   UNL     1    -105.357 -42.518 -65.339  1.00  0.00     0.004 C 
ENDBRANCH  10  11
ENDBRANCH   9  10
ENDBRANCH   8   9
ENDBRANCH   7   8
ENDBRANCH   6   7
ENDBRANCH   5   6
ENDBRANCH   4   5
ENDBRANCH   3   4
ENDBRANCH   2   3
ENDBRANCH   1   2
BRANCH   1  13
ATOM     13  C   UNL     1    -109.575 -42.334 -66.455  1.00  0.00     0.000 C 
BRANCH  13  14
ATOM     14  C   UNL     1    -110.393 -43.419 -65.729  1.00  0.00     0.000 C 
BRANCH  14  15
ATOM     15  C   UNL     1    -110.998 -42.989 -64.381  1.00  0.00     0.000 C 
BRANCH  15  16
ATOM     16  C   UNL     1    -112.536 -42.948 -64.404  1.00  0.00     0.000 C 
BRANCH  16  17
ATOM     17  C   UNL     1    -113.087 -41.559 -64.771  1.00  0.00     0.000 C 
BRANCH  17  18
ATOM     18  C   UNL     1    -113.818 -41.489 -66.127  1.00  0.00     0.000 C 
BRANCH  18  19
ATOM     19  C   UNL     1    -113.928 -42.853 -66.844  1.00  0.00     0.000 C 
BRANCH  19  20
ATOM     20  C   UNL     1    -113.746 -42.767 -68.374  1.00  0.00     0.006 C 
BRANCH  20  21
ATOM     21  C   UNL     1    -112.285 -42.565 -68.807  1.00  0.00     0.053 C 
BRANCH  21  22
ATOM     22  C   UNL     1    -112.066 -41.234 -69.453  1.00  0.00     0.041 C 
ATOM     23  O   UNL     1    -112.836 -40.835 -70.366  1.00  0.00    -0.550 OA
ATOM     24  O   UNL     1    -110.988 -40.445 -69.070  1.00  0.00    -0.550 OA
ENDBRANCH  21  22
ENDBRANCH  20  21
ENDBRANCH  19  20
ENDBRANCH  18  19
ENDBRANCH  17  18
ENDBRANCH  16  17
ENDBRANCH  15  16
ENDBRANCH  14  15
ENDBRANCH  13  14
ENDBRANCH   1  13
TORSDOF 20
ENDMDL
MODEL 5
REMARK VINA RESULT:    -4.067      1.907      5.905
REMARK INTER + INTRA:         -12.204
REMARK INTER:                  -8.613
REMARK INTRA:                  -3.590
REMARK UNBOUND:                -3.381
REMARK SMILES CCCCCCCCCCCCCCCCCCCCCC(=O)[O-]
REMARK SMILES IDX 12 1 11 2 10 3 9 4 8 5 7 6 6 7 5 8 4 9 3 10 2 11 1 12 13 13
REMARK SMILES IDX 14 14 15 15 16 16 17 17 18 18 19 19 20 20 21 21 22 22 23 23
REMARK SMILES IDX 24 24
REMARK H PARENT
REMARK Flexibility Score: inf
ROOT
ATOM      1  C   UNL     1    -113.002 -41.413 -65.055  1.00  0.00     0.000 C 
ENDROOT
BRANCH   1   2
ATOM      2  C   UNL     1    -114.123 -41.797 -66.035  1.00  0.00     0.000 C 
BRANCH   2   3
ATOM      3  C   UNL     1    -113.914 -41.206 -67.438  1.00  0.00     0.000 C 
BRANCH   3   4
ATOM      4  C   UNL     1    -113.875 -42.315 -68.501  1.00  0.00    -0.000 C 
BRANCH   4   5
ATOM      5  C   UNL     1    -112.895 -43.444 -68.135  1.00  0.00    -0.000 C 
BRANCH   5   6
ATOM      6  C   UNL     1    -111.907 -43.799 -69.268  1.00  0.00    -0.000 C 
BRANCH   6   7
ATOM      7  C   UNL     1    -110.430 -43.835 -68.828  1.00  0.00    -0.000 C 
BRANCH   7   8
ATOM      8  C   UNL     1    -109.660 -42.526 -69.106  1.00  0.00    -0.000 C 
BRANCH   8   9
ATOM      9  C   UNL     1    -108.175 -42.592 -68.707  1.00  0.00    -0.000 C 
BRANCH   9  10
ATOM     10  C   UNL     1    -107.711 -41.307 -67.998  1.00  0.00    -0.000 C 
BRANCH  10  11
ATOM     11  C   UNL     1    -106.442 -41.522 -67.158  1.00  0.00    -0.003 C 
ATOM     12  C   UNL     1    -105.816 -42.900 -67.374  1.00  0.00     0.004 C 
ENDBRANCH  10  11
ENDBRANCH   9  10
ENDBRANCH   8   9
ENDBRANCH   7   8
ENDBRANCH   6   7
ENDBRANCH   5   6
ENDBRANCH   4   5
ENDBRANCH   3   4
ENDBRANCH   2   3
ENDBRANCH   1   2
BRANCH   1  13
ATOM     13  C   UNL     1    -111.814 -40.725 -65.751  1.00  0.00     0.000 C 
BRANCH  13  14
ATOM     14  C   UNL     1    -110.514 -41.546 -65.668  1.00  0.00     0.000 C 
BRANCH  14  15
ATOM     15  C   UNL     1    -110.655 -42.930 -65.009  1.00  0.00     0.000 C 
BRANCH  15  16
ATOM     16  C   UNL     1    -109.463 -43.857 -65.309  1.00  0.00     0.000 C 
BRANCH  16  17
ATOM     17  C   UNL     1    -108.182 -43.436 -64.568  1.00  0.00     0.000 C 
BRANCH  17  18
ATOM     18  C   UNL     1    -108.358 -43.194 -63.056  1.00  0.00     0.000 C 
BRANCH  18  19
ATOM     19  C   UNL     1    -107.709 -41.884 -62.557  1.00  0.00     0.000 C 
BRANCH  19  20
ATOM     20  C   UNL     1    -107.429 -40.863 -63.680  1.00  0.00     0.006 C 
BRANCH  20  21
ATOM     21  C   UNL     1    -107.354 -39.410 -63.183  1.00  0.00     0.053 C 
BRANCH  21  22
ATOM     22  C   UNL     1    -106.852 -38.476 -64.240  1.00  0.00     0.041 C 
ATOM     23  O   UNL     1    -105.835 -37.765 -64.027  1.00  0.00    -0.550 OA
ATOM     24  O   UNL     1    -107.528 -38.367 -65.449  1.00  0.00    -0.550 OA
ENDBRANCH  21  22
ENDBRANCH  20  21
ENDBRANCH  19  20
ENDBRANCH  18  19
ENDBRANCH  17  18
ENDBRANCH  16  17
ENDBRANCH  15  16
ENDBRANCH  14  15
ENDBRANCH  13  14
ENDBRANCH   1  13
TORSDOF 20
ENDMDL
MODEL 6
REMARK VINA RESULT:    -4.043      2.154      3.729
REMARK INTER + INTRA:         -12.151
REMARK INTER:                  -8.767
REMARK INTRA:                  -3.384
REMARK UNBOUND:                -3.381
REMARK SMILES CCCCCCCCCCCCCCCCCCCCCC(=O)[O-]
REMARK SMILES IDX 12 1 11 2 10 3 9 4 8 5 7 6 6 7 5 8 4 9 3 10 2 11 1 12 13 13
REMARK SMILES IDX 14 14 15 15 16 16 17 17 18 18 19 19 20 20 21 21 22 22 23 23
REMARK SMILES IDX 24 24
REMARK H PARENT
REMARK Flexibility Score: inf
ROOT
ATOM      1  C   UNL     1    -109.705 -43.707 -64.805  1.00  0.00     0.000 C 
ENDROOT
BRANCH   1   2
ATOM      2  C   UNL     1    -109.256 -43.020 -63.506  1.00  0.00     0.000 C 
BRANCH   2   3
ATOM      3  C   UNL     1    -107.729 -42.881 -63.403  1.00  0.00     0.000 C 
BRANCH   3   4
ATOM      4  C   UNL     1    -107.311 -42.431 -61.995  1.00  0.00    -0.000 C 
BRANCH   4   5
ATOM      5  C   UNL     1    -106.594 -41.068 -62.005  1.00  0.00    -0.000 C 
BRANCH   5   6
ATOM      6  C   UNL     1    -106.500 -40.426 -63.406  1.00  0.00    -0.000 C 
BRANCH   6   7
ATOM      7  C   UNL     1    -107.397 -39.186 -63.591  1.00  0.00    -0.000 C 
BRANCH   7   8
ATOM      8  C   UNL     1    -107.805 -38.919 -65.056  1.00  0.00    -0.000 C 
BRANCH   8   9
ATOM      9  C   UNL     1    -108.917 -39.855 -65.563  1.00  0.00    -0.000 C 
BRANCH   9  10
ATOM     10  C   UNL     1    -108.437 -40.749 -66.721  1.00  0.00    -0.000 C 
BRANCH  10  11
ATOM     11  C   UNL     1    -109.449 -40.813 -67.875  1.00  0.00    -0.003 C 
ATOM     12  C   UNL     1    -108.844 -40.401 -69.217  1.00  0.00     0.004 C 
ENDBRANCH  10  11
ENDBRANCH   9  10
ENDBRANCH   8   9
ENDBRANCH   7   8
ENDBRANCH   6   7
ENDBRANCH   5   6
ENDBRANCH   4   5
ENDBRANCH   3   4
ENDBRANCH   2   3
ENDBRANCH   1   2
BRANCH   1  13
ATOM     13  C   UNL     1    -110.942 -43.042 -65.433  1.00  0.00     0.000 C 
BRANCH  13  14
ATOM     14  C   UNL     1    -112.113 -42.899 -64.443  1.00  0.00     0.000 C 
BRANCH  14  15
ATOM     15  C   UNL     1    -113.157 -41.830 -64.813  1.00  0.00     0.000 C 
BRANCH  15  16
ATOM     16  C   UNL     1    -112.598 -40.757 -65.764  1.00  0.00     0.000 C 
BRANCH  16  17
ATOM     17  C   UNL     1    -113.223 -40.825 -67.168  1.00  0.00     0.000 C 
BRANCH  17  18
ATOM     18  C   UNL     1    -114.200 -41.997 -67.387  1.00  0.00     0.000 C 
BRANCH  18  19
ATOM     19  C   UNL     1    -113.742 -42.991 -68.478  1.00  0.00     0.000 C 
BRANCH  19  20
ATOM     20  C   UNL     1    -112.213 -43.021 -68.689  1.00  0.00     0.006 C 
BRANCH  20  21
ATOM     21  C   UNL     1    -111.794 -42.861 -70.159  1.00  0.00     0.053 C 
BRANCH  21  22
ATOM     22  C   UNL     1    -112.517 -41.738 -70.834  1.00  0.00     0.041 C 
ATOM     23  O   UNL     1    -113.397 -41.981 -71.702  1.00  0.00    -0.550 OA
ATOM     24  O   UNL     1    -112.195 -40.421 -70.530  1.00  0.00    -0.550 OA
ENDBRANCH  21  22
ENDBRANCH  20  21
ENDBRANCH  19  20
ENDBRANCH  18  19
ENDBRANCH  17  18
ENDBRANCH  16  17
ENDBRANCH  15  16
ENDBRANCH  14  15
ENDBRANCH  13  14
ENDBRANCH   1  13
TORSDOF 20
ENDMDL
MODEL 7
REMARK VINA RESULT:    -4.027      1.626      2.717
REMARK INTER + INTRA:         -12.117
REMARK INTER:                  -8.204
REMARK INTRA:                  -3.913
REMARK UNBOUND:                -3.381
REMARK SMILES CCCCCCCCCCCCCCCCCCCCCC(=O)[O-]
REMARK SMILES IDX 12 1 11 2 10 3 9 4 8 5 7 6 6 7 5 8 4 9 3 10 2 11 1 12 13 13
REMARK SMILES IDX 14 14 15 15 16 16 17 17 18 18 19 19 20 20 21 21 22 22 23 23
REMARK SMILES IDX 24 24
REMARK H PARENT
REMARK Flexibility Score: inf
ROOT
ATOM      1  C   UNL     1    -110.828 -41.398 -65.581  1.00  0.00     0.000 C 
ENDROOT
BRANCH   1   2
ATOM      2  C   UNL     1    -110.977 -42.809 -64.989  1.00  0.00     0.000 C 
BRANCH   2   3
ATOM      3  C   UNL     1    -109.656 -43.364 -64.434  1.00  0.00     0.000 C 
BRANCH   3   4
ATOM      4  C   UNL     1    -108.809 -43.990 -65.553  1.00  0.00    -0.000 C 
BRANCH   4   5
ATOM      5  C   UNL     1    -107.325 -43.589 -65.459  1.00  0.00    -0.000 C 
BRANCH   5   6
ATOM      6  C   UNL     1    -106.841 -42.722 -66.642  1.00  0.00    -0.000 C 
BRANCH   6   7
ATOM      7  C   UNL     1    -107.308 -41.255 -66.581  1.00  0.00    -0.000 C 
BRANCH   7   8
ATOM      8  C   UNL     1    -106.707 -40.453 -65.406  1.00  0.00    -0.000 C 
BRANCH   8   9
ATOM      9  C   UNL     1    -107.757 -39.985 -64.382  1.00  0.00    -0.000 C 
BRANCH   9  10
ATOM     10  C   UNL     1    -107.197 -39.969 -62.948  1.00  0.00    -0.000 C 
BRANCH  10  11
ATOM     11  C   UNL     1    -106.538 -41.301 -62.558  1.00  0.00    -0.003 C 
ATOM     12  C   UNL     1    -107.430 -42.164 -61.666  1.00  0.00     0.004 C 
ENDBRANCH  10  11
ENDBRANCH   9  10
ENDBRANCH   8   9
ENDBRANCH   7   8
ENDBRANCH   6   7
ENDBRANCH   5   6
ENDBRANCH   4   5
ENDBRANCH   3   4
ENDBRANCH   2   3
ENDBRANCH   1   2
BRANCH   1  13
ATOM     13  C   UNL     1    -112.175 -40.668 -65.723  1.00  0.00     0.000 C 
BRANCH  13  14
ATOM     14  C   UNL     1    -113.350 -41.455 -65.113  1.00  0.00     0.000 C 
BRANCH  14  15
ATOM     15  C   UNL     1    -114.482 -41.806 -66.095  1.00  0.00     0.000 C 
BRANCH  15  16
ATOM     16  C   UNL     1    -114.002 -41.876 -67.556  1.00  0.00     0.000 C 
BRANCH  16  17
ATOM     17  C   UNL     1    -113.469 -43.268 -67.939  1.00  0.00     0.000 C 
BRANCH  17  18
ATOM     18  C   UNL     1    -112.428 -43.274 -69.076  1.00  0.00     0.000 C 
BRANCH  18  19
ATOM     19  C   UNL     1    -111.009 -43.674 -68.615  1.00  0.00     0.000 C 
BRANCH  19  20
ATOM     20  C   UNL     1    -109.954 -42.566 -68.822  1.00  0.00     0.006 C 
BRANCH  20  21
ATOM     21  C   UNL     1    -110.564 -41.181 -69.089  1.00  0.00     0.053 C 
BRANCH  21  22
ATOM     22  C   UNL     1    -110.152 -40.628 -70.417  1.00  0.00     0.041 C 
ATOM     23  O   UNL     1    -109.235 -41.180 -71.079  1.00  0.00    -0.550 OA
ATOM     24  O   UNL     1    -110.761 -39.480 -70.910  1.00  0.00    -0.550 OA
ENDBRANCH  21  22
ENDBRANCH  20  21
ENDBRANCH  19  20
ENDBRANCH  18  19
ENDBRANCH  17  18
ENDBRANCH  16  17
ENDBRANCH  15  16
ENDBRANCH  14  15
ENDBRANCH  13  14
ENDBRANCH   1  13
TORSDOF 20
ENDMDL
MODEL 8
REMARK VINA RESULT:    -4.025      1.967      6.380
REMARK INTER + INTRA:         -12.113
REMARK INTER:                  -8.213
REMARK INTRA:                  -3.900
REMARK UNBOUND:                -3.381
REMARK SMILES CCCCCCCCCCCCCCCCCCCCCC(=O)[O-]
REMARK SMILES IDX 12 1 11 2 10 3 9 4 8 5 7 6 6 7 5 8 4 9 3 10 2 11 1 12 13 13
REMARK SMILES IDX 14 14 15 15 16 16 17 17 18 18 19 19 20 20 21 21 22 22 23 23
REMARK SMILES IDX 24 24
REMARK H PARENT
REMARK Flexibility Score: inf
ROOT
ATOM      1  C   UNL     1    -110.662 -41.472 -65.718  1.00  0.00     0.000 C 
ENDROOT
BRANCH   1   2
ATOM      2  C   UNL     1    -111.983 -40.686 -65.671  1.00  0.00     0.000 C 
BRANCH   2   3
ATOM      3  C   UNL     1    -113.161 -41.533 -65.165  1.00  0.00     0.000 C 
BRANCH   3   4
ATOM      4  C   UNL     1    -114.131 -41.864 -66.309  1.00  0.00    -0.000 C 
BRANCH   4   5
ATOM      5  C   UNL     1    -113.818 -41.071 -67.591  1.00  0.00    -0.000 C 
BRANCH   5   6
ATOM      6  C   UNL     1    -113.397 -41.959 -68.783  1.00  0.00    -0.000 C 
BRANCH   6   7
ATOM      7  C   UNL     1    -112.928 -43.372 -68.380  1.00  0.00    -0.000 C 
BRANCH   7   8
ATOM      8  C   UNL     1    -111.447 -43.659 -68.711  1.00  0.00    -0.000 C 
BRANCH   8   9
ATOM      9  C   UNL     1    -110.680 -42.423 -69.213  1.00  0.00    -0.000 C 
BRANCH   9  10
ATOM     10  C   UNL     1    -109.159 -42.659 -69.240  1.00  0.00    -0.000 C 
BRANCH  10  11
ATOM     11  C   UNL     1    -108.391 -41.657 -68.364  1.00  0.00    -0.003 C 
ATOM     12  C   UNL     1    -107.018 -42.175 -67.937  1.00  0.00     0.004 C 
ENDBRANCH  10  11
ENDBRANCH   9  10
ENDBRANCH   8   9
ENDBRANCH   7   8
ENDBRANCH   6   7
ENDBRANCH   5   6
ENDBRANCH   4   5
ENDBRANCH   3   4
ENDBRANCH   2   3
ENDBRANCH   1   2
BRANCH   1  13
ATOM     13  C   UNL     1    -110.777 -42.866 -65.077  1.00  0.00     0.000 C 
BRANCH  13  14
ATOM     14  C   UNL     1    -109.598 -43.790 -65.437  1.00  0.00     0.000 C 
BRANCH  14  15
ATOM     15  C   UNL     1    -108.277 -43.476 -64.714  1.00  0.00     0.000 C 
BRANCH  15  16
ATOM     16  C   UNL     1    -108.479 -43.129 -63.228  1.00  0.00     0.000 C 
BRANCH  16  17
ATOM     17  C   UNL     1    -107.670 -41.894 -62.792  1.00  0.00     0.000 C 
BRANCH  17  18
ATOM     18  C   UNL     1    -107.163 -41.010 -63.948  1.00  0.00     0.000 C 
BRANCH  18  19
ATOM     19  C   UNL     1    -107.693 -39.560 -63.900  1.00  0.00     0.000 C 
BRANCH  19  20
ATOM     20  C   UNL     1    -108.134 -39.014 -65.275  1.00  0.00     0.006 C 
BRANCH  20  21
ATOM     21  C   UNL     1    -106.970 -38.821 -66.259  1.00  0.00     0.053 C 
BRANCH  21  22
ATOM     22  C   UNL     1    -105.989 -37.796 -65.781  1.00  0.00     0.041 C 
ATOM     23  O   UNL     1    -104.808 -38.130 -65.500  1.00  0.00    -0.550 OA
ATOM     24  O   UNL     1    -106.389 -36.476 -65.614  1.00  0.00    -0.550 OA
ENDBRANCH  21  22
ENDBRANCH  20  21
ENDBRANCH  19  20
ENDBRANCH  18  19
ENDBRANCH  17  18
ENDBRANCH  16  17
ENDBRANCH  15  16
ENDBRANCH  14  15
ENDBRANCH  13  14
ENDBRANCH   1  13
TORSDOF 20
ENDMDL
MODEL 9
REMARK VINA RESULT:    -4.018      2.006      2.709
REMARK INTER + INTRA:         -12.098
REMARK INTER:                  -8.426
REMARK INTRA:                  -3.672
REMARK UNBOUND:                -3.381
REMARK SMILES CCCCCCCCCCCCCCCCCCCCCC(=O)[O-]
REMARK SMILES IDX 12 1 11 2 10 3 9 4 8 5 7 6 6 7 5 8 4 9 3 10 2 11 1 12 13 13
REMARK SMILES IDX 14 14 15 15 16 16 17 17 18 18 19 19 20 20 21 21 22 22 23 23
REMARK SMILES IDX 24 24
REMARK H PARENT
REMARK Flexibility Score: inf
ROOT
ATOM      1  C   UNL     1    -110.977 -42.649 -64.956  1.00  0.00     0.000 C 
ENDROOT
BRANCH   1   2
ATOM      2  C   UNL     1    -110.000 -43.752 -65.395  1.00  0.00     0.000 C 
BRANCH   2   3
ATOM      3  C   UNL     1    -108.990 -43.268 -66.447  1.00  0.00     0.000 C 
BRANCH   3   4
ATOM      4  C   UNL     1    -107.548 -43.481 -65.963  1.00  0.00    -0.000 C 
BRANCH   4   5
ATOM      5  C   UNL     1    -107.425 -43.393 -64.431  1.00  0.00    -0.000 C 
BRANCH   5   6
ATOM      6  C   UNL     1    -106.551 -42.216 -63.944  1.00  0.00    -0.000 C 
BRANCH   6   7
ATOM      7  C   UNL     1    -107.179 -41.398 -62.799  1.00  0.00    -0.000 C 
BRANCH   7   8
ATOM      8  C   UNL     1    -107.356 -39.899 -63.122  1.00  0.00    -0.000 C 
BRANCH   8   9
ATOM      9  C   UNL     1    -107.845 -39.635 -64.558  1.00  0.00    -0.000 C 
BRANCH   9  10
ATOM     10  C   UNL     1    -107.014 -38.546 -65.259  1.00  0.00    -0.000 C 
BRANCH  10  11
ATOM     11  C   UNL     1    -106.742 -38.872 -66.736  1.00  0.00    -0.003 C 
ATOM     12  C   UNL     1    -107.751 -39.861 -67.320  1.00  0.00     0.004 C 
ENDBRANCH  10  11
ENDBRANCH   9  10
ENDBRANCH   8   9
ENDBRANCH   7   8
ENDBRANCH   6   7
ENDBRANCH   5   6
ENDBRANCH   4   5
ENDBRANCH   3   4
ENDBRANCH   2   3
ENDBRANCH   1   2
BRANCH   1  13
ATOM     13  C   UNL     1    -110.793 -41.343 -65.749  1.00  0.00     0.000 C 
BRANCH  13  14
ATOM     14  C   UNL     1    -112.043 -40.442 -65.717  1.00  0.00     0.000 C 
BRANCH  14  15
ATOM     15  C   UNL     1    -113.366 -41.170 -65.420  1.00  0.00     0.000 C 
BRANCH  15  16
ATOM     16  C   UNL     1    -114.110 -41.598 -66.698  1.00  0.00     0.000 C 
BRANCH  16  17
ATOM     17  C   UNL     1    -113.810 -43.053 -67.100  1.00  0.00     0.000 C 
BRANCH  17  18
ATOM     18  C   UNL     1    -113.425 -43.251 -68.579  1.00  0.00     0.000 C 
BRANCH  18  19
ATOM     19  C   UNL     1    -111.957 -43.685 -68.786  1.00  0.00     0.000 C 
BRANCH  19  20
ATOM     20  C   UNL     1    -111.186 -42.806 -69.792  1.00  0.00     0.006 C 
BRANCH  20  21
ATOM     21  C   UNL     1    -110.738 -41.455 -69.210  1.00  0.00     0.053 C 
BRANCH  21  22
ATOM     22  C   UNL     1    -111.481 -40.305 -69.812  1.00  0.00     0.041 C 
ATOM     23  O   UNL     1    -110.976 -39.649 -70.761  1.00  0.00    -0.550 OA
ATOM     24  O   UNL     1    -112.720 -39.935 -69.303  1.00  0.00    -0.550 OA
ENDBRANCH  21  22
ENDBRANCH  20  21
ENDBRANCH  19  20
ENDBRANCH  18  19
ENDBRANCH  17  18
ENDBRANCH  16  17
ENDBRANCH  15  16
ENDBRANCH  14  15
ENDBRANCH  13  14
ENDBRANCH   1  13
TORSDOF 20
ENDMDL
