MODEL 1
REMARK VINA RESULT:    31.328      0.000      0.000
REMARK INTER + INTRA:          48.103
REMARK INTER:                  43.233
REMARK INTRA:                   4.870
REMARK UNBOUND:                 4.870
REMARK SMILES CC[C@@H](CC[C@@H](C)[C@@H]1CC[C@H]2[C@@H]3CC=C4C[C@H](O)CC[C@@]4(C)[C@H]3CC[C@]21C)C(C)C
REMARK SMILES IDX 5 1 4 2 3 3 2 4 1 5 28 6 29 7 30 8 6 9 7 10 8 11 9 12 26 13
REMARK SMILES IDX 10 14 11 15 25 16 27 17 12 18 24 19 23 20 13 21 21 22 14 23
REMARK SMILES IDX 15 24 20 25 22 26 16 27 19 28 17 29 18 30
REMARK H PARENT 18 31
REMARK Flexibility Score: inf
ROOT
ATOM      1  C   UNL     1     -21.505 -14.197 -14.797  1.00  0.00     0.004 C 
ENDROOT
BRANCH   1   2
ATOM      2  C   UNL     1     -21.616 -15.646 -15.320  1.00  0.00     0.004 C 
BRANCH   2   3
ATOM      3  C   UNL     1     -22.951 -15.943 -16.078  1.00  0.00    -0.009 C 
BRANCH   3   4
ATOM      4  C   UNL     1     -23.477 -14.642 -16.743  1.00  0.00     0.000 C 
ATOM      5  C   UNL     1     -23.746 -14.782 -18.242  1.00  0.00     0.004 C 
ENDBRANCH   3   4
BRANCH   3   6
ATOM      6  C   UNL     1     -24.024 -16.654 -15.191  1.00  0.00    -0.014 C 
ATOM      7  C   UNL     1     -25.415 -16.630 -15.845  1.00  0.00     0.007 C 
ATOM      8  C   UNL     1     -23.640 -18.087 -14.783  1.00  0.00     0.007 C 
ENDBRANCH   3   6
ENDBRANCH   2   3
ENDBRANCH   1   2
BRANCH   1   9
ATOM      9  C   UNL     1     -22.342 -13.877 -13.521  1.00  0.00    -0.011 C 
ATOM     10  C   UNL     1     -23.854 -13.885 -13.844  1.00  0.00     0.008 C 
BRANCH   9  11
ATOM     11  C   UNL     1     -21.917 -14.835 -12.339  1.00  0.00    -0.002 C 
ATOM     12  C   UNL     1     -20.888 -15.896 -12.767  1.00  0.00     0.005 C 
ATOM     13  C   UNL     1     -23.026 -15.657 -11.593  1.00  0.00    -0.026 C 
ATOM     14  C   UNL     1     -21.628 -17.235 -12.846  1.00  0.00     0.005 C 
ATOM     15  C   UNL     1     -23.078 -16.990 -12.390  1.00  0.00    -0.001 C 
ATOM     16  C   UNL     1     -22.574 -15.883 -10.091  1.00  0.00     0.007 C 
ATOM     17  C   UNL     1     -24.402 -14.939 -11.599  1.00  0.00     0.012 C 
ATOM     18  C   UNL     1     -23.701 -18.232 -11.664  1.00  0.00     0.000 C 
ATOM     19  C   UNL     1     -22.655 -17.330  -9.575  1.00  0.00     0.005 C 
ATOM     20  C   UNL     1     -23.882 -18.049 -10.145  1.00  0.00     0.003 C 
ATOM     21  C   UNL     1     -25.065 -18.627 -12.243  1.00  0.00     0.031 C 
ATOM     22  C   UNL     1     -24.264 -19.409  -9.442  1.00  0.00    -0.008 C 
ATOM     23  C   UNL     1     -25.570 -19.880 -11.578  1.00  0.00    -0.027 C 
ATOM     24  C   UNL     1     -25.224 -20.239 -10.319  1.00  0.00    -0.065 C 
ATOM     25  C   UNL     1     -23.001 -20.287  -9.163  1.00  0.00     0.014 C 
ATOM     26  C   UNL     1     -24.976 -19.076  -8.103  1.00  0.00     0.016 C 
ATOM     27  C   UNL     1     -25.585 -21.626  -9.835  1.00  0.00     0.063 C 
ATOM     28  C   UNL     1     -23.333 -21.714  -8.679  1.00  0.00     0.033 C 
ATOM     29  C   UNL     1     -24.301 -22.440  -9.634  1.00  0.00     0.118 C 
BRANCH  29  30
ATOM     30  O   UNL     1     -24.634 -23.699  -9.111  1.00  0.00    -0.393 OA
ATOM     31  H   UNL     1     -24.719 -23.589  -8.128  1.00  0.00     0.210 HD
ENDBRANCH  29  30
ENDBRANCH   9  11
ENDBRANCH   1   9
TORSDOF 7
ENDMDL
MODEL 2
REMARK VINA RESULT:    31.329      2.783      5.833
REMARK INTER + INTRA:          48.104
REMARK INTER:                  45.398
REMARK INTRA:                   2.706
REMARK UNBOUND:                 4.870
REMARK SMILES CC[C@@H](CC[C@@H](C)[C@@H]1CC[C@H]2[C@@H]3CC=C4C[C@H](O)CC[C@@]4(C)[C@H]3CC[C@]21C)C(C)C
REMARK SMILES IDX 5 1 4 2 3 3 2 4 1 5 28 6 29 7 30 8 6 9 7 10 8 11 9 12 26 13
REMARK SMILES IDX 10 14 11 15 25 16 27 17 12 18 24 19 23 20 13 21 21 22 14 23
REMARK SMILES IDX 15 24 20 25 22 26 16 27 19 28 17 29 18 30
REMARK H PARENT 18 31
REMARK Flexibility Score: inf
ROOT
ATOM      1  C   UNL     1     -19.302 -15.171 -11.496  1.00  0.00     0.004 C 
ENDROOT
BRANCH   1   2
ATOM      2  C   UNL     1     -20.111 -14.046 -10.812  1.00  0.00     0.004 C 
BRANCH   2   3
ATOM      3  C   UNL     1     -21.151 -14.563  -9.765  1.00  0.00    -0.009 C 
BRANCH   3   4
ATOM      4  C   UNL     1     -22.583 -14.468 -10.358  1.00  0.00     0.000 C 
ATOM      5  C   UNL     1     -23.651 -14.095  -9.329  1.00  0.00     0.004 C 
ENDBRANCH   3   4
BRANCH   3   6
ATOM      6  C   UNL     1     -21.020 -13.876  -8.368  1.00  0.00    -0.014 C 
ATOM      7  C   UNL     1     -22.309 -14.008  -7.540  1.00  0.00     0.007 C 
ATOM      8  C   UNL     1     -19.802 -14.349  -7.556  1.00  0.00     0.007 C 
ENDBRANCH   3   6
ENDBRANCH   2   3
ENDBRANCH   1   2
BRANCH   1   9
ATOM      9  C   UNL     1     -18.762 -14.839 -12.920  1.00  0.00    -0.011 C 
ATOM     10  C   UNL     1     -17.492 -15.665 -13.228  1.00  0.00     0.008 C 
BRANCH   9  11
ATOM     11  C   UNL     1     -19.918 -14.987 -13.986  1.00  0.00    -0.002 C 
ATOM     12  C   UNL     1     -20.977 -13.876 -13.882  1.00  0.00     0.005 C 
ATOM     13  C   UNL     1     -20.757 -16.313 -14.017  1.00  0.00    -0.026 C 
ATOM     14  C   UNL     1     -22.228 -14.502 -13.259  1.00  0.00     0.005 C 
ATOM     15  C   UNL     1     -21.945 -16.003 -13.064  1.00  0.00    -0.001 C 
ATOM     16  C   UNL     1     -21.242 -16.579 -15.502  1.00  0.00     0.007 C 
ATOM     17  C   UNL     1     -19.944 -17.541 -13.528  1.00  0.00     0.012 C 
ATOM     18  C   UNL     1     -23.232 -16.886 -13.219  1.00  0.00     0.000 C 
ATOM     19  C   UNL     1     -22.741 -16.882 -15.675  1.00  0.00     0.005 C 
ATOM     20  C   UNL     1     -23.269 -17.726 -14.510  1.00  0.00     0.003 C 
ATOM     21  C   UNL     1     -23.430 -17.847 -12.041  1.00  0.00     0.031 C 
ATOM     22  C   UNL     1     -24.687 -18.382 -14.731  1.00  0.00    -0.008 C 
ATOM     23  C   UNL     1     -24.727 -18.597 -12.193  1.00  0.00    -0.027 C 
ATOM     24  C   UNL     1     -25.298 -18.850 -13.394  1.00  0.00    -0.065 C 
ATOM     25  C   UNL     1     -25.690 -17.377 -15.383  1.00  0.00     0.014 C 
ATOM     26  C   UNL     1     -24.507 -19.618 -15.654  1.00  0.00     0.016 C 
ATOM     27  C   UNL     1     -26.711 -19.389 -13.426  1.00  0.00     0.063 C 
ATOM     28  C   UNL     1     -27.145 -17.891 -15.421  1.00  0.00     0.033 C 
ATOM     29  C   UNL     1     -27.641 -18.331 -14.031  1.00  0.00     0.118 C 
BRANCH  29  30
ATOM     30  O   UNL     1     -28.936 -18.863 -14.131  1.00  0.00    -0.393 OA
ATOM     31  H   UNL     1     -29.557 -18.093 -14.216  1.00  0.00     0.210 HD
ENDBRANCH  29  30
ENDBRANCH   9  11
ENDBRANCH   1   9
TORSDOF 7
ENDMDL
MODEL 3
REMARK VINA RESULT:    31.971      3.182      6.506
REMARK INTER + INTRA:          48.990
REMARK INTER:                  46.175
REMARK INTRA:                   2.815
REMARK UNBOUND:                 4.870
REMARK SMILES CC[C@@H](CC[C@@H](C)[C@@H]1CC[C@H]2[C@@H]3CC=C4C[C@H](O)CC[C@@]4(C)[C@H]3CC[C@]21C)C(C)C
REMARK SMILES IDX 5 1 4 2 3 3 2 4 1 5 28 6 29 7 30 8 6 9 7 10 8 11 9 12 26 13
REMARK SMILES IDX 10 14 11 15 25 16 27 17 12 18 24 19 23 20 13 21 21 22 14 23
REMARK SMILES IDX 15 24 20 25 22 26 16 27 19 28 17 29 18 30
REMARK H PARENT 18 31
REMARK Flexibility Score: inf
ROOT
ATOM      1  C   UNL     1     -25.411 -17.374 -15.352  1.00  0.00     0.004 C 
ENDROOT
BRANCH   1   2
ATOM      2  C   UNL     1     -26.374 -18.044 -14.347  1.00  0.00     0.004 C 
BRANCH   2   3
ATOM      3  C   UNL     1     -25.827 -19.377 -13.741  1.00  0.00    -0.009 C 
BRANCH   3   4
ATOM      4  C   UNL     1     -25.271 -19.117 -12.315  1.00  0.00     0.000 C 
ATOM      5  C   UNL     1     -25.609 -20.221 -11.312  1.00  0.00     0.004 C 
ENDBRANCH   3   4
BRANCH   3   6
ATOM      6  C   UNL     1     -24.807 -20.109 -14.672  1.00  0.00    -0.014 C 
ATOM      7  C   UNL     1     -25.514 -20.975 -15.728  1.00  0.00     0.007 C 
ATOM      8  C   UNL     1     -23.787 -19.168 -15.336  1.00  0.00     0.007 C 
ENDBRANCH   3   6
ENDBRANCH   2   3
ENDBRANCH   1   2
BRANCH   1   9
ATOM      9  C   UNL     1     -25.801 -15.931 -15.797  1.00  0.00    -0.011 C 
ATOM     10  C   UNL     1     -27.262 -15.615 -15.402  1.00  0.00     0.008 C 
BRANCH   9  11
ATOM     11  C   UNL     1     -24.736 -14.893 -15.264  1.00  0.00    -0.002 C 
ATOM     12  C   UNL     1     -23.872 -14.290 -16.385  1.00  0.00     0.005 C 
ATOM     13  C   UNL     1     -23.694 -15.360 -14.187  1.00  0.00    -0.026 C 
ATOM     14  C   UNL     1     -22.484 -14.928 -16.276  1.00  0.00     0.005 C 
ATOM     15  C   UNL     1     -22.494 -15.851 -15.044  1.00  0.00    -0.001 C 
ATOM     16  C   UNL     1     -23.305 -14.122 -13.278  1.00  0.00     0.007 C 
ATOM     17  C   UNL     1     -24.244 -16.494 -13.281  1.00  0.00     0.012 C 
ATOM     18  C   UNL     1     -21.097 -15.930 -14.336  1.00  0.00     0.000 C 
ATOM     19  C   UNL     1     -21.799 -13.877 -13.084  1.00  0.00     0.005 C 
ATOM     20  C   UNL     1     -21.036 -15.202 -12.979  1.00  0.00     0.003 C 
ATOM     21  C   UNL     1     -20.638 -17.374 -14.102  1.00  0.00     0.031 C 
ATOM     22  C   UNL     1     -19.554 -15.096 -12.448  1.00  0.00    -0.008 C 
ATOM     23  C   UNL     1     -19.253 -17.391 -13.512  1.00  0.00    -0.027 C 
ATOM     24  C   UNL     1     -18.756 -16.378 -12.762  1.00  0.00    -0.065 C 
ATOM     25  C   UNL     1     -18.794 -13.896 -13.100  1.00  0.00     0.014 C 
ATOM     26  C   UNL     1     -19.606 -14.907 -10.907  1.00  0.00     0.016 C 
ATOM     27  C   UNL     1     -17.282 -16.381 -12.423  1.00  0.00     0.063 C 
ATOM     28  C   UNL     1     -17.283 -13.875 -12.786  1.00  0.00     0.033 C 
ATOM     29  C   UNL     1     -16.598 -15.209 -13.138  1.00  0.00     0.118 C 
BRANCH  29  30
ATOM     30  O   UNL     1     -15.247 -15.168 -12.761  1.00  0.00    -0.393 OA
ATOM     31  H   UNL     1     -15.211 -14.736 -11.868  1.00  0.00     0.210 HD
ENDBRANCH  29  30
ENDBRANCH   9  11
ENDBRANCH   1   9
TORSDOF 7
ENDMDL
MODEL 4
REMARK VINA RESULT:    32.927      3.969      6.476
REMARK INTER + INTRA:          50.310
REMARK INTER:                  49.077
REMARK INTRA:                   1.233
REMARK UNBOUND:                 4.870
REMARK SMILES CC[C@@H](CC[C@@H](C)[C@@H]1CC[C@H]2[C@@H]3CC=C4C[C@H](O)CC[C@@]4(C)[C@H]3CC[C@]21C)C(C)C
REMARK SMILES IDX 5 1 4 2 3 3 2 4 1 5 28 6 29 7 30 8 6 9 7 10 8 11 9 12 26 13
REMARK SMILES IDX 10 14 11 15 25 16 27 17 12 18 24 19 23 20 13 21 21 22 14 23
REMARK SMILES IDX 15 24 20 25 22 26 16 27 19 28 17 29 18 30
REMARK H PARENT 18 31
REMARK Flexibility Score: inf
ROOT
ATOM      1  C   UNL     1     -16.670 -16.063 -14.526  1.00  0.00     0.004 C 
ENDROOT
BRANCH   1   2
ATOM      2  C   UNL     1     -16.728 -17.548 -14.948  1.00  0.00     0.004 C 
BRANCH   2   3
ATOM      3  C   UNL     1     -16.392 -17.789 -16.456  1.00  0.00    -0.009 C 
BRANCH   3   4
ATOM      4  C   UNL     1     -17.379 -16.990 -17.349  1.00  0.00     0.000 C 
ATOM      5  C   UNL     1     -16.714 -16.318 -18.551  1.00  0.00     0.004 C 
ENDBRANCH   3   4
BRANCH   3   6
ATOM      6  C   UNL     1     -16.307 -19.302 -16.838  1.00  0.00    -0.014 C 
ATOM      7  C   UNL     1     -17.154 -20.178 -15.899  1.00  0.00     0.007 C 
ATOM      8  C   UNL     1     -16.654 -19.591 -18.309  1.00  0.00     0.007 C 
ENDBRANCH   3   6
ENDBRANCH   2   3
ENDBRANCH   1   2
BRANCH   1   9
ATOM      9  C   UNL     1     -16.804 -15.794 -12.996  1.00  0.00    -0.011 C 
ATOM     10  C   UNL     1     -16.441 -14.329 -12.665  1.00  0.00     0.008 C 
BRANCH   9  11
ATOM     11  C   UNL     1     -18.229 -16.249 -12.489  1.00  0.00    -0.002 C 
ATOM     12  C   UNL     1     -18.605 -17.668 -12.948  1.00  0.00     0.005 C 
ATOM     13  C   UNL     1     -19.482 -15.381 -12.865  1.00  0.00    -0.026 C 
ATOM     14  C   UNL     1     -19.659 -17.521 -14.051  1.00  0.00     0.005 C 
ATOM     15  C   UNL     1     -19.970 -16.019 -14.195  1.00  0.00    -0.001 C 
ATOM     16  C   UNL     1     -20.562 -15.511 -11.713  1.00  0.00     0.007 C 
ATOM     17  C   UNL     1     -19.129 -13.881 -13.053  1.00  0.00     0.012 C 
ATOM     18  C   UNL     1     -21.456 -15.747 -14.613  1.00  0.00     0.000 C 
ATOM     19  C   UNL     1     -21.992 -15.853 -12.168  1.00  0.00     0.005 C 
ATOM     20  C   UNL     1     -22.329 -15.154 -13.490  1.00  0.00     0.003 C 
ATOM     21  C   UNL     1     -21.565 -14.809 -15.821  1.00  0.00     0.031 C 
ATOM     22  C   UNL     1     -23.856 -15.149 -13.888  1.00  0.00    -0.008 C 
ATOM     23  C   UNL     1     -23.004 -14.662 -16.239  1.00  0.00    -0.027 C 
ATOM     24  C   UNL     1     -24.041 -14.805 -15.380  1.00  0.00    -0.065 C 
ATOM     25  C   UNL     1     -24.521 -16.541 -13.638  1.00  0.00     0.014 C 
ATOM     26  C   UNL     1     -24.572 -14.066 -13.036  1.00  0.00     0.016 C 
ATOM     27  C   UNL     1     -25.443 -14.880 -15.942  1.00  0.00     0.063 C 
ATOM     28  C   UNL     1     -25.949 -16.657 -14.211  1.00  0.00     0.033 C 
ATOM     29  C   UNL     1     -26.007 -16.287 -15.705  1.00  0.00     0.118 C 
BRANCH  29  30
ATOM     30  O   UNL     1     -27.335 -16.330 -16.158  1.00  0.00    -0.393 OA
ATOM     31  H   UNL     1     -27.835 -15.641 -15.647  1.00  0.00     0.210 HD
ENDBRANCH  29  30
ENDBRANCH   9  11
ENDBRANCH   1   9
TORSDOF 7
ENDMDL
