MODEL 1
REMARK VINA RESULT:    -8.130      0.000      0.000
REMARK INTER + INTRA:          -9.062
REMARK INTER:                  -8.843
REMARK INTRA:                  -0.218
REMARK UNBOUND:                -0.218
REMARK SMILES C[C@H]1[C@H](C)CC[C@]2(C(=O)[O-])CC[C@@]3(C)C(=CC[C@@H]4[C@@]5(C)CC[C@@H](O)C(C)(C)[C@H]5CC[C@@]43C)[C@H]12
REMARK SMILES IDX 7 1 6 2 11 3 33 4 5 5 12 6 15 7 2 8 3 9 13 10 16 11 1 12
REMARK SMILES IDX 4 13 14 14 31 15 17 16 18 17 30 18 32 19 19 20 29 21 28 22
REMARK SMILES IDX 21 23 20 24 25 25 22 26 23 27 26 28 27 29 8 30 9 31 10 32
REMARK SMILES IDX 24 33
REMARK H PARENT 24 34
REMARK Flexibility Score: inf
ROOT
ATOM      1  C   UNL     1     -28.704 107.900  21.187  1.00  0.00     0.017 C 
ATOM      2  C   UNL     1     -29.656 106.689  21.367  1.00  0.00     0.014 C 
ATOM      3  C   UNL     1     -27.268 107.399  20.784  1.00  0.00     0.014 C 
ATOM      4  C   UNL     1     -28.692 108.782  22.490  1.00  0.00     0.030 C 
ATOM      5  C   UNL     1     -29.369 105.884  22.631  1.00  0.00     0.004 C 
ATOM      6  C   UNL     1     -26.091 108.090  21.500  1.00  0.00     0.013 C 
ATOM      7  C   UNL     1     -27.623 109.887  22.367  1.00  0.00    -0.063 C 
ATOM      8  C   UNL     1     -28.579 107.979  23.842  1.00  0.00    -0.003 C 
ATOM      9  C   UNL     1     -29.543 106.754  23.876  1.00  0.00    -0.011 C 
ATOM     10  C   UNL     1     -26.260 109.638  21.698  1.00  0.00    -0.006 C 
ATOM     11  C   UNL     1     -27.880 111.097  22.897  1.00  0.00    -0.027 C 
ATOM     12  C   UNL     1     -28.888 108.889  25.056  1.00  0.00     0.008 C 
ATOM     13  C   UNL     1     -29.339 105.876  25.126  1.00  0.00     0.008 C 
ATOM     14  C   UNL     1     -26.276 110.275  20.282  1.00  0.00     0.017 C 
ATOM     15  C   UNL     1     -25.101 110.299  22.618  1.00  0.00    -0.020 C 
ATOM     16  C   UNL     1     -26.914 112.242  22.828  1.00  0.00     0.032 C 
ATOM     17  C   UNL     1     -25.395 111.858  22.903  1.00  0.00     0.006 C 
ATOM     18  C   UNL     1     -23.645 110.018  22.057  1.00  0.00     0.008 C 
ATOM     19  C   UNL     1     -25.142 109.572  24.013  1.00  0.00     0.012 C 
ATOM     20  C   UNL     1     -24.448 112.963  22.244  1.00  0.00    -0.025 C 
ATOM     21  C   UNL     1     -22.718 111.176  21.643  1.00  0.00     0.005 C 
ATOM     22  C   UNL     1     -22.935 112.549  22.317  1.00  0.00     0.003 C 
ATOM     23  C   UNL     1     -24.639 114.353  22.940  1.00  0.00     0.010 C 
ATOM     24  C   UNL     1     -24.791 113.233  20.741  1.00  0.00     0.012 C 
ATOM     25  C   UNL     1     -22.132 112.815  23.668  1.00  0.00    -0.006 C 
ATOM     26  C   UNL     1     -23.992 114.467  24.317  1.00  0.00     0.033 C 
ATOM     27  C   UNL     1     -22.484 114.234  24.221  1.00  0.00     0.120 C 
ATOM     28  C   UNL     1     -20.604 112.811  23.368  1.00  0.00     0.014 C 
ATOM     29  C   UNL     1     -22.368 111.749  24.761  1.00  0.00     0.014 C 
ENDROOT
BRANCH   1  30
ATOM     30  C   UNL     1     -29.282 108.705  20.021  1.00  0.00     0.048 C 
ATOM     31  O   UNL     1     -30.120 109.622  20.242  1.00  0.00    -0.550 OA
ATOM     32  O   UNL     1     -28.900 108.461  18.705  1.00  0.00    -0.550 OA
ENDBRANCH   1  30
BRANCH  27  33
ATOM     33  O   UNL     1     -21.922 114.436  25.497  1.00  0.00    -0.393 OA
ATOM     34  H   UNL     1     -22.193 113.672  26.070  1.00  0.00     0.210 HD
ENDBRANCH  27  33
TORSDOF 2
ENDMDL
MODEL 2
REMARK VINA RESULT:    -8.120     11.991     15.648
REMARK INTER + INTRA:          -9.050
REMARK INTER:                  -8.829
REMARK INTRA:                  -0.221
REMARK UNBOUND:                -0.218
REMARK SMILES C[C@H]1[C@H](C)CC[C@]2(C(=O)[O-])CC[C@@]3(C)C(=CC[C@@H]4[C@@]5(C)CC[C@@H](O)C(C)(C)[C@H]5CC[C@@]43C)[C@H]12
REMARK SMILES IDX 7 1 6 2 11 3 33 4 5 5 12 6 15 7 2 8 3 9 13 10 16 11 1 12
REMARK SMILES IDX 4 13 14 14 31 15 17 16 18 17 30 18 32 19 19 20 29 21 28 22
REMARK SMILES IDX 21 23 20 24 25 25 22 26 23 27 26 28 27 29 8 30 9 31 10 32
REMARK SMILES IDX 24 33
REMARK H PARENT 24 34
REMARK Flexibility Score: inf
ROOT
ATOM      1  C   UNL     1     -15.300 122.524  21.044  1.00  0.00     0.017 C 
ATOM      2  C   UNL     1     -15.558 123.665  20.024  1.00  0.00     0.014 C 
ATOM      3  C   UNL     1     -13.760 122.220  21.132  1.00  0.00     0.014 C 
ATOM      4  C   UNL     1     -16.146 121.252  20.662  1.00  0.00     0.030 C 
ATOM      5  C   UNL     1     -15.362 123.230  18.575  1.00  0.00     0.004 C 
ATOM      6  C   UNL     1     -13.370 120.729  21.159  1.00  0.00     0.013 C 
ATOM      7  C   UNL     1     -15.762 120.073  21.578  1.00  0.00    -0.063 C 
ATOM      8  C   UNL     1     -16.122 120.865  19.135  1.00  0.00    -0.003 C 
ATOM      9  C   UNL     1     -16.334 122.106  18.213  1.00  0.00    -0.011 C 
ATOM     10  C   UNL     1     -14.312 119.820  22.025  1.00  0.00    -0.006 C 
ATOM     11  C   UNL     1     -16.725 119.216  21.967  1.00  0.00    -0.027 C 
ATOM     12  C   UNL     1     -17.212 119.814  18.811  1.00  0.00     0.008 C 
ATOM     13  C   UNL     1     -16.166 121.768  16.720  1.00  0.00     0.008 C 
ATOM     14  C   UNL     1     -14.156 120.285  23.499  1.00  0.00     0.017 C 
ATOM     15  C   UNL     1     -13.992 118.238  21.880  1.00  0.00    -0.020 C 
ATOM     16  C   UNL     1     -16.462 118.041  22.861  1.00  0.00     0.032 C 
ATOM     17  C   UNL     1     -15.068 117.345  22.679  1.00  0.00     0.006 C 
ATOM     18  C   UNL     1     -12.486 117.888  22.233  1.00  0.00     0.008 C 
ATOM     19  C   UNL     1     -14.144 117.870  20.358  1.00  0.00     0.012 C 
ATOM     20  C   UNL     1     -14.606 116.546  23.982  1.00  0.00    -0.025 C 
ATOM     21  C   UNL     1     -12.146 116.928  23.388  1.00  0.00     0.005 C 
ATOM     22  C   UNL     1     -13.202 115.871  23.782  1.00  0.00     0.003 C 
ATOM     23  C   UNL     1     -15.656 115.451  24.372  1.00  0.00     0.010 C 
ATOM     24  C   UNL     1     -14.512 117.460  25.249  1.00  0.00     0.012 C 
ATOM     25  C   UNL     1     -13.127 114.471  23.023  1.00  0.00    -0.006 C 
ATOM     26  C   UNL     1     -15.643 114.213  23.480  1.00  0.00     0.033 C 
ATOM     27  C   UNL     1     -14.273 113.535  23.525  1.00  0.00     0.120 C 
ATOM     28  C   UNL     1     -11.781 113.768  23.372  1.00  0.00     0.014 C 
ATOM     29  C   UNL     1     -13.174 114.585  21.483  1.00  0.00     0.014 C 
ENDROOT
BRANCH   1  30
ATOM     30  C   UNL     1     -15.766 123.071  22.396  1.00  0.00     0.048 C 
ATOM     31  O   UNL     1     -16.995 123.085  22.680  1.00  0.00    -0.550 OA
ATOM     32  O   UNL     1     -14.862 123.550  23.339  1.00  0.00    -0.550 OA
ENDBRANCH   1  30
BRANCH  27  33
ATOM     33  O   UNL     1     -14.338 112.354  22.759  1.00  0.00    -0.393 OA
ATOM     34  H   UNL     1     -14.754 112.583  21.887  1.00  0.00     0.210 HD
ENDBRANCH  27  33
TORSDOF 2
ENDMDL
MODEL 3
REMARK VINA RESULT:    -8.053     13.023     15.477
REMARK INTER + INTRA:          -8.977
REMARK INTER:                  -8.716
REMARK INTRA:                  -0.261
REMARK UNBOUND:                -0.218
REMARK SMILES C[C@H]1[C@H](C)CC[C@]2(C(=O)[O-])CC[C@@]3(C)C(=CC[C@@H]4[C@@]5(C)CC[C@@H](O)C(C)(C)[C@H]5CC[C@@]43C)[C@H]12
REMARK SMILES IDX 7 1 6 2 11 3 33 4 5 5 12 6 15 7 2 8 3 9 13 10 16 11 1 12
REMARK SMILES IDX 4 13 14 14 31 15 17 16 18 17 30 18 32 19 19 20 29 21 28 22
REMARK SMILES IDX 21 23 20 24 25 25 22 26 23 27 26 28 27 29 8 30 9 31 10 32
REMARK SMILES IDX 24 33
REMARK H PARENT 24 34
REMARK Flexibility Score: inf
ROOT
ATOM      1  C   UNL     1     -11.862 115.360  22.337  1.00  0.00     0.017 C 
ATOM      2  C   UNL     1     -11.370 114.086  23.074  1.00  0.00     0.014 C 
ATOM      3  C   UNL     1     -10.911 116.570  22.662  1.00  0.00     0.014 C 
ATOM      4  C   UNL     1     -13.363 115.656  22.706  1.00  0.00     0.030 C 
ATOM      5  C   UNL     1     -11.618 114.131  24.579  1.00  0.00     0.004 C 
ATOM      6  C   UNL     1     -11.609 117.910  22.962  1.00  0.00     0.013 C 
ATOM      7  C   UNL     1     -13.795 117.008  22.104  1.00  0.00    -0.063 C 
ATOM      8  C   UNL     1     -13.713 115.537  24.238  1.00  0.00    -0.003 C 
ATOM      9  C   UNL     1     -13.113 114.246  24.876  1.00  0.00    -0.011 C 
ATOM     10  C   UNL     1     -12.851 118.223  22.055  1.00  0.00    -0.006 C 
ATOM     11  C   UNL     1     -15.052 117.138  21.641  1.00  0.00    -0.027 C 
ATOM     12  C   UNL     1     -15.246 115.534  24.460  1.00  0.00     0.008 C 
ATOM     13  C   UNL     1     -13.321 114.190  26.402  1.00  0.00     0.008 C 
ATOM     14  C   UNL     1     -12.320 118.382  20.604  1.00  0.00     0.017 C 
ATOM     15  C   UNL     1     -13.674 119.539  22.519  1.00  0.00    -0.020 C 
ATOM     16  C   UNL     1     -15.572 118.405  21.031  1.00  0.00     0.032 C 
ATOM     17  C   UNL     1     -15.010 119.736  21.642  1.00  0.00     0.006 C 
ATOM     18  C   UNL     1     -12.760 120.833  22.589  1.00  0.00     0.008 C 
ATOM     19  C   UNL     1     -14.141 119.297  24.002  1.00  0.00     0.012 C 
ATOM     20  C   UNL     1     -15.103 120.966  20.626  1.00  0.00    -0.025 C 
ATOM     21  C   UNL     1     -13.061 122.063  21.712  1.00  0.00     0.005 C 
ATOM     22  C   UNL     1     -14.521 122.282  21.254  1.00  0.00     0.003 C 
ATOM     23  C   UNL     1     -16.582 121.216  20.179  1.00  0.00     0.010 C 
ATOM     24  C   UNL     1     -14.334 120.702  19.289  1.00  0.00     0.012 C 
ATOM     25  C   UNL     1     -15.449 123.145  22.221  1.00  0.00    -0.006 C 
ATOM     26  C   UNL     1     -17.460 121.885  21.234  1.00  0.00     0.033 C 
ATOM     27  C   UNL     1     -16.887 123.249  21.619  1.00  0.00     0.120 C 
ATOM     28  C   UNL     1     -14.889 124.596  22.312  1.00  0.00     0.014 C 
ATOM     29  C   UNL     1     -15.520 122.611  23.669  1.00  0.00     0.014 C 
ENDROOT
BRANCH   1  30
ATOM     30  C   UNL     1     -11.748 115.038  20.845  1.00  0.00     0.048 C 
ATOM     31  O   UNL     1     -10.699 115.338  20.214  1.00  0.00    -0.550 OA
ATOM     32  O   UNL     1     -12.778 114.406  20.155  1.00  0.00    -0.550 OA
ENDBRANCH   1  30
BRANCH  27  33
ATOM     33  O   UNL     1     -17.775 123.862  22.526  1.00  0.00    -0.393 OA
ATOM     34  H   UNL     1     -17.665 124.844  22.437  1.00  0.00     0.210 HD
ENDBRANCH  27  33
TORSDOF 2
ENDMDL
MODEL 4
REMARK VINA RESULT:    -7.776      9.916     12.918
REMARK INTER + INTRA:          -8.676
REMARK INTER:                  -8.416
REMARK INTRA:                  -0.261
REMARK UNBOUND:                -0.218
REMARK SMILES C[C@H]1[C@H](C)CC[C@]2(C(=O)[O-])CC[C@@]3(C)C(=CC[C@@H]4[C@@]5(C)CC[C@@H](O)C(C)(C)[C@H]5CC[C@@]43C)[C@H]12
REMARK SMILES IDX 7 1 6 2 11 3 33 4 5 5 12 6 15 7 2 8 3 9 13 10 16 11 1 12
REMARK SMILES IDX 4 13 14 14 31 15 17 16 18 17 30 18 32 19 19 20 29 21 28 22
REMARK SMILES IDX 21 23 20 24 25 25 22 26 23 27 26 28 27 29 8 30 9 31 10 32
REMARK SMILES IDX 24 33
REMARK H PARENT 24 34
REMARK Flexibility Score: inf
ROOT
ATOM      1  C   UNL     1     -23.273 115.126   8.657  1.00  0.00     0.017 C 
ATOM      2  C   UNL     1     -23.997 116.147   7.740  1.00  0.00     0.014 C 
ATOM      3  C   UNL     1     -24.233 113.925   8.985  1.00  0.00     0.014 C 
ATOM      4  C   UNL     1     -22.738 115.843   9.953  1.00  0.00     0.030 C 
ATOM      5  C   UNL     1     -25.072 116.950   8.467  1.00  0.00     0.004 C 
ATOM      6  C   UNL     1     -24.236 113.448  10.451  1.00  0.00     0.013 C 
ATOM      7  C   UNL     1     -22.168 114.798  10.933  1.00  0.00    -0.063 C 
ATOM      8  C   UNL     1     -23.756 116.828  10.643  1.00  0.00    -0.003 C 
ATOM      9  C   UNL     1     -24.459 117.761   9.610  1.00  0.00    -0.011 C 
ATOM     10  C   UNL     1     -22.823 113.420  11.135  1.00  0.00    -0.006 C 
ATOM     11  C   UNL     1     -21.083 115.118  11.662  1.00  0.00    -0.027 C 
ATOM     12  C   UNL     1     -23.047 117.706  11.703  1.00  0.00     0.008 C 
ATOM     13  C   UNL     1     -25.563 118.625  10.250  1.00  0.00     0.008 C 
ATOM     14  C   UNL     1     -21.981 112.352  10.385  1.00  0.00     0.017 C 
ATOM     15  C   UNL     1     -22.882 113.101  12.722  1.00  0.00    -0.020 C 
ATOM     16  C   UNL     1     -20.445 114.176  12.638  1.00  0.00     0.032 C 
ATOM     17  C   UNL     1     -21.425 113.218  13.400  1.00  0.00     0.006 C 
ATOM     18  C   UNL     1     -23.625 111.737  13.041  1.00  0.00     0.008 C 
ATOM     19  C   UNL     1     -23.778 114.211  13.388  1.00  0.00     0.012 C 
ATOM     20  C   UNL     1     -20.704 111.896  13.932  1.00  0.00    -0.025 C 
ATOM     21  C   UNL     1     -22.895 110.585  13.756  1.00  0.00     0.005 C 
ATOM     22  C   UNL     1     -21.707 110.946  14.677  1.00  0.00     0.003 C 
ATOM     23  C   UNL     1     -19.517 112.250  14.890  1.00  0.00     0.010 C 
ATOM     24  C   UNL     1     -20.038 111.068  12.782  1.00  0.00     0.012 C 
ATOM     25  C   UNL     1     -22.055 111.245  16.204  1.00  0.00    -0.006 C 
ATOM     26  C   UNL     1     -19.941 112.705  16.284  1.00  0.00     0.033 C 
ATOM     27  C   UNL     1     -20.750 111.611  16.982  1.00  0.00     0.120 C 
ATOM     28  C   UNL     1     -22.630 109.957  16.863  1.00  0.00     0.014 C 
ATOM     29  C   UNL     1     -23.116 112.350  16.404  1.00  0.00     0.014 C 
ENDROOT
BRANCH   1  30
ATOM     30  C   UNL     1     -22.097 114.598   7.833  1.00  0.00     0.048 C 
ATOM     31  O   UNL     1     -22.231 113.553   7.140  1.00  0.00    -0.550 OA
ATOM     32  O   UNL     1     -20.867 115.250   7.816  1.00  0.00    -0.550 OA
ENDBRANCH   1  30
BRANCH  27  33
ATOM     33  O   UNL     1     -21.042 112.042  18.291  1.00  0.00    -0.393 OA
ATOM     34  H   UNL     1     -20.884 113.022  18.327  1.00  0.00     0.210 HD
ENDBRANCH  27  33
TORSDOF 2
ENDMDL
MODEL 5
REMARK VINA RESULT:    -7.588     10.945     15.277
REMARK INTER + INTRA:          -8.471
REMARK INTER:                  -8.231
REMARK INTRA:                  -0.240
REMARK UNBOUND:                -0.218
REMARK SMILES C[C@H]1[C@H](C)CC[C@]2(C(=O)[O-])CC[C@@]3(C)C(=CC[C@@H]4[C@@]5(C)CC[C@@H](O)C(C)(C)[C@H]5CC[C@@]43C)[C@H]12
REMARK SMILES IDX 7 1 6 2 11 3 33 4 5 5 12 6 15 7 2 8 3 9 13 10 16 11 1 12
REMARK SMILES IDX 4 13 14 14 31 15 17 16 18 17 30 18 32 19 19 20 29 21 28 22
REMARK SMILES IDX 21 23 20 24 25 25 22 26 23 27 26 28 27 29 8 30 9 31 10 32
REMARK SMILES IDX 24 33
REMARK H PARENT 24 34
REMARK Flexibility Score: inf
ROOT
ATOM      1  C   UNL     1     -13.274 115.478  23.167  1.00  0.00     0.017 C 
ATOM      2  C   UNL     1     -13.578 114.001  23.531  1.00  0.00     0.014 C 
ATOM      3  C   UNL     1     -13.547 116.405  24.408  1.00  0.00     0.014 C 
ATOM      4  C   UNL     1     -14.102 115.907  21.899  1.00  0.00     0.030 C 
ATOM      5  C   UNL     1     -15.070 113.712  23.666  1.00  0.00     0.004 C 
ATOM      6  C   UNL     1     -14.289 117.723  24.111  1.00  0.00     0.013 C 
ATOM      7  C   UNL     1     -13.923 117.417  21.641  1.00  0.00    -0.063 C 
ATOM      8  C   UNL     1     -15.616 115.470  21.908  1.00  0.00    -0.003 C 
ATOM      9  C   UNL     1     -15.793 113.984  22.346  1.00  0.00    -0.011 C 
ATOM     10  C   UNL     1     -13.848 118.441  22.787  1.00  0.00    -0.006 C 
ATOM     11  C   UNL     1     -13.868 117.854  20.369  1.00  0.00    -0.027 C 
ATOM     12  C   UNL     1     -16.256 115.655  20.510  1.00  0.00     0.008 C 
ATOM     13  C   UNL     1     -17.274 113.587  22.503  1.00  0.00     0.008 C 
ATOM     14  C   UNL     1     -12.367 118.868  22.978  1.00  0.00     0.017 C 
ATOM     15  C   UNL     1     -14.774 119.715  22.406  1.00  0.00    -0.020 C 
ATOM     16  C   UNL     1     -13.690 119.298  20.007  1.00  0.00     0.032 C 
ATOM     17  C   UNL     1     -14.366 120.331  20.975  1.00  0.00     0.006 C 
ATOM     18  C   UNL     1     -14.835 120.791  23.569  1.00  0.00     0.008 C 
ATOM     19  C   UNL     1     -16.251 119.192  22.266  1.00  0.00     0.012 C 
ATOM     20  C   UNL     1     -13.679 121.772  20.913  1.00  0.00    -0.025 C 
ATOM     21  C   UNL     1     -14.337 122.231  23.343  1.00  0.00     0.005 C 
ATOM     22  C   UNL     1     -14.362 122.784  21.900  1.00  0.00     0.003 C 
ATOM     23  C   UNL     1     -13.725 122.355  19.460  1.00  0.00     0.010 C 
ATOM     24  C   UNL     1     -12.154 121.729  21.263  1.00  0.00     0.012 C 
ATOM     25  C   UNL     1     -15.700 123.517  21.441  1.00  0.00    -0.006 C 
ATOM     26  C   UNL     1     -15.094 122.873  19.028  1.00  0.00     0.033 C 
ATOM     27  C   UNL     1     -15.562 123.992  19.958  1.00  0.00     0.120 C 
ATOM     28  C   UNL     1     -15.912 124.793  22.308  1.00  0.00     0.014 C 
ATOM     29  C   UNL     1     -16.976 122.660  21.603  1.00  0.00     0.014 C 
ENDROOT
BRANCH   1  30
ATOM     30  C   UNL     1     -11.777 115.521  22.848  1.00  0.00     0.048 C 
ATOM     31  O   UNL     1     -10.958 115.924  23.718  1.00  0.00    -0.550 OA
ATOM     32  O   UNL     1     -11.283 115.113  21.612  1.00  0.00    -0.550 OA
ENDBRANCH   1  30
BRANCH  27  33
ATOM     33  O   UNL     1     -16.783 124.495  19.469  1.00  0.00    -0.393 OA
ATOM     34  H   UNL     1     -16.578 125.279  18.896  1.00  0.00     0.210 HD
ENDBRANCH  27  33
TORSDOF 2
ENDMDL
MODEL 6
REMARK VINA RESULT:    -7.551     10.441     13.383
REMARK INTER + INTRA:          -8.432
REMARK INTER:                  -8.209
REMARK INTRA:                  -0.223
REMARK UNBOUND:                -0.218
REMARK SMILES C[C@H]1[C@H](C)CC[C@]2(C(=O)[O-])CC[C@@]3(C)C(=CC[C@@H]4[C@@]5(C)CC[C@@H](O)C(C)(C)[C@H]5CC[C@@]43C)[C@H]12
REMARK SMILES IDX 7 1 6 2 11 3 33 4 5 5 12 6 15 7 2 8 3 9 13 10 16 11 1 12
REMARK SMILES IDX 4 13 14 14 31 15 17 16 18 17 30 18 32 19 19 20 29 21 28 22
REMARK SMILES IDX 21 23 20 24 25 25 22 26 23 27 26 28 27 29 8 30 9 31 10 32
REMARK SMILES IDX 24 33
REMARK H PARENT 24 34
REMARK Flexibility Score: inf
ROOT
ATOM      1  C   UNL     1     -21.023 114.615   8.331  1.00  0.00     0.017 C 
ATOM      2  C   UNL     1     -21.563 115.289   7.043  1.00  0.00     0.014 C 
ATOM      3  C   UNL     1     -21.255 113.061   8.262  1.00  0.00     0.014 C 
ATOM      4  C   UNL     1     -21.680 115.268   9.604  1.00  0.00     0.030 C 
ATOM      5  C   UNL     1     -23.087 115.323   6.977  1.00  0.00     0.004 C 
ATOM      6  C   UNL     1     -21.775 112.402   9.555  1.00  0.00     0.013 C 
ATOM      7  C   UNL     1     -21.267 114.487  10.867  1.00  0.00    -0.063 C 
ATOM      8  C   UNL     1     -23.237 115.492   9.513  1.00  0.00    -0.003 C 
ATOM      9  C   UNL     1     -23.660 116.121   8.149  1.00  0.00    -0.011 C 
ATOM     10  C   UNL     1     -21.135 112.954  10.877  1.00  0.00    -0.006 C 
ATOM     11  C   UNL     1     -21.052 115.169  12.008  1.00  0.00    -0.027 C 
ATOM     12  C   UNL     1     -23.734 116.409  10.657  1.00  0.00     0.008 C 
ATOM     13  C   UNL     1     -25.189 116.209   7.988  1.00  0.00     0.008 C 
ATOM     14  C   UNL     1     -19.627 112.583  10.837  1.00  0.00     0.017 C 
ATOM     15  C   UNL     1     -21.837 112.381  12.221  1.00  0.00    -0.020 C 
ATOM     16  C   UNL     1     -20.641 114.510  13.290  1.00  0.00     0.032 C 
ATOM     17  C   UNL     1     -21.235 113.080  13.542  1.00  0.00     0.006 C 
ATOM     18  C   UNL     1     -21.832 110.797  12.280  1.00  0.00     0.008 C 
ATOM     19  C   UNL     1     -23.358 112.776  12.157  1.00  0.00     0.012 C 
ATOM     20  C   UNL     1     -20.345 112.213  14.547  1.00  0.00    -0.025 C 
ATOM     21  C   UNL     1     -21.117 110.049  13.421  1.00  0.00     0.005 C 
ATOM     22  C   UNL     1     -20.950 110.782  14.771  1.00  0.00     0.003 C 
ATOM     23  C   UNL     1     -20.196 112.934  15.929  1.00  0.00     0.010 C 
ATOM     24  C   UNL     1     -18.874 112.029  14.045  1.00  0.00     0.012 C 
ATOM     25  C   UNL     1     -22.131 110.606  15.827  1.00  0.00    -0.006 C 
ATOM     26  C   UNL     1     -21.438 112.877  16.813  1.00  0.00     0.033 C 
ATOM     27  C   UNL     1     -21.811 111.426  17.119  1.00  0.00     0.120 C 
ATOM     28  C   UNL     1     -22.224 109.110  16.251  1.00  0.00     0.014 C 
ATOM     29  C   UNL     1     -23.525 110.995  15.287  1.00  0.00     0.014 C 
ENDROOT
BRANCH   1  30
ATOM     30  C   UNL     1     -19.515 114.881   8.331  1.00  0.00     0.048 C 
ATOM     31  O   UNL     1     -18.742 114.131   7.675  1.00  0.00    -0.550 OA
ATOM     32  O   UNL     1     -18.964 115.948   9.035  1.00  0.00    -0.550 OA
ENDBRANCH   1  30
BRANCH  27  33
ATOM     33  O   UNL     1     -22.907 111.427  18.005  1.00  0.00    -0.393 OA
ATOM     34  H   UNL     1     -22.550 111.316  18.925  1.00  0.00     0.210 HD
ENDBRANCH  27  33
TORSDOF 2
ENDMDL
MODEL 7
REMARK VINA RESULT:    -7.526      2.475      7.358
REMARK INTER + INTRA:          -8.404
REMARK INTER:                  -8.144
REMARK INTRA:                  -0.260
REMARK UNBOUND:                -0.218
REMARK SMILES C[C@H]1[C@H](C)CC[C@]2(C(=O)[O-])CC[C@@]3(C)C(=CC[C@@H]4[C@@]5(C)CC[C@@H](O)C(C)(C)[C@H]5CC[C@@]43C)[C@H]12
REMARK SMILES IDX 7 1 6 2 11 3 33 4 5 5 12 6 15 7 2 8 3 9 13 10 16 11 1 12
REMARK SMILES IDX 4 13 14 14 31 15 17 16 18 17 30 18 32 19 19 20 29 21 28 22
REMARK SMILES IDX 21 23 20 24 25 25 22 26 23 27 26 28 27 29 8 30 9 31 10 32
REMARK SMILES IDX 24 33
REMARK H PARENT 24 34
REMARK Flexibility Score: inf
ROOT
ATOM      1  C   UNL     1     -22.794 113.298  20.266  1.00  0.00     0.017 C 
ATOM      2  C   UNL     1     -21.359 113.866  20.107  1.00  0.00     0.014 C 
ATOM      3  C   UNL     1     -23.517 113.996  21.476  1.00  0.00     0.014 C 
ATOM      4  C   UNL     1     -22.746 111.732  20.414  1.00  0.00     0.030 C 
ATOM      5  C   UNL     1     -20.404 113.398  21.202  1.00  0.00     0.004 C 
ATOM      6  C   UNL     1     -24.321 113.066  22.405  1.00  0.00     0.013 C 
ATOM      7  C   UNL     1     -24.153 111.191  20.736  1.00  0.00    -0.063 C 
ATOM      8  C   UNL     1     -21.647 111.185  21.403  1.00  0.00    -0.003 C 
ATOM      9  C   UNL     1     -20.266 111.875  21.182  1.00  0.00    -0.011 C 
ATOM     10  C   UNL     1     -25.124 111.936  21.669  1.00  0.00    -0.006 C 
ATOM     11  C   UNL     1     -24.528 110.010  20.211  1.00  0.00    -0.027 C 
ATOM     12  C   UNL     1     -21.468 109.655  21.245  1.00  0.00     0.008 C 
ATOM     13  C   UNL     1     -19.222 111.460  22.236  1.00  0.00     0.008 C 
ATOM     14  C   UNL     1     -26.204 112.641  20.805  1.00  0.00     0.017 C 
ATOM     15  C   UNL     1     -25.799 110.864  22.679  1.00  0.00    -0.020 C 
ATOM     16  C   UNL     1     -25.875 109.397  20.455  1.00  0.00     0.032 C 
ATOM     17  C   UNL     1     -26.494 109.654  21.872  1.00  0.00     0.006 C 
ATOM     18  C   UNL     1     -26.752 111.549  23.744  1.00  0.00     0.008 C 
ATOM     19  C   UNL     1     -24.638 110.228  23.529  1.00  0.00     0.012 C 
ATOM     20  C   UNL     1     -28.086 109.524  21.880  1.00  0.00    -0.025 C 
ATOM     21  C   UNL     1     -28.249 111.195  23.812  1.00  0.00     0.005 C 
ATOM     22  C   UNL     1     -28.684 109.801  23.305  1.00  0.00     0.003 C 
ATOM     23  C   UNL     1     -28.537 108.104  21.397  1.00  0.00     0.010 C 
ATOM     24  C   UNL     1     -28.777 110.510  20.880  1.00  0.00     0.012 C 
ATOM     25  C   UNL     1     -28.686 108.622  24.378  1.00  0.00    -0.006 C 
ATOM     26  C   UNL     1     -28.336 106.992  22.422  1.00  0.00     0.033 C 
ATOM     27  C   UNL     1     -29.128 107.287  23.695  1.00  0.00     0.120 C 
ATOM     28  C   UNL     1     -29.736 108.934  25.485  1.00  0.00     0.014 C 
ATOM     29  C   UNL     1     -27.334 108.423  25.099  1.00  0.00     0.014 C 
ENDROOT
BRANCH   1  30
ATOM     30  C   UNL     1     -23.528 113.675  18.977  1.00  0.00     0.048 C 
ATOM     31  O   UNL     1     -24.200 114.741  18.923  1.00  0.00    -0.550 OA
ATOM     32  O   UNL     1     -23.468 112.872  17.842  1.00  0.00    -0.550 OA
ENDBRANCH   1  30
BRANCH  27  33
ATOM     33  O   UNL     1     -28.981 106.194  24.572  1.00  0.00    -0.393 OA
ATOM     34  H   UNL     1     -29.850 106.059  25.033  1.00  0.00     0.210 HD
ENDBRANCH  27  33
TORSDOF 2
ENDMDL
MODEL 8
REMARK VINA RESULT:    -7.487      1.723      2.232
REMARK INTER + INTRA:          -8.362
REMARK INTER:                  -8.101
REMARK INTRA:                  -0.261
REMARK UNBOUND:                -0.218
REMARK SMILES C[C@H]1[C@H](C)CC[C@]2(C(=O)[O-])CC[C@@]3(C)C(=CC[C@@H]4[C@@]5(C)CC[C@@H](O)C(C)(C)[C@H]5CC[C@@]43C)[C@H]12
REMARK SMILES IDX 7 1 6 2 11 3 33 4 5 5 12 6 15 7 2 8 3 9 13 10 16 11 1 12
REMARK SMILES IDX 4 13 14 14 31 15 17 16 18 17 30 18 32 19 19 20 29 21 28 22
REMARK SMILES IDX 21 23 20 24 25 25 22 26 23 27 26 28 27 29 8 30 9 31 10 32
REMARK SMILES IDX 24 33
REMARK H PARENT 24 34
REMARK Flexibility Score: inf
ROOT
ATOM      1  C   UNL     1     -27.927 108.115  21.231  1.00  0.00     0.017 C 
ATOM      2  C   UNL     1     -28.686 106.942  21.905  1.00  0.00     0.014 C 
ATOM      3  C   UNL     1     -26.388 107.797  21.172  1.00  0.00     0.014 C 
ATOM      4  C   UNL     1     -28.237 109.465  21.979  1.00  0.00     0.030 C 
ATOM      5  C   UNL     1     -28.447 106.859  23.410  1.00  0.00     0.004 C 
ATOM      6  C   UNL     1     -25.447 108.960  21.543  1.00  0.00     0.013 C 
ATOM      7  C   UNL     1     -27.355 110.595  21.411  1.00  0.00    -0.063 C 
ATOM      8  C   UNL     1     -28.181 109.387  23.552  1.00  0.00    -0.003 C 
ATOM      9  C   UNL     1     -28.929 108.134  24.103  1.00  0.00    -0.011 C 
ATOM     10  C   UNL     1     -25.891 110.363  20.997  1.00  0.00    -0.006 C 
ATOM     11  C   UNL     1     -27.875 111.832  21.309  1.00  0.00    -0.027 C 
ATOM     12  C   UNL     1     -28.796 110.655  24.194  1.00  0.00     0.008 C 
ATOM     13  C   UNL     1     -28.756 107.965  25.625  1.00  0.00     0.008 C 
ATOM     14  C   UNL     1     -25.817 110.287  19.447  1.00  0.00     0.017 C 
ATOM     15  C   UNL     1     -24.992 111.588  21.561  1.00  0.00    -0.020 C 
ATOM     16  C   UNL     1     -27.108 113.000  20.765  1.00  0.00     0.032 C 
ATOM     17  C   UNL     1     -25.571 113.012  21.080  1.00  0.00     0.006 C 
ATOM     18  C   UNL     1     -23.447 111.394  21.262  1.00  0.00     0.008 C 
ATOM     19  C   UNL     1     -25.104 111.564  23.130  1.00  0.00     0.012 C 
ATOM     20  C   UNL     1     -24.736 113.880  20.031  1.00  0.00    -0.025 C 
ATOM     21  C   UNL     1     -22.673 112.413  20.404  1.00  0.00     0.005 C 
ATOM     22  C   UNL     1     -23.200 113.864  20.357  1.00  0.00     0.003 C 
ATOM     23  C   UNL     1     -25.243 115.361  19.997  1.00  0.00     0.010 C 
ATOM     24  C   UNL     1     -24.909 113.379  18.558  1.00  0.00     0.012 C 
ATOM     25  C   UNL     1     -22.643 114.861  21.469  1.00  0.00    -0.006 C 
ATOM     26  C   UNL     1     -24.817 116.206  21.195  1.00  0.00     0.033 C 
ATOM     27  C   UNL     1     -23.292 116.272  21.288  1.00  0.00     0.120 C 
ATOM     28  C   UNL     1     -21.108 115.041  21.277  1.00  0.00     0.014 C 
ATOM     29  C   UNL     1     -22.849 114.368  22.919  1.00  0.00     0.014 C 
ENDROOT
BRANCH   1  30
ATOM     30  C   UNL     1     -28.465 108.181  19.799  1.00  0.00     0.048 C 
ATOM     31  O   UNL     1     -27.875 107.558  18.875  1.00  0.00    -0.550 OA
ATOM     32  O   UNL     1     -29.607 108.910  19.482  1.00  0.00    -0.550 OA
ENDBRANCH   1  30
BRANCH  27  33
ATOM     33  O   UNL     1     -22.950 117.130  22.352  1.00  0.00    -0.393 OA
ATOM     34  H   UNL     1     -22.575 117.961  21.960  1.00  0.00     0.210 HD
ENDBRANCH  27  33
TORSDOF 2
ENDMDL
MODEL 9
REMARK VINA RESULT:    -7.448      5.193      7.589
REMARK INTER + INTRA:          -8.319
REMARK INTER:                  -8.062
REMARK INTRA:                  -0.257
REMARK UNBOUND:                -0.218
REMARK SMILES C[C@H]1[C@H](C)CC[C@]2(C(=O)[O-])CC[C@@]3(C)C(=CC[C@@H]4[C@@]5(C)CC[C@@H](O)C(C)(C)[C@H]5CC[C@@]43C)[C@H]12
REMARK SMILES IDX 7 1 6 2 11 3 33 4 5 5 12 6 15 7 2 8 3 9 13 10 16 11 1 12
REMARK SMILES IDX 4 13 14 14 31 15 17 16 18 17 30 18 32 19 19 20 29 21 28 22
REMARK SMILES IDX 21 23 20 24 25 25 22 26 23 27 26 28 27 29 8 30 9 31 10 32
REMARK SMILES IDX 24 33
REMARK H PARENT 24 34
REMARK Flexibility Score: inf
ROOT
ATOM      1  C   UNL     1     -22.538 112.198  25.145  1.00  0.00     0.017 C 
ATOM      2  C   UNL     1     -22.311 110.904  25.971  1.00  0.00     0.014 C 
ATOM      3  C   UNL     1     -24.037 112.281  24.677  1.00  0.00     0.014 C 
ATOM      4  C   UNL     1     -21.526 112.259  23.941  1.00  0.00     0.030 C 
ATOM      5  C   UNL     1     -22.320 109.639  25.118  1.00  0.00     0.004 C 
ATOM      6  C   UNL     1     -24.262 112.724  23.218  1.00  0.00     0.013 C 
ATOM      7  C   UNL     1     -21.863 113.458  23.032  1.00  0.00    -0.063 C 
ATOM      8  C   UNL     1     -21.361 110.915  23.134  1.00  0.00    -0.003 C 
ATOM      9  C   UNL     1     -21.200 109.683  24.077  1.00  0.00    -0.011 C 
ATOM     10  C   UNL     1     -23.313 113.874  22.727  1.00  0.00    -0.006 C 
ATOM     11  C   UNL     1     -20.854 114.138  22.457  1.00  0.00    -0.027 C 
ATOM     12  C   UNL     1     -20.137 110.981  22.189  1.00  0.00     0.008 C 
ATOM     13  C   UNL     1     -21.188 108.348  23.307  1.00  0.00     0.008 C 
ATOM     14  C   UNL     1     -23.658 115.133  23.569  1.00  0.00     0.017 C 
ATOM     15  C   UNL     1     -23.442 114.183  21.142  1.00  0.00    -0.020 C 
ATOM     16  C   UNL     1     -21.070 115.322  21.562  1.00  0.00     0.032 C 
ATOM     17  C   UNL     1     -22.355 115.272  20.665  1.00  0.00     0.006 C 
ATOM     18  C   UNL     1     -24.927 114.534  20.711  1.00  0.00     0.008 C 
ATOM     19  C   UNL     1     -23.107 112.848  20.378  1.00  0.00     0.012 C 
ATOM     20  C   UNL     1     -22.849 116.723  20.217  1.00  0.00    -0.025 C 
ATOM     21  C   UNL     1     -25.268 115.899  20.084  1.00  0.00     0.005 C 
ATOM     22  C   UNL     1     -24.145 116.648  19.333  1.00  0.00     0.003 C 
ATOM     23  C   UNL     1     -21.727 117.480  19.429  1.00  0.00     0.010 C 
ATOM     24  C   UNL     1     -23.163 117.656  21.434  1.00  0.00     0.012 C 
ATOM     25  C   UNL     1     -23.994 116.333  17.778  1.00  0.00    -0.006 C 
ATOM     26  C   UNL     1     -21.519 116.994  17.997  1.00  0.00     0.033 C 
ATOM     27  C   UNL     1     -22.804 117.155  17.185  1.00  0.00     0.120 C 
ATOM     28  C   UNL     1     -25.281 116.795  17.032  1.00  0.00     0.014 C 
ATOM     29  C   UNL     1     -23.813 114.834  17.453  1.00  0.00     0.014 C 
ENDROOT
BRANCH   1  30
ATOM     30  C   UNL     1     -22.265 113.353  26.111  1.00  0.00     0.048 C 
ATOM     31  O   UNL     1     -23.211 113.852  26.781  1.00  0.00    -0.550 OA
ATOM     32  O   UNL     1     -20.986 113.872  26.284  1.00  0.00    -0.550 OA
ENDBRANCH   1  30
BRANCH  27  33
ATOM     33  O   UNL     1     -22.538 116.777  15.854  1.00  0.00    -0.393 OA
ATOM     34  H   UNL     1     -22.960 117.450  15.259  1.00  0.00     0.210 HD
ENDBRANCH  27  33
TORSDOF 2
ENDMDL
