MODEL 1
REMARK VINA RESULT:    -6.317      0.000      0.000
REMARK INTER + INTRA:         -11.163
REMARK INTER:                  -9.271
REMARK INTRA:                  -1.892
REMARK UNBOUND:                -1.892
REMARK SMILES O=c1c(O[C@@H]2O[C@H](CO)[C@@H](O)[C@H](O)[C@H]2O)c(-c2ccc(O)c(O)c2)oc2cc(O)cc(O)c12
REMARK SMILES IDX 4 1 3 2 16 3 25 4 2 5 26 6 1 7 33 8 27 9 31 10 28 11 30 12
REMARK SMILES IDX 17 13 18 14 19 15 20 16 24 17 22 18 21 19 23 21 32 23 29 25
REMARK SMILES IDX 5 27 14 28 6 29 12 30 7 31 10 32 15 33 13 35 8 37 9 38 11 40
REMARK H PARENT 21 20 23 22 32 24 29 26 15 34 13 36 9 39 11 41
REMARK Flexibility Score: inf
ROOT
ATOM      1  O   UNL     1     138.080 132.888 146.667  1.00  0.00    -0.454 OA
ENDROOT
BRANCH   1   2
ATOM      2  C   UNL     1     138.801 131.738 146.304  1.00  0.00     0.214 A 
ATOM      3  C   UNL     1     139.212 130.837 147.302  1.00  0.00     0.180 A 
ATOM      4  O   UNL     1     139.821 129.704 146.970  1.00  0.00    -0.452 OA
ATOM      5  C   UNL     1     139.124 131.457 144.966  1.00  0.00     0.239 A 
ATOM      6  C   UNL     1     140.108 129.378 145.715  1.00  0.00     0.146 A 
ATOM      7  O   UNL     1     138.844 132.297 144.066  1.00  0.00    -0.285 OA
ATOM      8  C   UNL     1     139.779 130.249 144.648  1.00  0.00     0.111 A 
ATOM      9  C   UNL     1     140.753 128.165 145.461  1.00  0.00     0.094 A 
ATOM     10  C   UNL     1     140.119 129.876 143.325  1.00  0.00     0.134 A 
ATOM     11  C   UNL     1     141.085 127.802 144.151  1.00  0.00     0.123 A 
ATOM     12  C   UNL     1     140.770 128.656 143.092  1.00  0.00     0.093 A 
BRANCH   3  13
ATOM     13  C   UNL     1     138.959 131.109 148.729  1.00  0.00     0.025 A 
ATOM     14  C   UNL     1     139.836 131.929 149.451  1.00  0.00     0.016 A 
ATOM     15  C   UNL     1     139.606 132.185 150.804  1.00  0.00     0.051 A 
ATOM     16  C   UNL     1     138.485 131.640 151.445  1.00  0.00     0.157 A 
ATOM     17  C   UNL     1     137.825 130.584 149.366  1.00  0.00     0.062 A 
ATOM     18  C   UNL     1     137.587 130.842 150.720  1.00  0.00     0.158 A 
BRANCH  16  19
ATOM     19  O   UNL     1     138.264 131.888 152.799  1.00  0.00    -0.504 OA
ATOM     20  H   UNL     1     137.401 132.305 153.126  1.00  0.00     0.293 HD
ENDBRANCH  16  19
BRANCH  18  21
ATOM     21  O   UNL     1     136.450 130.303 151.322  1.00  0.00    -0.504 OA
ATOM     22  H   UNL     1     135.659 130.879 151.585  1.00  0.00     0.293 HD
ENDBRANCH  18  21
ENDBRANCH   3  13
BRANCH  10  23
ATOM     23  O   UNL     1     139.816 130.703 142.243  1.00  0.00    -0.507 OA
ATOM     24  H   UNL     1     138.863 130.828 141.922  1.00  0.00     0.293 HD
ENDBRANCH  10  23
BRANCH  11  25
ATOM     25  O   UNL     1     141.731 126.596 143.892  1.00  0.00    -0.508 OA
ATOM     26  H   UNL     1     141.349 125.713 144.208  1.00  0.00     0.293 HD
ENDBRANCH  11  25
ENDBRANCH   1   2
BRANCH   1  27
ATOM     27  C   UNL     1     136.686 133.073 146.398  1.00  0.00     0.339 C 
ATOM     28  C   UNL     1     135.885 133.185 147.713  1.00  0.00     0.214 C 
ATOM     29  O   UNL     1     136.479 134.176 145.527  1.00  0.00    -0.332 OA
ATOM     30  C   UNL     1     136.125 134.526 148.421  1.00  0.00     0.180 C 
ATOM     31  C   UNL     1     136.765 135.445 146.106  1.00  0.00     0.179 C 
ATOM     32  C   UNL     1     136.010 135.707 147.435  1.00  0.00     0.177 C 
BRANCH  28  33
ATOM     33  O   UNL     1     134.511 132.972 147.497  1.00  0.00    -0.384 OA
ATOM     34  H   UNL     1     134.005 133.678 147.976  1.00  0.00     0.211 HD
ENDBRANCH  28  33
BRANCH  30  35
ATOM     35  O   UNL     1     137.389 134.515 149.028  1.00  0.00    -0.387 OA
ATOM     36  H   UNL     1     137.981 135.086 148.472  1.00  0.00     0.211 HD
ENDBRANCH  30  35
BRANCH  31  37
ATOM     37  C   UNL     1     138.278 135.736 146.177  1.00  0.00     0.191 C 
BRANCH  37  38
ATOM     38  O   UNL     1     138.917 135.216 145.041  1.00  0.00    -0.394 OA
ATOM     39  H   UNL     1     138.316 135.375 144.271  1.00  0.00     0.210 HD
ENDBRANCH  37  38
ENDBRANCH  31  37
BRANCH  32  40
ATOM     40  O   UNL     1     134.659 135.957 147.147  1.00  0.00    -0.387 OA
ATOM     41  H   UNL     1     134.488 136.913 147.355  1.00  0.00     0.211 HD
ENDBRANCH  32  40
ENDBRANCH   1  27
TORSDOF 12
ENDMDL
MODEL 2
REMARK VINA RESULT:    -6.303      0.832      2.112
REMARK INTER + INTRA:         -11.142
REMARK INTER:                  -9.568
REMARK INTRA:                  -1.575
REMARK UNBOUND:                -1.892
REMARK SMILES O=c1c(O[C@@H]2O[C@H](CO)[C@@H](O)[C@H](O)[C@H]2O)c(-c2ccc(O)c(O)c2)oc2cc(O)cc(O)c12
REMARK SMILES IDX 4 1 3 2 16 3 25 4 2 5 26 6 1 7 33 8 27 9 31 10 28 11 30 12
REMARK SMILES IDX 17 13 18 14 19 15 20 16 24 17 22 18 21 19 23 21 32 23 29 25
REMARK SMILES IDX 5 27 14 28 6 29 12 30 7 31 10 32 15 33 13 35 8 37 9 38 11 40
REMARK H PARENT 21 20 23 22 32 24 29 26 15 34 13 36 9 39 11 41
REMARK Flexibility Score: inf
ROOT
ATOM      1  O   UNL     1     138.123 132.897 146.563  1.00  0.00    -0.454 OA
ENDROOT
BRANCH   1   2
ATOM      2  C   UNL     1     138.784 131.711 146.204  1.00  0.00     0.214 A 
ATOM      3  C   UNL     1     139.152 130.794 147.206  1.00  0.00     0.180 A 
ATOM      4  O   UNL     1     139.702 129.631 146.877  1.00  0.00    -0.452 OA
ATOM      5  C   UNL     1     139.088 131.407 144.866  1.00  0.00     0.239 A 
ATOM      6  C   UNL     1     139.968 129.284 145.623  1.00  0.00     0.146 A 
ATOM      7  O   UNL     1     138.848 132.256 143.963  1.00  0.00    -0.285 OA
ATOM      8  C   UNL     1     139.679 130.166 144.553  1.00  0.00     0.111 A 
ATOM      9  C   UNL     1     140.549 128.038 145.373  1.00  0.00     0.094 A 
ATOM     10  C   UNL     1     139.996 129.770 143.230  1.00  0.00     0.134 A 
ATOM     11  C   UNL     1     140.858 127.653 144.064  1.00  0.00     0.123 A 
ATOM     12  C   UNL     1     140.583 128.516 143.001  1.00  0.00     0.093 A 
BRANCH   3  13
ATOM     13  C   UNL     1     138.918 131.086 148.632  1.00  0.00     0.025 A 
ATOM     14  C   UNL     1     139.854 131.837 149.354  1.00  0.00     0.016 A 
ATOM     15  C   UNL     1     139.641 132.110 150.707  1.00  0.00     0.051 A 
ATOM     16  C   UNL     1     138.482 131.653 151.346  1.00  0.00     0.157 A 
ATOM     17  C   UNL     1     137.746 130.649 149.267  1.00  0.00     0.062 A 
ATOM     18  C   UNL     1     137.526 130.925 150.621  1.00  0.00     0.158 A 
BRANCH  16  19
ATOM     19  O   UNL     1     138.277 131.918 152.700  1.00  0.00    -0.504 OA
ATOM     20  H   UNL     1     137.616 131.383 153.249  1.00  0.00     0.293 HD
ENDBRANCH  16  19
BRANCH  18  21
ATOM     21  O   UNL     1     136.351 130.474 151.221  1.00  0.00    -0.504 OA
ATOM     22  H   UNL     1     135.444 130.852 150.973  1.00  0.00     0.293 HD
ENDBRANCH  18  21
ENDBRANCH   3  13
BRANCH  10  23
ATOM     23  O   UNL     1     139.732 130.605 142.145  1.00  0.00    -0.507 OA
ATOM     24  H   UNL     1     139.123 131.411 142.232  1.00  0.00     0.293 HD
ENDBRANCH  10  23
BRANCH  11  25
ATOM     25  O   UNL     1     141.442 126.414 143.808  1.00  0.00    -0.508 OA
ATOM     26  H   UNL     1     142.336 126.159 144.208  1.00  0.00     0.293 HD
ENDBRANCH  11  25
ENDBRANCH   1   2
BRANCH   1  27
ATOM     27  C   UNL     1     138.777 134.162 146.706  1.00  0.00     0.339 C 
ATOM     28  C   UNL     1     138.359 135.125 145.574  1.00  0.00     0.214 C 
ATOM     29  O   UNL     1     138.560 134.702 148.002  1.00  0.00    -0.332 OA
ATOM     30  C   UNL     1     136.920 135.631 145.749  1.00  0.00     0.180 C 
ATOM     31  C   UNL     1     137.220 135.113 148.251  1.00  0.00     0.179 C 
ATOM     32  C   UNL     1     136.668 136.106 147.195  1.00  0.00     0.177 C 
BRANCH  28  33
ATOM     33  O   UNL     1     139.258 136.203 145.459  1.00  0.00    -0.384 OA
ATOM     34  H   UNL     1     138.734 137.033 145.314  1.00  0.00     0.211 HD
ENDBRANCH  28  33
BRANCH  30  35
ATOM     35  O   UNL     1     136.021 134.611 145.404  1.00  0.00    -0.387 OA
ATOM     36  H   UNL     1     135.127 135.033 145.314  1.00  0.00     0.211 HD
ENDBRANCH  30  35
BRANCH  31  37
ATOM     37  C   UNL     1     136.281 133.927 148.547  1.00  0.00     0.191 C 
BRANCH  37  38
ATOM     38  O   UNL     1     134.951 134.298 148.303  1.00  0.00    -0.394 OA
ATOM     39  H   UNL     1     134.724 133.985 147.391  1.00  0.00     0.210 HD
ENDBRANCH  37  38
ENDBRANCH  31  37
BRANCH  32  40
ATOM     40  O   UNL     1     137.266 137.360 147.395  1.00  0.00    -0.387 OA
ATOM     41  H   UNL     1     136.668 137.877 147.998  1.00  0.00     0.211 HD
ENDBRANCH  32  40
ENDBRANCH   1  27
TORSDOF 12
ENDMDL
MODEL 3
REMARK VINA RESULT:    -6.229      2.366      6.416
REMARK INTER + INTRA:         -11.033
REMARK INTER:                  -9.232
REMARK INTRA:                  -1.802
REMARK UNBOUND:                -1.892
REMARK SMILES O=c1c(O[C@@H]2O[C@H](CO)[C@@H](O)[C@H](O)[C@H]2O)c(-c2ccc(O)c(O)c2)oc2cc(O)cc(O)c12
REMARK SMILES IDX 4 1 3 2 16 3 25 4 2 5 26 6 1 7 33 8 27 9 31 10 28 11 30 12
REMARK SMILES IDX 17 13 18 14 19 15 20 16 24 17 22 18 21 19 23 21 32 23 29 25
REMARK SMILES IDX 5 27 14 28 6 29 12 30 7 31 10 32 15 33 13 35 8 37 9 38 11 40
REMARK H PARENT 21 20 23 22 32 24 29 26 15 34 13 36 9 39 11 41
REMARK Flexibility Score: inf
ROOT
ATOM      1  O   UNL     1     139.772 133.215 146.751  1.00  0.00    -0.454 OA
ENDROOT
BRANCH   1   2
ATOM      2  C   UNL     1     138.820 134.244 146.665  1.00  0.00     0.214 A 
ATOM      3  C   UNL     1     137.843 134.368 147.669  1.00  0.00     0.180 A 
ATOM      4  O   UNL     1     136.988 135.384 147.648  1.00  0.00    -0.452 OA
ATOM      5  C   UNL     1     138.815 135.163 145.601  1.00  0.00     0.239 A 
ATOM      6  C   UNL     1     136.974 136.299 146.685  1.00  0.00     0.146 A 
ATOM      7  O   UNL     1     139.625 135.015 144.645  1.00  0.00    -0.285 OA
ATOM      8  C   UNL     1     137.888 136.226 145.605  1.00  0.00     0.111 A 
ATOM      9  C   UNL     1     136.036 137.333 146.746  1.00  0.00     0.094 A 
ATOM     10  C   UNL     1     137.830 137.208 144.587  1.00  0.00     0.134 A 
ATOM     11  C   UNL     1     135.986 138.301 145.737  1.00  0.00     0.123 A 
ATOM     12  C   UNL     1     136.878 138.235 144.664  1.00  0.00     0.093 A 
BRANCH   3  13
ATOM     13  C   UNL     1     137.757 133.398 148.776  1.00  0.00     0.025 A 
ATOM     14  C   UNL     1     137.983 133.818 150.093  1.00  0.00     0.016 A 
ATOM     15  C   UNL     1     137.911 132.903 151.144  1.00  0.00     0.051 A 
ATOM     16  C   UNL     1     137.591 131.562 150.893  1.00  0.00     0.157 A 
ATOM     17  C   UNL     1     137.414 132.060 148.528  1.00  0.00     0.062 A 
ATOM     18  C   UNL     1     137.334 131.141 149.580  1.00  0.00     0.158 A 
BRANCH  16  19
ATOM     19  O   UNL     1     137.530 130.648 151.944  1.00  0.00    -0.504 OA
ATOM     20  H   UNL     1     137.893 130.872 152.862  1.00  0.00     0.293 HD
ENDBRANCH  16  19
BRANCH  18  21
ATOM     21  O   UNL     1     136.992 129.819 149.297  1.00  0.00    -0.504 OA
ATOM     22  H   UNL     1     137.458 129.038 149.745  1.00  0.00     0.293 HD
ENDBRANCH  18  21
ENDBRANCH   3  13
BRANCH  10  23
ATOM     23  O   UNL     1     138.708 137.175 143.503  1.00  0.00    -0.507 OA
ATOM     24  H   UNL     1     138.400 136.891 142.580  1.00  0.00     0.293 HD
ENDBRANCH  10  23
BRANCH  11  25
ATOM     25  O   UNL     1     135.050 139.332 145.789  1.00  0.00    -0.508 OA
ATOM     26  H   UNL     1     134.148 139.251 145.337  1.00  0.00     0.293 HD
ENDBRANCH  11  25
ENDBRANCH   1   2
BRANCH   1  27
ATOM     27  C   UNL     1     141.062 133.370 147.352  1.00  0.00     0.339 C 
ATOM     28  C   UNL     1     141.250 132.365 148.508  1.00  0.00     0.214 C 
ATOM     29  O   UNL     1     142.090 133.291 146.375  1.00  0.00    -0.332 OA
ATOM     30  C   UNL     1     141.446 130.930 147.998  1.00  0.00     0.180 C 
ATOM     31  C   UNL     1     142.262 131.997 145.805  1.00  0.00     0.179 C 
ATOM     32  C   UNL     1     142.483 130.879 146.856  1.00  0.00     0.177 C 
BRANCH  28  33
ATOM     33  O   UNL     1     142.312 132.745 149.351  1.00  0.00    -0.384 OA
ATOM     34  H   UNL     1     142.958 133.278 148.820  1.00  0.00     0.211 HD
ENDBRANCH  28  33
BRANCH  30  35
ATOM     35  O   UNL     1     140.215 130.415 147.565  1.00  0.00    -0.387 OA
ATOM     36  H   UNL     1     140.121 130.658 146.607  1.00  0.00     0.211 HD
ENDBRANCH  30  35
BRANCH  31  37
ATOM     37  C   UNL     1     141.185 131.665 144.753  1.00  0.00     0.191 C 
BRANCH  37  38
ATOM     38  O   UNL     1     140.993 132.764 143.903  1.00  0.00    -0.394 OA
ATOM     39  H   UNL     1     140.188 133.243 144.223  1.00  0.00     0.210 HD
ENDBRANCH  37  38
ENDBRANCH  31  37
BRANCH  32  40
ATOM     40  O   UNL     1     143.778 131.002 147.384  1.00  0.00    -0.387 OA
ATOM     41  H   UNL     1     143.914 131.962 147.604  1.00  0.00     0.211 HD
ENDBRANCH  32  40
ENDBRANCH   1  27
TORSDOF 12
ENDMDL
MODEL 4
REMARK VINA RESULT:    -6.158      2.975      7.440
REMARK INTER + INTRA:         -10.930
REMARK INTER:                  -9.393
REMARK INTRA:                  -1.537
REMARK UNBOUND:                -1.892
REMARK SMILES O=c1c(O[C@@H]2O[C@H](CO)[C@@H](O)[C@H](O)[C@H]2O)c(-c2ccc(O)c(O)c2)oc2cc(O)cc(O)c12
REMARK SMILES IDX 4 1 3 2 16 3 25 4 2 5 26 6 1 7 33 8 27 9 31 10 28 11 30 12
REMARK SMILES IDX 17 13 18 14 19 15 20 16 24 17 22 18 21 19 23 21 32 23 29 25
REMARK SMILES IDX 5 27 14 28 6 29 12 30 7 31 10 32 15 33 13 35 8 37 9 38 11 40
REMARK H PARENT 21 20 23 22 32 24 29 26 15 34 13 36 9 39 11 41
REMARK Flexibility Score: inf
ROOT
ATOM      1  O   UNL     1     139.942 130.052 145.510  1.00  0.00    -0.454 OA
ENDROOT
BRANCH   1   2
ATOM      2  C   UNL     1     139.727 130.523 146.815  1.00  0.00     0.214 A 
ATOM      3  C   UNL     1     140.389 131.687 147.247  1.00  0.00     0.180 A 
ATOM      4  O   UNL     1     140.134 132.193 148.449  1.00  0.00    -0.452 OA
ATOM      5  C   UNL     1     138.864 129.866 147.709  1.00  0.00     0.239 A 
ATOM      6  C   UNL     1     139.294 131.629 149.309  1.00  0.00     0.146 A 
ATOM      7  O   UNL     1     138.333 128.772 147.372  1.00  0.00    -0.285 OA
ATOM      8  C   UNL     1     138.622 130.426 148.980  1.00  0.00     0.111 A 
ATOM      9  C   UNL     1     139.089 132.233 150.552  1.00  0.00     0.094 A 
ATOM     10  C   UNL     1     137.749 129.843 149.931  1.00  0.00     0.134 A 
ATOM     11  C   UNL     1     138.225 131.652 151.486  1.00  0.00     0.123 A 
ATOM     12  C   UNL     1     137.561 130.464 151.175  1.00  0.00     0.093 A 
BRANCH   3  13
ATOM     13  C   UNL     1     141.354 132.384 146.379  1.00  0.00     0.025 A 
ATOM     14  C   UNL     1     142.729 132.195 146.570  1.00  0.00     0.016 A 
ATOM     15  C   UNL     1     143.649 132.859 145.755  1.00  0.00     0.051 A 
ATOM     16  C   UNL     1     143.204 133.702 144.728  1.00  0.00     0.157 A 
ATOM     17  C   UNL     1     140.910 133.210 145.335  1.00  0.00     0.062 A 
ATOM     18  C   UNL     1     141.828 133.872 144.513  1.00  0.00     0.158 A 
BRANCH  16  19
ATOM     19  O   UNL     1     144.125 134.371 143.923  1.00  0.00    -0.504 OA
ATOM     20  H   UNL     1     144.931 133.898 143.535  1.00  0.00     0.293 HD
ENDBRANCH  16  19
BRANCH  18  21
ATOM     21  O   UNL     1     141.351 134.686 143.486  1.00  0.00    -0.504 OA
ATOM     22  H   UNL     1     140.360 134.795 143.306  1.00  0.00     0.293 HD
ENDBRANCH  18  21
ENDBRANCH   3  13
BRANCH  10  23
ATOM     23  O   UNL     1     137.069 128.658 149.652  1.00  0.00    -0.507 OA
ATOM     24  H   UNL     1     136.284 128.351 150.216  1.00  0.00     0.293 HD
ENDBRANCH  10  23
BRANCH  11  25
ATOM     25  O   UNL     1     138.019 132.248 152.728  1.00  0.00    -0.508 OA
ATOM     26  H   UNL     1     137.370 131.858 153.401  1.00  0.00     0.293 HD
ENDBRANCH  11  25
ENDBRANCH   1   2
BRANCH   1  27
ATOM     27  C   UNL     1     141.137 129.387 145.088  1.00  0.00     0.339 C 
ATOM     28  C   UNL     1     141.132 127.912 145.539  1.00  0.00     0.214 C 
ATOM     29  O   UNL     1     141.335 129.539 143.689  1.00  0.00    -0.332 OA
ATOM     30  C   UNL     1     140.144 127.064 144.727  1.00  0.00     0.180 C 
ATOM     31  C   UNL     1     140.393 128.839 142.883  1.00  0.00     0.179 C 
ATOM     32  C   UNL     1     140.293 127.327 143.214  1.00  0.00     0.177 C 
BRANCH  28  33
ATOM     33  O   UNL     1     142.425 127.356 145.491  1.00  0.00    -0.384 OA
ATOM     34  H   UNL     1     143.045 127.962 145.972  1.00  0.00     0.211 HD
ENDBRANCH  28  33
BRANCH  30  35
ATOM     35  O   UNL     1     138.835 127.342 145.145  1.00  0.00    -0.387 OA
ATOM     36  H   UNL     1     138.692 126.850 145.996  1.00  0.00     0.211 HD
ENDBRANCH  30  35
BRANCH  31  37
ATOM     37  C   UNL     1     139.030 129.555 142.806  1.00  0.00     0.191 C 
BRANCH  37  38
ATOM     38  O   UNL     1     138.016 128.623 142.542  1.00  0.00    -0.394 OA
ATOM     39  H   UNL     1     138.364 127.733 142.800  1.00  0.00     0.210 HD
ENDBRANCH  37  38
ENDBRANCH  31  37
BRANCH  32  40
ATOM     40  O   UNL     1     141.442 126.680 142.729  1.00  0.00    -0.387 OA
ATOM     41  H   UNL     1     141.358 125.719 142.969  1.00  0.00     0.211 HD
ENDBRANCH  32  40
ENDBRANCH   1  27
TORSDOF 12
ENDMDL
MODEL 5
REMARK VINA RESULT:    -6.117      2.197      5.953
REMARK INTER + INTRA:         -10.869
REMARK INTER:                  -9.332
REMARK INTRA:                  -1.537
REMARK UNBOUND:                -1.892
REMARK SMILES O=c1c(O[C@@H]2O[C@H](CO)[C@@H](O)[C@H](O)[C@H]2O)c(-c2ccc(O)c(O)c2)oc2cc(O)cc(O)c12
REMARK SMILES IDX 4 1 3 2 16 3 25 4 2 5 26 6 1 7 33 8 27 9 31 10 28 11 30 12
REMARK SMILES IDX 17 13 18 14 19 15 20 16 24 17 22 18 21 19 23 21 32 23 29 25
REMARK SMILES IDX 5 27 14 28 6 29 12 30 7 31 10 32 15 33 13 35 8 37 9 38 11 40
REMARK H PARENT 21 20 23 22 32 24 29 26 15 34 13 36 9 39 11 41
REMARK Flexibility Score: inf
ROOT
ATOM      1  O   UNL     1     139.096 132.413 147.849  1.00  0.00    -0.454 OA
ENDROOT
BRANCH   1   2
ATOM      2  C   UNL     1     139.299 133.158 146.676  1.00  0.00     0.214 A 
ATOM      3  C   UNL     1     140.040 132.598 145.620  1.00  0.00     0.180 A 
ATOM      4  O   UNL     1     140.170 133.255 144.473  1.00  0.00    -0.452 OA
ATOM      5  C   UNL     1     138.778 134.455 146.522  1.00  0.00     0.239 A 
ATOM      6  C   UNL     1     139.659 134.464 144.269  1.00  0.00     0.146 A 
ATOM      7  O   UNL     1     138.189 135.010 147.491  1.00  0.00    -0.285 OA
ATOM      8  C   UNL     1     138.942 135.128 145.294  1.00  0.00     0.111 A 
ATOM      9  C   UNL     1     139.848 135.079 143.029  1.00  0.00     0.094 A 
ATOM     10  C   UNL     1     138.428 136.425 145.046  1.00  0.00     0.134 A 
ATOM     11  C   UNL     1     139.338 136.360 142.790  1.00  0.00     0.123 A 
ATOM     12  C   UNL     1     138.633 137.026 143.795  1.00  0.00     0.093 A 
BRANCH   3  13
ATOM     13  C   UNL     1     140.665 131.269 145.746  1.00  0.00     0.025 A 
ATOM     14  C   UNL     1     140.076 130.158 145.128  1.00  0.00     0.016 A 
ATOM     15  C   UNL     1     140.659 128.896 145.249  1.00  0.00     0.051 A 
ATOM     16  C   UNL     1     141.848 128.733 145.972  1.00  0.00     0.157 A 
ATOM     17  C   UNL     1     141.868 131.109 146.450  1.00  0.00     0.062 A 
ATOM     18  C   UNL     1     142.459 129.847 146.569  1.00  0.00     0.158 A 
BRANCH  16  19
ATOM     19  O   UNL     1     142.423 127.469 146.101  1.00  0.00    -0.504 OA
ATOM     20  H   UNL     1     141.889 126.678 146.438  1.00  0.00     0.293 HD
ENDBRANCH  16  19
BRANCH  18  21
ATOM     21  O   UNL     1     143.654 129.723 147.277  1.00  0.00    -0.504 OA
ATOM     22  H   UNL     1     144.525 129.481 146.819  1.00  0.00     0.293 HD
ENDBRANCH  18  21
ENDBRANCH   3  13
BRANCH  10  23
ATOM     23  O   UNL     1     137.718 137.117 146.026  1.00  0.00    -0.507 OA
ATOM     24  H   UNL     1     137.336 138.040 145.852  1.00  0.00     0.293 HD
ENDBRANCH  10  23
BRANCH  11  25
ATOM     25  O   UNL     1     139.526 136.980 141.558  1.00  0.00    -0.508 OA
ATOM     26  H   UNL     1     139.592 136.444 140.701  1.00  0.00     0.293 HD
ENDBRANCH  11  25
ENDBRANCH   1   2
BRANCH   1  27
ATOM     27  C   UNL     1     137.953 131.583 148.079  1.00  0.00     0.339 C 
ATOM     28  C   UNL     1     138.376 130.218 148.662  1.00  0.00     0.214 C 
ATOM     29  O   UNL     1     136.991 132.254 148.880  1.00  0.00    -0.332 OA
ATOM     30  C   UNL     1     138.830 130.331 150.124  1.00  0.00     0.180 C 
ATOM     31  C   UNL     1     137.393 132.462 150.231  1.00  0.00     0.179 C 
ATOM     32  C   UNL     1     137.831 131.163 150.956  1.00  0.00     0.177 C 
BRANCH  28  33
ATOM     33  O   UNL     1     137.351 129.262 148.529  1.00  0.00    -0.384 OA
ATOM     34  H   UNL     1     136.532 129.723 148.213  1.00  0.00     0.211 HD
ENDBRANCH  28  33
BRANCH  30  35
ATOM     35  O   UNL     1     140.108 130.907 150.175  1.00  0.00    -0.387 OA
ATOM     36  H   UNL     1     140.524 130.611 151.026  1.00  0.00     0.211 HD
ENDBRANCH  30  35
BRANCH  31  37
ATOM     37  C   UNL     1     138.388 133.629 150.381  1.00  0.00     0.191 C 
BRANCH  37  38
ATOM     38  O   UNL     1     137.698 134.850 150.368  1.00  0.00    -0.394 OA
ATOM     39  H   UNL     1     137.242 134.936 151.243  1.00  0.00     0.210 HD
ENDBRANCH  37  38
ENDBRANCH  31  37
BRANCH  32  40
ATOM     40  O   UNL     1     136.690 130.394 151.238  1.00  0.00    -0.387 OA
ATOM     41  H   UNL     1     136.008 130.621 150.552  1.00  0.00     0.211 HD
ENDBRANCH  32  40
ENDBRANCH   1  27
TORSDOF 12
ENDMDL
MODEL 6
REMARK VINA RESULT:    -6.109      2.704      6.461
REMARK INTER + INTRA:         -10.858
REMARK INTER:                  -9.231
REMARK INTRA:                  -1.627
REMARK UNBOUND:                -1.892
REMARK SMILES O=c1c(O[C@@H]2O[C@H](CO)[C@@H](O)[C@H](O)[C@H]2O)c(-c2ccc(O)c(O)c2)oc2cc(O)cc(O)c12
REMARK SMILES IDX 4 1 3 2 16 3 25 4 2 5 26 6 1 7 33 8 27 9 31 10 28 11 30 12
REMARK SMILES IDX 17 13 18 14 19 15 20 16 24 17 22 18 21 19 23 21 32 23 29 25
REMARK SMILES IDX 5 27 14 28 6 29 12 30 7 31 10 32 15 33 13 35 8 37 9 38 11 40
REMARK H PARENT 21 20 23 22 32 24 29 26 15 34 13 36 9 39 11 41
REMARK Flexibility Score: inf
ROOT
ATOM      1  O   UNL     1     139.694 133.042 147.994  1.00  0.00    -0.454 OA
ENDROOT
BRANCH   1   2
ATOM      2  C   UNL     1     138.406 133.580 147.841  1.00  0.00     0.214 A 
ATOM      3  C   UNL     1     137.324 132.987 148.514  1.00  0.00     0.180 A 
ATOM      4  O   UNL     1     136.115 133.533 148.447  1.00  0.00    -0.452 OA
ATOM      5  C   UNL     1     138.164 134.704 147.032  1.00  0.00     0.239 A 
ATOM      6  C   UNL     1     135.849 134.619 147.730  1.00  0.00     0.146 A 
ATOM      7  O   UNL     1     139.104 135.195 146.348  1.00  0.00    -0.285 OA
ATOM      8  C   UNL     1     136.867 135.254 146.977  1.00  0.00     0.111 A 
ATOM      9  C   UNL     1     134.546 135.121 147.718  1.00  0.00     0.094 A 
ATOM     10  C   UNL     1     136.541 136.397 146.207  1.00  0.00     0.134 A 
ATOM     11  C   UNL     1     134.231 136.252 146.957  1.00  0.00     0.123 A 
ATOM     12  C   UNL     1     135.225 136.883 146.206  1.00  0.00     0.093 A 
BRANCH   3  13
ATOM     13  C   UNL     1     137.504 131.769 149.326  1.00  0.00     0.025 A 
ATOM     14  C   UNL     1     137.812 131.877 150.688  1.00  0.00     0.016 A 
ATOM     15  C   UNL     1     137.991 130.728 151.461  1.00  0.00     0.051 A 
ATOM     16  C   UNL     1     137.842 129.459 150.885  1.00  0.00     0.157 A 
ATOM     17  C   UNL     1     137.332 130.499 148.756  1.00  0.00     0.062 A 
ATOM     18  C   UNL     1     137.504 129.345 149.528  1.00  0.00     0.158 A 
BRANCH  16  19
ATOM     19  O   UNL     1     138.032 128.313 151.656  1.00  0.00    -0.504 OA
ATOM     20  H   UNL     1     137.433 128.101 152.444  1.00  0.00     0.293 HD
ENDBRANCH  16  19
BRANCH  18  21
ATOM     21  O   UNL     1     137.327 128.098 148.929  1.00  0.00    -0.504 OA
ATOM     22  H   UNL     1     137.694 127.249 149.342  1.00  0.00     0.293 HD
ENDBRANCH  18  21
ENDBRANCH   3  13
BRANCH  10  23
ATOM     23  O   UNL     1     137.509 137.054 145.449  1.00  0.00    -0.507 OA
ATOM     24  H   UNL     1     138.116 136.551 144.812  1.00  0.00     0.293 HD
ENDBRANCH  10  23
BRANCH  11  25
ATOM     25  O   UNL     1     132.932 136.756 146.938  1.00  0.00    -0.508 OA
ATOM     26  H   UNL     1     132.240 136.456 147.613  1.00  0.00     0.293 HD
ENDBRANCH  11  25
ENDBRANCH   1   2
BRANCH   1  27
ATOM     27  C   UNL     1     140.240 132.025 147.147  1.00  0.00     0.339 C 
ATOM     28  C   UNL     1     141.359 132.599 146.253  1.00  0.00     0.214 C 
ATOM     29  O   UNL     1     140.659 130.901 147.908  1.00  0.00    -0.332 OA
ATOM     30  C   UNL     1     142.638 132.894 147.050  1.00  0.00     0.180 C 
ATOM     31  C   UNL     1     141.796 131.140 148.732  1.00  0.00     0.179 C 
ATOM     32  C   UNL     1     143.016 131.706 147.959  1.00  0.00     0.177 C 
BRANCH  28  33
ATOM     33  O   UNL     1     141.632 131.751 145.164  1.00  0.00    -0.384 OA
ATOM     34  H   UNL     1     141.799 132.312 144.363  1.00  0.00     0.211 HD
ENDBRANCH  28  33
BRANCH  30  35
ATOM     35  O   UNL     1     142.458 134.057 147.812  1.00  0.00    -0.387 OA
ATOM     36  H   UNL     1     142.222 133.766 148.731  1.00  0.00     0.211 HD
ENDBRANCH  30  35
BRANCH  31  37
ATOM     37  C   UNL     1     141.446 131.925 150.012  1.00  0.00     0.191 C 
BRANCH  37  38
ATOM     38  O   UNL     1     142.556 132.673 150.432  1.00  0.00    -0.394 OA
ATOM     39  H   UNL     1     143.355 132.271 150.007  1.00  0.00     0.210 HD
ENDBRANCH  37  38
ENDBRANCH  31  37
BRANCH  32  40
ATOM     40  O   UNL     1     143.581 130.677 147.189  1.00  0.00    -0.387 OA
ATOM     41  H   UNL     1     143.209 129.820 147.528  1.00  0.00     0.211 HD
ENDBRANCH  32  40
ENDBRANCH   1  27
TORSDOF 12
ENDMDL
MODEL 7
REMARK VINA RESULT:    -6.098      2.606      5.529
REMARK INTER + INTRA:         -10.841
REMARK INTER:                  -9.175
REMARK INTRA:                  -1.666
REMARK UNBOUND:                -1.892
REMARK SMILES O=c1c(O[C@@H]2O[C@H](CO)[C@@H](O)[C@H](O)[C@H]2O)c(-c2ccc(O)c(O)c2)oc2cc(O)cc(O)c12
REMARK SMILES IDX 4 1 3 2 16 3 25 4 2 5 26 6 1 7 33 8 27 9 31 10 28 11 30 12
REMARK SMILES IDX 17 13 18 14 19 15 20 16 24 17 22 18 21 19 23 21 32 23 29 25
REMARK SMILES IDX 5 27 14 28 6 29 12 30 7 31 10 32 15 33 13 35 8 37 9 38 11 40
REMARK H PARENT 21 20 23 22 32 24 29 26 15 34 13 36 9 39 11 41
REMARK Flexibility Score: inf
ROOT
ATOM      1  O   UNL     1     138.796 132.915 147.825  1.00  0.00    -0.454 OA
ENDROOT
BRANCH   1   2
ATOM      2  C   UNL     1     139.648 133.161 146.736  1.00  0.00     0.214 A 
ATOM      3  C   UNL     1     139.352 134.211 145.849  1.00  0.00     0.180 A 
ATOM      4  O   UNL     1     140.190 134.510 144.863  1.00  0.00    -0.452 OA
ATOM      5  C   UNL     1     140.797 132.385 146.504  1.00  0.00     0.239 A 
ATOM      6  C   UNL     1     141.309 133.832 144.633  1.00  0.00     0.146 A 
ATOM      7  O   UNL     1     141.031 131.383 147.234  1.00  0.00    -0.285 OA
ATOM      8  C   UNL     1     141.662 132.725 145.443  1.00  0.00     0.111 A 
ATOM      9  C   UNL     1     142.129 134.219 143.571  1.00  0.00     0.094 A 
ATOM     10  C   UNL     1     142.852 132.014 145.155  1.00  0.00     0.134 A 
ATOM     11  C   UNL     1     143.304 133.512 143.292  1.00  0.00     0.123 A 
ATOM     12  C   UNL     1     143.660 132.416 144.081  1.00  0.00     0.093 A 
BRANCH   3  13
ATOM     13  C   UNL     1     138.127 135.018 146.003  1.00  0.00     0.025 A 
ATOM     14  C   UNL     1     136.896 134.509 145.570  1.00  0.00     0.016 A 
ATOM     15  C   UNL     1     135.734 135.271 145.706  1.00  0.00     0.051 A 
ATOM     16  C   UNL     1     135.787 136.542 146.295  1.00  0.00     0.157 A 
ATOM     17  C   UNL     1     138.176 136.280 146.613  1.00  0.00     0.062 A 
ATOM     18  C   UNL     1     137.013 137.045 146.757  1.00  0.00     0.158 A 
BRANCH  16  19
ATOM     19  O   UNL     1     134.627 137.305 146.419  1.00  0.00    -0.504 OA
ATOM     20  H   UNL     1     133.976 137.407 145.651  1.00  0.00     0.293 HD
ENDBRANCH  16  19
BRANCH  18  21
ATOM     21  O   UNL     1     137.097 138.296 147.367  1.00  0.00    -0.504 OA
ATOM     22  H   UNL     1     137.916 138.582 147.891  1.00  0.00     0.293 HD
ENDBRANCH  18  21
ENDBRANCH   3  13
BRANCH  10  23
ATOM     23  O   UNL     1     143.240 130.917 145.923  1.00  0.00    -0.507 OA
ATOM     24  H   UNL     1     144.214 130.653 146.019  1.00  0.00     0.293 HD
ENDBRANCH  10  23
BRANCH  11  25
ATOM     25  O   UNL     1     144.125 133.891 142.232  1.00  0.00    -0.508 OA
ATOM     26  H   UNL     1     144.962 133.371 142.000  1.00  0.00     0.293 HD
ENDBRANCH  11  25
ENDBRANCH   1   2
BRANCH   1  27
ATOM     27  C   UNL     1     138.982 133.481 149.127  1.00  0.00     0.339 C 
ATOM     28  C   UNL     1     137.705 134.210 149.594  1.00  0.00     0.214 C 
ATOM     29  O   UNL     1     139.427 132.496 150.049  1.00  0.00    -0.332 OA
ATOM     30  C   UNL     1     136.584 133.229 149.968  1.00  0.00     0.180 C 
ATOM     31  C   UNL     1     138.453 131.509 150.371  1.00  0.00     0.179 C 
ATOM     32  C   UNL     1     137.112 132.100 150.877  1.00  0.00     0.177 C 
BRANCH  28  33
ATOM     33  O   UNL     1     137.976 135.089 150.659  1.00  0.00    -0.384 OA
ATOM     34  H   UNL     1     138.947 135.293 150.659  1.00  0.00     0.211 HD
ENDBRANCH  28  33
BRANCH  30  35
ATOM     35  O   UNL     1     136.021 132.695 148.800  1.00  0.00    -0.387 OA
ATOM     36  H   UNL     1     135.116 133.093 148.708  1.00  0.00     0.211 HD
ENDBRANCH  30  35
BRANCH  31  37
ATOM     37  C   UNL     1     138.292 130.451 149.261  1.00  0.00     0.191 C 
BRANCH  37  38
ATOM     38  O   UNL     1     136.989 129.932 149.281  1.00  0.00    -0.394 OA
ATOM     39  H   UNL     1     136.379 130.685 149.480  1.00  0.00     0.210 HD
ENDBRANCH  37  38
ENDBRANCH  31  37
BRANCH  32  40
ATOM     40  O   UNL     1     137.294 132.586 152.182  1.00  0.00    -0.387 OA
ATOM     41  H   UNL     1     136.781 131.990 152.790  1.00  0.00     0.211 HD
ENDBRANCH  32  40
ENDBRANCH   1  27
TORSDOF 12
ENDMDL
MODEL 8
REMARK VINA RESULT:    -6.071      3.118      6.876
REMARK INTER + INTRA:         -10.802
REMARK INTER:                  -9.041
REMARK INTRA:                  -1.760
REMARK UNBOUND:                -1.892
REMARK SMILES O=c1c(O[C@@H]2O[C@H](CO)[C@@H](O)[C@H](O)[C@H]2O)c(-c2ccc(O)c(O)c2)oc2cc(O)cc(O)c12
REMARK SMILES IDX 4 1 3 2 16 3 25 4 2 5 26 6 1 7 33 8 27 9 31 10 28 11 30 12
REMARK SMILES IDX 17 13 18 14 19 15 20 16 24 17 22 18 21 19 23 21 32 23 29 25
REMARK SMILES IDX 5 27 14 28 6 29 12 30 7 31 10 32 15 33 13 35 8 37 9 38 11 40
REMARK H PARENT 21 20 23 22 32 24 29 26 15 34 13 36 9 39 11 41
REMARK Flexibility Score: inf
ROOT
ATOM      1  O   UNL     1     139.125 134.751 145.297  1.00  0.00    -0.454 OA
ENDROOT
BRANCH   1   2
ATOM      2  C   UNL     1     138.820 134.449 146.634  1.00  0.00     0.214 A 
ATOM      3  C   UNL     1     137.873 135.229 147.321  1.00  0.00     0.180 A 
ATOM      4  O   UNL     1     137.512 134.906 148.559  1.00  0.00    -0.452 OA
ATOM      5  C   UNL     1     139.435 133.381 147.312  1.00  0.00     0.239 A 
ATOM      6  C   UNL     1     138.035 133.880 149.221  1.00  0.00     0.146 A 
ATOM      7  O   UNL     1     140.352 132.727 146.743  1.00  0.00    -0.285 OA
ATOM      8  C   UNL     1     139.034 133.071 148.628  1.00  0.00     0.111 A 
ATOM      9  C   UNL     1     137.594 133.617 150.520  1.00  0.00     0.094 A 
ATOM     10  C   UNL     1     139.583 131.998 149.373  1.00  0.00     0.134 A 
ATOM     11  C   UNL     1     138.140 132.556 151.250  1.00  0.00     0.123 A 
ATOM     12  C   UNL     1     139.129 131.754 150.677  1.00  0.00     0.093 A 
BRANCH   3  13
ATOM     13  C   UNL     1     137.242 136.400 146.686  1.00  0.00     0.025 A 
ATOM     14  C   UNL     1     135.867 136.391 146.414  1.00  0.00     0.016 A 
ATOM     15  C   UNL     1     135.265 137.493 145.806  1.00  0.00     0.051 A 
ATOM     16  C   UNL     1     136.025 138.625 145.482  1.00  0.00     0.157 A 
ATOM     17  C   UNL     1     137.997 137.542 146.383  1.00  0.00     0.062 A 
ATOM     18  C   UNL     1     137.396 138.651 145.779  1.00  0.00     0.158 A 
BRANCH  16  19
ATOM     19  O   UNL     1     135.423 139.721 144.865  1.00  0.00    -0.504 OA
ATOM     20  H   UNL     1     134.473 139.994 145.082  1.00  0.00     0.293 HD
ENDBRANCH  16  19
BRANCH  18  21
ATOM     21  O   UNL     1     138.178 139.770 145.489  1.00  0.00    -0.504 OA
ATOM     22  H   UNL     1     138.912 139.743 144.791  1.00  0.00     0.293 HD
ENDBRANCH  18  21
ENDBRANCH   3  13
BRANCH  10  23
ATOM     23  O   UNL     1     140.570 131.176 148.830  1.00  0.00    -0.507 OA
ATOM     24  H   UNL     1     141.502 131.131 149.228  1.00  0.00     0.293 HD
ENDBRANCH  10  23
BRANCH  11  25
ATOM     25  O   UNL     1     137.708 132.291 152.548  1.00  0.00    -0.508 OA
ATOM     26  H   UNL     1     136.723 132.239 152.776  1.00  0.00     0.293 HD
ENDBRANCH  11  25
ENDBRANCH   1   2
BRANCH   1  27
ATOM     27  C   UNL     1     138.656 133.988 144.180  1.00  0.00     0.339 C 
ATOM     28  C   UNL     1     137.807 134.865 143.236  1.00  0.00     0.214 C 
ATOM     29  O   UNL     1     139.735 133.343 143.518  1.00  0.00    -0.332 OA
ATOM     30  C   UNL     1     138.667 135.859 142.443  1.00  0.00     0.180 C 
ATOM     31  C   UNL     1     140.616 134.227 142.832  1.00  0.00     0.179 C 
ATOM     32  C   UNL     1     139.899 135.164 141.826  1.00  0.00     0.177 C 
BRANCH  28  33
ATOM     33  O   UNL     1     137.025 134.078 142.369  1.00  0.00    -0.384 OA
ATOM     34  H   UNL     1     137.589 133.340 142.021  1.00  0.00     0.211 HD
ENDBRANCH  28  33
BRANCH  30  35
ATOM     35  O   UNL     1     139.067 136.907 143.285  1.00  0.00    -0.387 OA
ATOM     36  H   UNL     1     140.043 136.804 143.432  1.00  0.00     0.211 HD
ENDBRANCH  30  35
BRANCH  31  37
ATOM     37  C   UNL     1     141.586 134.954 143.784  1.00  0.00     0.191 C 
BRANCH  37  38
ATOM     38  O   UNL     1     141.998 134.082 144.803  1.00  0.00    -0.394 OA
ATOM     39  H   UNL     1     142.986 134.026 144.755  1.00  0.00     0.210 HD
ENDBRANCH  37  38
ENDBRANCH  31  37
BRANCH  32  40
ATOM     40  O   UNL     1     139.509 134.413 140.705  1.00  0.00    -0.387 OA
ATOM     41  H   UNL     1     140.296 134.363 140.100  1.00  0.00     0.211 HD
ENDBRANCH  32  40
ENDBRANCH   1  27
TORSDOF 12
ENDMDL
MODEL 9
REMARK VINA RESULT:    -5.973      2.378      6.184
REMARK INTER + INTRA:         -10.659
REMARK INTER:                  -8.795
REMARK INTRA:                  -1.864
REMARK UNBOUND:                -1.892
REMARK SMILES O=c1c(O[C@@H]2O[C@H](CO)[C@@H](O)[C@H](O)[C@H]2O)c(-c2ccc(O)c(O)c2)oc2cc(O)cc(O)c12
REMARK SMILES IDX 4 1 3 2 16 3 25 4 2 5 26 6 1 7 33 8 27 9 31 10 28 11 30 12
REMARK SMILES IDX 17 13 18 14 19 15 20 16 24 17 22 18 21 19 23 21 32 23 29 25
REMARK SMILES IDX 5 27 14 28 6 29 12 30 7 31 10 32 15 33 13 35 8 37 9 38 11 40
REMARK H PARENT 21 20 23 22 32 24 29 26 15 34 13 36 9 39 11 41
REMARK Flexibility Score: inf
ROOT
ATOM      1  O   UNL     1     138.018 134.005 147.099  1.00  0.00    -0.454 OA
ENDROOT
BRANCH   1   2
ATOM      2  C   UNL     1     138.722 133.220 148.028  1.00  0.00     0.214 A 
ATOM      3  C   UNL     1     139.927 132.607 147.642  1.00  0.00     0.180 A 
ATOM      4  O   UNL     1     140.646 131.931 148.531  1.00  0.00    -0.452 OA
ATOM      5  C   UNL     1     138.256 133.030 149.340  1.00  0.00     0.239 A 
ATOM      6  C   UNL     1     140.267 131.762 149.792  1.00  0.00     0.146 A 
ATOM      7  O   UNL     1     137.133 133.496 149.678  1.00  0.00    -0.285 OA
ATOM      8  C   UNL     1     139.041 132.300 150.256  1.00  0.00     0.111 A 
ATOM      9  C   UNL     1     141.089 131.034 150.656  1.00  0.00     0.094 A 
ATOM     10  C   UNL     1     138.660 132.081 151.603  1.00  0.00     0.134 A 
ATOM     11  C   UNL     1     140.706 130.823 151.985  1.00  0.00     0.123 A 
ATOM     12  C   UNL     1     139.498 131.344 152.452  1.00  0.00     0.093 A 
BRANCH   3  13
ATOM     13  C   UNL     1     140.433 132.717 146.262  1.00  0.00     0.025 A 
ATOM     14  C   UNL     1     139.867 131.937 145.246  1.00  0.00     0.016 A 
ATOM     15  C   UNL     1     140.347 132.031 143.938  1.00  0.00     0.051 A 
ATOM     16  C   UNL     1     141.383 132.921 143.628  1.00  0.00     0.157 A 
ATOM     17  C   UNL     1     141.455 133.625 145.947  1.00  0.00     0.062 A 
ATOM     18  C   UNL     1     141.935 133.727 144.636  1.00  0.00     0.158 A 
BRANCH  16  19
ATOM     19  O   UNL     1     141.868 133.006 142.324  1.00  0.00    -0.504 OA
ATOM     20  H   UNL     1     141.761 132.240 141.670  1.00  0.00     0.293 HD
ENDBRANCH  16  19
BRANCH  18  21
ATOM     21  O   UNL     1     142.953 134.639 144.358  1.00  0.00    -0.504 OA
ATOM     22  H   UNL     1     143.931 134.394 144.454  1.00  0.00     0.293 HD
ENDBRANCH  18  21
ENDBRANCH   3  13
BRANCH  10  23
ATOM     23  O   UNL     1     137.462 132.590 152.103  1.00  0.00    -0.507 OA
ATOM     24  H   UNL     1     136.590 132.081 152.012  1.00  0.00     0.293 HD
ENDBRANCH  10  23
BRANCH  11  25
ATOM     25  O   UNL     1     141.520 130.094 152.850  1.00  0.00    -0.508 OA
ATOM     26  H   UNL     1     142.417 130.450 153.157  1.00  0.00     0.293 HD
ENDBRANCH  11  25
ENDBRANCH   1   2
BRANCH   1  27
ATOM     27  C   UNL     1     138.144 135.428 146.999  1.00  0.00     0.339 C 
ATOM     28  C   UNL     1     138.546 135.842 145.568  1.00  0.00     0.214 C 
ATOM     29  O   UNL     1     136.965 136.075 147.454  1.00  0.00    -0.332 OA
ATOM     30  C   UNL     1     137.387 135.681 144.574  1.00  0.00     0.180 C 
ATOM     31  C   UNL     1     135.831 135.891 146.611  1.00  0.00     0.179 C 
ATOM     32  C   UNL     1     136.083 136.288 145.134  1.00  0.00     0.177 C 
BRANCH  28  33
ATOM     33  O   UNL     1     139.052 137.155 145.536  1.00  0.00    -0.384 OA
ATOM     34  H   UNL     1     139.979 137.142 145.890  1.00  0.00     0.211 HD
ENDBRANCH  28  33
BRANCH  30  35
ATOM     35  O   UNL     1     137.208 134.321 144.281  1.00  0.00    -0.387 OA
ATOM     36  H   UNL     1     136.235 134.182 144.137  1.00  0.00     0.211 HD
ENDBRANCH  30  35
BRANCH  31  37
ATOM     37  C   UNL     1     135.182 134.503 146.786  1.00  0.00     0.191 C 
BRANCH  37  38
ATOM     38  O   UNL     1     135.009 134.225 148.150  1.00  0.00    -0.394 OA
ATOM     39  H   UNL     1     135.722 134.708 148.638  1.00  0.00     0.210 HD
ENDBRANCH  37  38
ENDBRANCH  31  37
BRANCH  32  40
ATOM     40  O   UNL     1     136.133 137.688 145.042  1.00  0.00    -0.387 OA
ATOM     41  H   UNL     1     136.475 138.026 145.913  1.00  0.00     0.211 HD
ENDBRANCH  32  40
ENDBRANCH   1  27
TORSDOF 12
ENDMDL
