MODEL 1
REMARK VINA RESULT:    -6.830      0.000      0.000
REMARK INTER + INTRA:         -14.868
REMARK INTER:                 -13.219
REMARK INTRA:                  -1.649
REMARK UNBOUND:                -1.649
REMARK SMILES CCCCCCCCCCCCCCCCCC(=O)[O-]
REMARK SMILES IDX 10 1 11 2 12 3 13 4 14 5 15 6 16 7 17 8 18 9 19 10 20 11
REMARK SMILES IDX 9 12 8 13 7 14 6 15 5 16 4 17 3 18 2 19 1 20
REMARK H PARENT
REMARK Flexibility Score: inf
ROOT
ATOM      1  C   UNL     1      -3.960   1.049   2.808  1.00  0.00     0.000 C 
ENDROOT
BRANCH   1   2
ATOM      2  C   UNL     1      -5.188   0.375   2.172  1.00  0.00     0.000 C 
BRANCH   2   3
ATOM      3  C   UNL     1      -6.376   0.210   3.144  1.00  0.00     0.000 C 
BRANCH   3   4
ATOM      4  C   UNL     1      -6.604  -1.261   3.536  1.00  0.00     0.000 C 
BRANCH   4   5
ATOM      5  C   UNL     1      -6.440  -1.504   5.044  1.00  0.00     0.000 C 
BRANCH   5   6
ATOM      6  C   UNL     1      -5.233  -2.394   5.373  1.00  0.00     0.000 C 
BRANCH   6   7
ATOM      7  C   UNL     1      -3.920  -1.605   5.249  1.00  0.00     0.006 C 
BRANCH   7   8
ATOM      8  C   UNL     1      -3.473  -1.006   6.589  1.00  0.00     0.053 C 
BRANCH   8   9
ATOM      9  C   UNL     1      -2.217  -1.648   7.091  1.00  0.00     0.041 C 
ATOM     10  O   UNL     1      -1.521  -1.079   7.973  1.00  0.00    -0.550 OA
ATOM     11  O   UNL     1      -1.796  -2.861   6.562  1.00  0.00    -0.550 OA
ENDBRANCH   8   9
ENDBRANCH   7   8
ENDBRANCH   6   7
ENDBRANCH   5   6
ENDBRANCH   4   5
ENDBRANCH   3   4
ENDBRANCH   2   3
ENDBRANCH   1   2
BRANCH   1  12
ATOM     12  C   UNL     1      -4.328   1.994   3.960  1.00  0.00     0.000 C 
BRANCH  12  13
ATOM     13  C   UNL     1      -3.108   2.801   4.421  1.00  0.00    -0.000 C 
BRANCH  13  14
ATOM     14  C   UNL     1      -3.399   3.529   5.742  1.00  0.00    -0.000 C 
BRANCH  14  15
ATOM     15  C   UNL     1      -4.479   4.613   5.597  1.00  0.00    -0.000 C 
BRANCH  15  16
ATOM     16  C   UNL     1      -4.093   5.706   4.585  1.00  0.00    -0.000 C 
BRANCH  16  17
ATOM     17  C   UNL     1      -5.299   6.583   4.186  1.00  0.00    -0.000 C 
BRANCH  17  18
ATOM     18  C   UNL     1      -6.489   5.779   3.627  1.00  0.00    -0.000 C 
BRANCH  18  19
ATOM     19  C   UNL     1      -6.905   6.162   2.197  1.00  0.00    -0.003 C 
ATOM     20  C   UNL     1      -5.864   7.028   1.488  1.00  0.00     0.004 C 
ENDBRANCH  18  19
ENDBRANCH  17  18
ENDBRANCH  16  17
ENDBRANCH  15  16
ENDBRANCH  14  15
ENDBRANCH  13  14
ENDBRANCH  12  13
ENDBRANCH   1  12
TORSDOF 16
ENDMDL
MODEL 2
REMARK VINA RESULT:    -6.641      3.893      8.121
REMARK INTER + INTRA:         -14.502
REMARK INTER:                 -13.037
REMARK INTRA:                  -1.465
REMARK UNBOUND:                -1.649
REMARK SMILES CCCCCCCCCCCCCCCCCC(=O)[O-]
REMARK SMILES IDX 10 1 11 2 12 3 13 4 14 5 15 6 16 7 17 8 18 9 19 10 20 11
REMARK SMILES IDX 9 12 8 13 7 14 6 15 5 16 4 17 3 18 2 19 1 20
REMARK H PARENT
REMARK Flexibility Score: inf
ROOT
ATOM      1  C   UNL     1      -3.236   2.582   4.768  1.00  0.00     0.000 C 
ENDROOT
BRANCH   1   2
ATOM      2  C   UNL     1      -3.624   3.798   5.627  1.00  0.00     0.000 C 
BRANCH   2   3
ATOM      3  C   UNL     1      -4.804   4.610   5.050  1.00  0.00     0.000 C 
BRANCH   3   4
ATOM      4  C   UNL     1      -4.341   5.930   4.409  1.00  0.00     0.000 C 
BRANCH   4   5
ATOM      5  C   UNL     1      -5.508   6.760   3.853  1.00  0.00     0.000 C 
BRANCH   5   6
ATOM      6  C   UNL     1      -5.554   6.765   2.318  1.00  0.00     0.000 C 
BRANCH   6   7
ATOM      7  C   UNL     1      -6.928   6.300   1.809  1.00  0.00     0.006 C 
BRANCH   7   8
ATOM      8  C   UNL     1      -7.867   5.900   2.955  1.00  0.00     0.053 C 
BRANCH   8   9
ATOM      9  C   UNL     1      -9.246   5.591   2.459  1.00  0.00     0.041 C 
ATOM     10  O   UNL     1      -9.666   6.106   1.389  1.00  0.00    -0.550 OA
ATOM     11  O   UNL     1     -10.080   4.759   3.195  1.00  0.00    -0.550 OA
ENDBRANCH   8   9
ENDBRANCH   7   8
ENDBRANCH   6   7
ENDBRANCH   5   6
ENDBRANCH   4   5
ENDBRANCH   3   4
ENDBRANCH   2   3
ENDBRANCH   1   2
BRANCH   1  12
ATOM     12  C   UNL     1      -4.250   2.288   3.654  1.00  0.00     0.000 C 
BRANCH  12  13
ATOM     13  C   UNL     1      -4.004   0.907   3.035  1.00  0.00    -0.000 C 
BRANCH  13  14
ATOM     14  C   UNL     1      -5.257   0.401   2.306  1.00  0.00    -0.000 C 
BRANCH  14  15
ATOM     15  C   UNL     1      -6.455   0.207   3.249  1.00  0.00    -0.000 C 
BRANCH  15  16
ATOM     16  C   UNL     1      -6.737  -1.275   3.554  1.00  0.00    -0.000 C 
BRANCH  16  17
ATOM     17  C   UNL     1      -6.270  -1.679   4.969  1.00  0.00    -0.000 C 
BRANCH  17  18
ATOM     18  C   UNL     1      -4.803  -2.151   5.024  1.00  0.00    -0.000 C 
BRANCH  18  19
ATOM     19  C   UNL     1      -3.889  -1.297   5.918  1.00  0.00    -0.003 C 
ATOM     20  C   UNL     1      -2.846  -2.127   6.665  1.00  0.00     0.004 C 
ENDBRANCH  18  19
ENDBRANCH  17  18
ENDBRANCH  16  17
ENDBRANCH  15  16
ENDBRANCH  14  15
ENDBRANCH  13  14
ENDBRANCH  12  13
ENDBRANCH   1  12
TORSDOF 16
ENDMDL
MODEL 3
REMARK VINA RESULT:    -6.613      1.550      2.075
REMARK INTER + INTRA:         -14.448
REMARK INTER:                 -13.109
REMARK INTRA:                  -1.338
REMARK UNBOUND:                -1.649
REMARK SMILES CCCCCCCCCCCCCCCCCC(=O)[O-]
REMARK SMILES IDX 10 1 11 2 12 3 13 4 14 5 15 6 16 7 17 8 18 9 19 10 20 11
REMARK SMILES IDX 9 12 8 13 7 14 6 15 5 16 4 17 3 18 2 19 1 20
REMARK H PARENT
REMARK Flexibility Score: inf
ROOT
ATOM      1  C   UNL     1      -4.433   0.782   2.913  1.00  0.00     0.000 C 
ENDROOT
BRANCH   1   2
ATOM      2  C   UNL     1      -5.791   0.072   3.059  1.00  0.00     0.000 C 
BRANCH   2   3
ATOM      3  C   UNL     1      -5.780  -1.076   4.092  1.00  0.00     0.000 C 
BRANCH   3   4
ATOM      4  C   UNL     1      -4.351  -1.470   4.505  1.00  0.00     0.000 C 
BRANCH   4   5
ATOM      5  C   UNL     1      -4.294  -2.114   5.899  1.00  0.00     0.000 C 
BRANCH   5   6
ATOM      6  C   UNL     1      -2.962  -1.853   6.618  1.00  0.00     0.000 C 
BRANCH   6   7
ATOM      7  C   UNL     1      -2.931  -0.439   7.219  1.00  0.00     0.006 C 
BRANCH   7   8
ATOM      8  C   UNL     1      -1.864  -0.296   8.313  1.00  0.00     0.053 C 
BRANCH   8   9
ATOM      9  C   UNL     1      -1.792   1.105   8.836  1.00  0.00     0.041 C 
ATOM     10  O   UNL     1      -1.471   1.320  10.034  1.00  0.00    -0.550 OA
ATOM     11  O   UNL     1      -2.110   2.174   8.008  1.00  0.00    -0.550 OA
ENDBRANCH   8   9
ENDBRANCH   7   8
ENDBRANCH   6   7
ENDBRANCH   5   6
ENDBRANCH   4   5
ENDBRANCH   3   4
ENDBRANCH   2   3
ENDBRANCH   1   2
BRANCH   1  12
ATOM     12  C   UNL     1      -4.421   2.182   3.540  1.00  0.00     0.000 C 
BRANCH  12  13
ATOM     13  C   UNL     1      -3.387   2.271   4.669  1.00  0.00    -0.000 C 
BRANCH  13  14
ATOM     14  C   UNL     1      -3.077   3.735   5.016  1.00  0.00    -0.000 C 
BRANCH  14  15
ATOM     15  C   UNL     1      -4.346   4.570   5.255  1.00  0.00    -0.000 C 
BRANCH  15  16
ATOM     16  C   UNL     1      -4.386   5.848   4.399  1.00  0.00    -0.000 C 
BRANCH  16  17
ATOM     17  C   UNL     1      -5.820   6.393   4.233  1.00  0.00    -0.000 C 
BRANCH  17  18
ATOM     18  C   UNL     1      -6.678   5.582   3.240  1.00  0.00    -0.000 C 
BRANCH  18  19
ATOM     19  C   UNL     1      -6.959   6.295   1.907  1.00  0.00    -0.003 C 
ATOM     20  C   UNL     1      -5.775   7.128   1.418  1.00  0.00     0.004 C 
ENDBRANCH  18  19
ENDBRANCH  17  18
ENDBRANCH  16  17
ENDBRANCH  15  16
ENDBRANCH  14  15
ENDBRANCH  13  14
ENDBRANCH  12  13
ENDBRANCH   1  12
TORSDOF 16
ENDMDL
MODEL 4
REMARK VINA RESULT:    -6.594      4.549      6.057
REMARK INTER + INTRA:         -14.411
REMARK INTER:                 -13.425
REMARK INTRA:                  -0.986
REMARK UNBOUND:                -1.649
REMARK SMILES CCCCCCCCCCCCCCCCCC(=O)[O-]
REMARK SMILES IDX 10 1 11 2 12 3 13 4 14 5 15 6 16 7 17 8 18 9 19 10 20 11
REMARK SMILES IDX 9 12 8 13 7 14 6 15 5 16 4 17 3 18 2 19 1 20
REMARK H PARENT
REMARK Flexibility Score: inf
ROOT
ATOM      1  C   UNL     1      -4.094   0.590   2.864  1.00  0.00     0.000 C 
ENDROOT
BRANCH   1   2
ATOM      2  C   UNL     1      -5.034   0.412   1.658  1.00  0.00     0.000 C 
BRANCH   2   3
ATOM      3  C   UNL     1      -4.298   0.050   0.350  1.00  0.00     0.000 C 
BRANCH   3   4
ATOM      4  C   UNL     1      -5.134   0.387  -0.897  1.00  0.00     0.000 C 
BRANCH   4   5
ATOM      5  C   UNL     1      -4.307   0.352  -2.192  1.00  0.00     0.000 C 
BRANCH   5   6
ATOM      6  C   UNL     1      -3.188  -0.700  -2.150  1.00  0.00     0.000 C 
BRANCH   6   7
ATOM      7  C   UNL     1      -3.179  -1.542  -3.436  1.00  0.00     0.006 C 
BRANCH   7   8
ATOM      8  C   UNL     1      -4.575  -2.064  -3.799  1.00  0.00     0.053 C 
BRANCH   8   9
ATOM      9  C   UNL     1      -4.703  -3.533  -3.535  1.00  0.00     0.041 C 
ATOM     10  O   UNL     1      -3.970  -4.089  -2.675  1.00  0.00    -0.550 OA
ATOM     11  O   UNL     1      -5.608  -4.294  -4.262  1.00  0.00    -0.550 OA
ENDBRANCH   8   9
ENDBRANCH   7   8
ENDBRANCH   6   7
ENDBRANCH   5   6
ENDBRANCH   4   5
ENDBRANCH   3   4
ENDBRANCH   2   3
ENDBRANCH   1   2
BRANCH   1  12
ATOM     12  C   UNL     1      -4.434   1.825   3.709  1.00  0.00     0.000 C 
BRANCH  12  13
ATOM     13  C   UNL     1      -3.174   2.636   4.031  1.00  0.00    -0.000 C 
BRANCH  13  14
ATOM     14  C   UNL     1      -3.286   3.301   5.410  1.00  0.00    -0.000 C 
BRANCH  14  15
ATOM     15  C   UNL     1      -4.299   4.457   5.432  1.00  0.00    -0.000 C 
BRANCH  15  16
ATOM     16  C   UNL     1      -3.861   5.648   4.562  1.00  0.00    -0.000 C 
BRANCH  16  17
ATOM     17  C   UNL     1      -5.034   6.598   4.241  1.00  0.00    -0.000 C 
BRANCH  17  18
ATOM     18  C   UNL     1      -6.396   5.885   4.135  1.00  0.00    -0.000 C 
BRANCH  18  19
ATOM     19  C   UNL     1      -7.067   5.989   2.756  1.00  0.00    -0.003 C 
ATOM     20  C   UNL     1      -6.182   6.672   1.715  1.00  0.00     0.004 C 
ENDBRANCH  18  19
ENDBRANCH  17  18
ENDBRANCH  16  17
ENDBRANCH  15  16
ENDBRANCH  14  15
ENDBRANCH  13  14
ENDBRANCH  12  13
ENDBRANCH   1  12
TORSDOF 16
ENDMDL
MODEL 5
REMARK VINA RESULT:    -6.551      1.363      2.849
REMARK INTER + INTRA:         -14.327
REMARK INTER:                 -13.111
REMARK INTRA:                  -1.216
REMARK UNBOUND:                -1.649
REMARK SMILES CCCCCCCCCCCCCCCCCC(=O)[O-]
REMARK SMILES IDX 10 1 11 2 12 3 13 4 14 5 15 6 16 7 17 8 18 9 19 10 20 11
REMARK SMILES IDX 9 12 8 13 7 14 6 15 5 16 4 17 3 18 2 19 1 20
REMARK H PARENT
REMARK Flexibility Score: inf
ROOT
ATOM      1  C   UNL     1      -3.340   3.250   5.453  1.00  0.00     0.000 C 
ENDROOT
BRANCH   1   2
ATOM      2  C   UNL     1      -3.241   2.620   4.053  1.00  0.00     0.000 C 
BRANCH   2   3
ATOM      3  C   UNL     1      -4.578   2.040   3.541  1.00  0.00     0.000 C 
BRANCH   3   4
ATOM      4  C   UNL     1      -4.432   0.586   3.058  1.00  0.00     0.000 C 
BRANCH   4   5
ATOM      5  C   UNL     1      -5.730  -0.221   3.209  1.00  0.00     0.000 C 
BRANCH   5   6
ATOM      6  C   UNL     1      -5.676  -1.218   4.376  1.00  0.00     0.000 C 
BRANCH   6   7
ATOM      7  C   UNL     1      -4.224  -1.609   4.696  1.00  0.00     0.006 C 
BRANCH   7   8
ATOM      8  C   UNL     1      -3.797  -1.156   6.099  1.00  0.00     0.053 C 
BRANCH   8   9
ATOM      9  C   UNL     1      -2.847  -2.127   6.729  1.00  0.00     0.041 C 
ATOM     10  O   UNL     1      -3.023  -3.367   6.593  1.00  0.00    -0.550 OA
ATOM     11  O   UNL     1      -1.784  -1.665   7.494  1.00  0.00    -0.550 OA
ENDBRANCH   8   9
ENDBRANCH   7   8
ENDBRANCH   6   7
ENDBRANCH   5   6
ENDBRANCH   4   5
ENDBRANCH   3   4
ENDBRANCH   2   3
ENDBRANCH   1   2
BRANCH   1  12
ATOM     12  C   UNL     1      -4.348   4.405   5.519  1.00  0.00     0.000 C 
BRANCH  12  13
ATOM     13  C   UNL     1      -3.865   5.605   4.695  1.00  0.00    -0.000 C 
BRANCH  13  14
ATOM     14  C   UNL     1      -5.030   6.549   4.366  1.00  0.00    -0.000 C 
BRANCH  14  15
ATOM     15  C   UNL     1      -6.152   5.857   3.575  1.00  0.00    -0.000 C 
BRANCH  15  16
ATOM     16  C   UNL     1      -6.256   6.363   2.126  1.00  0.00    -0.000 C 
BRANCH  16  17
ATOM     17  C   UNL     1      -7.676   6.185   1.547  1.00  0.00    -0.000 C 
BRANCH  17  18
ATOM     18  C   UNL     1      -8.694   5.634   2.566  1.00  0.00    -0.000 C 
BRANCH  18  19
ATOM     19  C   UNL     1     -10.163   5.741   2.124  1.00  0.00    -0.003 C 
ATOM     20  C   UNL     1     -10.315   5.967   0.620  1.00  0.00     0.004 C 
ENDBRANCH  18  19
ENDBRANCH  17  18
ENDBRANCH  16  17
ENDBRANCH  15  16
ENDBRANCH  14  15
ENDBRANCH  13  14
ENDBRANCH  12  13
ENDBRANCH   1  12
TORSDOF 16
ENDMDL
MODEL 6
REMARK VINA RESULT:    -6.381      4.161      5.793
REMARK INTER + INTRA:         -13.998
REMARK INTER:                 -13.293
REMARK INTRA:                  -0.705
REMARK UNBOUND:                -1.649
REMARK SMILES CCCCCCCCCCCCCCCCCC(=O)[O-]
REMARK SMILES IDX 10 1 11 2 12 3 13 4 14 5 15 6 16 7 17 8 18 9 19 10 20 11
REMARK SMILES IDX 9 12 8 13 7 14 6 15 5 16 4 17 3 18 2 19 1 20
REMARK H PARENT
REMARK Flexibility Score: inf
ROOT
ATOM      1  C   UNL     1      -3.959   1.511   4.235  1.00  0.00     0.000 C 
ENDROOT
BRANCH   1   2
ATOM      2  C   UNL     1      -4.792   1.415   2.944  1.00  0.00     0.000 C 
BRANCH   2   3
ATOM      3  C   UNL     1      -4.299   0.322   1.971  1.00  0.00     0.000 C 
BRANCH   3   4
ATOM      4  C   UNL     1      -4.901   0.486   0.564  1.00  0.00     0.000 C 
BRANCH   4   5
ATOM      5  C   UNL     1      -4.041  -0.169  -0.527  1.00  0.00     0.000 C 
BRANCH   5   6
ATOM      6  C   UNL     1      -4.575   0.099  -1.942  1.00  0.00     0.000 C 
BRANCH   6   7
ATOM      7  C   UNL     1      -3.441   0.036  -2.978  1.00  0.00     0.006 C 
BRANCH   7   8
ATOM      8  C   UNL     1      -3.532  -1.213  -3.864  1.00  0.00     0.053 C 
BRANCH   8   9
ATOM      9  C   UNL     1      -3.094  -2.445  -3.132  1.00  0.00     0.041 C 
ATOM     10  O   UNL     1      -1.922  -2.532  -2.681  1.00  0.00    -0.550 OA
ATOM     11  O   UNL     1      -3.971  -3.510  -2.977  1.00  0.00    -0.550 OA
ENDBRANCH   8   9
ENDBRANCH   7   8
ENDBRANCH   6   7
ENDBRANCH   5   6
ENDBRANCH   4   5
ENDBRANCH   3   4
ENDBRANCH   2   3
ENDBRANCH   1   2
BRANCH   1  12
ATOM     12  C   UNL     1      -3.165   2.819   4.338  1.00  0.00     0.000 C 
BRANCH  12  13
ATOM     13  C   UNL     1      -3.728   3.721   5.443  1.00  0.00    -0.000 C 
BRANCH  13  14
ATOM     14  C   UNL     1      -4.010   5.133   4.911  1.00  0.00    -0.000 C 
BRANCH  14  15
ATOM     15  C   UNL     1      -5.466   5.315   4.453  1.00  0.00    -0.000 C 
BRANCH  15  16
ATOM     16  C   UNL     1      -5.664   6.570   3.584  1.00  0.00    -0.000 C 
BRANCH  16  17
ATOM     17  C   UNL     1      -6.520   6.284   2.332  1.00  0.00    -0.000 C 
BRANCH  17  18
ATOM     18  C   UNL     1      -7.953   5.818   2.658  1.00  0.00    -0.000 C 
BRANCH  18  19
ATOM     19  C   UNL     1      -8.940   5.917   1.483  1.00  0.00    -0.003 C 
ATOM     20  C   UNL     1     -10.400   5.831   1.926  1.00  0.00     0.004 C 
ENDBRANCH  18  19
ENDBRANCH  17  18
ENDBRANCH  16  17
ENDBRANCH  15  16
ENDBRANCH  14  15
ENDBRANCH  13  14
ENDBRANCH  12  13
ENDBRANCH   1  12
TORSDOF 16
ENDMDL
MODEL 7
REMARK VINA RESULT:    -6.347      4.039      8.186
REMARK INTER + INTRA:         -13.932
REMARK INTER:                 -12.755
REMARK INTRA:                  -1.177
REMARK UNBOUND:                -1.649
REMARK SMILES CCCCCCCCCCCCCCCCCC(=O)[O-]
REMARK SMILES IDX 10 1 11 2 12 3 13 4 14 5 15 6 16 7 17 8 18 9 19 10 20 11
REMARK SMILES IDX 9 12 8 13 7 14 6 15 5 16 4 17 3 18 2 19 1 20
REMARK H PARENT
REMARK Flexibility Score: inf
ROOT
ATOM      1  C   UNL     1      -4.734   4.881   5.569  1.00  0.00     0.000 C 
ENDROOT
BRANCH   1   2
ATOM      2  C   UNL     1      -4.545   5.691   4.275  1.00  0.00     0.000 C 
BRANCH   2   3
ATOM      3  C   UNL     1      -5.841   6.361   3.770  1.00  0.00     0.000 C 
BRANCH   3   4
ATOM      4  C   UNL     1      -5.732   6.799   2.299  1.00  0.00     0.000 C 
BRANCH   4   5
ATOM      5  C   UNL     1      -6.967   6.412   1.472  1.00  0.00     0.000 C 
BRANCH   5   6
ATOM      6  C   UNL     1      -8.091   5.814   2.332  1.00  0.00     0.000 C 
BRANCH   6   7
ATOM      7  C   UNL     1      -9.442   5.899   1.605  1.00  0.00     0.006 C 
BRANCH   7   8
ATOM      8  C   UNL     1     -10.591   6.267   2.554  1.00  0.00     0.053 C 
BRANCH   8   9
ATOM      9  C   UNL     1     -10.774   5.239   3.627  1.00  0.00     0.041 C 
ATOM     10  O   UNL     1     -10.909   4.024   3.326  1.00  0.00    -0.550 OA
ATOM     11  O   UNL     1     -10.827   5.627   4.959  1.00  0.00    -0.550 OA
ENDBRANCH   8   9
ENDBRANCH   7   8
ENDBRANCH   6   7
ENDBRANCH   5   6
ENDBRANCH   4   5
ENDBRANCH   3   4
ENDBRANCH   2   3
ENDBRANCH   1   2
BRANCH   1  12
ATOM     12  C   UNL     1      -3.643   3.821   5.775  1.00  0.00     0.000 C 
BRANCH  12  13
ATOM     13  C   UNL     1      -3.189   3.230   4.435  1.00  0.00    -0.000 C 
BRANCH  13  14
ATOM     14  C   UNL     1      -3.611   1.759   4.312  1.00  0.00    -0.000 C 
BRANCH  14  15
ATOM     15  C   UNL     1      -4.531   1.505   3.107  1.00  0.00    -0.000 C 
BRANCH  15  16
ATOM     16  C   UNL     1      -5.294   0.172   3.213  1.00  0.00    -0.000 C 
BRANCH  16  17
ATOM     17  C   UNL     1      -4.389  -0.981   3.696  1.00  0.00    -0.000 C 
BRANCH  17  18
ATOM     18  C   UNL     1      -4.869  -1.636   5.006  1.00  0.00    -0.000 C 
BRANCH  18  19
ATOM     19  C   UNL     1      -3.741  -2.119   5.931  1.00  0.00    -0.003 C 
ATOM     20  C   UNL     1      -3.238  -1.026   6.874  1.00  0.00     0.004 C 
ENDBRANCH  18  19
ENDBRANCH  17  18
ENDBRANCH  16  17
ENDBRANCH  15  16
ENDBRANCH  14  15
ENDBRANCH  13  14
ENDBRANCH  12  13
ENDBRANCH   1  12
TORSDOF 16
ENDMDL
MODEL 8
REMARK VINA RESULT:    -6.321      1.937      2.387
REMARK INTER + INTRA:         -13.882
REMARK INTER:                 -13.010
REMARK INTRA:                  -0.872
REMARK UNBOUND:                -1.649
REMARK SMILES CCCCCCCCCCCCCCCCCC(=O)[O-]
REMARK SMILES IDX 10 1 11 2 12 3 13 4 14 5 15 6 16 7 17 8 18 9 19 10 20 11
REMARK SMILES IDX 9 12 8 13 7 14 6 15 5 16 4 17 3 18 2 19 1 20
REMARK H PARENT
REMARK Flexibility Score: inf
ROOT
ATOM      1  C   UNL     1      -4.525   0.823   2.761  1.00  0.00     0.000 C 
ENDROOT
BRANCH   1   2
ATOM      2  C   UNL     1      -5.782  -0.060   2.848  1.00  0.00     0.000 C 
BRANCH   2   3
ATOM      3  C   UNL     1      -5.786  -1.011   4.064  1.00  0.00     0.000 C 
BRANCH   3   4
ATOM      4  C   UNL     1      -4.362  -1.396   4.503  1.00  0.00     0.000 C 
BRANCH   4   5
ATOM      5  C   UNL     1      -4.351  -2.317   5.733  1.00  0.00     0.000 C 
BRANCH   5   6
ATOM      6  C   UNL     1      -3.076  -2.163   6.576  1.00  0.00     0.000 C 
BRANCH   6   7
ATOM      7  C   UNL     1      -2.619  -3.520   7.133  1.00  0.00     0.006 C 
BRANCH   7   8
ATOM      8  C   UNL     1      -3.505  -4.675   6.647  1.00  0.00     0.053 C 
BRANCH   8   9
ATOM      9  C   UNL     1      -3.017  -5.998   7.153  1.00  0.00     0.041 C 
ATOM     10  O   UNL     1      -2.482  -6.085   8.289  1.00  0.00    -0.550 OA
ATOM     11  O   UNL     1      -3.124  -7.130   6.355  1.00  0.00    -0.550 OA
ENDBRANCH   8   9
ENDBRANCH   7   8
ENDBRANCH   6   7
ENDBRANCH   5   6
ENDBRANCH   4   5
ENDBRANCH   3   4
ENDBRANCH   2   3
ENDBRANCH   1   2
BRANCH   1  12
ATOM     12  C   UNL     1      -4.585   2.041   3.693  1.00  0.00     0.000 C 
BRANCH  12  13
ATOM     13  C   UNL     1      -3.179   2.577   3.991  1.00  0.00    -0.000 C 
BRANCH  13  14
ATOM     14  C   UNL     1      -3.201   3.542   5.185  1.00  0.00    -0.000 C 
BRANCH  14  15
ATOM     15  C   UNL     1      -3.573   4.978   4.782  1.00  0.00    -0.000 C 
BRANCH  15  16
ATOM     16  C   UNL     1      -5.052   5.306   5.049  1.00  0.00    -0.000 C 
BRANCH  16  17
ATOM     17  C   UNL     1      -5.612   6.335   4.045  1.00  0.00    -0.000 C 
BRANCH  17  18
ATOM     18  C   UNL     1      -6.883   5.857   3.315  1.00  0.00    -0.000 C 
BRANCH  18  19
ATOM     19  C   UNL     1      -6.980   6.296   1.845  1.00  0.00    -0.003 C 
ATOM     20  C   UNL     1      -5.740   7.052   1.368  1.00  0.00     0.004 C 
ENDBRANCH  18  19
ENDBRANCH  17  18
ENDBRANCH  16  17
ENDBRANCH  15  16
ENDBRANCH  14  15
ENDBRANCH  13  14
ENDBRANCH  12  13
ENDBRANCH   1  12
TORSDOF 16
ENDMDL
MODEL 9
REMARK VINA RESULT:    -6.285      4.994      6.317
REMARK INTER + INTRA:         -13.812
REMARK INTER:                 -12.890
REMARK INTRA:                  -0.922
REMARK UNBOUND:                -1.649
REMARK SMILES CCCCCCCCCCCCCCCCCC(=O)[O-]
REMARK SMILES IDX 10 1 11 2 12 3 13 4 14 5 15 6 16 7 17 8 18 9 19 10 20 11
REMARK SMILES IDX 9 12 8 13 7 14 6 15 5 16 4 17 3 18 2 19 1 20
REMARK H PARENT
REMARK Flexibility Score: inf
ROOT
ATOM      1  C   UNL     1      -5.193   0.527   2.651  1.00  0.00     0.000 C 
ENDROOT
BRANCH   1   2
ATOM      2  C   UNL     1      -4.337   0.256   1.402  1.00  0.00     0.000 C 
BRANCH   2   3
ATOM      3  C   UNL     1      -5.117   0.393   0.077  1.00  0.00     0.000 C 
BRANCH   3   4
ATOM      4  C   UNL     1      -4.261   0.005  -1.142  1.00  0.00     0.000 C 
BRANCH   4   5
ATOM      5  C   UNL     1      -5.093  -0.609  -2.278  1.00  0.00     0.000 C 
BRANCH   5   6
ATOM      6  C   UNL     1      -4.226  -1.297  -3.343  1.00  0.00     0.000 C 
BRANCH   6   7
ATOM      7  C   UNL     1      -2.745  -1.295  -2.929  1.00  0.00     0.006 C 
BRANCH   7   8
ATOM      8  C   UNL     1      -2.063  -2.641  -3.207  1.00  0.00     0.053 C 
BRANCH   8   9
ATOM      9  C   UNL     1      -1.228  -2.593  -4.450  1.00  0.00     0.041 C 
ATOM     10  O   UNL     1      -0.717  -3.646  -4.913  1.00  0.00    -0.550 OA
ATOM     11  O   UNL     1      -0.988  -1.378  -5.079  1.00  0.00    -0.550 OA
ENDBRANCH   8   9
ENDBRANCH   7   8
ENDBRANCH   6   7
ENDBRANCH   5   6
ENDBRANCH   4   5
ENDBRANCH   3   4
ENDBRANCH   2   3
ENDBRANCH   1   2
BRANCH   1  12
ATOM     12  C   UNL     1      -4.918   1.901   3.277  1.00  0.00     0.000 C 
BRANCH  12  13
ATOM     13  C   UNL     1      -3.592   1.900   4.047  1.00  0.00    -0.000 C 
BRANCH  13  14
ATOM     14  C   UNL     1      -3.326   3.271   4.685  1.00  0.00    -0.000 C 
BRANCH  14  15
ATOM     15  C   UNL     1      -4.595   4.130   4.797  1.00  0.00    -0.000 C 
BRANCH  15  16
ATOM     16  C   UNL     1      -4.353   5.602   4.419  1.00  0.00    -0.000 C 
BRANCH  16  17
ATOM     17  C   UNL     1      -5.671   6.369   4.184  1.00  0.00    -0.000 C 
BRANCH  17  18
ATOM     18  C   UNL     1      -6.654   5.637   3.248  1.00  0.00    -0.000 C 
BRANCH  18  19
ATOM     19  C   UNL     1      -6.896   6.336   1.901  1.00  0.00    -0.003 C 
ATOM     20  C   UNL     1      -5.668   7.093   1.396  1.00  0.00     0.004 C 
ENDBRANCH  18  19
ENDBRANCH  17  18
ENDBRANCH  16  17
ENDBRANCH  15  16
ENDBRANCH  14  15
ENDBRANCH  13  14
ENDBRANCH  12  13
ENDBRANCH   1  12
TORSDOF 16
ENDMDL
