MODEL 1
REMARK VINA RESULT:    -4.240      0.000      0.000
REMARK INTER + INTRA:         -13.205
REMARK INTER:                  -9.693
REMARK INTRA:                  -3.511
REMARK UNBOUND:                -3.511
REMARK SMILES CCCCCCCCCCCCCCCCCCCCCCCC(=O)[O-]
REMARK SMILES IDX 13 1 14 2 15 3 16 4 17 5 18 6 19 7 20 8 21 9 22 10 23 11
REMARK SMILES IDX 24 12 25 13 26 14 12 15 11 16 10 17 9 18 8 19 7 20 6 21 5 22
REMARK SMILES IDX 4 23 3 24 2 25 1 26
REMARK H PARENT
REMARK Flexibility Score: inf
ROOT
ATOM      1  C   UNL     1      -4.906 -36.495  -9.202  1.00  0.00     0.000 C 
ENDROOT
BRANCH   1   2
ATOM      2  C   UNL     1      -5.903 -37.662  -9.361  1.00  0.00     0.000 C 
BRANCH   2   3
ATOM      3  C   UNL     1      -5.400 -38.845 -10.210  1.00  0.00     0.000 C 
BRANCH   3   4
ATOM      4  C   UNL     1      -5.990 -40.211  -9.814  1.00  0.00     0.000 C 
BRANCH   4   5
ATOM      5  C   UNL     1      -7.120 -40.116  -8.763  1.00  0.00     0.000 C 
BRANCH   5   6
ATOM      6  C   UNL     1      -7.883 -41.437  -8.545  1.00  0.00     0.000 C 
BRANCH   6   7
ATOM      7  C   UNL     1      -8.890 -41.780  -9.660  1.00  0.00     0.000 C 
BRANCH   7   8
ATOM      8  C   UNL     1      -8.443 -42.978 -10.515  1.00  0.00     0.000 C 
BRANCH   8   9
ATOM      9  C   UNL     1      -7.127 -43.607 -10.019  1.00  0.00     0.000 C 
BRANCH   9  10
ATOM     10  C   UNL     1      -6.961 -45.106 -10.331  1.00  0.00     0.006 C 
BRANCH  10  11
ATOM     11  C   UNL     1      -5.554 -45.461 -10.828  1.00  0.00     0.053 C 
BRANCH  11  12
ATOM     12  C   UNL     1      -5.524 -45.522 -12.323  1.00  0.00     0.041 C 
ATOM     13  O   UNL     1      -5.532 -46.635 -12.913  1.00  0.00    -0.550 OA
ATOM     14  O   UNL     1      -5.465 -44.348 -13.066  1.00  0.00    -0.550 OA
ENDBRANCH  11  12
ENDBRANCH  10  11
ENDBRANCH   9  10
ENDBRANCH   8   9
ENDBRANCH   7   8
ENDBRANCH   6   7
ENDBRANCH   5   6
ENDBRANCH   4   5
ENDBRANCH   3   4
ENDBRANCH   2   3
ENDBRANCH   1   2
BRANCH   1  15
ATOM     15  C   UNL     1      -5.530 -35.089  -9.256  1.00  0.00     0.000 C 
BRANCH  15  16
ATOM     16  C   UNL     1      -6.443 -34.888 -10.478  1.00  0.00     0.000 C 
BRANCH  16  17
ATOM     17  C   UNL     1      -7.894 -34.576 -10.080  1.00  0.00     0.000 C 
BRANCH  17  18
ATOM     18  C   UNL     1      -8.896 -35.579 -10.678  1.00  0.00    -0.000 C 
BRANCH  18  19
ATOM     19  C   UNL     1      -9.380 -36.612  -9.649  1.00  0.00    -0.000 C 
BRANCH  19  20
ATOM     20  C   UNL     1      -9.588 -38.004 -10.269  1.00  0.00    -0.000 C 
BRANCH  20  21
ATOM     21  C   UNL     1      -9.217 -38.052 -11.760  1.00  0.00    -0.000 C 
BRANCH  21  22
ATOM     22  C   UNL     1      -8.760 -39.452 -12.208  1.00  0.00    -0.000 C 
BRANCH  22  23
ATOM     23  C   UNL     1      -7.528 -39.406 -13.126  1.00  0.00    -0.000 C 
BRANCH  23  24
ATOM     24  C   UNL     1      -6.773 -40.747 -13.173  1.00  0.00    -0.000 C 
BRANCH  24  25
ATOM     25  C   UNL     1      -6.717 -41.338 -14.590  1.00  0.00    -0.003 C 
ATOM     26  C   UNL     1      -6.802 -40.269 -15.678  1.00  0.00     0.004 C 
ENDBRANCH  24  25
ENDBRANCH  23  24
ENDBRANCH  22  23
ENDBRANCH  21  22
ENDBRANCH  20  21
ENDBRANCH  19  20
ENDBRANCH  18  19
ENDBRANCH  17  18
ENDBRANCH  16  17
ENDBRANCH  15  16
ENDBRANCH   1  15
TORSDOF 22
ENDMDL
MODEL 2
REMARK VINA RESULT:    -4.219      2.222      5.495
REMARK INTER + INTRA:         -13.155
REMARK INTER:                 -10.548
REMARK INTRA:                  -2.608
REMARK UNBOUND:                -3.511
REMARK SMILES CCCCCCCCCCCCCCCCCCCCCCCC(=O)[O-]
REMARK SMILES IDX 13 1 14 2 15 3 16 4 17 5 18 6 19 7 20 8 21 9 22 10 23 11
REMARK SMILES IDX 24 12 25 13 26 14 12 15 11 16 10 17 9 18 8 19 7 20 6 21 5 22
REMARK SMILES IDX 4 23 3 24 2 25 1 26
REMARK H PARENT
REMARK Flexibility Score: inf
ROOT
ATOM      1  C   UNL     1      -9.747 -36.315 -11.274  1.00  0.00     0.000 C 
ENDROOT
BRANCH   1   2
ATOM      2  C   UNL     1      -9.051 -35.629 -10.080  1.00  0.00     0.000 C 
BRANCH   2   3
ATOM      3  C   UNL     1      -7.807 -34.794 -10.436  1.00  0.00     0.000 C 
BRANCH   3   4
ATOM      4  C   UNL     1      -7.086 -34.173  -9.225  1.00  0.00     0.000 C 
BRANCH   4   5
ATOM      5  C   UNL     1      -5.641 -34.690  -9.033  1.00  0.00     0.000 C 
BRANCH   5   6
ATOM      6  C   UNL     1      -5.255 -35.835  -9.988  1.00  0.00     0.000 C 
BRANCH   6   7
ATOM      7  C   UNL     1      -5.149 -37.216  -9.313  1.00  0.00     0.000 C 
BRANCH   7   8
ATOM      8  C   UNL     1      -6.217 -38.205  -9.813  1.00  0.00     0.000 C 
BRANCH   8   9
ATOM      9  C   UNL     1      -7.239 -38.581  -8.722  1.00  0.00     0.000 C 
BRANCH   9  10
ATOM     10  C   UNL     1      -7.522 -40.087  -8.584  1.00  0.00     0.006 C 
BRANCH  10  11
ATOM     11  C   UNL     1      -6.576 -40.953  -9.426  1.00  0.00     0.053 C 
BRANCH  11  12
ATOM     12  C   UNL     1      -7.089 -42.356  -9.516  1.00  0.00     0.041 C 
ATOM     13  O   UNL     1      -6.360 -43.321  -9.163  1.00  0.00    -0.550 OA
ATOM     14  O   UNL     1      -8.364 -42.601 -10.013  1.00  0.00    -0.550 OA
ENDBRANCH  11  12
ENDBRANCH  10  11
ENDBRANCH   9  10
ENDBRANCH   8   9
ENDBRANCH   7   8
ENDBRANCH   6   7
ENDBRANCH   5   6
ENDBRANCH   4   5
ENDBRANCH   3   4
ENDBRANCH   2   3
ENDBRANCH   1   2
BRANCH   1  15
ATOM     15  C   UNL     1      -9.882 -37.844 -11.163  1.00  0.00     0.000 C 
BRANCH  15  16
ATOM     16  C   UNL     1      -9.664 -38.561 -12.507  1.00  0.00     0.000 C 
BRANCH  16  17
ATOM     17  C   UNL     1      -8.300 -39.264 -12.581  1.00  0.00     0.000 C 
BRANCH  17  18
ATOM     18  C   UNL     1      -7.805 -39.439 -14.027  1.00  0.00    -0.000 C 
BRANCH  18  19
ATOM     19  C   UNL     1      -6.787 -40.580 -14.167  1.00  0.00    -0.000 C 
BRANCH  19  20
ATOM     20  C   UNL     1      -6.435 -40.876 -15.635  1.00  0.00    -0.000 C 
BRANCH  20  21
ATOM     21  C   UNL     1      -7.071 -39.873 -16.611  1.00  0.00    -0.000 C 
BRANCH  21  22
ATOM     22  C   UNL     1      -6.673 -40.144 -18.073  1.00  0.00    -0.000 C 
BRANCH  22  23
ATOM     23  C   UNL     1      -6.921 -38.933 -18.987  1.00  0.00    -0.000 C 
BRANCH  23  24
ATOM     24  C   UNL     1      -7.148 -37.631 -18.196  1.00  0.00    -0.000 C 
BRANCH  24  25
ATOM     25  C   UNL     1      -8.528 -37.013 -18.468  1.00  0.00    -0.003 C 
ATOM     26  C   UNL     1      -9.420 -36.994 -17.226  1.00  0.00     0.004 C 
ENDBRANCH  24  25
ENDBRANCH  23  24
ENDBRANCH  22  23
ENDBRANCH  21  22
ENDBRANCH  20  21
ENDBRANCH  19  20
ENDBRANCH  18  19
ENDBRANCH  17  18
ENDBRANCH  16  17
ENDBRANCH  15  16
ENDBRANCH   1  15
TORSDOF 22
ENDMDL
MODEL 3
REMARK VINA RESULT:    -4.072      1.548      4.876
REMARK INTER + INTRA:         -12.821
REMARK INTER:                  -9.077
REMARK INTRA:                  -3.744
REMARK UNBOUND:                -3.511
REMARK SMILES CCCCCCCCCCCCCCCCCCCCCCCC(=O)[O-]
REMARK SMILES IDX 13 1 14 2 15 3 16 4 17 5 18 6 19 7 20 8 21 9 22 10 23 11
REMARK SMILES IDX 24 12 25 13 26 14 12 15 11 16 10 17 9 18 8 19 7 20 6 21 5 22
REMARK SMILES IDX 4 23 3 24 2 25 1 26
REMARK H PARENT
REMARK Flexibility Score: inf
ROOT
ATOM      1  C   UNL     1      -4.888 -35.983  -9.708  1.00  0.00     0.000 C 
ENDROOT
BRANCH   1   2
ATOM      2  C   UNL     1      -5.494 -35.065  -8.626  1.00  0.00     0.000 C 
BRANCH   2   3
ATOM      3  C   UNL     1      -6.580 -34.091  -9.123  1.00  0.00     0.000 C 
BRANCH   3   4
ATOM      4  C   UNL     1      -7.450 -34.638 -10.270  1.00  0.00     0.000 C 
BRANCH   4   5
ATOM      5  C   UNL     1      -8.648 -35.489  -9.786  1.00  0.00     0.000 C 
BRANCH   5   6
ATOM      6  C   UNL     1      -9.545 -36.008 -10.926  1.00  0.00     0.000 C 
BRANCH   6   7
ATOM      7  C   UNL     1      -9.930 -37.495 -10.803  1.00  0.00     0.000 C 
BRANCH   7   8
ATOM      8  C   UNL     1      -9.611 -38.298 -12.076  1.00  0.00     0.000 C 
BRANCH   8   9
ATOM      9  C   UNL     1      -9.570 -39.819 -11.829  1.00  0.00     0.000 C 
BRANCH   9  10
ATOM     10  C   UNL     1      -8.321 -40.535 -12.371  1.00  0.00     0.006 C 
BRANCH  10  11
ATOM     11  C   UNL     1      -7.453 -39.635 -13.260  1.00  0.00     0.053 C 
BRANCH  11  12
ATOM     12  C   UNL     1      -6.873 -40.419 -14.395  1.00  0.00     0.041 C 
ATOM     13  O   UNL     1      -6.270 -41.503 -14.174  1.00  0.00    -0.550 OA
ATOM     14  O   UNL     1      -6.976 -39.940 -15.695  1.00  0.00    -0.550 OA
ENDBRANCH  11  12
ENDBRANCH  10  11
ENDBRANCH   9  10
ENDBRANCH   8   9
ENDBRANCH   7   8
ENDBRANCH   6   7
ENDBRANCH   5   6
ENDBRANCH   4   5
ENDBRANCH   3   4
ENDBRANCH   2   3
ENDBRANCH   1   2
BRANCH   1  15
ATOM     15  C   UNL     1      -4.968 -37.491  -9.406  1.00  0.00     0.000 C 
BRANCH  15  16
ATOM     16  C   UNL     1      -6.111 -38.190 -10.163  1.00  0.00     0.000 C 
BRANCH  16  17
ATOM     17  C   UNL     1      -6.721 -39.349  -9.360  1.00  0.00     0.000 C 
BRANCH  17  18
ATOM     18  C   UNL     1      -7.731 -38.864  -8.304  1.00  0.00    -0.000 C 
BRANCH  18  19
ATOM     19  C   UNL     1      -8.845 -39.889  -8.042  1.00  0.00    -0.000 C 
BRANCH  19  20
ATOM     20  C   UNL     1      -8.482 -41.294  -8.554  1.00  0.00    -0.000 C 
BRANCH  20  21
ATOM     21  C   UNL     1      -9.718 -42.131  -8.918  1.00  0.00    -0.000 C 
BRANCH  21  22
ATOM     22  C   UNL     1      -9.365 -43.354  -9.783  1.00  0.00    -0.000 C 
BRANCH  22  23
ATOM     23  C   UNL     1      -7.868 -43.423 -10.126  1.00  0.00    -0.000 C 
BRANCH  23  24
ATOM     24  C   UNL     1      -7.417 -44.838 -10.532  1.00  0.00    -0.000 C 
BRANCH  24  25
ATOM     25  C   UNL     1      -6.259 -44.817 -11.541  1.00  0.00    -0.003 C 
ATOM     26  C   UNL     1      -5.124 -45.764 -11.155  1.00  0.00     0.004 C 
ENDBRANCH  24  25
ENDBRANCH  23  24
ENDBRANCH  22  23
ENDBRANCH  21  22
ENDBRANCH  20  21
ENDBRANCH  19  20
ENDBRANCH  18  19
ENDBRANCH  17  18
ENDBRANCH  16  17
ENDBRANCH  15  16
ENDBRANCH   1  15
TORSDOF 22
ENDMDL
MODEL 4
REMARK VINA RESULT:    -4.049      4.418      8.108
REMARK INTER + INTRA:         -12.769
REMARK INTER:                 -10.840
REMARK INTRA:                  -1.928
REMARK UNBOUND:                -3.511
REMARK SMILES CCCCCCCCCCCCCCCCCCCCCCCC(=O)[O-]
REMARK SMILES IDX 13 1 14 2 15 3 16 4 17 5 18 6 19 7 20 8 21 9 22 10 23 11
REMARK SMILES IDX 24 12 25 13 26 14 12 15 11 16 10 17 9 18 8 19 7 20 6 21 5 22
REMARK SMILES IDX 4 23 3 24 2 25 1 26
REMARK H PARENT
REMARK Flexibility Score: inf
ROOT
ATOM      1  C   UNL     1      -7.443 -40.317 -12.602  1.00  0.00     0.000 C 
ENDROOT
BRANCH   1   2
ATOM      2  C   UNL     1      -6.943 -40.448 -14.055  1.00  0.00     0.000 C 
BRANCH   2   3
ATOM      3  C   UNL     1      -7.506 -39.406 -15.041  1.00  0.00     0.000 C 
BRANCH   3   4
ATOM      4  C   UNL     1      -7.944 -39.984 -16.399  1.00  0.00     0.000 C 
BRANCH   4   5
ATOM      5  C   UNL     1      -6.884 -39.817 -17.514  1.00  0.00     0.000 C 
BRANCH   5   6
ATOM      6  C   UNL     1      -6.002 -41.062 -17.728  1.00  0.00     0.000 C 
BRANCH   6   7
ATOM      7  C   UNL     1      -5.457 -41.214 -19.161  1.00  0.00     0.000 C 
BRANCH   7   8
ATOM      8  C   UNL     1      -5.553 -39.911 -19.975  1.00  0.00     0.000 C 
BRANCH   8   9
ATOM      9  C   UNL     1      -5.242 -40.117 -21.470  1.00  0.00     0.000 C 
BRANCH   9  10
ATOM     10  C   UNL     1      -3.949 -40.898 -21.767  1.00  0.00     0.006 C 
BRANCH  10  11
ATOM     11  C   UNL     1      -4.213 -42.309 -22.309  1.00  0.00     0.053 C 
BRANCH  11  12
ATOM     12  C   UNL     1      -2.949 -42.917 -22.830  1.00  0.00     0.041 C 
ATOM     13  O   UNL     1      -2.408 -43.876 -22.219  1.00  0.00    -0.550 OA
ATOM     14  O   UNL     1      -2.355 -42.409 -23.979  1.00  0.00    -0.550 OA
ENDBRANCH  11  12
ENDBRANCH  10  11
ENDBRANCH   9  10
ENDBRANCH   8   9
ENDBRANCH   7   8
ENDBRANCH   6   7
ENDBRANCH   5   6
ENDBRANCH   4   5
ENDBRANCH   3   4
ENDBRANCH   2   3
ENDBRANCH   1   2
BRANCH   1  15
ATOM     15  C   UNL     1      -6.376 -39.892 -11.578  1.00  0.00     0.000 C 
BRANCH  15  16
ATOM     16  C   UNL     1      -6.755 -38.608 -10.819  1.00  0.00     0.000 C 
BRANCH  16  17
ATOM     17  C   UNL     1      -6.664 -38.780  -9.295  1.00  0.00     0.000 C 
BRANCH  17  18
ATOM     18  C   UNL     1      -7.751 -37.987  -8.548  1.00  0.00    -0.000 C 
BRANCH  18  19
ATOM     19  C   UNL     1      -8.752 -37.318  -9.502  1.00  0.00    -0.000 C 
BRANCH  19  20
ATOM     20  C   UNL     1      -8.820 -35.794  -9.307  1.00  0.00    -0.000 C 
BRANCH  20  21
ATOM     21  C   UNL     1      -8.213 -35.017 -10.486  1.00  0.00    -0.000 C 
BRANCH  21  22
ATOM     22  C   UNL     1      -6.701 -34.781 -10.319  1.00  0.00    -0.000 C 
BRANCH  22  23
ATOM     23  C   UNL     1      -6.353 -34.113  -8.979  1.00  0.00    -0.000 C 
BRANCH  23  24
ATOM     24  C   UNL     1      -5.515 -35.024  -8.063  1.00  0.00    -0.000 C 
BRANCH  24  25
ATOM     25  C   UNL     1      -4.489 -35.857  -8.845  1.00  0.00    -0.003 C 
ATOM     26  C   UNL     1      -3.086 -35.780  -8.243  1.00  0.00     0.004 C 
ENDBRANCH  24  25
ENDBRANCH  23  24
ENDBRANCH  22  23
ENDBRANCH  21  22
ENDBRANCH  20  21
ENDBRANCH  19  20
ENDBRANCH  18  19
ENDBRANCH  17  18
ENDBRANCH  16  17
ENDBRANCH  15  16
ENDBRANCH   1  15
TORSDOF 22
ENDMDL
MODEL 5
REMARK VINA RESULT:    -4.031      2.938      6.918
REMARK INTER + INTRA:         -12.726
REMARK INTER:                 -10.379
REMARK INTRA:                  -2.347
REMARK UNBOUND:                -3.511
REMARK SMILES CCCCCCCCCCCCCCCCCCCCCCCC(=O)[O-]
REMARK SMILES IDX 13 1 14 2 15 3 16 4 17 5 18 6 19 7 20 8 21 9 22 10 23 11
REMARK SMILES IDX 24 12 25 13 26 14 12 15 11 16 10 17 9 18 8 19 7 20 6 21 5 22
REMARK SMILES IDX 4 23 3 24 2 25 1 26
REMARK H PARENT
REMARK Flexibility Score: inf
ROOT
ATOM      1  C   UNL     1      -7.292 -39.913 -14.329  1.00  0.00     0.000 C 
ENDROOT
BRANCH   1   2
ATOM      2  C   UNL     1      -8.760 -39.942 -14.802  1.00  0.00     0.000 C 
BRANCH   2   3
ATOM      3  C   UNL     1      -9.379 -38.566 -15.112  1.00  0.00     0.000 C 
BRANCH   3   4
ATOM      4  C   UNL     1      -9.765 -38.358 -16.589  1.00  0.00     0.000 C 
BRANCH   4   5
ATOM      5  C   UNL     1      -9.269 -37.015 -17.174  1.00  0.00     0.000 C 
BRANCH   5   6
ATOM      6  C   UNL     1      -7.984 -37.137 -18.017  1.00  0.00     0.000 C 
BRANCH   6   7
ATOM      7  C   UNL     1      -8.055 -38.198 -19.132  1.00  0.00     0.000 C 
BRANCH   7   8
ATOM      8  C   UNL     1      -6.818 -39.111 -19.162  1.00  0.00     0.000 C 
BRANCH   8   9
ATOM      9  C   UNL     1      -6.684 -39.977 -17.894  1.00  0.00     0.000 C 
BRANCH   9  10
ATOM     10  C   UNL     1      -5.865 -41.268 -18.069  1.00  0.00     0.006 C 
BRANCH  10  11
ATOM     11  C   UNL     1      -5.398 -41.865 -16.735  1.00  0.00     0.053 C 
BRANCH  11  12
ATOM     12  C   UNL     1      -4.283 -42.838 -16.956  1.00  0.00     0.041 C 
ATOM     13  O   UNL     1      -3.350 -42.934 -16.116  1.00  0.00    -0.550 OA
ATOM     14  O   UNL     1      -4.262 -43.624 -18.103  1.00  0.00    -0.550 OA
ENDBRANCH  11  12
ENDBRANCH  10  11
ENDBRANCH   9  10
ENDBRANCH   8   9
ENDBRANCH   7   8
ENDBRANCH   6   7
ENDBRANCH   5   6
ENDBRANCH   4   5
ENDBRANCH   3   4
ENDBRANCH   2   3
ENDBRANCH   1   2
BRANCH   1  15
ATOM     15  C   UNL     1      -7.088 -40.097 -12.814  1.00  0.00     0.000 C 
BRANCH  15  16
ATOM     16  C   UNL     1      -7.596 -38.898 -11.994  1.00  0.00     0.000 C 
BRANCH  16  17
ATOM     17  C   UNL     1      -8.157 -39.320 -10.627  1.00  0.00     0.000 C 
BRANCH  17  18
ATOM     18  C   UNL     1      -8.541 -38.114  -9.752  1.00  0.00    -0.000 C 
BRANCH  18  19
ATOM     19  C   UNL     1      -8.753 -36.834 -10.574  1.00  0.00    -0.000 C 
BRANCH  19  20
ATOM     20  C   UNL     1      -8.649 -35.562  -9.716  1.00  0.00    -0.000 C 
BRANCH  20  21
ATOM     21  C   UNL     1      -7.622 -34.558 -10.264  1.00  0.00    -0.000 C 
BRANCH  21  22
ATOM     22  C   UNL     1      -6.687 -34.016  -9.168  1.00  0.00    -0.000 C 
BRANCH  22  23
ATOM     23  C   UNL     1      -6.187 -35.119  -8.221  1.00  0.00    -0.000 C 
BRANCH  23  24
ATOM     24  C   UNL     1      -4.652 -35.149  -8.103  1.00  0.00    -0.000 C 
BRANCH  24  25
ATOM     25  C   UNL     1      -4.024 -36.296  -8.909  1.00  0.00    -0.003 C 
ATOM     26  C   UNL     1      -5.068 -37.258  -9.476  1.00  0.00     0.004 C 
ENDBRANCH  24  25
ENDBRANCH  23  24
ENDBRANCH  22  23
ENDBRANCH  21  22
ENDBRANCH  20  21
ENDBRANCH  19  20
ENDBRANCH  18  19
ENDBRANCH  17  18
ENDBRANCH  16  17
ENDBRANCH  15  16
ENDBRANCH   1  15
TORSDOF 22
ENDMDL
MODEL 6
REMARK VINA RESULT:    -3.972      1.736      5.572
REMARK INTER + INTRA:         -12.592
REMARK INTER:                  -8.693
REMARK INTRA:                  -3.899
REMARK UNBOUND:                -3.511
REMARK SMILES CCCCCCCCCCCCCCCCCCCCCCCC(=O)[O-]
REMARK SMILES IDX 13 1 14 2 15 3 16 4 17 5 18 6 19 7 20 8 21 9 22 10 23 11
REMARK SMILES IDX 24 12 25 13 26 14 12 15 11 16 10 17 9 18 8 19 7 20 6 21 5 22
REMARK SMILES IDX 4 23 3 24 2 25 1 26
REMARK H PARENT
REMARK Flexibility Score: inf
ROOT
ATOM      1  C   UNL     1      -5.660 -38.823  -9.920  1.00  0.00     0.000 C 
ENDROOT
BRANCH   1   2
ATOM      2  C   UNL     1      -6.166 -37.527  -9.253  1.00  0.00     0.000 C 
BRANCH   2   3
ATOM      3  C   UNL     1      -5.425 -36.242  -9.668  1.00  0.00     0.000 C 
BRANCH   3   4
ATOM      4  C   UNL     1      -6.253 -35.282 -10.542  1.00  0.00     0.000 C 
BRANCH   4   5
ATOM      5  C   UNL     1      -7.560 -34.802  -9.867  1.00  0.00     0.000 C 
BRANCH   5   6
ATOM      6  C   UNL     1      -8.841 -35.285 -10.575  1.00  0.00     0.000 C 
BRANCH   6   7
ATOM      7  C   UNL     1      -9.732 -36.204  -9.716  1.00  0.00     0.000 C 
BRANCH   7   8
ATOM      8  C   UNL     1      -9.726 -37.662 -10.206  1.00  0.00     0.000 C 
BRANCH   8   9
ATOM      9  C   UNL     1      -9.303 -37.794 -11.682  1.00  0.00     0.000 C 
BRANCH   9  10
ATOM     10  C   UNL     1      -9.060 -39.235 -12.165  1.00  0.00     0.006 C 
BRANCH  10  11
ATOM     11  C   UNL     1      -7.707 -39.410 -12.869  1.00  0.00     0.053 C 
BRANCH  11  12
ATOM     12  C   UNL     1      -7.894 -40.019 -14.223  1.00  0.00     0.041 C 
ATOM     13  O   UNL     1      -8.464 -41.135 -14.343  1.00  0.00    -0.550 OA
ATOM     14  O   UNL     1      -7.416 -39.364 -15.352  1.00  0.00    -0.550 OA
ENDBRANCH  11  12
ENDBRANCH  10  11
ENDBRANCH   9  10
ENDBRANCH   8   9
ENDBRANCH   7   8
ENDBRANCH   6   7
ENDBRANCH   5   6
ENDBRANCH   4   5
ENDBRANCH   3   4
ENDBRANCH   2   3
ENDBRANCH   1   2
BRANCH   1  15
ATOM     15  C   UNL     1      -6.393 -40.108  -9.494  1.00  0.00     0.000 C 
BRANCH  15  16
ATOM     16  C   UNL     1      -7.464 -39.854  -8.418  1.00  0.00     0.000 C 
BRANCH  16  17
ATOM     17  C   UNL     1      -8.365 -41.078  -8.190  1.00  0.00     0.000 C 
BRANCH  17  18
ATOM     18  C   UNL     1      -9.351 -41.307  -9.349  1.00  0.00    -0.000 C 
BRANCH  18  19
ATOM     19  C   UNL     1      -9.346 -42.760  -9.847  1.00  0.00    -0.000 C 
BRANCH  19  20
ATOM     20  C   UNL     1      -8.746 -42.895 -11.257  1.00  0.00    -0.000 C 
BRANCH  20  21
ATOM     21  C   UNL     1      -7.217 -43.051 -11.239  1.00  0.00    -0.000 C 
BRANCH  21  22
ATOM     22  C   UNL     1      -6.725 -43.882 -10.040  1.00  0.00    -0.000 C 
BRANCH  22  23
ATOM     23  C   UNL     1      -6.504 -45.360 -10.398  1.00  0.00    -0.000 C 
BRANCH  23  24
ATOM     24  C   UNL     1      -5.224 -45.585 -11.225  1.00  0.00    -0.000 C 
BRANCH  24  25
ATOM     25  C   UNL     1      -5.519 -46.182 -12.610  1.00  0.00    -0.003 C 
ATOM     26  C   UNL     1      -5.206 -45.212 -13.749  1.00  0.00     0.004 C 
ENDBRANCH  24  25
ENDBRANCH  23  24
ENDBRANCH  22  23
ENDBRANCH  21  22
ENDBRANCH  20  21
ENDBRANCH  19  20
ENDBRANCH  18  19
ENDBRANCH  17  18
ENDBRANCH  16  17
ENDBRANCH  15  16
ENDBRANCH   1  15
TORSDOF 22
ENDMDL
MODEL 7
REMARK VINA RESULT:    -3.927      4.171      8.761
REMARK INTER + INTRA:         -12.489
REMARK INTER:                 -10.394
REMARK INTRA:                  -2.094
REMARK UNBOUND:                -3.511
REMARK SMILES CCCCCCCCCCCCCCCCCCCCCCCC(=O)[O-]
REMARK SMILES IDX 13 1 14 2 15 3 16 4 17 5 18 6 19 7 20 8 21 9 22 10 23 11
REMARK SMILES IDX 24 12 25 13 26 14 12 15 11 16 10 17 9 18 8 19 7 20 6 21 5 22
REMARK SMILES IDX 4 23 3 24 2 25 1 26
REMARK H PARENT
REMARK Flexibility Score: inf
ROOT
ATOM      1  C   UNL     1      -6.690 -41.214 -16.525  1.00  0.00     0.000 C 
ENDROOT
BRANCH   1   2
ATOM      2  C   UNL     1      -5.401 -42.053 -16.415  1.00  0.00     0.000 C 
BRANCH   2   3
ATOM      3  C   UNL     1      -5.473 -43.455 -17.049  1.00  0.00     0.000 C 
BRANCH   3   4
ATOM      4  C   UNL     1      -4.569 -43.647 -18.281  1.00  0.00     0.000 C 
BRANCH   4   5
ATOM      5  C   UNL     1      -3.758 -42.385 -18.655  1.00  0.00     0.000 C 
BRANCH   5   6
ATOM      6  C   UNL     1      -3.557 -42.198 -20.172  1.00  0.00     0.000 C 
BRANCH   6   7
ATOM      7  C   UNL     1      -4.178 -40.907 -20.740  1.00  0.00     0.000 C 
BRANCH   7   8
ATOM      8  C   UNL     1      -5.627 -40.689 -20.272  1.00  0.00     0.000 C 
BRANCH   8   9
ATOM      9  C   UNL     1      -5.823 -39.344 -19.545  1.00  0.00     0.000 C 
BRANCH   9  10
ATOM     10  C   UNL     1      -7.285 -38.884 -19.408  1.00  0.00     0.006 C 
BRANCH  10  11
ATOM     11  C   UNL     1      -7.468 -37.779 -18.359  1.00  0.00     0.053 C 
BRANCH  11  12
ATOM     12  C   UNL     1      -8.715 -36.998 -18.630  1.00  0.00     0.041 C 
ATOM     13  O   UNL     1      -9.215 -36.982 -19.786  1.00  0.00    -0.550 OA
ATOM     14  O   UNL     1      -9.315 -36.268 -17.610  1.00  0.00    -0.550 OA
ENDBRANCH  11  12
ENDBRANCH  10  11
ENDBRANCH   9  10
ENDBRANCH   8   9
ENDBRANCH   7   8
ENDBRANCH   6   7
ENDBRANCH   5   6
ENDBRANCH   4   5
ENDBRANCH   3   4
ENDBRANCH   2   3
ENDBRANCH   1   2
BRANCH   1  15
ATOM     15  C   UNL     1      -6.905 -40.193 -15.392  1.00  0.00     0.000 C 
BRANCH  15  16
ATOM     16  C   UNL     1      -6.525 -40.749 -14.009  1.00  0.00     0.000 C 
BRANCH  16  17
ATOM     17  C   UNL     1      -7.340 -40.105 -12.876  1.00  0.00     0.000 C 
BRANCH  17  18
ATOM     18  C   UNL     1      -7.054 -40.748 -11.507  1.00  0.00    -0.000 C 
BRANCH  18  19
ATOM     19  C   UNL     1      -7.895 -40.129 -10.380  1.00  0.00    -0.000 C 
BRANCH  19  20
ATOM     20  C   UNL     1      -7.177 -38.959  -9.686  1.00  0.00    -0.000 C 
BRANCH  20  21
ATOM     21  C   UNL     1      -5.674 -38.913 -10.004  1.00  0.00    -0.000 C 
BRANCH  21  22
ATOM     22  C   UNL     1      -5.035 -37.565  -9.625  1.00  0.00    -0.000 C 
BRANCH  22  23
ATOM     23  C   UNL     1      -6.059 -36.560  -9.073  1.00  0.00    -0.000 C 
BRANCH  23  24
ATOM     24  C   UNL     1      -5.847 -35.136  -9.620  1.00  0.00    -0.000 C 
BRANCH  24  25
ATOM     25  C   UNL     1      -7.173 -34.411  -9.895  1.00  0.00    -0.003 C 
ATOM     26  C   UNL     1      -8.315 -35.373 -10.221  1.00  0.00     0.004 C 
ENDBRANCH  24  25
ENDBRANCH  23  24
ENDBRANCH  22  23
ENDBRANCH  21  22
ENDBRANCH  20  21
ENDBRANCH  19  20
ENDBRANCH  18  19
ENDBRANCH  17  18
ENDBRANCH  16  17
ENDBRANCH  15  16
ENDBRANCH   1  15
TORSDOF 22
ENDMDL
MODEL 8
REMARK VINA RESULT:    -3.884      1.259      5.458
REMARK INTER + INTRA:         -12.390
REMARK INTER:                  -9.231
REMARK INTRA:                  -3.159
REMARK UNBOUND:                -3.511
REMARK SMILES CCCCCCCCCCCCCCCCCCCCCCCC(=O)[O-]
REMARK SMILES IDX 13 1 14 2 15 3 16 4 17 5 18 6 19 7 20 8 21 9 22 10 23 11
REMARK SMILES IDX 24 12 25 13 26 14 12 15 11 16 10 17 9 18 8 19 7 20 6 21 5 22
REMARK SMILES IDX 4 23 3 24 2 25 1 26
REMARK H PARENT
REMARK Flexibility Score: inf
ROOT
ATOM      1  C   UNL     1      -7.195 -42.641 -10.572  1.00  0.00     0.000 C 
ENDROOT
BRANCH   1   2
ATOM      2  C   UNL     1      -8.711 -42.574 -10.852  1.00  0.00     0.000 C 
BRANCH   2   3
ATOM      3  C   UNL     1      -9.119 -41.708 -12.059  1.00  0.00     0.000 C 
BRANCH   3   4
ATOM      4  C   UNL     1      -9.063 -40.191 -11.805  1.00  0.00     0.000 C 
BRANCH   4   5
ATOM      5  C   UNL     1      -8.459 -39.388 -12.980  1.00  0.00     0.000 C 
BRANCH   5   6
ATOM      6  C   UNL     1      -7.157 -39.989 -13.543  1.00  0.00     0.000 C 
BRANCH   6   7
ATOM      7  C   UNL     1      -7.102 -40.054 -15.082  1.00  0.00     0.000 C 
BRANCH   7   8
ATOM      8  C   UNL     1      -6.523 -41.383 -15.599  1.00  0.00     0.000 C 
BRANCH   8   9
ATOM      9  C   UNL     1      -5.354 -41.899 -14.740  1.00  0.00     0.000 C 
BRANCH   9  10
ATOM     10  C   UNL     1      -5.277 -43.430 -14.593  1.00  0.00     0.006 C 
BRANCH  10  11
ATOM     11  C   UNL     1      -6.498 -44.024 -13.878  1.00  0.00     0.053 C 
BRANCH  11  12
ATOM     12  C   UNL     1      -6.078 -45.094 -12.921  1.00  0.00     0.041 C 
ATOM     13  O   UNL     1      -4.856 -45.351 -12.753  1.00  0.00    -0.550 OA
ATOM     14  O   UNL     1      -7.037 -45.825 -12.229  1.00  0.00    -0.550 OA
ENDBRANCH  11  12
ENDBRANCH  10  11
ENDBRANCH   9  10
ENDBRANCH   8   9
ENDBRANCH   7   8
ENDBRANCH   6   7
ENDBRANCH   5   6
ENDBRANCH   4   5
ENDBRANCH   3   4
ENDBRANCH   2   3
ENDBRANCH   1   2
BRANCH   1  15
ATOM     15  C   UNL     1      -6.759 -42.108  -9.195  1.00  0.00     0.000 C 
BRANCH  15  16
ATOM     16  C   UNL     1      -7.897 -41.393  -8.445  1.00  0.00     0.000 C 
BRANCH  16  17
ATOM     17  C   UNL     1      -7.687 -39.872  -8.375  1.00  0.00     0.000 C 
BRANCH  17  18
ATOM     18  C   UNL     1      -6.523 -39.398  -9.263  1.00  0.00    -0.000 C 
BRANCH  18  19
ATOM     19  C   UNL     1      -6.355 -37.871  -9.249  1.00  0.00    -0.000 C 
BRANCH  19  20
ATOM     20  C   UNL     1      -4.924 -37.434  -9.601  1.00  0.00    -0.000 C 
BRANCH  20  21
ATOM     21  C   UNL     1      -4.657 -35.956  -9.277  1.00  0.00    -0.000 C 
BRANCH  21  22
ATOM     22  C   UNL     1      -5.711 -35.364  -8.324  1.00  0.00    -0.000 C 
BRANCH  22  23
ATOM     23  C   UNL     1      -6.416 -34.133  -8.915  1.00  0.00    -0.000 C 
BRANCH  23  24
ATOM     24  C   UNL     1      -7.289 -34.479 -10.136  1.00  0.00    -0.000 C 
BRANCH  24  25
ATOM     25  C   UNL     1      -8.634 -35.105  -9.735  1.00  0.00    -0.003 C 
ATOM     26  C   UNL     1      -9.283 -35.887 -10.877  1.00  0.00     0.004 C 
ENDBRANCH  24  25
ENDBRANCH  23  24
ENDBRANCH  22  23
ENDBRANCH  21  22
ENDBRANCH  20  21
ENDBRANCH  19  20
ENDBRANCH  18  19
ENDBRANCH  17  18
ENDBRANCH  16  17
ENDBRANCH  15  16
ENDBRANCH   1  15
TORSDOF 22
ENDMDL
MODEL 9
REMARK VINA RESULT:    -3.847      1.911      5.472
REMARK INTER + INTRA:         -12.306
REMARK INTER:                  -9.536
REMARK INTRA:                  -2.770
REMARK UNBOUND:                -3.511
REMARK SMILES CCCCCCCCCCCCCCCCCCCCCCCC(=O)[O-]
REMARK SMILES IDX 13 1 14 2 15 3 16 4 17 5 18 6 19 7 20 8 21 9 22 10 23 11
REMARK SMILES IDX 24 12 25 13 26 14 12 15 11 16 10 17 9 18 8 19 7 20 6 21 5 22
REMARK SMILES IDX 4 23 3 24 2 25 1 26
REMARK H PARENT
REMARK Flexibility Score: inf
ROOT
ATOM      1  C   UNL     1      -9.047 -40.939 -10.761  1.00  0.00     0.000 C 
ENDROOT
BRANCH   1   2
ATOM      2  C   UNL     1      -8.794 -41.220 -12.256  1.00  0.00     0.000 C 
BRANCH   2   3
ATOM      3  C   UNL     1      -7.883 -40.204 -12.971  1.00  0.00     0.000 C 
BRANCH   3   4
ATOM      4  C   UNL     1      -6.455 -40.709 -13.245  1.00  0.00     0.000 C 
BRANCH   4   5
ATOM      5  C   UNL     1      -6.387 -41.824 -14.315  1.00  0.00     0.000 C 
BRANCH   5   6
ATOM      6  C   UNL     1      -5.632 -43.086 -13.855  1.00  0.00     0.000 C 
BRANCH   6   7
ATOM      7  C   UNL     1      -6.500 -44.096 -13.079  1.00  0.00     0.000 C 
BRANCH   7   8
ATOM      8  C   UNL     1      -5.667 -45.033 -12.187  1.00  0.00     0.000 C 
BRANCH   8   9
ATOM      9  C   UNL     1      -5.582 -46.467 -12.743  1.00  0.00     0.000 C 
BRANCH   9  10
ATOM     10  C   UNL     1      -5.299 -46.567 -14.253  1.00  0.00     0.006 C 
BRANCH  10  11
ATOM     11  C   UNL     1      -3.801 -46.578 -14.581  1.00  0.00     0.053 C 
BRANCH  11  12
ATOM     12  C   UNL     1      -3.351 -47.959 -14.940  1.00  0.00     0.041 C 
ATOM     13  O   UNL     1      -2.342 -48.126 -15.676  1.00  0.00    -0.550 OA
ATOM     14  O   UNL     1      -4.060 -49.063 -14.481  1.00  0.00    -0.550 OA
ENDBRANCH  11  12
ENDBRANCH  10  11
ENDBRANCH   9  10
ENDBRANCH   8   9
ENDBRANCH   7   8
ENDBRANCH   6   7
ENDBRANCH   5   6
ENDBRANCH   4   5
ENDBRANCH   3   4
ENDBRANCH   2   3
ENDBRANCH   1   2
BRANCH   1  15
ATOM     15  C   UNL     1      -8.080 -41.641  -9.790  1.00  0.00     0.000 C 
BRANCH  15  16
ATOM     16  C   UNL     1      -7.232 -40.650  -8.973  1.00  0.00     0.000 C 
BRANCH  16  17
ATOM     17  C   UNL     1      -5.999 -40.159  -9.748  1.00  0.00     0.000 C 
BRANCH  17  18
ATOM     18  C   UNL     1      -5.943 -38.624  -9.851  1.00  0.00    -0.000 C 
BRANCH  18  19
ATOM     19  C   UNL     1      -7.234 -37.954  -9.358  1.00  0.00    -0.000 C 
BRANCH  19  20
ATOM     20  C   UNL     1      -7.988 -37.231 -10.487  1.00  0.00    -0.000 C 
BRANCH  20  21
ATOM     21  C   UNL     1      -8.078 -35.713 -10.264  1.00  0.00    -0.000 C 
BRANCH  21  22
ATOM     22  C   UNL     1      -6.706 -35.021 -10.368  1.00  0.00    -0.000 C 
BRANCH  22  23
ATOM     23  C   UNL     1      -6.369 -34.188  -9.122  1.00  0.00    -0.000 C 
BRANCH  23  24
ATOM     24  C   UNL     1      -5.403 -34.913  -8.167  1.00  0.00    -0.000 C 
BRANCH  24  25
ATOM     25  C   UNL     1      -4.284 -35.653  -8.916  1.00  0.00    -0.003 C 
ATOM     26  C   UNL     1      -2.983 -35.719  -8.116  1.00  0.00     0.004 C 
ENDBRANCH  24  25
ENDBRANCH  23  24
ENDBRANCH  22  23
ENDBRANCH  21  22
ENDBRANCH  20  21
ENDBRANCH  19  20
ENDBRANCH  18  19
ENDBRANCH  17  18
ENDBRANCH  16  17
ENDBRANCH  15  16
ENDBRANCH   1  15
TORSDOF 22
ENDMDL
