MODEL 1
REMARK VINA RESULT:    -5.750      0.000      0.000
REMARK INTER + INTRA:         -16.213
REMARK INTER:                 -13.145
REMARK INTRA:                  -3.068
REMARK UNBOUND:                -3.068
REMARK SMILES CCCCCCCCCCCCCCCCCCCCCCCC(=O)[O-]
REMARK SMILES IDX 13 1 14 2 15 3 16 4 17 5 18 6 19 7 20 8 21 9 22 10 23 11
REMARK SMILES IDX 24 12 25 13 26 14 12 15 11 16 10 17 9 18 8 19 7 20 6 21 5 22
REMARK SMILES IDX 4 23 3 24 2 25 1 26
REMARK H PARENT
REMARK Flexibility Score: inf
ROOT
ATOM      1  C   UNL     1     -30.238   0.356  26.511  1.00  0.00     0.000 C 
ENDROOT
BRANCH   1   2
ATOM      2  C   UNL     1     -30.817  -0.518  25.379  1.00  0.00     0.000 C 
BRANCH   2   3
ATOM      3  C   UNL     1     -30.793   0.127  23.979  1.00  0.00     0.000 C 
BRANCH   3   4
ATOM      4  C   UNL     1     -29.780   1.277  23.808  1.00  0.00     0.000 C 
BRANCH   4   5
ATOM      5  C   UNL     1     -28.833   1.128  22.603  1.00  0.00     0.000 C 
BRANCH   5   6
ATOM      6  C   UNL     1     -27.350   1.211  23.001  1.00  0.00     0.000 C 
BRANCH   6   7
ATOM      7  C   UNL     1     -26.947   0.124  24.009  1.00  0.00     0.000 C 
BRANCH   7   8
ATOM      8  C   UNL     1     -26.840  -1.269  23.366  1.00  0.00     0.000 C 
BRANCH   8   9
ATOM      9  C   UNL     1     -28.003  -2.198  23.780  1.00  0.00     0.000 C 
BRANCH   9  10
ATOM     10  C   UNL     1     -28.960  -2.543  22.623  1.00  0.00     0.006 C 
BRANCH  10  11
ATOM     11  C   UNL     1     -28.367  -2.312  21.225  1.00  0.00     0.053 C 
BRANCH  11  12
ATOM     12  C   UNL     1     -29.227  -1.412  20.392  1.00  0.00     0.041 C 
ATOM     13  O   UNL     1     -28.703  -0.641  19.546  1.00  0.00    -0.550 OA
ATOM     14  O   UNL     1     -30.606  -1.411  20.562  1.00  0.00    -0.550 OA
ENDBRANCH  11  12
ENDBRANCH  10  11
ENDBRANCH   9  10
ENDBRANCH   8   9
ENDBRANCH   7   8
ENDBRANCH   6   7
ENDBRANCH   5   6
ENDBRANCH   4   5
ENDBRANCH   3   4
ENDBRANCH   2   3
ENDBRANCH   1   2
BRANCH   1  15
ATOM     15  C   UNL     1     -28.905  -0.140  27.098  1.00  0.00     0.000 C 
BRANCH  15  16
ATOM     16  C   UNL     1     -28.665   0.348  28.535  1.00  0.00     0.000 C 
BRANCH  16  17
ATOM     17  C   UNL     1     -29.833   1.220  29.018  1.00  0.00     0.000 C 
BRANCH  17  18
ATOM     18  C   UNL     1     -29.776   1.500  30.527  1.00  0.00    -0.000 C 
BRANCH  18  19
ATOM     19  C   UNL     1     -28.742   0.621  31.252  1.00  0.00    -0.000 C 
BRANCH  19  20
ATOM     20  C   UNL     1     -28.178   1.298  32.521  1.00  0.00    -0.000 C 
BRANCH  20  21
ATOM     21  C   UNL     1     -27.797   2.778  32.319  1.00  0.00    -0.000 C 
BRANCH  21  22
ATOM     22  C   UNL     1     -28.429   3.755  33.327  1.00  0.00    -0.000 C 
BRANCH  22  23
ATOM     23  C   UNL     1     -29.714   3.245  34.011  1.00  0.00    -0.000 C 
BRANCH  23  24
ATOM     24  C   UNL     1     -31.015   3.473  33.217  1.00  0.00    -0.000 C 
BRANCH  24  25
ATOM     25  C   UNL     1     -32.206   2.603  33.656  1.00  0.00    -0.003 C 
ATOM     26  C   UNL     1     -31.922   1.106  33.542  1.00  0.00     0.004 C 
ENDBRANCH  24  25
ENDBRANCH  23  24
ENDBRANCH  22  23
ENDBRANCH  21  22
ENDBRANCH  20  21
ENDBRANCH  19  20
ENDBRANCH  18  19
ENDBRANCH  17  18
ENDBRANCH  16  17
ENDBRANCH  15  16
ENDBRANCH   1  15
TORSDOF 22
ENDMDL
MODEL 2
REMARK VINA RESULT:    -5.582      1.195      2.333
REMARK INTER + INTRA:         -15.830
REMARK INTER:                 -13.170
REMARK INTRA:                  -2.660
REMARK UNBOUND:                -3.068
REMARK SMILES CCCCCCCCCCCCCCCCCCCCCCCC(=O)[O-]
REMARK SMILES IDX 13 1 14 2 15 3 16 4 17 5 18 6 19 7 20 8 21 9 22 10 23 11
REMARK SMILES IDX 24 12 25 13 26 14 12 15 11 16 10 17 9 18 8 19 7 20 6 21 5 22
REMARK SMILES IDX 4 23 3 24 2 25 1 26
REMARK H PARENT
REMARK Flexibility Score: inf
ROOT
ATOM      1  C   UNL     1     -27.907  -0.964  25.715  1.00  0.00     0.000 C 
ENDROOT
BRANCH   1   2
ATOM      2  C   UNL     1     -27.032  -0.897  24.447  1.00  0.00     0.000 C 
BRANCH   2   3
ATOM      3  C   UNL     1     -26.926   0.498  23.798  1.00  0.00     0.000 C 
BRANCH   3   4
ATOM      4  C   UNL     1     -27.718   0.668  22.487  1.00  0.00     0.000 C 
BRANCH   4   5
ATOM      5  C   UNL     1     -28.990   1.529  22.608  1.00  0.00     0.000 C 
BRANCH   5   6
ATOM      6  C   UNL     1     -29.924   1.050  23.731  1.00  0.00     0.000 C 
BRANCH   6   7
ATOM      7  C   UNL     1     -31.383   0.912  23.268  1.00  0.00     0.000 C 
BRANCH   7   8
ATOM      8  C   UNL     1     -31.642  -0.402  22.513  1.00  0.00     0.000 C 
BRANCH   8   9
ATOM      9  C   UNL     1     -30.737  -1.552  23.007  1.00  0.00     0.000 C 
BRANCH   9  10
ATOM     10  C   UNL     1     -29.806  -2.118  21.917  1.00  0.00     0.006 C 
BRANCH  10  11
ATOM     11  C   UNL     1     -29.950  -1.434  20.549  1.00  0.00     0.053 C 
BRANCH  11  12
ATOM     12  C   UNL     1     -28.938  -1.933  19.564  1.00  0.00     0.041 C 
ATOM     13  O   UNL     1     -29.001  -3.115  19.135  1.00  0.00    -0.550 OA
ATOM     14  O   UNL     1     -27.915  -1.099  19.131  1.00  0.00    -0.550 OA
ENDBRANCH  11  12
ENDBRANCH  10  11
ENDBRANCH   9  10
ENDBRANCH   8   9
ENDBRANCH   7   8
ENDBRANCH   6   7
ENDBRANCH   5   6
ENDBRANCH   4   5
ENDBRANCH   3   4
ENDBRANCH   2   3
ENDBRANCH   1   2
BRANCH   1  15
ATOM     15  C   UNL     1     -27.923   0.321  26.562  1.00  0.00     0.000 C 
BRANCH  15  16
ATOM     16  C   UNL     1     -28.624   0.137  27.916  1.00  0.00     0.000 C 
BRANCH  16  17
ATOM     17  C   UNL     1     -29.937   0.932  27.964  1.00  0.00     0.000 C 
BRANCH  17  18
ATOM     18  C   UNL     1     -30.191   1.570  29.338  1.00  0.00    -0.000 C 
BRANCH  18  19
ATOM     19  C   UNL     1     -29.332   0.942  30.449  1.00  0.00    -0.000 C 
BRANCH  19  20
ATOM     20  C   UNL     1     -28.646   2.006  31.336  1.00  0.00    -0.000 C 
BRANCH  20  21
ATOM     21  C   UNL     1     -28.307   1.507  32.755  1.00  0.00    -0.000 C 
BRANCH  21  22
ATOM     22  C   UNL     1     -28.502   2.547  33.873  1.00  0.00    -0.000 C 
BRANCH  22  23
ATOM     23  C   UNL     1     -29.506   3.673  33.548  1.00  0.00    -0.000 C 
BRANCH  23  24
ATOM     24  C   UNL     1     -30.948   3.425  34.032  1.00  0.00    -0.000 C 
BRANCH  24  25
ATOM     25  C   UNL     1     -31.884   2.793  32.987  1.00  0.00    -0.003 C 
ATOM     26  C   UNL     1     -32.264   1.351  33.325  1.00  0.00     0.004 C 
ENDBRANCH  24  25
ENDBRANCH  23  24
ENDBRANCH  22  23
ENDBRANCH  21  22
ENDBRANCH  20  21
ENDBRANCH  19  20
ENDBRANCH  18  19
ENDBRANCH  17  18
ENDBRANCH  16  17
ENDBRANCH  15  16
ENDBRANCH   1  15
TORSDOF 22
ENDMDL
MODEL 3
REMARK VINA RESULT:    -5.551      3.812     10.265
REMARK INTER + INTRA:         -15.759
REMARK INTER:                 -12.820
REMARK INTRA:                  -2.939
REMARK UNBOUND:                -3.068
REMARK SMILES CCCCCCCCCCCCCCCCCCCCCCCC(=O)[O-]
REMARK SMILES IDX 13 1 14 2 15 3 16 4 17 5 18 6 19 7 20 8 21 9 22 10 23 11
REMARK SMILES IDX 24 12 25 13 26 14 12 15 11 16 10 17 9 18 8 19 7 20 6 21 5 22
REMARK SMILES IDX 4 23 3 24 2 25 1 26
REMARK H PARENT
REMARK Flexibility Score: inf
ROOT
ATOM      1  C   UNL     1     -29.192  -0.295  26.976  1.00  0.00     0.000 C 
ENDROOT
BRANCH   1   2
ATOM      2  C   UNL     1     -30.139   0.914  27.116  1.00  0.00     0.000 C 
BRANCH   2   3
ATOM      3  C   UNL     1     -30.358   1.410  28.559  1.00  0.00     0.000 C 
BRANCH   3   4
ATOM      4  C   UNL     1     -29.200   1.112  29.533  1.00  0.00     0.000 C 
BRANCH   4   5
ATOM      5  C   UNL     1     -29.637   0.755  30.965  1.00  0.00     0.000 C 
BRANCH   5   6
ATOM      6  C   UNL     1     -30.850   1.575  31.436  1.00  0.00     0.000 C 
BRANCH   6   7
ATOM      7  C   UNL     1     -31.256   1.254  32.882  1.00  0.00     0.000 C 
BRANCH   7   8
ATOM      8  C   UNL     1     -31.705   2.502  33.661  1.00  0.00     0.000 C 
BRANCH   8   9
ATOM      9  C   UNL     1     -30.769   3.709  33.426  1.00  0.00     0.000 C 
BRANCH   9  10
ATOM     10  C   UNL     1     -29.402   3.578  34.125  1.00  0.00     0.006 C 
BRANCH  10  11
ATOM     11  C   UNL     1     -28.199   3.849  33.209  1.00  0.00     0.053 C 
BRANCH  11  12
ATOM     12  C   UNL     1     -27.373   2.618  32.989  1.00  0.00     0.041 C 
ATOM     13  O   UNL     1     -27.555   1.597  33.705  1.00  0.00    -0.550 OA
ATOM     14  O   UNL     1     -26.392   2.602  32.007  1.00  0.00    -0.550 OA
ENDBRANCH  11  12
ENDBRANCH  10  11
ENDBRANCH   9  10
ENDBRANCH   8   9
ENDBRANCH   7   8
ENDBRANCH   6   7
ENDBRANCH   5   6
ENDBRANCH   4   5
ENDBRANCH   3   4
ENDBRANCH   2   3
ENDBRANCH   1   2
BRANCH   1  15
ATOM     15  C   UNL     1     -27.928  -0.038  26.137  1.00  0.00     0.000 C 
BRANCH  15  16
ATOM     16  C   UNL     1     -27.536  -1.237  25.261  1.00  0.00     0.000 C 
BRANCH  16  17
ATOM     17  C   UNL     1     -26.820  -0.772  23.985  1.00  0.00     0.000 C 
BRANCH  17  18
ATOM     18  C   UNL     1     -27.013   0.728  23.714  1.00  0.00    -0.000 C 
BRANCH  18  19
ATOM     19  C   UNL     1     -28.075   1.001  22.634  1.00  0.00    -0.000 C 
BRANCH  19  20
ATOM     20  C   UNL     1     -29.419   1.471  23.234  1.00  0.00    -0.000 C 
BRANCH  20  21
ATOM     21  C   UNL     1     -30.610   0.559  22.883  1.00  0.00    -0.000 C 
BRANCH  21  22
ATOM     22  C   UNL     1     -30.508  -0.879  23.423  1.00  0.00    -0.000 C 
BRANCH  22  23
ATOM     23  C   UNL     1     -30.399  -1.976  22.343  1.00  0.00    -0.000 C 
BRANCH  23  24
ATOM     24  C   UNL     1     -28.961  -2.347  21.929  1.00  0.00    -0.000 C 
BRANCH  24  25
ATOM     25  C   UNL     1     -28.700  -2.343  20.413  1.00  0.00    -0.003 C 
ATOM     26  C   UNL     1     -28.592  -0.933  19.832  1.00  0.00     0.004 C 
ENDBRANCH  24  25
ENDBRANCH  23  24
ENDBRANCH  22  23
ENDBRANCH  21  22
ENDBRANCH  20  21
ENDBRANCH  19  20
ENDBRANCH  18  19
ENDBRANCH  17  18
ENDBRANCH  16  17
ENDBRANCH  15  16
ENDBRANCH   1  15
TORSDOF 22
ENDMDL
MODEL 4
REMARK VINA RESULT:    -5.519      1.533      2.403
REMARK INTER + INTRA:         -15.685
REMARK INTER:                 -12.793
REMARK INTRA:                  -2.892
REMARK UNBOUND:                -3.068
REMARK SMILES CCCCCCCCCCCCCCCCCCCCCCCC(=O)[O-]
REMARK SMILES IDX 13 1 14 2 15 3 16 4 17 5 18 6 19 7 20 8 21 9 22 10 23 11
REMARK SMILES IDX 24 12 25 13 26 14 12 15 11 16 10 17 9 18 8 19 7 20 6 21 5 22
REMARK SMILES IDX 4 23 3 24 2 25 1 26
REMARK H PARENT
REMARK Flexibility Score: inf
ROOT
ATOM      1  C   UNL     1     -28.687   0.635  27.645  1.00  0.00     0.000 C 
ENDROOT
BRANCH   1   2
ATOM      2  C   UNL     1     -28.626  -0.761  26.993  1.00  0.00     0.000 C 
BRANCH   2   3
ATOM      3  C   UNL     1     -28.059  -0.790  25.560  1.00  0.00     0.000 C 
BRANCH   3   4
ATOM      4  C   UNL     1     -27.400   0.523  25.094  1.00  0.00     0.000 C 
BRANCH   4   5
ATOM      5  C   UNL     1     -26.950   0.532  23.621  1.00  0.00     0.000 C 
BRANCH   5   6
ATOM      6  C   UNL     1     -26.867  -0.880  23.019  1.00  0.00     0.000 C 
BRANCH   6   7
ATOM      7  C   UNL     1     -27.651  -1.009  21.703  1.00  0.00     0.000 C 
BRANCH   7   8
ATOM      8  C   UNL     1     -28.598  -2.221  21.696  1.00  0.00     0.000 C 
BRANCH   8   9
ATOM      9  C   UNL     1     -30.075  -1.813  21.894  1.00  0.00     0.000 C 
BRANCH   9  10
ATOM     10  C   UNL     1     -30.608  -2.090  23.314  1.00  0.00     0.006 C 
BRANCH  10  11
ATOM     11  C   UNL     1     -31.100  -0.839  24.056  1.00  0.00     0.053 C 
BRANCH  11  12
ATOM     12  C   UNL     1     -31.183   0.353  23.152  1.00  0.00     0.041 C 
ATOM     13  O   UNL     1     -30.200   1.132  23.040  1.00  0.00    -0.550 OA
ATOM     14  O   UNL     1     -32.350   0.613  22.445  1.00  0.00    -0.550 OA
ENDBRANCH  11  12
ENDBRANCH  10  11
ENDBRANCH   9  10
ENDBRANCH   8   9
ENDBRANCH   7   8
ENDBRANCH   6   7
ENDBRANCH   5   6
ENDBRANCH   4   5
ENDBRANCH   3   4
ENDBRANCH   2   3
ENDBRANCH   1   2
BRANCH   1  15
ATOM     15  C   UNL     1     -30.102   1.127  27.998  1.00  0.00     0.000 C 
BRANCH  15  16
ATOM     16  C   UNL     1     -30.202   1.687  29.424  1.00  0.00     0.000 C 
BRANCH  16  17
ATOM     17  C   UNL     1     -29.380   0.838  30.404  1.00  0.00     0.000 C 
BRANCH  17  18
ATOM     18  C   UNL     1     -28.473   1.690  31.306  1.00  0.00    -0.000 C 
BRANCH  18  19
ATOM     19  C   UNL     1     -28.063   0.954  32.594  1.00  0.00    -0.000 C 
BRANCH  19  20
ATOM     20  C   UNL     1     -28.290   1.811  33.860  1.00  0.00    -0.000 C 
BRANCH  20  21
ATOM     21  C   UNL     1     -28.142   3.326  33.620  1.00  0.00    -0.000 C 
BRANCH  21  22
ATOM     22  C   UNL     1     -29.400   4.158  33.930  1.00  0.00    -0.000 C 
BRANCH  22  23
ATOM     23  C   UNL     1     -30.717   3.355  33.977  1.00  0.00    -0.000 C 
BRANCH  23  24
ATOM     24  C   UNL     1     -31.458   3.231  32.631  1.00  0.00    -0.000 C 
BRANCH  24  25
ATOM     25  C   UNL     1     -32.359   1.991  32.497  1.00  0.00    -0.003 C 
ATOM     26  C   UNL     1     -31.878   0.813  33.345  1.00  0.00     0.004 C 
ENDBRANCH  24  25
ENDBRANCH  23  24
ENDBRANCH  22  23
ENDBRANCH  21  22
ENDBRANCH  20  21
ENDBRANCH  19  20
ENDBRANCH  18  19
ENDBRANCH  17  18
ENDBRANCH  16  17
ENDBRANCH  15  16
ENDBRANCH   1  15
TORSDOF 22
ENDMDL
MODEL 5
REMARK VINA RESULT:    -5.492      3.759     10.251
REMARK INTER + INTRA:         -15.623
REMARK INTER:                 -12.783
REMARK INTRA:                  -2.840
REMARK UNBOUND:                -3.068
REMARK SMILES CCCCCCCCCCCCCCCCCCCCCCCC(=O)[O-]
REMARK SMILES IDX 13 1 14 2 15 3 16 4 17 5 18 6 19 7 20 8 21 9 22 10 23 11
REMARK SMILES IDX 24 12 25 13 26 14 12 15 11 16 10 17 9 18 8 19 7 20 6 21 5 22
REMARK SMILES IDX 4 23 3 24 2 25 1 26
REMARK H PARENT
REMARK Flexibility Score: inf
ROOT
ATOM      1  C   UNL     1     -28.548   0.747  26.425  1.00  0.00     0.000 C 
ENDROOT
BRANCH   1   2
ATOM      2  C   UNL     1     -29.809   0.203  27.128  1.00  0.00     0.000 C 
BRANCH   2   3
ATOM      3  C   UNL     1     -30.405   1.127  28.209  1.00  0.00     0.000 C 
BRANCH   3   4
ATOM      4  C   UNL     1     -29.609   1.183  29.528  1.00  0.00     0.000 C 
BRANCH   4   5
ATOM      5  C   UNL     1     -30.318   1.923  30.678  1.00  0.00     0.000 C 
BRANCH   5   6
ATOM      6  C   UNL     1     -31.049   0.967  31.636  1.00  0.00     0.000 C 
BRANCH   6   7
ATOM      7  C   UNL     1     -31.601   1.683  32.878  1.00  0.00     0.000 C 
BRANCH   7   8
ATOM      8  C   UNL     1     -31.344   3.199  32.850  1.00  0.00     0.000 C 
BRANCH   8   9
ATOM      9  C   UNL     1     -30.483   3.672  34.042  1.00  0.00     0.000 C 
BRANCH   9  10
ATOM     10  C   UNL     1     -28.971   3.690  33.744  1.00  0.00     0.006 C 
BRANCH  10  11
ATOM     11  C   UNL     1     -28.239   2.395  34.125  1.00  0.00     0.053 C 
BRANCH  11  12
ATOM     12  C   UNL     1     -27.415   1.863  32.992  1.00  0.00     0.041 C 
ATOM     13  O   UNL     1     -26.624   2.624  32.373  1.00  0.00    -0.550 OA
ATOM     14  O   UNL     1     -27.531   0.533  32.608  1.00  0.00    -0.550 OA
ENDBRANCH  11  12
ENDBRANCH  10  11
ENDBRANCH   9  10
ENDBRANCH   8   9
ENDBRANCH   7   8
ENDBRANCH   6   7
ENDBRANCH   5   6
ENDBRANCH   4   5
ENDBRANCH   3   4
ENDBRANCH   2   3
ENDBRANCH   1   2
BRANCH   1  15
ATOM     15  C   UNL     1     -27.600  -0.329  25.866  1.00  0.00     0.000 C 
BRANCH  15  16
ATOM     16  C   UNL     1     -28.341  -1.578  25.365  1.00  0.00     0.000 C 
BRANCH  16  17
ATOM     17  C   UNL     1     -27.713  -2.101  24.065  1.00  0.00     0.000 C 
BRANCH  17  18
ATOM     18  C   UNL     1     -26.659  -1.142  23.491  1.00  0.00    -0.000 C 
BRANCH  18  19
ATOM     19  C   UNL     1     -27.080  -0.543  22.138  1.00  0.00    -0.000 C 
BRANCH  19  20
ATOM     20  C   UNL     1     -26.875  -1.531  20.967  1.00  0.00    -0.000 C 
BRANCH  20  21
ATOM     21  C   UNL     1     -28.190  -2.050  20.355  1.00  0.00    -0.000 C 
BRANCH  21  22
ATOM     22  C   UNL     1     -29.305  -0.997  20.221  1.00  0.00    -0.000 C 
BRANCH  22  23
ATOM     23  C   UNL     1     -30.635  -1.364  20.914  1.00  0.00    -0.000 C 
BRANCH  23  24
ATOM     24  C   UNL     1     -30.548  -1.551  22.442  1.00  0.00    -0.000 C 
BRANCH  24  25
ATOM     25  C   UNL     1     -31.196  -0.429  23.272  1.00  0.00    -0.003 C 
ATOM     26  C   UNL     1     -30.352   0.845  23.310  1.00  0.00     0.004 C 
ENDBRANCH  24  25
ENDBRANCH  23  24
ENDBRANCH  22  23
ENDBRANCH  21  22
ENDBRANCH  20  21
ENDBRANCH  19  20
ENDBRANCH  18  19
ENDBRANCH  17  18
ENDBRANCH  16  17
ENDBRANCH  15  16
ENDBRANCH   1  15
TORSDOF 22
ENDMDL
MODEL 6
REMARK VINA RESULT:    -5.380      1.092      2.299
REMARK INTER + INTRA:         -15.367
REMARK INTER:                 -12.546
REMARK INTRA:                  -2.820
REMARK UNBOUND:                -3.068
REMARK SMILES CCCCCCCCCCCCCCCCCCCCCCCC(=O)[O-]
REMARK SMILES IDX 13 1 14 2 15 3 16 4 17 5 18 6 19 7 20 8 21 9 22 10 23 11
REMARK SMILES IDX 24 12 25 13 26 14 12 15 11 16 10 17 9 18 8 19 7 20 6 21 5 22
REMARK SMILES IDX 4 23 3 24 2 25 1 26
REMARK H PARENT
REMARK Flexibility Score: inf
ROOT
ATOM      1  C   UNL     1     -30.468  -0.393  25.972  1.00  0.00     0.000 C 
ENDROOT
BRANCH   1   2
ATOM      2  C   UNL     1     -31.098  -1.473  25.068  1.00  0.00     0.000 C 
BRANCH   2   3
ATOM      3  C   UNL     1     -31.085  -1.152  23.561  1.00  0.00     0.000 C 
BRANCH   3   4
ATOM      4  C   UNL     1     -31.212   0.345  23.213  1.00  0.00     0.000 C 
BRANCH   4   5
ATOM      5  C   UNL     1     -29.992   0.944  22.489  1.00  0.00     0.000 C 
BRANCH   5   6
ATOM      6  C   UNL     1     -28.884   1.385  23.460  1.00  0.00     0.000 C 
BRANCH   6   7
ATOM      7  C   UNL     1     -27.476   1.069  22.933  1.00  0.00     0.000 C 
BRANCH   7   8
ATOM      8  C   UNL     1     -26.731   0.050  23.812  1.00  0.00     0.000 C 
BRANCH   8   9
ATOM      9  C   UNL     1     -26.989  -1.408  23.368  1.00  0.00     0.000 C 
BRANCH   9  10
ATOM     10  C   UNL     1     -27.104  -1.578  21.841  1.00  0.00     0.006 C 
BRANCH  10  11
ATOM     11  C   UNL     1     -28.411  -2.238  21.379  1.00  0.00     0.053 C 
BRANCH  11  12
ATOM     12  C   UNL     1     -28.786  -1.826  19.988  1.00  0.00     0.041 C 
ATOM     13  O   UNL     1     -28.602  -0.639  19.608  1.00  0.00    -0.550 OA
ATOM     14  O   UNL     1     -29.353  -2.747  19.116  1.00  0.00    -0.550 OA
ENDBRANCH  11  12
ENDBRANCH  10  11
ENDBRANCH   9  10
ENDBRANCH   8   9
ENDBRANCH   7   8
ENDBRANCH   6   7
ENDBRANCH   5   6
ENDBRANCH   4   5
ENDBRANCH   3   4
ENDBRANCH   2   3
ENDBRANCH   1   2
BRANCH   1  15
ATOM     15  C   UNL     1     -29.053  -0.717  26.482  1.00  0.00     0.000 C 
BRANCH  15  16
ATOM     16  C   UNL     1     -28.627   0.163  27.666  1.00  0.00     0.000 C 
BRANCH  16  17
ATOM     17  C   UNL     1     -29.839   0.885  28.274  1.00  0.00     0.000 C 
BRANCH  17  18
ATOM     18  C   UNL     1     -29.513   1.557  29.617  1.00  0.00    -0.000 C 
BRANCH  18  19
ATOM     19  C   UNL     1     -30.664   1.439  30.631  1.00  0.00    -0.000 C 
BRANCH  19  20
ATOM     20  C   UNL     1     -31.092   2.811  31.198  1.00  0.00    -0.000 C 
BRANCH  20  21
ATOM     21  C   UNL     1     -31.973   2.715  32.459  1.00  0.00    -0.000 C 
BRANCH  21  22
ATOM     22  C   UNL     1     -31.329   1.977  33.646  1.00  0.00    -0.000 C 
BRANCH  22  23
ATOM     23  C   UNL     1     -29.983   2.560  34.125  1.00  0.00    -0.000 C 
BRANCH  23  24
ATOM     24  C   UNL     1     -28.797   1.575  34.105  1.00  0.00    -0.000 C 
BRANCH  24  25
ATOM     25  C   UNL     1     -27.838   1.738  32.913  1.00  0.00    -0.003 C 
ATOM     26  C   UNL     1     -26.804   2.843  33.128  1.00  0.00     0.004 C 
ENDBRANCH  24  25
ENDBRANCH  23  24
ENDBRANCH  22  23
ENDBRANCH  21  22
ENDBRANCH  20  21
ENDBRANCH  19  20
ENDBRANCH  18  19
ENDBRANCH  17  18
ENDBRANCH  16  17
ENDBRANCH  15  16
ENDBRANCH   1  15
TORSDOF 22
ENDMDL
MODEL 7
REMARK VINA RESULT:    -5.264      3.810     10.179
REMARK INTER + INTRA:         -15.103
REMARK INTER:                 -12.866
REMARK INTRA:                  -2.237
REMARK UNBOUND:                -3.068
REMARK SMILES CCCCCCCCCCCCCCCCCCCCCCCC(=O)[O-]
REMARK SMILES IDX 13 1 14 2 15 3 16 4 17 5 18 6 19 7 20 8 21 9 22 10 23 11
REMARK SMILES IDX 24 12 25 13 26 14 12 15 11 16 10 17 9 18 8 19 7 20 6 21 5 22
REMARK SMILES IDX 4 23 3 24 2 25 1 26
REMARK H PARENT
REMARK Flexibility Score: inf
ROOT
ATOM      1  C   UNL     1     -28.258  -0.003  26.487  1.00  0.00     0.000 C 
ENDROOT
BRANCH   1   2
ATOM      2  C   UNL     1     -29.534  -0.097  27.350  1.00  0.00     0.000 C 
BRANCH   2   3
ATOM      3  C   UNL     1     -30.123   1.257  27.796  1.00  0.00     0.000 C 
BRANCH   3   4
ATOM      4  C   UNL     1     -30.041   1.536  29.310  1.00  0.00     0.000 C 
BRANCH   4   5
ATOM      5  C   UNL     1     -28.926   0.770  30.048  1.00  0.00     0.000 C 
BRANCH   5   6
ATOM      6  C   UNL     1     -29.118   0.770  31.573  1.00  0.00     0.000 C 
BRANCH   6   7
ATOM      7  C   UNL     1     -27.790   0.908  32.336  1.00  0.00     0.000 C 
BRANCH   7   8
ATOM      8  C   UNL     1     -27.809   2.063  33.351  1.00  0.00     0.000 C 
BRANCH   8   9
ATOM      9  C   UNL     1     -28.703   3.235  32.891  1.00  0.00     0.000 C 
BRANCH   9  10
ATOM     10  C   UNL     1     -29.955   3.439  33.766  1.00  0.00     0.006 C 
BRANCH  10  11
ATOM     11  C   UNL     1     -31.279   3.400  32.989  1.00  0.00     0.053 C 
BRANCH  11  12
ATOM     12  C   UNL     1     -32.000   2.100  33.174  1.00  0.00     0.041 C 
ATOM     13  O   UNL     1     -33.016   1.834  32.478  1.00  0.00    -0.550 OA
ATOM     14  O   UNL     1     -31.561   1.187  34.125  1.00  0.00    -0.550 OA
ENDBRANCH  11  12
ENDBRANCH  10  11
ENDBRANCH   9  10
ENDBRANCH   8   9
ENDBRANCH   7   8
ENDBRANCH   6   7
ENDBRANCH   5   6
ENDBRANCH   4   5
ENDBRANCH   3   4
ENDBRANCH   2   3
ENDBRANCH   1   2
BRANCH   1  15
ATOM     15  C   UNL     1     -28.055  -1.166  25.500  1.00  0.00     0.000 C 
BRANCH  15  16
ATOM     16  C   UNL     1     -26.790  -1.008  24.642  1.00  0.00     0.000 C 
BRANCH  16  17
ATOM     17  C   UNL     1     -27.132  -1.080  23.147  1.00  0.00     0.000 C 
BRANCH  17  18
ATOM     18  C   UNL     1     -27.148   0.303  22.477  1.00  0.00    -0.000 C 
BRANCH  18  19
ATOM     19  C   UNL     1     -28.216   1.236  23.074  1.00  0.00    -0.000 C 
BRANCH  19  20
ATOM     20  C   UNL     1     -29.625   0.959  22.504  1.00  0.00    -0.000 C 
BRANCH  20  21
ATOM     21  C   UNL     1     -30.644   0.493  23.562  1.00  0.00    -0.000 C 
BRANCH  21  22
ATOM     22  C   UNL     1     -31.231  -0.910  23.326  1.00  0.00    -0.000 C 
BRANCH  22  23
ATOM     23  C   UNL     1     -30.359  -1.844  22.460  1.00  0.00    -0.000 C 
BRANCH  23  24
ATOM     24  C   UNL     1     -30.298  -1.483  20.963  1.00  0.00    -0.000 C 
BRANCH  24  25
ATOM     25  C   UNL     1     -29.189  -2.194  20.168  1.00  0.00    -0.003 C 
ATOM     26  C   UNL     1     -28.279  -1.222  19.417  1.00  0.00     0.004 C 
ENDBRANCH  24  25
ENDBRANCH  23  24
ENDBRANCH  22  23
ENDBRANCH  21  22
ENDBRANCH  20  21
ENDBRANCH  19  20
ENDBRANCH  18  19
ENDBRANCH  17  18
ENDBRANCH  16  17
ENDBRANCH  15  16
ENDBRANCH   1  15
TORSDOF 22
ENDMDL
MODEL 8
REMARK VINA RESULT:    -5.192      3.688      9.916
REMARK INTER + INTRA:         -14.938
REMARK INTER:                 -12.378
REMARK INTRA:                  -2.561
REMARK UNBOUND:                -3.068
REMARK SMILES CCCCCCCCCCCCCCCCCCCCCCCC(=O)[O-]
REMARK SMILES IDX 13 1 14 2 15 3 16 4 17 5 18 6 19 7 20 8 21 9 22 10 23 11
REMARK SMILES IDX 24 12 25 13 26 14 12 15 11 16 10 17 9 18 8 19 7 20 6 21 5 22
REMARK SMILES IDX 4 23 3 24 2 25 1 26
REMARK H PARENT
REMARK Flexibility Score: inf
ROOT
ATOM      1  C   UNL     1     -30.527   0.001  25.178  1.00  0.00     0.000 C 
ENDROOT
BRANCH   1   2
ATOM      2  C   UNL     1     -29.731   0.751  26.266  1.00  0.00     0.000 C 
BRANCH   2   3
ATOM      3  C   UNL     1     -28.750  -0.119  27.076  1.00  0.00     0.000 C 
BRANCH   3   4
ATOM      4  C   UNL     1     -28.640   0.242  28.571  1.00  0.00     0.000 C 
BRANCH   4   5
ATOM      5  C   UNL     1     -29.808   1.084  29.118  1.00  0.00     0.000 C 
BRANCH   5   6
ATOM      6  C   UNL     1     -29.435   1.852  30.397  1.00  0.00     0.000 C 
BRANCH   6   7
ATOM      7  C   UNL     1     -29.310   0.934  31.623  1.00  0.00     0.000 C 
BRANCH   7   8
ATOM      8  C   UNL     1     -28.249   1.425  32.623  1.00  0.00     0.000 C 
BRANCH   8   9
ATOM      9  C   UNL     1     -28.876   1.950  33.934  1.00  0.00     0.000 C 
BRANCH   9  10
ATOM     10  C   UNL     1     -29.791   3.174  33.735  1.00  0.00     0.006 C 
BRANCH  10  11
ATOM     11  C   UNL     1     -31.260   2.928  34.107  1.00  0.00     0.053 C 
BRANCH  11  12
ATOM     12  C   UNL     1     -32.093   2.589  32.909  1.00  0.00     0.041 C 
ATOM     13  O   UNL     1     -32.071   3.332  31.891  1.00  0.00    -0.550 OA
ATOM     14  O   UNL     1     -32.907   1.464  32.920  1.00  0.00    -0.550 OA
ENDBRANCH  11  12
ENDBRANCH  10  11
ENDBRANCH   9  10
ENDBRANCH   8   9
ENDBRANCH   7   8
ENDBRANCH   6   7
ENDBRANCH   5   6
ENDBRANCH   4   5
ENDBRANCH   3   4
ENDBRANCH   2   3
ENDBRANCH   1   2
BRANCH   1  15
ATOM     15  C   UNL     1     -30.684   0.759  23.848  1.00  0.00     0.000 C 
BRANCH  15  16
ATOM     16  C   UNL     1     -31.595   0.031  22.848  1.00  0.00     0.000 C 
BRANCH  16  17
ATOM     17  C   UNL     1     -30.974  -1.306  22.416  1.00  0.00     0.000 C 
BRANCH  17  18
ATOM     18  C   UNL     1     -30.917  -1.464  20.889  1.00  0.00    -0.000 C 
BRANCH  18  19
ATOM     19  C   UNL     1     -29.491  -1.731  20.377  1.00  0.00    -0.000 C 
BRANCH  19  20
ATOM     20  C   UNL     1     -28.610  -0.461  20.395  1.00  0.00    -0.000 C 
BRANCH  20  21
ATOM     21  C   UNL     1     -27.426  -0.540  21.377  1.00  0.00    -0.000 C 
BRANCH  21  22
ATOM     22  C   UNL     1     -27.473   0.474  22.534  1.00  0.00    -0.000 C 
BRANCH  22  23
ATOM     23  C   UNL     1     -26.717   0.044  23.809  1.00  0.00    -0.000 C 
BRANCH  23  24
ATOM     24  C   UNL     1     -26.538  -1.477  23.984  1.00  0.00    -0.000 C 
BRANCH  24  25
ATOM     25  C   UNL     1     -27.691  -2.187  24.714  1.00  0.00    -0.003 C 
ATOM     26  C   UNL     1     -28.577  -3.004  23.772  1.00  0.00     0.004 C 
ENDBRANCH  24  25
ENDBRANCH  23  24
ENDBRANCH  22  23
ENDBRANCH  21  22
ENDBRANCH  20  21
ENDBRANCH  19  20
ENDBRANCH  18  19
ENDBRANCH  17  18
ENDBRANCH  16  17
ENDBRANCH  15  16
ENDBRANCH   1  15
TORSDOF 22
ENDMDL
MODEL 9
REMARK VINA RESULT:    -5.147      3.746     10.940
REMARK INTER + INTRA:         -14.835
REMARK INTER:                 -12.619
REMARK INTRA:                  -2.215
REMARK UNBOUND:                -3.068
REMARK SMILES CCCCCCCCCCCCCCCCCCCCCCCC(=O)[O-]
REMARK SMILES IDX 13 1 14 2 15 3 16 4 17 5 18 6 19 7 20 8 21 9 22 10 23 11
REMARK SMILES IDX 24 12 25 13 26 14 12 15 11 16 10 17 9 18 8 19 7 20 6 21 5 22
REMARK SMILES IDX 4 23 3 24 2 25 1 26
REMARK H PARENT
REMARK Flexibility Score: inf
ROOT
ATOM      1  C   UNL     1     -30.393  -0.699  25.617  1.00  0.00     0.000 C 
ENDROOT
BRANCH   1   2
ATOM      2  C   UNL     1     -28.958  -0.889  26.153  1.00  0.00     0.000 C 
BRANCH   2   3
ATOM      3  C   UNL     1     -28.400   0.299  26.961  1.00  0.00     0.000 C 
BRANCH   3   4
ATOM      4  C   UNL     1     -29.264   0.733  28.162  1.00  0.00     0.000 C 
BRANCH   4   5
ATOM      5  C   UNL     1     -28.647   0.435  29.541  1.00  0.00     0.000 C 
BRANCH   5   6
ATOM      6  C   UNL     1     -29.381   1.151  30.686  1.00  0.00     0.000 C 
BRANCH   6   7
ATOM      7  C   UNL     1     -28.456   2.070  31.499  1.00  0.00     0.000 C 
BRANCH   7   8
ATOM      8  C   UNL     1     -28.210   1.550  32.925  1.00  0.00     0.000 C 
BRANCH   8   9
ATOM      9  C   UNL     1     -29.497   1.550  33.780  1.00  0.00     0.000 C 
BRANCH   9  10
ATOM     10  C   UNL     1     -30.021   2.961  34.110  1.00  0.00     0.006 C 
BRANCH  10  11
ATOM     11  C   UNL     1     -31.542   3.118  33.962  1.00  0.00     0.053 C 
BRANCH  11  12
ATOM     12  C   UNL     1     -32.017   2.719  32.598  1.00  0.00     0.041 C 
ATOM     13  O   UNL     1     -31.802   3.469  31.609  1.00  0.00    -0.550 OA
ATOM     14  O   UNL     1     -32.712   1.530  32.421  1.00  0.00    -0.550 OA
ENDBRANCH  11  12
ENDBRANCH  10  11
ENDBRANCH   9  10
ENDBRANCH   8   9
ENDBRANCH   7   8
ENDBRANCH   6   7
ENDBRANCH   5   6
ENDBRANCH   4   5
ENDBRANCH   3   4
ENDBRANCH   2   3
ENDBRANCH   1   2
BRANCH   1  15
ATOM     15  C   UNL     1     -30.664  -1.340  24.244  1.00  0.00     0.000 C 
BRANCH  15  16
ATOM     16  C   UNL     1     -30.987  -0.306  23.155  1.00  0.00     0.000 C 
BRANCH  16  17
ATOM     17  C   UNL     1     -30.236   1.009  23.410  1.00  0.00     0.000 C 
BRANCH  17  18
ATOM     18  C   UNL     1     -29.011   1.175  22.498  1.00  0.00    -0.000 C 
BRANCH  18  19
ATOM     19  C   UNL     1     -27.722   0.627  23.135  1.00  0.00    -0.000 C 
BRANCH  19  20
ATOM     20  C   UNL     1     -27.236  -0.674  22.456  1.00  0.00    -0.000 C 
BRANCH  20  21
ATOM     21  C   UNL     1     -27.813  -0.890  21.043  1.00  0.00    -0.000 C 
BRANCH  21  22
ATOM     22  C   UNL     1     -28.620  -2.188  20.863  1.00  0.00    -0.000 C 
BRANCH  22  23
ATOM     23  C   UNL     1     -29.260  -2.370  19.470  1.00  0.00    -0.000 C 
BRANCH  23  24
ATOM     24  C   UNL     1     -28.334  -2.061  18.278  1.00  0.00    -0.000 C 
BRANCH  24  25
ATOM     25  C   UNL     1     -28.656  -2.834  16.987  1.00  0.00    -0.003 C 
ATOM     26  C   UNL     1     -28.047  -2.190  15.741  1.00  0.00     0.004 C 
ENDBRANCH  24  25
ENDBRANCH  23  24
ENDBRANCH  22  23
ENDBRANCH  21  22
ENDBRANCH  20  21
ENDBRANCH  19  20
ENDBRANCH  18  19
ENDBRANCH  17  18
ENDBRANCH  16  17
ENDBRANCH  15  16
ENDBRANCH   1  15
TORSDOF 22
ENDMDL
