MODEL 1
REMARK VINA RESULT:    -5.511      0.000      0.000
REMARK INTER + INTRA:          -5.672
REMARK INTER:                  -5.672
REMARK INTRA:                   0.000
REMARK UNBOUND:                 0.000
REMARK SMILES O=c1ccc2ccc(O)cc2o1
REMARK SMILES IDX 6 1 7 2 8 3 10 4 11 5 5 6 4 7 3 8 2 9 1 10 12 11 9 12
REMARK H PARENT 9 13
REMARK Flexibility Score: inf
ROOT
ATOM      1  C   UNL     1       3.128  47.396   8.358  1.00  0.00     0.016 A 
ATOM      2  C   UNL     1       4.235  48.174   8.003  1.00  0.00     0.047 A 
ATOM      3  C   UNL     1       5.464  47.996   8.655  1.00  0.00     0.119 A 
ATOM      4  C   UNL     1       5.585  47.035   9.666  1.00  0.00     0.094 A 
ATOM      5  C   UNL     1       4.484  46.252  10.028  1.00  0.00     0.142 A 
ATOM      6  C   UNL     1       3.247  46.433   9.369  1.00  0.00     0.018 A 
ATOM      7  C   UNL     1       2.165  45.635   9.753  1.00  0.00     0.019 A 
ATOM      8  C   UNL     1       2.336  44.692  10.765  1.00  0.00     0.094 A 
ATOM      9  C   UNL     1       3.589  44.567  11.372  1.00  0.00     0.336 A 
ATOM     10  O   UNL     1       3.763  43.721  12.288  1.00  0.00    -0.246 OA
ATOM     11  O   UNL     1       4.604  45.339  10.989  1.00  0.00    -0.423 OA
ENDROOT
BRANCH   3  12
ATOM     12  O   UNL     1       6.570  48.768   8.306  1.00  0.00    -0.508 OA
ATOM     13  H   UNL     1       6.611  49.266   7.425  1.00  0.00     0.293 HD
ENDBRANCH   3  12
TORSDOF 1
ENDMDL
MODEL 2
REMARK VINA RESULT:    -5.477      2.887      3.837
REMARK INTER + INTRA:          -5.637
REMARK INTER:                  -5.637
REMARK INTRA:                   0.000
REMARK UNBOUND:                 0.000
REMARK SMILES O=c1ccc2ccc(O)cc2o1
REMARK SMILES IDX 6 1 7 2 8 3 10 4 11 5 5 6 4 7 3 8 2 9 1 10 12 11 9 12
REMARK H PARENT 9 13
REMARK Flexibility Score: inf
ROOT
ATOM      1  C   UNL     1       5.499  49.880   8.505  1.00  0.00     0.016 A 
ATOM      2  C   UNL     1       6.613  49.173   8.969  1.00  0.00     0.047 A 
ATOM      3  C   UNL     1       6.535  47.787   9.174  1.00  0.00     0.119 A 
ATOM      4  C   UNL     1       5.339  47.108   8.915  1.00  0.00     0.094 A 
ATOM      5  C   UNL     1       4.220  47.808   8.452  1.00  0.00     0.142 A 
ATOM      6  C   UNL     1       4.300  49.203   8.245  1.00  0.00     0.018 A 
ATOM      7  C   UNL     1       3.164  49.874   7.782  1.00  0.00     0.019 A 
ATOM      8  C   UNL     1       1.996  49.154   7.538  1.00  0.00     0.094 A 
ATOM      9  C   UNL     1       1.989  47.774   7.764  1.00  0.00     0.336 A 
ATOM     10  O   UNL     1       0.944  47.106   7.550  1.00  0.00    -0.246 OA
ATOM     11  O   UNL     1       3.084  47.158   8.206  1.00  0.00    -0.423 OA
ENDROOT
BRANCH   3  12
ATOM     12  O   UNL     1       7.641  47.077   9.636  1.00  0.00    -0.508 OA
ATOM     13  H   UNL     1       8.270  46.603   8.998  1.00  0.00     0.293 HD
ENDBRANCH   3  12
TORSDOF 1
ENDMDL
MODEL 3
REMARK VINA RESULT:    -5.442      1.870      4.963
REMARK INTER + INTRA:          -5.601
REMARK INTER:                  -5.601
REMARK INTRA:                   0.000
REMARK UNBOUND:                 0.000
REMARK SMILES O=c1ccc2ccc(O)cc2o1
REMARK SMILES IDX 6 1 7 2 8 3 10 4 11 5 5 6 4 7 3 8 2 9 1 10 12 11 9 12
REMARK H PARENT 9 13
REMARK Flexibility Score: inf
ROOT
ATOM      1  C   UNL     1       4.133  44.625  11.791  1.00  0.00     0.016 A 
ATOM      2  C   UNL     1       3.105  43.848  12.334  1.00  0.00     0.047 A 
ATOM      3  C   UNL     1       1.818  43.887  11.777  1.00  0.00     0.119 A 
ATOM      4  C   UNL     1       1.561  44.707  10.671  1.00  0.00     0.094 A 
ATOM      5  C   UNL     1       2.583  45.488  10.122  1.00  0.00     0.142 A 
ATOM      6  C   UNL     1       3.878  45.446  10.685  1.00  0.00     0.018 A 
ATOM      7  C   UNL     1       4.878  46.238  10.113  1.00  0.00     0.019 A 
ATOM      8  C   UNL     1       4.572  47.038   9.013  1.00  0.00     0.094 A 
ATOM      9  C   UNL     1       3.268  47.028   8.508  1.00  0.00     0.336 A 
ATOM     10  O   UNL     1       2.973  47.743   7.515  1.00  0.00    -0.246 OA
ATOM     11  O   UNL     1       2.334  46.265   9.070  1.00  0.00    -0.423 OA
ENDROOT
BRANCH   3  12
ATOM     12  O   UNL     1       0.789  43.116  12.313  1.00  0.00    -0.508 OA
ATOM     13  H   UNL     1       0.723  42.121  12.130  1.00  0.00     0.293 HD
ENDBRANCH   3  12
TORSDOF 1
ENDMDL
MODEL 4
REMARK VINA RESULT:    -5.392      2.157      2.748
REMARK INTER + INTRA:          -5.550
REMARK INTER:                  -5.550
REMARK INTRA:                   0.000
REMARK UNBOUND:                 0.000
REMARK SMILES O=c1ccc2ccc(O)cc2o1
REMARK SMILES IDX 6 1 7 2 8 3 10 4 11 5 5 6 4 7 3 8 2 9 1 10 12 11 9 12
REMARK H PARENT 9 13
REMARK Flexibility Score: inf
ROOT
ATOM      1  C   UNL     1       6.310  47.371   9.358  1.00  0.00     0.016 A 
ATOM      2  C   UNL     1       6.743  48.685   9.566  1.00  0.00     0.047 A 
ATOM      3  C   UNL     1       5.833  49.674   9.968  1.00  0.00     0.119 A 
ATOM      4  C   UNL     1       4.486  49.347  10.163  1.00  0.00     0.094 A 
ATOM      5  C   UNL     1       4.044  48.036   9.957  1.00  0.00     0.142 A 
ATOM      6  C   UNL     1       4.961  47.041   9.552  1.00  0.00     0.018 A 
ATOM      7  C   UNL     1       4.489  45.740   9.355  1.00  0.00     0.019 A 
ATOM      8  C   UNL     1       3.138  45.464   9.561  1.00  0.00     0.094 A 
ATOM      9  C   UNL     1       2.288  46.499   9.963  1.00  0.00     0.336 A 
ATOM     10  O   UNL     1       1.065  46.269  10.154  1.00  0.00    -0.246 OA
ATOM     11  O   UNL     1       2.762  47.729  10.143  1.00  0.00    -0.423 OA
ENDROOT
BRANCH   3  12
ATOM     12  O   UNL     1       6.258  50.985  10.177  1.00  0.00    -0.508 OA
ATOM     13  H   UNL     1       6.165  51.434  11.080  1.00  0.00     0.293 HD
ENDBRANCH   3  12
TORSDOF 1
ENDMDL
MODEL 5
REMARK VINA RESULT:    -5.319      2.428      3.296
REMARK INTER + INTRA:          -5.475
REMARK INTER:                  -5.475
REMARK INTRA:                   0.000
REMARK UNBOUND:                 0.000
REMARK SMILES O=c1ccc2ccc(O)cc2o1
REMARK SMILES IDX 6 1 7 2 8 3 10 4 11 5 5 6 4 7 3 8 2 9 1 10 12 11 9 12
REMARK H PARENT 9 13
REMARK Flexibility Score: inf
ROOT
ATOM      1  C   UNL     1       4.513  46.276  10.044  1.00  0.00     0.016 A 
ATOM      2  C   UNL     1       5.654  47.020   9.727  1.00  0.00     0.047 A 
ATOM      3  C   UNL     1       5.609  47.987   8.712  1.00  0.00     0.119 A 
ATOM      4  C   UNL     1       4.417  48.211   8.013  1.00  0.00     0.094 A 
ATOM      5  C   UNL     1       3.270  47.471   8.323  1.00  0.00     0.142 A 
ATOM      6  C   UNL     1       3.318  46.498   9.345  1.00  0.00     0.018 A 
ATOM      7  C   UNL     1       2.156  45.775   9.632  1.00  0.00     0.019 A 
ATOM      8  C   UNL     1       0.993  46.034   8.908  1.00  0.00     0.094 A 
ATOM      9  C   UNL     1       1.019  47.014   7.910  1.00  0.00     0.336 A 
ATOM     10  O   UNL     1      -0.021  47.261   7.245  1.00  0.00    -0.246 OA
ATOM     11  O   UNL     1       2.139  47.687   7.656  1.00  0.00    -0.423 OA
ENDROOT
BRANCH   3  12
ATOM     12  O   UNL     1       6.742  48.731   8.391  1.00  0.00    -0.508 OA
ATOM     13  H   UNL     1       7.675  48.349   8.500  1.00  0.00     0.293 HD
ENDBRANCH   3  12
TORSDOF 1
ENDMDL
MODEL 6
REMARK VINA RESULT:    -5.259      1.555      2.296
REMARK INTER + INTRA:          -5.412
REMARK INTER:                  -5.412
REMARK INTRA:                   0.000
REMARK UNBOUND:                 0.000
REMARK SMILES O=c1ccc2ccc(O)cc2o1
REMARK SMILES IDX 6 1 7 2 8 3 10 4 11 5 5 6 4 7 3 8 2 9 1 10 12 11 9 12
REMARK H PARENT 9 13
REMARK Flexibility Score: inf
ROOT
ATOM      1  C   UNL     1       5.300  46.737   9.786  1.00  0.00     0.016 A 
ATOM      2  C   UNL     1       5.102  47.675   8.768  1.00  0.00     0.047 A 
ATOM      3  C   UNL     1       3.835  47.830   8.186  1.00  0.00     0.119 A 
ATOM      4  C   UNL     1       2.763  47.045   8.625  1.00  0.00     0.094 A 
ATOM      5  C   UNL     1       2.951  46.104   9.643  1.00  0.00     0.142 A 
ATOM      6  C   UNL     1       4.228  45.949  10.228  1.00  0.00     0.018 A 
ATOM      7  C   UNL     1       4.385  45.001  11.244  1.00  0.00     0.019 A 
ATOM      8  C   UNL     1       3.286  44.243  11.647  1.00  0.00     0.094 A 
ATOM      9  C   UNL     1       2.052  44.451  11.023  1.00  0.00     0.336 A 
ATOM     10  O   UNL     1       1.049  43.776  11.374  1.00  0.00    -0.246 OA
ATOM     11  O   UNL     1       1.929  45.360  10.059  1.00  0.00    -0.423 OA
ENDROOT
BRANCH   3  12
ATOM     12  O   UNL     1       3.632  48.762   7.170  1.00  0.00    -0.508 OA
ATOM     13  H   UNL     1       3.375  48.476   6.232  1.00  0.00     0.293 HD
ENDBRANCH   3  12
TORSDOF 1
ENDMDL
MODEL 7
REMARK VINA RESULT:    -5.240      1.534      4.265
REMARK INTER + INTRA:          -5.393
REMARK INTER:                  -5.393
REMARK INTRA:                   0.000
REMARK UNBOUND:                 0.000
REMARK SMILES O=c1ccc2ccc(O)cc2o1
REMARK SMILES IDX 6 1 7 2 8 3 10 4 11 5 5 6 4 7 3 8 2 9 1 10 12 11 9 12
REMARK H PARENT 9 13
REMARK Flexibility Score: inf
ROOT
ATOM      1  C   UNL     1       1.513  44.814  10.487  1.00  0.00     0.016 A 
ATOM      2  C   UNL     1       2.320  44.191  11.445  1.00  0.00     0.047 A 
ATOM      3  C   UNL     1       3.679  44.524  11.549  1.00  0.00     0.119 A 
ATOM      4  C   UNL     1       4.231  45.484  10.692  1.00  0.00     0.094 A 
ATOM      5  C   UNL     1       3.431  46.111   9.731  1.00  0.00     0.142 A 
ATOM      6  C   UNL     1       2.063  45.775   9.628  1.00  0.00     0.018 A 
ATOM      7  C   UNL     1       1.290  46.419   8.657  1.00  0.00     0.019 A 
ATOM      8  C   UNL     1       1.886  47.368   7.827  1.00  0.00     0.094 A 
ATOM      9  C   UNL     1       3.246  47.652   7.988  1.00  0.00     0.336 A 
ATOM     10  O   UNL     1       3.801  48.505   7.248  1.00  0.00    -0.246 OA
ATOM     11  O   UNL     1       3.960  47.024   8.919  1.00  0.00    -0.423 OA
ENDROOT
BRANCH   3  12
ATOM     12  O   UNL     1       4.488  43.908  12.501  1.00  0.00    -0.508 OA
ATOM     13  H   UNL     1       5.499  43.985  12.467  1.00  0.00     0.293 HD
ENDBRANCH   3  12
TORSDOF 1
ENDMDL
MODEL 8
REMARK VINA RESULT:    -5.150      1.317      1.684
REMARK INTER + INTRA:          -5.300
REMARK INTER:                  -5.300
REMARK INTRA:                   0.000
REMARK UNBOUND:                 0.000
REMARK SMILES O=c1ccc2ccc(O)cc2o1
REMARK SMILES IDX 6 1 7 2 8 3 10 4 11 5 5 6 4 7 3 8 2 9 1 10 12 11 9 12
REMARK H PARENT 9 13
REMARK Flexibility Score: inf
ROOT
ATOM      1  C   UNL     1       1.799  46.318   9.227  1.00  0.00     0.016 A 
ATOM      2  C   UNL     1       2.695  47.218   8.641  1.00  0.00     0.047 A 
ATOM      3  C   UNL     1       4.078  47.012   8.751  1.00  0.00     0.119 A 
ATOM      4  C   UNL     1       4.566  45.901   9.450  1.00  0.00     0.094 A 
ATOM      5  C   UNL     1       3.677  44.996  10.040  1.00  0.00     0.142 A 
ATOM      6  C   UNL     1       2.285  45.205   9.927  1.00  0.00     0.018 A 
ATOM      7  C   UNL     1       1.422  44.282  10.527  1.00  0.00     0.019 A 
ATOM      8  C   UNL     1       1.955  43.192  11.212  1.00  0.00     0.094 A 
ATOM      9  C   UNL     1       3.345  43.048  11.282  1.00  0.00     0.336 A 
ATOM     10  O   UNL     1       3.845  42.070  11.896  1.00  0.00    -0.246 OA
ATOM     11  O   UNL     1       4.145  43.940  10.703  1.00  0.00    -0.423 OA
ENDROOT
BRANCH   3  12
ATOM     12  O   UNL     1       4.976  47.905   8.171  1.00  0.00    -0.508 OA
ATOM     13  H   UNL     1       5.160  47.898   7.174  1.00  0.00     0.293 HD
ENDBRANCH   3  12
TORSDOF 1
ENDMDL
MODEL 9
REMARK VINA RESULT:    -5.074      2.106      4.796
REMARK INTER + INTRA:          -5.223
REMARK INTER:                  -5.223
REMARK INTRA:                   0.000
REMARK UNBOUND:                 0.000
REMARK SMILES O=c1ccc2ccc(O)cc2o1
REMARK SMILES IDX 6 1 7 2 8 3 10 4 11 5 5 6 4 7 3 8 2 9 1 10 12 11 9 12
REMARK H PARENT 9 13
REMARK Flexibility Score: inf
ROOT
ATOM      1  C   UNL     1       4.576  45.776   9.857  1.00  0.00     0.016 A 
ATOM      2  C   UNL     1       3.207  45.504   9.956  1.00  0.00     0.047 A 
ATOM      3  C   UNL     1       2.265  46.509   9.691  1.00  0.00     0.119 A 
ATOM      4  C   UNL     1       2.695  47.791   9.326  1.00  0.00     0.094 A 
ATOM      5  C   UNL     1       4.062  48.072   9.225  1.00  0.00     0.142 A 
ATOM      6  C   UNL     1       5.008  47.058   9.491  1.00  0.00     0.018 A 
ATOM      7  C   UNL     1       6.367  47.369   9.382  1.00  0.00     0.019 A 
ATOM      8  C   UNL     1       6.746  48.660   9.015  1.00  0.00     0.094 A 
ATOM      9  C   UNL     1       5.753  49.613   8.765  1.00  0.00     0.336 A 
ATOM     10  O   UNL     1       6.075  50.783   8.432  1.00  0.00    -0.246 OA
ATOM     11  O   UNL     1       4.466  49.291   8.876  1.00  0.00    -0.423 OA
ENDROOT
BRANCH   3  12
ATOM     12  O   UNL     1       0.901  46.246   9.788  1.00  0.00    -0.508 OA
ATOM     13  H   UNL     1       0.396  46.380  10.657  1.00  0.00     0.293 HD
ENDBRANCH   3  12
TORSDOF 1
ENDMDL
