MODEL 1
REMARK VINA RESULT:    -4.773      0.000      0.000
REMARK INTER + INTRA:          -8.172
REMARK INTER:                  -7.563
REMARK INTRA:                  -0.609
REMARK UNBOUND:                -0.609
REMARK SMILES CCCCCCCCCCCC(=O)[O-]
REMARK SMILES IDX 7 1 8 2 9 3 10 4 11 5 12 6 13 7 14 8 6 9 5 10 4 11 3 12 2 13
REMARK SMILES IDX 1 14
REMARK H PARENT
REMARK Flexibility Score: inf
ROOT
ATOM      1  C   UNL     1      49.892 -38.869   8.268  1.00  0.00     0.000 C 
ENDROOT
BRANCH   1   2
ATOM      2  C   UNL     1      51.325 -38.335   8.122  1.00  0.00     0.000 C 
BRANCH   2   3
ATOM      3  C   UNL     1      51.679 -37.388   9.276  1.00  0.00     0.000 C 
BRANCH   3   4
ATOM      4  C   UNL     1      50.916 -36.064   9.155  1.00  0.00     0.006 C 
BRANCH   4   5
ATOM      5  C   UNL     1      50.347 -35.632  10.510  1.00  0.00     0.053 C 
BRANCH   5   6
ATOM      6  C   UNL     1      50.703 -34.208  10.798  1.00  0.00     0.041 C 
ATOM      7  O   UNL     1      49.800 -33.337  10.903  1.00  0.00    -0.550 OA
ATOM      8  O   UNL     1      52.031 -33.850  10.997  1.00  0.00    -0.550 OA
ENDBRANCH   5   6
ENDBRANCH   4   5
ENDBRANCH   3   4
ENDBRANCH   2   3
ENDBRANCH   1   2
BRANCH   1   9
ATOM      9  C   UNL     1      49.668 -39.635   9.583  1.00  0.00     0.000 C 
BRANCH   9  10
ATOM     10  C   UNL     1      49.298 -41.122   9.421  1.00  0.00    -0.000 C 
BRANCH  10  11
ATOM     11  C   UNL     1      49.190 -41.555   7.948  1.00  0.00    -0.000 C 
BRANCH  11  12
ATOM     12  C   UNL     1      50.069 -42.774   7.628  1.00  0.00    -0.000 C 
BRANCH  12  13
ATOM     13  C   UNL     1      49.244 -44.022   7.276  1.00  0.00    -0.003 C 
ATOM     14  C   UNL     1      48.180 -43.699   6.232  1.00  0.00     0.004 C 
ENDBRANCH  12  13
ENDBRANCH  11  12
ENDBRANCH  10  11
ENDBRANCH   9  10
ENDBRANCH   1   9
TORSDOF 10
ENDMDL
MODEL 2
REMARK VINA RESULT:    -4.747     12.283     13.861
REMARK INTER + INTRA:          -8.131
REMARK INTER:                  -7.188
REMARK INTRA:                  -0.943
REMARK UNBOUND:                -0.609
REMARK SMILES CCCCCCCCCCCC(=O)[O-]
REMARK SMILES IDX 7 1 8 2 9 3 10 4 11 5 12 6 13 7 14 8 6 9 5 10 4 11 3 12 2 13
REMARK SMILES IDX 1 14
REMARK H PARENT
REMARK Flexibility Score: inf
ROOT
ATOM      1  C   UNL     1      48.228 -40.724  -3.266  1.00  0.00     0.000 C 
ENDROOT
BRANCH   1   2
ATOM      2  C   UNL     1      49.086 -41.702  -4.083  1.00  0.00     0.000 C 
BRANCH   2   3
ATOM      3  C   UNL     1      50.303 -42.171  -3.275  1.00  0.00     0.000 C 
BRANCH   3   4
ATOM      4  C   UNL     1      51.144 -40.979  -2.803  1.00  0.00     0.006 C 
BRANCH   4   5
ATOM      5  C   UNL     1      52.483 -41.445  -2.226  1.00  0.00     0.053 C 
BRANCH   5   6
ATOM      6  C   UNL     1      53.477 -40.327  -2.239  1.00  0.00     0.041 C 
ATOM      7  O   UNL     1      54.655 -40.520  -1.838  1.00  0.00    -0.550 OA
ATOM      8  O   UNL     1      53.116 -39.082  -2.740  1.00  0.00    -0.550 OA
ENDBRANCH   5   6
ENDBRANCH   4   5
ENDBRANCH   3   4
ENDBRANCH   2   3
ENDBRANCH   1   2
BRANCH   1   9
ATOM      9  C   UNL     1      47.219 -39.945  -4.129  1.00  0.00     0.000 C 
BRANCH   9  10
ATOM     10  C   UNL     1      47.758 -38.645  -4.755  1.00  0.00    -0.000 C 
BRANCH  10  11
ATOM     11  C   UNL     1      49.136 -38.241  -4.202  1.00  0.00    -0.000 C 
BRANCH  11  12
ATOM     12  C   UNL     1      50.139 -37.896  -5.315  1.00  0.00    -0.000 C 
BRANCH  12  13
ATOM     13  C   UNL     1      50.885 -39.131  -5.842  1.00  0.00    -0.003 C 
ATOM     14  C   UNL     1      51.763 -38.771  -7.037  1.00  0.00     0.004 C 
ENDBRANCH  12  13
ENDBRANCH  11  12
ENDBRANCH  10  11
ENDBRANCH   9  10
ENDBRANCH   1   9
TORSDOF 10
ENDMDL
MODEL 3
REMARK VINA RESULT:    -4.567      1.871      3.537
REMARK INTER + INTRA:          -7.846
REMARK INTER:                  -6.781
REMARK INTRA:                  -1.065
REMARK UNBOUND:                -0.609
REMARK SMILES CCCCCCCCCCCC(=O)[O-]
REMARK SMILES IDX 7 1 8 2 9 3 10 4 11 5 12 6 13 7 14 8 6 9 5 10 4 11 3 12 2 13
REMARK SMILES IDX 1 14
REMARK H PARENT
REMARK Flexibility Score: inf
ROOT
ATOM      1  C   UNL     1      50.965 -38.730   7.764  1.00  0.00     0.000 C 
ENDROOT
BRANCH   1   2
ATOM      2  C   UNL     1      51.649 -37.894   8.856  1.00  0.00     0.000 C 
BRANCH   2   3
ATOM      3  C   UNL     1      51.185 -36.432   8.801  1.00  0.00     0.000 C 
BRANCH   3   4
ATOM      4  C   UNL     1      50.937 -35.880  10.209  1.00  0.00     0.006 C 
BRANCH   4   5
ATOM      5  C   UNL     1      49.854 -34.797  10.192  1.00  0.00     0.053 C 
BRANCH   5   6
ATOM      6  C   UNL     1      50.194 -33.702  11.152  1.00  0.00     0.041 C 
ATOM      7  O   UNL     1      50.808 -32.677  10.754  1.00  0.00    -0.550 OA
ATOM      8  O   UNL     1      49.789 -33.789  12.479  1.00  0.00    -0.550 OA
ENDBRANCH   5   6
ENDBRANCH   4   5
ENDBRANCH   3   4
ENDBRANCH   2   3
ENDBRANCH   1   2
BRANCH   1   9
ATOM      9  C   UNL     1      49.566 -39.223   8.173  1.00  0.00     0.000 C 
BRANCH   9  10
ATOM     10  C   UNL     1      49.524 -40.628   8.802  1.00  0.00    -0.000 C 
BRANCH  10  11
ATOM     11  C   UNL     1      48.862 -40.643  10.191  1.00  0.00    -0.000 C 
BRANCH  11  12
ATOM     12  C   UNL     1      49.441 -39.573  11.130  1.00  0.00    -0.000 C 
BRANCH  12  13
ATOM     13  C   UNL     1      48.378 -38.581  11.624  1.00  0.00    -0.003 C 
ATOM     14  C   UNL     1      48.908 -37.741  12.783  1.00  0.00     0.004 C 
ENDBRANCH  12  13
ENDBRANCH  11  12
ENDBRANCH  10  11
ENDBRANCH   9  10
ENDBRANCH   1   9
TORSDOF 10
ENDMDL
MODEL 4
REMARK VINA RESULT:    -4.541     11.975     13.338
REMARK INTER + INTRA:          -7.804
REMARK INTER:                  -6.845
REMARK INTRA:                  -0.959
REMARK UNBOUND:                -0.609
REMARK SMILES CCCCCCCCCCCC(=O)[O-]
REMARK SMILES IDX 7 1 8 2 9 3 10 4 11 5 12 6 13 7 14 8 6 9 5 10 4 11 3 12 2 13
REMARK SMILES IDX 1 14
REMARK H PARENT
REMARK Flexibility Score: inf
ROOT
ATOM      1  C   UNL     1      48.735 -41.067  -4.567  1.00  0.00     0.000 C 
ENDROOT
BRANCH   1   2
ATOM      2  C   UNL     1      49.414 -41.762  -3.378  1.00  0.00     0.000 C 
BRANCH   2   3
ATOM      3  C   UNL     1      50.930 -41.863  -3.593  1.00  0.00     0.000 C 
BRANCH   3   4
ATOM      4  C   UNL     1      51.680 -40.866  -2.703  1.00  0.00     0.006 C 
BRANCH   4   5
ATOM      5  C   UNL     1      52.691 -41.584  -1.804  1.00  0.00     0.053 C 
BRANCH   5   6
ATOM      6  C   UNL     1      54.050 -40.977  -1.954  1.00  0.00     0.041 C 
ATOM      7  O   UNL     1      55.080 -41.694  -1.851  1.00  0.00    -0.550 OA
ATOM      8  O   UNL     1      54.178 -39.626  -2.256  1.00  0.00    -0.550 OA
ENDBRANCH   5   6
ENDBRANCH   4   5
ENDBRANCH   3   4
ENDBRANCH   2   3
ENDBRANCH   1   2
BRANCH   1   9
ATOM      9  C   UNL     1      47.576 -40.147  -4.144  1.00  0.00     0.000 C 
BRANCH   9  10
ATOM     10  C   UNL     1      47.524 -39.807  -2.642  1.00  0.00    -0.000 C 
BRANCH  10  11
ATOM     11  C   UNL     1      48.091 -38.412  -2.324  1.00  0.00    -0.000 C 
BRANCH  11  12
ATOM     12  C   UNL     1      47.850 -37.406  -3.461  1.00  0.00    -0.000 C 
BRANCH  12  13
ATOM     13  C   UNL     1      49.126 -37.097  -4.258  1.00  0.00    -0.003 C 
ATOM     14  C   UNL     1      50.374 -37.462  -3.459  1.00  0.00     0.004 C 
ENDBRANCH  12  13
ENDBRANCH  11  12
ENDBRANCH  10  11
ENDBRANCH   9  10
ENDBRANCH   1   9
TORSDOF 10
ENDMDL
MODEL 5
REMARK VINA RESULT:    -4.529     12.412     14.032
REMARK INTER + INTRA:          -7.786
REMARK INTER:                  -6.263
REMARK INTRA:                  -1.523
REMARK UNBOUND:                -0.609
REMARK SMILES CCCCCCCCCCCC(=O)[O-]
REMARK SMILES IDX 7 1 8 2 9 3 10 4 11 5 12 6 13 7 14 8 6 9 5 10 4 11 3 12 2 13
REMARK SMILES IDX 1 14
REMARK H PARENT
REMARK Flexibility Score: inf
ROOT
ATOM      1  C   UNL     1      46.625 -40.142  -3.474  1.00  0.00     0.000 C 
ENDROOT
BRANCH   1   2
ATOM      2  C   UNL     1      48.024 -40.738  -3.258  1.00  0.00     0.000 C 
BRANCH   2   3
ATOM      3  C   UNL     1      48.759 -40.915  -4.593  1.00  0.00     0.000 C 
BRANCH   3   4
ATOM      4  C   UNL     1      50.274 -41.014  -4.379  1.00  0.00     0.006 C 
BRANCH   4   5
ATOM      5  C   UNL     1      50.602 -41.366  -2.925  1.00  0.00     0.053 C 
BRANCH   5   6
ATOM      6  C   UNL     1      52.013 -40.992  -2.601  1.00  0.00     0.041 C 
ATOM      7  O   UNL     1      52.778 -41.823  -2.046  1.00  0.00    -0.550 OA
ATOM      8  O   UNL     1      52.500 -39.739  -2.957  1.00  0.00    -0.550 OA
ENDBRANCH   5   6
ENDBRANCH   4   5
ENDBRANCH   3   4
ENDBRANCH   2   3
ENDBRANCH   1   2
BRANCH   1   9
ATOM      9  C   UNL     1      46.450 -39.513  -4.868  1.00  0.00     0.000 C 
BRANCH   9  10
ATOM     10  C   UNL     1      46.253 -37.986  -4.878  1.00  0.00    -0.000 C 
BRANCH  10  11
ATOM     11  C   UNL     1      47.383 -37.232  -4.154  1.00  0.00    -0.000 C 
BRANCH  11  12
ATOM     12  C   UNL     1      48.565 -36.912  -5.082  1.00  0.00    -0.000 C 
BRANCH  12  13
ATOM     13  C   UNL     1      49.912 -37.376  -4.507  1.00  0.00    -0.003 C 
ATOM     14  C   UNL     1      49.872 -37.418  -2.982  1.00  0.00     0.004 C 
ENDBRANCH  12  13
ENDBRANCH  11  12
ENDBRANCH  10  11
ENDBRANCH   9  10
ENDBRANCH   1   9
TORSDOF 10
ENDMDL
MODEL 6
REMARK VINA RESULT:    -4.524     12.245     13.417
REMARK INTER + INTRA:          -7.779
REMARK INTER:                  -7.226
REMARK INTRA:                  -0.553
REMARK UNBOUND:                -0.609
REMARK SMILES CCCCCCCCCCCC(=O)[O-]
REMARK SMILES IDX 7 1 8 2 9 3 10 4 11 5 12 6 13 7 14 8 6 9 5 10 4 11 3 12 2 13
REMARK SMILES IDX 1 14
REMARK H PARENT
REMARK Flexibility Score: inf
ROOT
ATOM      1  C   UNL     1      49.132 -40.296  -2.608  1.00  0.00     0.000 C 
ENDROOT
BRANCH   1   2
ATOM      2  C   UNL     1      47.617 -40.074  -2.484  1.00  0.00     0.000 C 
BRANCH   2   3
ATOM      3  C   UNL     1      46.878 -40.620  -3.713  1.00  0.00     0.000 C 
BRANCH   3   4
ATOM      4  C   UNL     1      46.461 -39.484  -4.653  1.00  0.00     0.006 C 
BRANCH   4   5
ATOM      5  C   UNL     1      45.072 -38.951  -4.289  1.00  0.00     0.053 C 
BRANCH   5   6
ATOM      6  C   UNL     1      45.121 -37.474  -4.062  1.00  0.00     0.041 C 
ATOM      7  O   UNL     1      44.255 -36.723  -4.584  1.00  0.00    -0.550 OA
ATOM      8  O   UNL     1      46.095 -36.929  -3.234  1.00  0.00    -0.550 OA
ENDBRANCH   5   6
ENDBRANCH   4   5
ENDBRANCH   3   4
ENDBRANCH   2   3
ENDBRANCH   1   2
BRANCH   1   9
ATOM      9  C   UNL     1      49.489 -41.637  -3.275  1.00  0.00     0.000 C 
BRANCH   9  10
ATOM     10  C   UNL     1      50.996 -41.934  -3.381  1.00  0.00    -0.000 C 
BRANCH  10  11
ATOM     11  C   UNL     1      51.847 -41.061  -2.443  1.00  0.00    -0.000 C 
BRANCH  11  12
ATOM     12  C   UNL     1      53.092 -41.797  -1.921  1.00  0.00    -0.000 C 
BRANCH  12  13
ATOM     13  C   UNL     1      54.335 -40.896  -1.872  1.00  0.00    -0.003 C 
ATOM     14  C   UNL     1      53.980 -39.453  -2.217  1.00  0.00     0.004 C 
ENDBRANCH  12  13
ENDBRANCH  11  12
ENDBRANCH  10  11
ENDBRANCH   9  10
ENDBRANCH   1   9
TORSDOF 10
ENDMDL
MODEL 7
REMARK VINA RESULT:    -4.517     11.742     12.971
REMARK INTER + INTRA:          -7.767
REMARK INTER:                  -6.903
REMARK INTRA:                  -0.864
REMARK UNBOUND:                -0.609
REMARK SMILES CCCCCCCCCCCC(=O)[O-]
REMARK SMILES IDX 7 1 8 2 9 3 10 4 11 5 12 6 13 7 14 8 6 9 5 10 4 11 3 12 2 13
REMARK SMILES IDX 1 14
REMARK H PARENT
REMARK Flexibility Score: inf
ROOT
ATOM      1  C   UNL     1      48.500 -41.440  -4.208  1.00  0.00     0.000 C 
ENDROOT
BRANCH   1   2
ATOM      2  C   UNL     1      48.258 -40.088  -4.895  1.00  0.00     0.000 C 
BRANCH   2   3
ATOM      3  C   UNL     1      46.871 -39.533  -4.543  1.00  0.00     0.000 C 
BRANCH   3   4
ATOM      4  C   UNL     1      46.119 -40.485  -3.606  1.00  0.00     0.006 C 
BRANCH   4   5
ATOM      5  C   UNL     1      45.476 -39.719  -2.446  1.00  0.00     0.053 C 
BRANCH   5   6
ATOM      6  C   UNL     1      46.523 -39.042  -1.620  1.00  0.00     0.041 C 
ATOM      7  O   UNL     1      46.501 -37.793  -1.468  1.00  0.00    -0.550 OA
ATOM      8  O   UNL     1      47.498 -39.797  -0.978  1.00  0.00    -0.550 OA
ENDBRANCH   5   6
ENDBRANCH   4   5
ENDBRANCH   3   4
ENDBRANCH   2   3
ENDBRANCH   1   2
BRANCH   1   9
ATOM      9  C   UNL     1      49.847 -41.503  -3.466  1.00  0.00     0.000 C 
BRANCH   9  10
ATOM     10  C   UNL     1      50.428 -40.141  -3.045  1.00  0.00    -0.000 C 
BRANCH  10  11
ATOM     11  C   UNL     1      51.964 -40.149  -2.946  1.00  0.00    -0.000 C 
BRANCH  11  12
ATOM     12  C   UNL     1      52.499 -41.387  -2.208  1.00  0.00    -0.000 C 
BRANCH  12  13
ATOM     13  C   UNL     1      53.988 -41.266  -1.852  1.00  0.00    -0.003 C 
ATOM     14  C   UNL     1      54.455 -39.816  -1.934  1.00  0.00     0.004 C 
ENDBRANCH  12  13
ENDBRANCH  11  12
ENDBRANCH  10  11
ENDBRANCH   9  10
ENDBRANCH   1   9
TORSDOF 10
ENDMDL
MODEL 8
REMARK VINA RESULT:    -4.492      1.749      2.815
REMARK INTER + INTRA:          -7.727
REMARK INTER:                  -6.414
REMARK INTRA:                  -1.312
REMARK UNBOUND:                -0.609
REMARK SMILES CCCCCCCCCCCC(=O)[O-]
REMARK SMILES IDX 7 1 8 2 9 3 10 4 11 5 12 6 13 7 14 8 6 9 5 10 4 11 3 12 2 13
REMARK SMILES IDX 1 14
REMARK H PARENT
REMARK Flexibility Score: inf
ROOT
ATOM      1  C   UNL     1      49.399 -39.007  11.955  1.00  0.00     0.000 C 
ENDROOT
BRANCH   1   2
ATOM      2  C   UNL     1      49.935 -37.569  12.009  1.00  0.00     0.000 C 
BRANCH   2   3
ATOM      3  C   UNL     1      50.651 -37.200  10.703  1.00  0.00     0.000 C 
BRANCH   3   4
ATOM      4  C   UNL     1      49.829 -36.192   9.891  1.00  0.00     0.006 C 
BRANCH   4   5
ATOM      5  C   UNL     1      50.668 -34.961   9.532  1.00  0.00     0.053 C 
BRANCH   5   6
ATOM      6  C   UNL     1      50.866 -34.094  10.735  1.00  0.00     0.041 C 
ATOM      7  O   UNL     1      49.873 -33.612  11.340  1.00  0.00    -0.550 OA
ATOM      8  O   UNL     1      52.148 -33.857  11.217  1.00  0.00    -0.550 OA
ENDBRANCH   5   6
ENDBRANCH   4   5
ENDBRANCH   3   4
ENDBRANCH   2   3
ENDBRANCH   1   2
BRANCH   1   9
ATOM      9  C   UNL     1      47.999 -39.103  11.323  1.00  0.00     0.000 C 
BRANCH   9  10
ATOM     10  C   UNL     1      47.881 -40.075  10.134  1.00  0.00    -0.000 C 
BRANCH  10  11
ATOM     11  C   UNL     1      49.152 -40.916   9.920  1.00  0.00    -0.000 C 
BRANCH  11  12
ATOM     12  C   UNL     1      49.682 -40.827   8.480  1.00  0.00    -0.000 C 
BRANCH  12  13
ATOM     13  C   UNL     1      49.508 -39.427   7.871  1.00  0.00    -0.003 C 
ATOM     14  C   UNL     1      50.857 -38.823   7.493  1.00  0.00     0.004 C 
ENDBRANCH  12  13
ENDBRANCH  11  12
ENDBRANCH  10  11
ENDBRANCH   9  10
ENDBRANCH   1   9
TORSDOF 10
ENDMDL
MODEL 9
REMARK VINA RESULT:    -4.203     12.194     13.852
REMARK INTER + INTRA:          -7.270
REMARK INTER:                  -6.815
REMARK INTRA:                  -0.455
REMARK UNBOUND:                -0.609
REMARK SMILES CCCCCCCCCCCC(=O)[O-]
REMARK SMILES IDX 7 1 8 2 9 3 10 4 11 5 12 6 13 7 14 8 6 9 5 10 4 11 3 12 2 13
REMARK SMILES IDX 1 14
REMARK H PARENT
REMARK Flexibility Score: inf
ROOT
ATOM      1  C   UNL     1      48.406 -40.641  -4.549  1.00  0.00     0.000 C 
ENDROOT
BRANCH   1   2
ATOM      2  C   UNL     1      48.979 -41.075  -3.191  1.00  0.00     0.000 C 
BRANCH   2   3
ATOM      3  C   UNL     1      50.276 -41.874  -3.373  1.00  0.00     0.000 C 
BRANCH   3   4
ATOM      4  C   UNL     1      51.498 -41.036  -2.982  1.00  0.00     0.006 C 
BRANCH   4   5
ATOM      5  C   UNL     1      52.480 -41.856  -2.139  1.00  0.00     0.053 C 
BRANCH   5   6
ATOM      6  C   UNL     1      53.754 -41.098  -1.935  1.00  0.00     0.041 C 
ATOM      7  O   UNL     1      54.851 -41.711  -1.857  1.00  0.00    -0.550 OA
ATOM      8  O   UNL     1      53.736 -39.709  -1.880  1.00  0.00    -0.550 OA
ENDBRANCH   5   6
ENDBRANCH   4   5
ENDBRANCH   3   4
ENDBRANCH   2   3
ENDBRANCH   1   2
BRANCH   1   9
ATOM      9  C   UNL     1      47.193 -39.703  -4.417  1.00  0.00     0.000 C 
BRANCH   9  10
ATOM     10  C   UNL     1      46.093 -40.186  -3.454  1.00  0.00    -0.000 C 
BRANCH  10  11
ATOM     11  C   UNL     1      45.052 -39.097  -3.139  1.00  0.00    -0.000 C 
BRANCH  11  12
ATOM     12  C   UNL     1      43.875 -39.105  -4.128  1.00  0.00    -0.000 C 
BRANCH  12  13
ATOM     13  C   UNL     1      43.888 -37.893  -5.073  1.00  0.00    -0.003 C 
ATOM     14  C   UNL     1      44.482 -38.262  -6.429  1.00  0.00     0.004 C 
ENDBRANCH  12  13
ENDBRANCH  11  12
ENDBRANCH  10  11
ENDBRANCH   9  10
ENDBRANCH   1   9
TORSDOF 10
ENDMDL
