MODEL 1
REMARK VINA RESULT:    -1.365      0.000      0.000
REMARK INTER + INTRA:          -3.969
REMARK INTER:                  -3.600
REMARK INTRA:                  -0.369
REMARK UNBOUND:                -0.369
REMARK SMILES CCCCCCCCCCCCCCCCCCCCCCCCCCCCCC(=O)[O-]
REMARK SMILES IDX 16 1 17 2 18 3 19 4 20 5 21 6 22 7 23 8 24 9 25 10 26 11
REMARK SMILES IDX 27 12 28 13 29 14 30 15 31 16 32 17 15 18 14 19 13 20 12 21
REMARK SMILES IDX 11 22 10 23 9 24 8 25 7 26 6 27 5 28 4 29 3 30 2 31 1 32
REMARK H PARENT
REMARK Flexibility Score: inf
ROOT
ATOM      1  C   UNL     1      14.771  -7.306   6.478  1.00  0.00     0.000 C 
ENDROOT
BRANCH   1   2
ATOM      2  C   UNL     1      16.155  -7.946   6.672  1.00  0.00     0.000 C 
BRANCH   2   3
ATOM      3  C   UNL     1      16.097  -9.462   6.432  1.00  0.00     0.000 C 
BRANCH   3   4
ATOM      4  C   UNL     1      15.960  -9.828   4.943  1.00  0.00     0.000 C 
BRANCH   4   5
ATOM      5  C   UNL     1      17.291 -10.083   4.208  1.00  0.00     0.000 C 
BRANCH   5   6
ATOM      6  C   UNL     1      18.537 -10.123   5.116  1.00  0.00     0.000 C 
BRANCH   6   7
ATOM      7  C   UNL     1      19.578  -9.020   4.838  1.00  0.00     0.000 C 
BRANCH   7   8
ATOM      8  C   UNL     1      19.112  -7.908   3.875  1.00  0.00     0.000 C 
BRANCH   8   9
ATOM      9  C   UNL     1      18.786  -6.560   4.542  1.00  0.00     0.000 C 
BRANCH   9  10
ATOM     10  C   UNL     1      19.688  -5.417   4.057  1.00  0.00     0.000 C 
BRANCH  10  11
ATOM     11  C   UNL     1      20.720  -5.044   5.131  1.00  0.00     0.000 C 
BRANCH  11  12
ATOM     12  C   UNL     1      20.786  -6.063   6.283  1.00  0.00     0.000 C 
BRANCH  12  13
ATOM     13  C   UNL     1      20.028  -5.653   7.559  1.00  0.00     0.006 C 
BRANCH  13  14
ATOM     14  C   UNL     1      18.872  -6.604   7.905  1.00  0.00     0.053 C 
BRANCH  14  15
ATOM     15  C   UNL     1      19.387  -7.949   8.318  1.00  0.00     0.041 C 
ATOM     16  O   UNL     1      19.910  -8.719   7.467  1.00  0.00    -0.550 OA
ATOM     17  O   UNL     1      19.311  -8.344   9.649  1.00  0.00    -0.550 OA
ENDBRANCH  14  15
ENDBRANCH  13  14
ENDBRANCH  12  13
ENDBRANCH  11  12
ENDBRANCH  10  11
ENDBRANCH   9  10
ENDBRANCH   8   9
ENDBRANCH   7   8
ENDBRANCH   6   7
ENDBRANCH   5   6
ENDBRANCH   4   5
ENDBRANCH   3   4
ENDBRANCH   2   3
ENDBRANCH   1   2
BRANCH   1  18
ATOM     18  C   UNL     1      13.623  -8.247   6.876  1.00  0.00     0.000 C 
BRANCH  18  19
ATOM     19  C   UNL     1      12.832  -8.758   5.663  1.00  0.00     0.000 C 
BRANCH  19  20
ATOM     20  C   UNL     1      12.599  -7.633   4.647  1.00  0.00     0.000 C 
BRANCH  20  21
ATOM     21  C   UNL     1      11.263  -7.820   3.914  1.00  0.00     0.000 C 
BRANCH  21  22
ATOM     22  C   UNL     1      10.327  -8.824   4.612  1.00  0.00     0.000 C 
BRANCH  22  23
ATOM     23  C   UNL     1       9.022  -8.226   5.171  1.00  0.00     0.000 C 
BRANCH  23  24
ATOM     24  C   UNL     1       8.028  -9.296   5.655  1.00  0.00    -0.000 C 
BRANCH  24  25
ATOM     25  C   UNL     1       7.198  -9.903   4.509  1.00  0.00    -0.000 C 
BRANCH  25  26
ATOM     26  C   UNL     1       6.091  -8.992   3.944  1.00  0.00    -0.000 C 
BRANCH  26  27
ATOM     27  C   UNL     1       4.702  -9.651   3.968  1.00  0.00    -0.000 C 
BRANCH  27  28
ATOM     28  C   UNL     1       3.732  -8.947   4.933  1.00  0.00    -0.000 C 
BRANCH  28  29
ATOM     29  C   UNL     1       3.175  -7.634   4.356  1.00  0.00    -0.000 C 
BRANCH  29  30
ATOM     30  C   UNL     1       4.274  -6.594   4.064  1.00  0.00    -0.000 C 
BRANCH  30  31
ATOM     31  C   UNL     1       4.214  -5.325   4.934  1.00  0.00    -0.003 C 
ATOM     32  C   UNL     1       3.346  -4.223   4.328  1.00  0.00     0.004 C 
ENDBRANCH  30  31
ENDBRANCH  29  30
ENDBRANCH  28  29
ENDBRANCH  27  28
ENDBRANCH  26  27
ENDBRANCH  25  26
ENDBRANCH  24  25
ENDBRANCH  23  24
ENDBRANCH  22  23
ENDBRANCH  21  22
ENDBRANCH  20  21
ENDBRANCH  19  20
ENDBRANCH  18  19
ENDBRANCH   1  18
TORSDOF 28
ENDMDL
MODEL 2
REMARK VINA RESULT:    -0.981      2.028      3.551
REMARK INTER + INTRA:          -2.957
REMARK INTER:                  -2.434
REMARK INTRA:                  -0.523
REMARK UNBOUND:                -0.369
REMARK SMILES CCCCCCCCCCCCCCCCCCCCCCCCCCCCCC(=O)[O-]
REMARK SMILES IDX 16 1 17 2 18 3 19 4 20 5 21 6 22 7 23 8 24 9 25 10 26 11
REMARK SMILES IDX 27 12 28 13 29 14 30 15 31 16 32 17 15 18 14 19 13 20 12 21
REMARK SMILES IDX 11 22 10 23 9 24 8 25 7 26 6 27 5 28 4 29 3 30 2 31 1 32
REMARK H PARENT
REMARK Flexibility Score: inf
ROOT
ATOM      1  C   UNL     1      17.446  -6.766   7.712  1.00  0.00     0.000 C 
ENDROOT
BRANCH   1   2
ATOM      2  C   UNL     1      18.626  -7.058   8.653  1.00  0.00     0.000 C 
BRANCH   2   3
ATOM      3  C   UNL     1      19.282  -8.403   8.310  1.00  0.00     0.000 C 
BRANCH   3   4
ATOM      4  C   UNL     1      19.502  -8.594   6.799  1.00  0.00     0.000 C 
BRANCH   4   5
ATOM      5  C   UNL     1      19.887 -10.024   6.371  1.00  0.00     0.000 C 
BRANCH   5   6
ATOM      6  C   UNL     1      20.646 -10.120   5.033  1.00  0.00     0.000 C 
BRANCH   6   7
ATOM      7  C   UNL     1      21.226  -8.787   4.519  1.00  0.00     0.000 C 
BRANCH   7   8
ATOM      8  C   UNL     1      21.983  -7.953   5.572  1.00  0.00     0.000 C 
BRANCH   8   9
ATOM      9  C   UNL     1      22.867  -6.828   5.004  1.00  0.00     0.000 C 
BRANCH   9  10
ATOM     10  C   UNL     1      22.089  -5.532   4.736  1.00  0.00     0.000 C 
BRANCH  10  11
ATOM     11  C   UNL     1      20.833  -5.815   3.900  1.00  0.00     0.000 C 
BRANCH  11  12
ATOM     12  C   UNL     1      19.549  -5.889   4.746  1.00  0.00     0.000 C 
BRANCH  12  13
ATOM     13  C   UNL     1      18.279  -6.285   3.970  1.00  0.00     0.006 C 
BRANCH  13  14
ATOM     14  C   UNL     1      18.083  -7.806   3.875  1.00  0.00     0.053 C 
BRANCH  14  15
ATOM     15  C   UNL     1      16.649  -8.178   4.100  1.00  0.00     0.041 C 
ATOM     16  O   UNL     1      16.317  -9.389   4.219  1.00  0.00    -0.550 OA
ATOM     17  O   UNL     1      15.681  -7.185   4.201  1.00  0.00    -0.550 OA
ENDBRANCH  14  15
ENDBRANCH  13  14
ENDBRANCH  12  13
ENDBRANCH  11  12
ENDBRANCH  10  11
ENDBRANCH   9  10
ENDBRANCH   8   9
ENDBRANCH   7   8
ENDBRANCH   6   7
ENDBRANCH   5   6
ENDBRANCH   4   5
ENDBRANCH   3   4
ENDBRANCH   2   3
ENDBRANCH   1   2
BRANCH   1  18
ATOM     18  C   UNL     1      16.212  -7.628   8.026  1.00  0.00     0.000 C 
BRANCH  18  19
ATOM     19  C   UNL     1      15.072  -7.415   7.019  1.00  0.00     0.000 C 
BRANCH  19  20
ATOM     20  C   UNL     1      13.987  -8.486   7.184  1.00  0.00     0.000 C 
BRANCH  20  21
ATOM     21  C   UNL     1      13.941  -9.416   5.964  1.00  0.00     0.000 C 
BRANCH  21  22
ATOM     22  C   UNL     1      12.842  -9.036   4.956  1.00  0.00     0.000 C 
BRANCH  22  23
ATOM     23  C   UNL     1      11.744 -10.096   4.749  1.00  0.00     0.000 C 
BRANCH  23  24
ATOM     24  C   UNL     1      10.507  -9.548   4.016  1.00  0.00    -0.000 C 
BRANCH  24  25
ATOM     25  C   UNL     1       9.248  -9.523   4.903  1.00  0.00    -0.000 C 
BRANCH  25  26
ATOM     26  C   UNL     1       8.761  -8.121   5.315  1.00  0.00    -0.000 C 
BRANCH  26  27
ATOM     27  C   UNL     1       8.526  -7.190   4.114  1.00  0.00    -0.000 C 
BRANCH  27  28
ATOM     28  C   UNL     1       7.174  -6.460   4.190  1.00  0.00    -0.000 C 
BRANCH  28  29
ATOM     29  C   UNL     1       6.422  -6.747   5.502  1.00  0.00    -0.000 C 
BRANCH  29  30
ATOM     30  C   UNL     1       4.900  -6.543   5.377  1.00  0.00    -0.000 C 
BRANCH  30  31
ATOM     31  C   UNL     1       4.182  -7.549   4.460  1.00  0.00    -0.003 C 
ATOM     32  C   UNL     1       4.382  -9.001   4.892  1.00  0.00     0.004 C 
ENDBRANCH  30  31
ENDBRANCH  29  30
ENDBRANCH  28  29
ENDBRANCH  27  28
ENDBRANCH  26  27
ENDBRANCH  25  26
ENDBRANCH  24  25
ENDBRANCH  23  24
ENDBRANCH  22  23
ENDBRANCH  21  22
ENDBRANCH  20  21
ENDBRANCH  19  20
ENDBRANCH  18  19
ENDBRANCH   1  18
TORSDOF 28
ENDMDL
MODEL 3
REMARK VINA RESULT:    -0.839      2.242      4.736
REMARK INTER + INTRA:          -2.582
REMARK INTER:                  -0.163
REMARK INTRA:                  -2.420
REMARK UNBOUND:                -0.369
REMARK SMILES CCCCCCCCCCCCCCCCCCCCCCCCCCCCCC(=O)[O-]
REMARK SMILES IDX 16 1 17 2 18 3 19 4 20 5 21 6 22 7 23 8 24 9 25 10 26 11
REMARK SMILES IDX 27 12 28 13 29 14 30 15 31 16 32 17 15 18 14 19 13 20 12 21
REMARK SMILES IDX 11 22 10 23 9 24 8 25 7 26 6 27 5 28 4 29 3 30 2 31 1 32
REMARK H PARENT
REMARK Flexibility Score: inf
ROOT
ATOM      1  C   UNL     1      18.586  -5.750   8.668  1.00  0.00     0.000 C 
ENDROOT
BRANCH   1   2
ATOM      2  C   UNL     1      19.657  -6.060   7.610  1.00  0.00     0.000 C 
BRANCH   2   3
ATOM      3  C   UNL     1      20.521  -4.824   7.324  1.00  0.00     0.000 C 
BRANCH   3   4
ATOM      4  C   UNL     1      20.255  -4.214   5.936  1.00  0.00     0.000 C 
BRANCH   4   5
ATOM      5  C   UNL     1      20.470  -5.174   4.750  1.00  0.00     0.000 C 
BRANCH   5   6
ATOM      6  C   UNL     1      21.710  -4.870   3.884  1.00  0.00     0.000 C 
BRANCH   6   7
ATOM      7  C   UNL     1      22.811  -5.948   3.928  1.00  0.00     0.000 C 
BRANCH   7   8
ATOM      8  C   UNL     1      22.447  -7.225   4.713  1.00  0.00     0.000 C 
BRANCH   8   9
ATOM      9  C   UNL     1      22.601  -8.541   3.929  1.00  0.00     0.000 C 
BRANCH   9  10
ATOM     10  C   UNL     1      21.308  -9.367   3.882  1.00  0.00     0.000 C 
BRANCH  10  11
ATOM     11  C   UNL     1      20.076  -8.454   3.958  1.00  0.00     0.000 C 
BRANCH  11  12
ATOM     12  C   UNL     1      19.276  -8.628   5.261  1.00  0.00     0.000 C 
BRANCH  12  13
ATOM     13  C   UNL     1      19.370 -10.025   5.902  1.00  0.00     0.006 C 
BRANCH  13  14
ATOM     14  C   UNL     1      18.792 -10.074   7.325  1.00  0.00     0.053 C 
BRANCH  14  15
ATOM     15  C   UNL     1      19.821  -9.674   8.338  1.00  0.00     0.041 C 
ATOM     16  O   UNL     1      21.046  -9.688   8.040  1.00  0.00    -0.550 OA
ATOM     17  O   UNL     1      19.426  -9.263   9.606  1.00  0.00    -0.550 OA
ENDBRANCH  14  15
ENDBRANCH  13  14
ENDBRANCH  12  13
ENDBRANCH  11  12
ENDBRANCH  10  11
ENDBRANCH   9  10
ENDBRANCH   8   9
ENDBRANCH   7   8
ENDBRANCH   6   7
ENDBRANCH   5   6
ENDBRANCH   4   5
ENDBRANCH   3   4
ENDBRANCH   2   3
ENDBRANCH   1   2
BRANCH   1  18
ATOM     18  C   UNL     1      17.387  -6.709   8.594  1.00  0.00     0.000 C 
BRANCH  18  19
ATOM     19  C   UNL     1      16.437  -6.378   7.434  1.00  0.00     0.000 C 
BRANCH  19  20
ATOM     20  C   UNL     1      16.854  -7.116   6.156  1.00  0.00     0.000 C 
BRANCH  20  21
ATOM     21  C   UNL     1      15.796  -8.149   5.746  1.00  0.00     0.000 C 
BRANCH  21  22
ATOM     22  C   UNL     1      14.535  -7.513   5.134  1.00  0.00     0.000 C 
BRANCH  22  23
ATOM     23  C   UNL     1      13.917  -8.283   3.952  1.00  0.00     0.000 C 
BRANCH  23  24
ATOM     24  C   UNL     1      12.381  -8.206   3.919  1.00  0.00    -0.000 C 
BRANCH  24  25
ATOM     25  C   UNL     1      11.711  -9.223   4.861  1.00  0.00    -0.000 C 
BRANCH  25  26
ATOM     26  C   UNL     1      10.249  -8.911   5.234  1.00  0.00    -0.000 C 
BRANCH  26  27
ATOM     27  C   UNL     1       9.882  -7.432   5.032  1.00  0.00    -0.000 C 
BRANCH  27  28
ATOM     28  C   UNL     1       8.525  -7.252   4.330  1.00  0.00    -0.000 C 
BRANCH  28  29
ATOM     29  C   UNL     1       7.412  -8.099   4.971  1.00  0.00    -0.000 C 
BRANCH  29  30
ATOM     30  C   UNL     1       7.181  -7.761   6.457  1.00  0.00    -0.000 C 
BRANCH  30  31
ATOM     31  C   UNL     1       7.874  -8.708   7.453  1.00  0.00    -0.003 C 
ATOM     32  C   UNL     1       7.223 -10.089   7.519  1.00  0.00     0.004 C 
ENDBRANCH  30  31
ENDBRANCH  29  30
ENDBRANCH  28  29
ENDBRANCH  27  28
ENDBRANCH  26  27
ENDBRANCH  25  26
ENDBRANCH  24  25
ENDBRANCH  23  24
ENDBRANCH  22  23
ENDBRANCH  21  22
ENDBRANCH  20  21
ENDBRANCH  19  20
ENDBRANCH  18  19
ENDBRANCH   1  18
TORSDOF 28
ENDMDL
MODEL 4
REMARK VINA RESULT:     0.361      3.795     10.482
REMARK INTER + INTRA:           0.584
REMARK INTER:                  -1.051
REMARK INTRA:                   1.635
REMARK UNBOUND:                -0.369
REMARK SMILES CCCCCCCCCCCCCCCCCCCCCCCCCCCCCC(=O)[O-]
REMARK SMILES IDX 16 1 17 2 18 3 19 4 20 5 21 6 22 7 23 8 24 9 25 10 26 11
REMARK SMILES IDX 27 12 28 13 29 14 30 15 31 16 32 17 15 18 14 19 13 20 12 21
REMARK SMILES IDX 11 22 10 23 9 24 8 25 7 26 6 27 5 28 4 29 3 30 2 31 1 32
REMARK H PARENT
REMARK Flexibility Score: inf
ROOT
ATOM      1  C   UNL     1      19.472  -5.255   5.076  1.00  0.00     0.000 C 
ENDROOT
BRANCH   1   2
ATOM      2  C   UNL     1      19.059  -6.732   4.986  1.00  0.00     0.000 C 
BRANCH   2   3
ATOM      3  C   UNL     1      18.009  -6.943   3.886  1.00  0.00     0.000 C 
BRANCH   3   4
ATOM      4  C   UNL     1      16.568  -6.951   4.426  1.00  0.00     0.000 C 
BRANCH   4   5
ATOM      5  C   UNL     1      16.243  -8.099   5.403  1.00  0.00     0.000 C 
BRANCH   5   6
ATOM      6  C   UNL     1      16.250  -9.507   4.775  1.00  0.00     0.000 C 
BRANCH   6   7
ATOM      7  C   UNL     1      15.039  -9.822   3.875  1.00  0.00     0.000 C 
BRANCH   7   8
ATOM      8  C   UNL     1      13.672  -9.813   4.589  1.00  0.00     0.000 C 
BRANCH   8   9
ATOM      9  C   UNL     1      12.836  -8.537   4.387  1.00  0.00     0.000 C 
BRANCH   9  10
ATOM     10  C   UNL     1      11.417  -8.824   3.875  1.00  0.00     0.000 C 
BRANCH  10  11
ATOM     11  C   UNL     1      10.441  -7.731   4.335  1.00  0.00     0.000 C 
BRANCH  11  12
ATOM     12  C   UNL     1       9.704  -8.091   5.637  1.00  0.00     0.000 C 
BRANCH  12  13
ATOM     13  C   UNL     1       8.718  -9.268   5.524  1.00  0.00     0.006 C 
BRANCH  13  14
ATOM     14  C   UNL     1       7.263  -8.817   5.319  1.00  0.00     0.053 C 
BRANCH  14  15
ATOM     15  C   UNL     1       6.745  -8.107   6.532  1.00  0.00     0.041 C 
ATOM     16  O   UNL     1       7.057  -8.509   7.686  1.00  0.00    -0.550 OA
ATOM     17  O   UNL     1       5.933  -6.988   6.389  1.00  0.00    -0.550 OA
ENDBRANCH  14  15
ENDBRANCH  13  14
ENDBRANCH  12  13
ENDBRANCH  11  12
ENDBRANCH  10  11
ENDBRANCH   9  10
ENDBRANCH   8   9
ENDBRANCH   7   8
ENDBRANCH   6   7
ENDBRANCH   5   6
ENDBRANCH   4   5
ENDBRANCH   3   4
ENDBRANCH   2   3
ENDBRANCH   1   2
BRANCH   1  18
ATOM     18  C   UNL     1      20.910  -5.012   4.590  1.00  0.00     0.000 C 
BRANCH  18  19
ATOM     19  C   UNL     1      21.522  -6.249   3.917  1.00  0.00     0.000 C 
BRANCH  19  20
ATOM     20  C   UNL     1      22.620  -6.864   4.794  1.00  0.00     0.000 C 
BRANCH  20  21
ATOM     21  C   UNL     1      22.014  -7.688   5.939  1.00  0.00     0.000 C 
BRANCH  21  22
ATOM     22  C   UNL     1      20.613  -8.236   5.613  1.00  0.00     0.000 C 
BRANCH  22  23
ATOM     23  C   UNL     1      20.432  -9.750   5.833  1.00  0.00     0.000 C 
BRANCH  23  24
ATOM     24  C   UNL     1      19.458 -10.080   6.977  1.00  0.00    -0.000 C 
BRANCH  24  25
ATOM     25  C   UNL     1      20.086  -9.894   8.370  1.00  0.00    -0.000 C 
BRANCH  25  26
ATOM     26  C   UNL     1      19.479  -8.762   9.220  1.00  0.00    -0.000 C 
BRANCH  26  27
ATOM     27  C   UNL     1      19.514  -7.397   8.513  1.00  0.00    -0.000 C 
BRANCH  27  28
ATOM     28  C   UNL     1      18.151  -6.683   8.543  1.00  0.00    -0.000 C 
BRANCH  28  29
ATOM     29  C   UNL     1      17.091  -7.399   7.688  1.00  0.00    -0.000 C 
BRANCH  29  30
ATOM     30  C   UNL     1      15.702  -7.426   8.353  1.00  0.00    -0.000 C 
BRANCH  30  31
ATOM     31  C   UNL     1      14.526  -7.672   7.391  1.00  0.00    -0.003 C 
ATOM     32  C   UNL     1      13.335  -8.354   8.063  1.00  0.00     0.004 C 
ENDBRANCH  30  31
ENDBRANCH  29  30
ENDBRANCH  28  29
ENDBRANCH  27  28
ENDBRANCH  26  27
ENDBRANCH  25  26
ENDBRANCH  24  25
ENDBRANCH  23  24
ENDBRANCH  22  23
ENDBRANCH  21  22
ENDBRANCH  20  21
ENDBRANCH  19  20
ENDBRANCH  18  19
ENDBRANCH   1  18
TORSDOF 28
ENDMDL
MODEL 5
REMARK VINA RESULT:     0.765      1.780      3.866
REMARK INTER + INTRA:           1.647
REMARK INTER:                  -1.068
REMARK INTRA:                   2.715
REMARK UNBOUND:                -0.369
REMARK SMILES CCCCCCCCCCCCCCCCCCCCCCCCCCCCCC(=O)[O-]
REMARK SMILES IDX 16 1 17 2 18 3 19 4 20 5 21 6 22 7 23 8 24 9 25 10 26 11
REMARK SMILES IDX 27 12 28 13 29 14 30 15 31 16 32 17 15 18 14 19 13 20 12 21
REMARK SMILES IDX 11 22 10 23 9 24 8 25 7 26 6 27 5 28 4 29 3 30 2 31 1 32
REMARK H PARENT
REMARK Flexibility Score: inf
ROOT
ATOM      1  C   UNL     1      17.757  -8.197   6.324  1.00  0.00     0.000 C 
ENDROOT
BRANCH   1   2
ATOM      2  C   UNL     1      19.001  -9.004   6.726  1.00  0.00     0.000 C 
BRANCH   2   3
ATOM      3  C   UNL     1      19.281 -10.124   5.713  1.00  0.00     0.000 C 
BRANCH   3   4
ATOM      4  C   UNL     1      20.136  -9.655   4.523  1.00  0.00     0.000 C 
BRANCH   4   5
ATOM      5  C   UNL     1      20.738  -8.243   4.667  1.00  0.00     0.000 C 
BRANCH   5   6
ATOM      6  C   UNL     1      22.268  -8.169   4.495  1.00  0.00     0.000 C 
BRANCH   6   7
ATOM      7  C   UNL     1      22.903  -6.827   4.911  1.00  0.00     0.000 C 
BRANCH   7   8
ATOM      8  C   UNL     1      22.723  -5.675   3.900  1.00  0.00     0.000 C 
BRANCH   8   9
ATOM      9  C   UNL     1      22.018  -4.424   4.454  1.00  0.00     0.000 C 
BRANCH   9  10
ATOM     10  C   UNL     1      20.487  -4.524   4.400  1.00  0.00     0.000 C 
BRANCH  10  11
ATOM     11  C   UNL     1      20.011  -5.878   4.943  1.00  0.00     0.000 C 
BRANCH  11  12
ATOM     12  C   UNL     1      20.271  -6.049   6.451  1.00  0.00     0.000 C 
BRANCH  12  13
ATOM     13  C   UNL     1      20.087  -4.772   7.292  1.00  0.00     0.006 C 
BRANCH  13  14
ATOM     14  C   UNL     1      19.724  -5.064   8.756  1.00  0.00     0.053 C 
BRANCH  14  15
ATOM     15  C   UNL     1      18.892  -6.304   8.868  1.00  0.00     0.041 C 
ATOM     16  O   UNL     1      19.432  -7.411   9.135  1.00  0.00    -0.550 OA
ATOM     17  O   UNL     1      17.513  -6.234   8.697  1.00  0.00    -0.550 OA
ENDBRANCH  14  15
ENDBRANCH  13  14
ENDBRANCH  12  13
ENDBRANCH  11  12
ENDBRANCH  10  11
ENDBRANCH   9  10
ENDBRANCH   8   9
ENDBRANCH   7   8
ENDBRANCH   6   7
ENDBRANCH   5   6
ENDBRANCH   4   5
ENDBRANCH   3   4
ENDBRANCH   2   3
ENDBRANCH   1   2
BRANCH   1  18
ATOM     18  C   UNL     1      17.029  -8.796   5.110  1.00  0.00     0.000 C 
BRANCH  18  19
ATOM     19  C   UNL     1      17.045  -7.861   3.892  1.00  0.00     0.000 C 
BRANCH  19  20
ATOM     20  C   UNL     1      16.267  -6.571   4.181  1.00  0.00     0.000 C 
BRANCH  20  21
ATOM     21  C   UNL     1      15.051  -6.849   5.075  1.00  0.00     0.000 C 
BRANCH  21  22
ATOM     22  C   UNL     1      14.030  -7.802   4.427  1.00  0.00     0.000 C 
BRANCH  22  23
ATOM     23  C   UNL     1      13.375  -8.814   5.385  1.00  0.00     0.000 C 
BRANCH  23  24
ATOM     24  C   UNL     1      12.867 -10.079   4.671  1.00  0.00    -0.000 C 
BRANCH  24  25
ATOM     25  C   UNL     1      11.571  -9.836   3.875  1.00  0.00    -0.000 C 
BRANCH  25  26
ATOM     26  C   UNL     1      10.309  -9.604   4.727  1.00  0.00    -0.000 C 
BRANCH  26  27
ATOM     27  C   UNL     1      10.534  -8.601   5.871  1.00  0.00    -0.000 C 
BRANCH  27  28
ATOM     28  C   UNL     1       9.419  -8.656   6.930  1.00  0.00    -0.000 C 
BRANCH  28  29
ATOM     29  C   UNL     1       8.065  -8.168   6.387  1.00  0.00    -0.000 C 
BRANCH  29  30
ATOM     30  C   UNL     1       6.869  -8.935   6.981  1.00  0.00    -0.000 C 
BRANCH  30  31
ATOM     31  C   UNL     1       5.627  -9.004   6.075  1.00  0.00    -0.003 C 
ATOM     32  C   UNL     1       5.382  -7.713   5.294  1.00  0.00     0.004 C 
ENDBRANCH  30  31
ENDBRANCH  29  30
ENDBRANCH  28  29
ENDBRANCH  27  28
ENDBRANCH  26  27
ENDBRANCH  25  26
ENDBRANCH  24  25
ENDBRANCH  23  24
ENDBRANCH  22  23
ENDBRANCH  21  22
ENDBRANCH  20  21
ENDBRANCH  19  20
ENDBRANCH  18  19
ENDBRANCH   1  18
TORSDOF 28
ENDMDL
MODEL 6
REMARK VINA RESULT:     1.165      1.312      2.266
REMARK INTER + INTRA:           2.703
REMARK INTER:                  -0.664
REMARK INTRA:                   3.366
REMARK UNBOUND:                -0.369
REMARK SMILES CCCCCCCCCCCCCCCCCCCCCCCCCCCCCC(=O)[O-]
REMARK SMILES IDX 16 1 17 2 18 3 19 4 20 5 21 6 22 7 23 8 24 9 25 10 26 11
REMARK SMILES IDX 27 12 28 13 29 14 30 15 31 16 32 17 15 18 14 19 13 20 12 21
REMARK SMILES IDX 11 22 10 23 9 24 8 25 7 26 6 27 5 28 4 29 3 30 2 31 1 32
REMARK H PARENT
REMARK Flexibility Score: inf
ROOT
ATOM      1  C   UNL     1      15.320  -6.888   7.207  1.00  0.00     0.000 C 
ENDROOT
BRANCH   1   2
ATOM      2  C   UNL     1      16.704  -7.525   7.002  1.00  0.00     0.000 C 
BRANCH   2   3
ATOM      3  C   UNL     1      16.638  -8.662   5.973  1.00  0.00     0.000 C 
BRANCH   3   4
ATOM      4  C   UNL     1      16.975  -8.197   4.545  1.00  0.00     0.000 C 
BRANCH   4   5
ATOM      5  C   UNL     1      18.151  -8.938   3.877  1.00  0.00     0.000 C 
BRANCH   5   6
ATOM      6  C   UNL     1      18.883  -9.946   4.786  1.00  0.00     0.000 C 
BRANCH   6   7
ATOM      7  C   UNL     1      20.265  -9.482   5.287  1.00  0.00     0.000 C 
BRANCH   7   8
ATOM      8  C   UNL     1      21.011  -8.513   4.347  1.00  0.00     0.000 C 
BRANCH   8   9
ATOM      9  C   UNL     1      20.336  -7.144   4.148  1.00  0.00     0.000 C 
BRANCH   9  10
ATOM     10  C   UNL     1      20.854  -6.072   5.116  1.00  0.00     0.000 C 
BRANCH  10  11
ATOM     11  C   UNL     1      20.779  -6.566   6.567  1.00  0.00     0.000 C 
BRANCH  11  12
ATOM     12  C   UNL     1      19.338  -6.842   7.036  1.00  0.00     0.000 C 
BRANCH  12  13
ATOM     13  C   UNL     1      19.005  -6.333   8.450  1.00  0.00     0.006 C 
BRANCH  13  14
ATOM     14  C   UNL     1      19.562  -7.234   9.562  1.00  0.00     0.053 C 
BRANCH  14  15
ATOM     15  C   UNL     1      19.627  -8.662   9.114  1.00  0.00     0.041 C 
ATOM     16  O   UNL     1      19.654  -9.594   9.963  1.00  0.00    -0.550 OA
ATOM     17  O   UNL     1      19.636  -8.966   7.757  1.00  0.00    -0.550 OA
ENDBRANCH  14  15
ENDBRANCH  13  14
ENDBRANCH  12  13
ENDBRANCH  11  12
ENDBRANCH  10  11
ENDBRANCH   9  10
ENDBRANCH   8   9
ENDBRANCH   7   8
ENDBRANCH   6   7
ENDBRANCH   5   6
ENDBRANCH   4   5
ENDBRANCH   3   4
ENDBRANCH   2   3
ENDBRANCH   1   2
BRANCH   1  18
ATOM     18  C   UNL     1      14.346  -7.816   7.951  1.00  0.00     0.000 C 
BRANCH  18  19
ATOM     19  C   UNL     1      14.105  -9.137   7.206  1.00  0.00     0.000 C 
BRANCH  19  20
ATOM     20  C   UNL     1      13.637  -8.879   5.768  1.00  0.00     0.000 C 
BRANCH  20  21
ATOM     21  C   UNL     1      12.485  -7.865   5.737  1.00  0.00     0.000 C 
BRANCH  21  22
ATOM     22  C   UNL     1      11.381  -8.237   4.730  1.00  0.00     0.000 C 
BRANCH  22  23
ATOM     23  C   UNL     1      10.689  -9.589   4.982  1.00  0.00     0.000 C 
BRANCH  23  24
ATOM     24  C   UNL     1       9.692  -9.972   3.875  1.00  0.00    -0.000 C 
BRANCH  24  25
ATOM     25  C   UNL     1       8.273  -9.433   4.135  1.00  0.00    -0.000 C 
BRANCH  25  26
ATOM     26  C   UNL     1       7.824  -9.447   5.608  1.00  0.00    -0.000 C 
BRANCH  26  27
ATOM     27  C   UNL     1       7.765  -8.041   6.230  1.00  0.00    -0.000 C 
BRANCH  27  28
ATOM     28  C   UNL     1       7.172  -6.996   5.269  1.00  0.00    -0.000 C 
BRANCH  28  29
ATOM     29  C   UNL     1       5.750  -6.565   5.670  1.00  0.00    -0.000 C 
BRANCH  29  30
ATOM     30  C   UNL     1       4.661  -7.176   4.769  1.00  0.00    -0.000 C 
BRANCH  30  31
ATOM     31  C   UNL     1       4.218  -8.597   5.159  1.00  0.00    -0.003 C 
ATOM     32  C   UNL     1       4.281  -9.585   3.994  1.00  0.00     0.004 C 
ENDBRANCH  30  31
ENDBRANCH  29  30
ENDBRANCH  28  29
ENDBRANCH  27  28
ENDBRANCH  26  27
ENDBRANCH  25  26
ENDBRANCH  24  25
ENDBRANCH  23  24
ENDBRANCH  22  23
ENDBRANCH  21  22
ENDBRANCH  20  21
ENDBRANCH  19  20
ENDBRANCH  18  19
ENDBRANCH   1  18
TORSDOF 28
ENDMDL
MODEL 7
REMARK VINA RESULT:     1.415      4.350     12.143
REMARK INTER + INTRA:           3.363
REMARK INTER:                   3.474
REMARK INTRA:                  -0.111
REMARK UNBOUND:                -0.369
REMARK SMILES CCCCCCCCCCCCCCCCCCCCCCCCCCCCCC(=O)[O-]
REMARK SMILES IDX 16 1 17 2 18 3 19 4 20 5 21 6 22 7 23 8 24 9 25 10 26 11
REMARK SMILES IDX 27 12 28 13 29 14 30 15 31 16 32 17 15 18 14 19 13 20 12 21
REMARK SMILES IDX 11 22 10 23 9 24 8 25 7 26 6 27 5 28 4 29 3 30 2 31 1 32
REMARK H PARENT
REMARK Flexibility Score: inf
ROOT
ATOM      1  C   UNL     1      16.190  -7.060   8.708  1.00  0.00     0.000 C 
ENDROOT
BRANCH   1   2
ATOM      2  C   UNL     1      14.997  -7.442   7.817  1.00  0.00     0.000 C 
BRANCH   2   3
ATOM      3  C   UNL     1      15.473  -7.923   6.439  1.00  0.00     0.000 C 
BRANCH   3   4
ATOM      4  C   UNL     1      15.572  -9.456   6.340  1.00  0.00     0.000 C 
BRANCH   4   5
ATOM      5  C   UNL     1      14.499 -10.124   5.459  1.00  0.00     0.000 C 
BRANCH   5   6
ATOM      6  C   UNL     1      13.313  -9.216   5.078  1.00  0.00     0.000 C 
BRANCH   6   7
ATOM      7  C   UNL     1      12.482  -9.705   3.875  1.00  0.00     0.000 C 
BRANCH   7   8
ATOM      8  C   UNL     1      10.984  -9.932   4.163  1.00  0.00     0.000 C 
BRANCH   8   9
ATOM      9  C   UNL     1      10.185  -8.663   4.511  1.00  0.00     0.000 C 
BRANCH   9  10
ATOM     10  C   UNL     1       9.320  -8.824   5.769  1.00  0.00     0.000 C 
BRANCH  10  11
ATOM     11  C   UNL     1       7.828  -8.745   5.418  1.00  0.00     0.000 C 
BRANCH  11  12
ATOM     12  C   UNL     1       6.920  -8.671   6.659  1.00  0.00     0.000 C 
BRANCH  12  13
ATOM     13  C   UNL     1       5.783  -7.636   6.573  1.00  0.00     0.006 C 
BRANCH  13  14
ATOM     14  C   UNL     1       6.008  -6.584   5.475  1.00  0.00     0.053 C 
BRANCH  14  15
ATOM     15  C   UNL     1       4.706  -6.140   4.882  1.00  0.00     0.041 C 
ATOM     16  O   UNL     1       4.404  -4.916   4.857  1.00  0.00    -0.550 OA
ATOM     17  O   UNL     1       3.835  -7.075   4.336  1.00  0.00    -0.550 OA
ENDBRANCH  14  15
ENDBRANCH  13  14
ENDBRANCH  12  13
ENDBRANCH  11  12
ENDBRANCH  10  11
ENDBRANCH   9  10
ENDBRANCH   8   9
ENDBRANCH   7   8
ENDBRANCH   6   7
ENDBRANCH   5   6
ENDBRANCH   4   5
ENDBRANCH   3   4
ENDBRANCH   2   3
ENDBRANCH   1   2
BRANCH   1  18
ATOM     18  C   UNL     1      17.086  -5.987   8.069  1.00  0.00     0.000 C 
BRANCH  18  19
ATOM     19  C   UNL     1      18.501  -6.503   7.768  1.00  0.00     0.000 C 
BRANCH  19  20
ATOM     20  C   UNL     1      18.489  -7.476   6.583  1.00  0.00     0.000 C 
BRANCH  20  21
ATOM     21  C   UNL     1      17.871  -6.822   5.339  1.00  0.00     0.000 C 
BRANCH  21  22
ATOM     22  C   UNL     1      18.808  -5.804   4.663  1.00  0.00     0.000 C 
BRANCH  22  23
ATOM     23  C   UNL     1      19.914  -5.228   5.567  1.00  0.00     0.000 C 
BRANCH  23  24
ATOM     24  C   UNL     1      20.959  -4.407   4.792  1.00  0.00    -0.000 C 
BRANCH  24  25
ATOM     25  C   UNL     1      21.918  -5.286   3.968  1.00  0.00    -0.000 C 
BRANCH  25  26
ATOM     26  C   UNL     1      21.533  -6.774   3.876  1.00  0.00    -0.000 C 
BRANCH  26  27
ATOM     27  C   UNL     1      22.334  -7.662   4.844  1.00  0.00    -0.000 C 
BRANCH  27  28
ATOM     28  C   UNL     1      22.636  -9.051   4.257  1.00  0.00    -0.000 C 
BRANCH  28  29
ATOM     29  C   UNL     1      21.367  -9.902   4.073  1.00  0.00    -0.000 C 
BRANCH  29  30
ATOM     30  C   UNL     1      20.598 -10.125   5.389  1.00  0.00    -0.000 C 
BRANCH  30  31
ATOM     31  C   UNL     1      19.065 -10.109   5.256  1.00  0.00    -0.003 C 
ATOM     32  C   UNL     1      18.588  -9.659   3.875  1.00  0.00     0.004 C 
ENDBRANCH  30  31
ENDBRANCH  29  30
ENDBRANCH  28  29
ENDBRANCH  27  28
ENDBRANCH  26  27
ENDBRANCH  25  26
ENDBRANCH  24  25
ENDBRANCH  23  24
ENDBRANCH  22  23
ENDBRANCH  21  22
ENDBRANCH  20  21
ENDBRANCH  19  20
ENDBRANCH  18  19
ENDBRANCH   1  18
TORSDOF 28
ENDMDL
