MODEL 1
REMARK VINA RESULT:    -4.015      0.000      0.000
REMARK INTER + INTRA:         -12.793
REMARK INTER:                  -8.708
REMARK INTRA:                  -4.085
REMARK UNBOUND:                -4.085
REMARK SMILES CCCCCCCCCCCCCCCCCCCCCC(=O)[O-]
REMARK SMILES IDX 12 1 11 2 10 3 9 4 8 5 7 6 6 7 5 8 4 9 3 10 2 11 1 12 13 13
REMARK SMILES IDX 14 14 15 15 16 16 17 17 18 18 19 19 20 20 21 21 22 22 23 23
REMARK SMILES IDX 24 24
REMARK H PARENT
REMARK Flexibility Score: inf
ROOT
ATOM      1  C   UNL     1      85.784 125.952 128.250  1.00  0.00     0.000 C 
ENDROOT
BRANCH   1   2
ATOM      2  C   UNL     1      84.565 125.189 127.697  1.00  0.00     0.000 C 
BRANCH   2   3
ATOM      3  C   UNL     1      84.250 123.882 128.454  1.00  0.00     0.000 C 
BRANCH   3   4
ATOM      4  C   UNL     1      82.749 123.711 128.737  1.00  0.00    -0.000 C 
BRANCH   4   5
ATOM      5  C   UNL     1      82.521 122.807 129.954  1.00  0.00    -0.000 C 
BRANCH   5   6
ATOM      6  C   UNL     1      83.620 121.740 130.066  1.00  0.00    -0.000 C 
BRANCH   6   7
ATOM      7  C   UNL     1      83.367 120.538 129.129  1.00  0.00    -0.000 C 
BRANCH   7   8
ATOM      8  C   UNL     1      84.496 120.307 128.107  1.00  0.00    -0.000 C 
BRANCH   8   9
ATOM      9  C   UNL     1      84.017 119.983 126.680  1.00  0.00    -0.000 C 
BRANCH   9  10
ATOM     10  C   UNL     1      82.716 120.692 126.250  1.00  0.00    -0.000 C 
BRANCH  10  11
ATOM     11  C   UNL     1      82.918 121.997 125.460  1.00  0.00    -0.003 C 
ATOM     12  C   UNL     1      84.370 122.228 125.047  1.00  0.00     0.004 C 
ENDBRANCH  10  11
ENDBRANCH   9  10
ENDBRANCH   8   9
ENDBRANCH   7   8
ENDBRANCH   6   7
ENDBRANCH   5   6
ENDBRANCH   4   5
ENDBRANCH   3   4
ENDBRANCH   2   3
ENDBRANCH   1   2
BRANCH   1  13
ATOM     13  C   UNL     1      85.455 127.036 129.291  1.00  0.00     0.000 C 
BRANCH  13  14
ATOM     14  C   UNL     1      83.971 127.109 129.707  1.00  0.00     0.000 C 
BRANCH  14  15
ATOM     15  C   UNL     1      83.753 127.099 131.236  1.00  0.00     0.000 C 
BRANCH  15  16
ATOM     16  C   UNL     1      83.803 125.678 131.824  1.00  0.00     0.000 C 
BRANCH  16  17
ATOM     17  C   UNL     1      84.714 125.582 133.058  1.00  0.00     0.000 C 
BRANCH  17  18
ATOM     18  C   UNL     1      86.132 125.100 132.711  1.00  0.00     0.000 C 
BRANCH  18  19
ATOM     19  C   UNL     1      86.119 123.849 131.807  1.00  0.00     0.000 C 
BRANCH  19  20
ATOM     20  C   UNL     1      87.282 123.806 130.799  1.00  0.00     0.006 C 
BRANCH  20  21
ATOM     21  C   UNL     1      87.245 122.600 129.847  1.00  0.00     0.053 C 
BRANCH  21  22
ATOM     22  C   UNL     1      87.704 121.335 130.509  1.00  0.00     0.041 C 
ATOM     23  O   UNL     1      88.906 121.205 130.862  1.00  0.00    -0.550 OA
ATOM     24  O   UNL     1      86.799 120.313 130.765  1.00  0.00    -0.550 OA
ENDBRANCH  21  22
ENDBRANCH  20  21
ENDBRANCH  19  20
ENDBRANCH  18  19
ENDBRANCH  17  18
ENDBRANCH  16  17
ENDBRANCH  15  16
ENDBRANCH  14  15
ENDBRANCH  13  14
ENDBRANCH   1  13
TORSDOF 20
ENDMDL
MODEL 2
REMARK VINA RESULT:    -3.893      2.012      3.572
REMARK INTER + INTRA:         -12.528
REMARK INTER:                  -9.118
REMARK INTRA:                  -3.411
REMARK UNBOUND:                -4.085
REMARK SMILES CCCCCCCCCCCCCCCCCCCCCC(=O)[O-]
REMARK SMILES IDX 12 1 11 2 10 3 9 4 8 5 7 6 6 7 5 8 4 9 3 10 2 11 1 12 13 13
REMARK SMILES IDX 14 14 15 15 16 16 17 17 18 18 19 19 20 20 21 21 22 22 23 23
REMARK SMILES IDX 24 24
REMARK H PARENT
REMARK Flexibility Score: inf
ROOT
ATOM      1  C   UNL     1      84.920 127.097 130.124  1.00  0.00     0.000 C 
ENDROOT
BRANCH   1   2
ATOM      2  C   UNL     1      83.420 127.424 130.252  1.00  0.00     0.000 C 
BRANCH   2   3
ATOM      3  C   UNL     1      82.550 126.216 130.659  1.00  0.00     0.000 C 
BRANCH   3   4
ATOM      4  C   UNL     1      81.976 125.468 129.446  1.00  0.00    -0.000 C 
BRANCH   4   5
ATOM      5  C   UNL     1      82.267 123.966 129.541  1.00  0.00    -0.000 C 
BRANCH   5   6
ATOM      6  C   UNL     1      82.744 123.407 128.192  1.00  0.00    -0.000 C 
BRANCH   6   7
ATOM      7  C   UNL     1      82.663 124.456 127.062  1.00  0.00    -0.000 C 
BRANCH   7   8
ATOM      8  C   UNL     1      83.600 124.157 125.877  1.00  0.00    -0.000 C 
BRANCH   8   9
ATOM      9  C   UNL     1      83.057 123.129 124.869  1.00  0.00    -0.000 C 
BRANCH   9  10
ATOM     10  C   UNL     1      83.938 121.878 124.671  1.00  0.00    -0.000 C 
BRANCH  10  11
ATOM     11  C   UNL     1      84.552 121.305 125.961  1.00  0.00    -0.003 C 
ATOM     12  C   UNL     1      83.752 120.138 126.537  1.00  0.00     0.004 C 
ENDBRANCH  10  11
ENDBRANCH   9  10
ENDBRANCH   8   9
ENDBRANCH   7   8
ENDBRANCH   6   7
ENDBRANCH   5   6
ENDBRANCH   4   5
ENDBRANCH   3   4
ENDBRANCH   2   3
ENDBRANCH   1   2
BRANCH   1  13
ATOM     13  C   UNL     1      85.414 126.862 128.685  1.00  0.00     0.000 C 
BRANCH  13  14
ATOM     14  C   UNL     1      85.915 125.432 128.396  1.00  0.00     0.000 C 
BRANCH  14  15
ATOM     15  C   UNL     1      85.897 124.504 129.630  1.00  0.00     0.000 C 
BRANCH  15  16
ATOM     16  C   UNL     1      86.536 123.134 129.342  1.00  0.00     0.000 C 
BRANCH  16  17
ATOM     17  C   UNL     1      87.584 122.740 130.393  1.00  0.00     0.000 C 
BRANCH  17  18
ATOM     18  C   UNL     1      87.759 121.216 130.514  1.00  0.00     0.000 C 
BRANCH  18  19
ATOM     19  C   UNL     1      86.528 120.445 129.989  1.00  0.00     0.000 C 
BRANCH  19  20
ATOM     20  C   UNL     1      85.801 119.634 131.078  1.00  0.00     0.006 C 
BRANCH  20  21
ATOM     21  C   UNL     1      85.356 120.467 132.291  1.00  0.00     0.053 C 
BRANCH  21  22
ATOM     22  C   UNL     1      84.227 121.397 131.961  1.00  0.00     0.041 C 
ATOM     23  O   UNL     1      84.310 122.621 132.248  1.00  0.00    -0.550 OA
ATOM     24  O   UNL     1      83.097 120.921 131.309  1.00  0.00    -0.550 OA
ENDBRANCH  21  22
ENDBRANCH  20  21
ENDBRANCH  19  20
ENDBRANCH  18  19
ENDBRANCH  17  18
ENDBRANCH  16  17
ENDBRANCH  15  16
ENDBRANCH  14  15
ENDBRANCH  13  14
ENDBRANCH   1  13
TORSDOF 20
ENDMDL
MODEL 3
REMARK VINA RESULT:    -3.862      3.089      7.136
REMARK INTER + INTRA:         -12.461
REMARK INTER:                  -9.763
REMARK INTRA:                  -2.698
REMARK UNBOUND:                -4.085
REMARK SMILES CCCCCCCCCCCCCCCCCCCCCC(=O)[O-]
REMARK SMILES IDX 12 1 11 2 10 3 9 4 8 5 7 6 6 7 5 8 4 9 3 10 2 11 1 12 13 13
REMARK SMILES IDX 14 14 15 15 16 16 17 17 18 18 19 19 20 20 21 21 22 22 23 23
REMARK SMILES IDX 24 24
REMARK H PARENT
REMARK Flexibility Score: inf
ROOT
ATOM      1  C   UNL     1      86.741 123.253 129.339  1.00  0.00     0.000 C 
ENDROOT
BRANCH   1   2
ATOM      2  C   UNL     1      86.396 124.734 129.589  1.00  0.00     0.000 C 
BRANCH   2   3
ATOM      3  C   UNL     1      86.138 125.541 128.300  1.00  0.00     0.000 C 
BRANCH   3   4
ATOM      4  C   UNL     1      85.621 126.960 128.586  1.00  0.00    -0.000 C 
BRANCH   4   5
ATOM      5  C   UNL     1      85.125 127.081 130.031  1.00  0.00    -0.000 C 
BRANCH   5   6
ATOM      6  C   UNL     1      83.609 127.324 130.078  1.00  0.00    -0.000 C 
BRANCH   6   7
ATOM      7  C   UNL     1      83.133 127.785 131.473  1.00  0.00    -0.000 C 
BRANCH   7   8
ATOM      8  C   UNL     1      82.541 129.207 131.482  1.00  0.00    -0.000 C 
BRANCH   8   9
ATOM      9  C   UNL     1      82.926 130.058 132.705  1.00  0.00    -0.000 C 
BRANCH   9  10
ATOM     10  C   UNL     1      83.861 131.248 132.406  1.00  0.00    -0.000 C 
BRANCH  10  11
ATOM     11  C   UNL     1      83.249 132.636 132.663  1.00  0.00    -0.003 C 
ATOM     12  C   UNL     1      82.727 133.305 131.393  1.00  0.00     0.004 C 
ENDBRANCH  10  11
ENDBRANCH   9  10
ENDBRANCH   8   9
ENDBRANCH   7   8
ENDBRANCH   6   7
ENDBRANCH   5   6
ENDBRANCH   4   5
ENDBRANCH   3   4
ENDBRANCH   2   3
ENDBRANCH   1   2
BRANCH   1  13
ATOM     13  C   UNL     1      87.332 122.510 130.550  1.00  0.00     0.000 C 
BRANCH  13  14
ATOM     14  C   UNL     1      86.411 121.437 131.168  1.00  0.00     0.000 C 
BRANCH  14  15
ATOM     15  C   UNL     1      85.614 121.934 132.393  1.00  0.00     0.000 C 
BRANCH  15  16
ATOM     16  C   UNL     1      84.116 122.108 132.085  1.00  0.00     0.000 C 
BRANCH  16  17
ATOM     17  C   UNL     1      83.720 123.581 131.897  1.00  0.00     0.000 C 
BRANCH  17  18
ATOM     18  C   UNL     1      82.689 123.778 130.773  1.00  0.00     0.000 C 
BRANCH  18  19
ATOM     19  C   UNL     1      83.192 123.237 129.418  1.00  0.00     0.000 C 
BRANCH  19  20
ATOM     20  C   UNL     1      82.355 123.712 128.216  1.00  0.00     0.006 C 
BRANCH  20  21
ATOM     21  C   UNL     1      83.147 124.524 127.179  1.00  0.00     0.053 C 
BRANCH  21  22
ATOM     22  C   UNL     1      83.701 123.664 126.083  1.00  0.00     0.041 C 
ATOM     23  O   UNL     1      83.369 123.872 124.885  1.00  0.00    -0.550 OA
ATOM     24  O   UNL     1      84.606 122.654 126.378  1.00  0.00    -0.550 OA
ENDBRANCH  21  22
ENDBRANCH  20  21
ENDBRANCH  19  20
ENDBRANCH  18  19
ENDBRANCH  17  18
ENDBRANCH  16  17
ENDBRANCH  15  16
ENDBRANCH  14  15
ENDBRANCH  13  14
ENDBRANCH   1  13
TORSDOF 20
ENDMDL
MODEL 4
REMARK VINA RESULT:    -3.837      1.527      5.597
REMARK INTER + INTRA:         -12.408
REMARK INTER:                  -8.496
REMARK INTRA:                  -3.912
REMARK UNBOUND:                -4.085
REMARK SMILES CCCCCCCCCCCCCCCCCCCCCC(=O)[O-]
REMARK SMILES IDX 12 1 11 2 10 3 9 4 8 5 7 6 6 7 5 8 4 9 3 10 2 11 1 12 13 13
REMARK SMILES IDX 14 14 15 15 16 16 17 17 18 18 19 19 20 20 21 21 22 22 23 23
REMARK SMILES IDX 24 24
REMARK H PARENT
REMARK Flexibility Score: inf
ROOT
ATOM      1  C   UNL     1      86.082 124.963 128.275  1.00  0.00     0.000 C 
ENDROOT
BRANCH   1   2
ATOM      2  C   UNL     1      85.230 126.245 128.342  1.00  0.00     0.000 C 
BRANCH   2   3
ATOM      3  C   UNL     1      85.539 127.138 129.562  1.00  0.00     0.000 C 
BRANCH   3   4
ATOM      4  C   UNL     1      84.348 127.254 130.525  1.00  0.00    -0.000 C 
BRANCH   4   5
ATOM      5  C   UNL     1      83.081 126.658 129.903  1.00  0.00    -0.000 C 
BRANCH   5   6
ATOM      6  C   UNL     1      82.399 125.675 130.867  1.00  0.00    -0.000 C 
BRANCH   6   7
ATOM      7  C   UNL     1      83.292 125.328 132.078  1.00  0.00    -0.000 C 
BRANCH   7   8
ATOM      8  C   UNL     1      83.902 123.915 132.008  1.00  0.00    -0.000 C 
BRANCH   8   9
ATOM      9  C   UNL     1      85.332 123.802 132.566  1.00  0.00    -0.000 C 
BRANCH   9  10
ATOM     10  C   UNL     1      86.430 123.563 131.509  1.00  0.00    -0.000 C 
BRANCH  10  11
ATOM     11  C   UNL     1      86.455 122.147 130.908  1.00  0.00    -0.003 C 
ATOM     12  C   UNL     1      87.833 121.742 130.387  1.00  0.00     0.004 C 
ENDBRANCH  10  11
ENDBRANCH   9  10
ENDBRANCH   8   9
ENDBRANCH   7   8
ENDBRANCH   6   7
ENDBRANCH   5   6
ENDBRANCH   4   5
ENDBRANCH   3   4
ENDBRANCH   2   3
ENDBRANCH   1   2
BRANCH   1  13
ATOM     13  C   UNL     1      85.345 123.719 127.749  1.00  0.00     0.000 C 
BRANCH  13  14
ATOM     14  C   UNL     1      83.929 123.510 128.324  1.00  0.00     0.000 C 
BRANCH  14  15
ATOM     15  C   UNL     1      82.804 123.670 127.279  1.00  0.00     0.000 C 
BRANCH  15  16
ATOM     16  C   UNL     1      83.314 124.272 125.958  1.00  0.00     0.000 C 
BRANCH  16  17
ATOM     17  C   UNL     1      83.425 123.227 124.837  1.00  0.00     0.000 C 
BRANCH  17  18
ATOM     18  C   UNL     1      82.426 122.070 125.004  1.00  0.00     0.000 C 
BRANCH  18  19
ATOM     19  C   UNL     1      83.118 120.691 124.961  1.00  0.00     0.000 C 
BRANCH  19  20
ATOM     20  C   UNL     1      83.261 120.032 126.345  1.00  0.00     0.006 C 
BRANCH  20  21
ATOM     21  C   UNL     1      84.674 120.129 126.945  1.00  0.00     0.053 C 
BRANCH  21  22
ATOM     22  C   UNL     1      84.696 119.802 128.408  1.00  0.00     0.041 C 
ATOM     23  O   UNL     1      83.694 120.053 129.130  1.00  0.00    -0.550 OA
ATOM     24  O   UNL     1      85.811 119.193 128.970  1.00  0.00    -0.550 OA
ENDBRANCH  21  22
ENDBRANCH  20  21
ENDBRANCH  19  20
ENDBRANCH  18  19
ENDBRANCH  17  18
ENDBRANCH  16  17
ENDBRANCH  15  16
ENDBRANCH  14  15
ENDBRANCH  13  14
ENDBRANCH   1  13
TORSDOF 20
ENDMDL
MODEL 5
REMARK VINA RESULT:    -3.811      2.672      4.953
REMARK INTER + INTRA:         -12.352
REMARK INTER:                  -8.388
REMARK INTRA:                  -3.963
REMARK UNBOUND:                -4.085
REMARK SMILES CCCCCCCCCCCCCCCCCCCCCC(=O)[O-]
REMARK SMILES IDX 12 1 11 2 10 3 9 4 8 5 7 6 6 7 5 8 4 9 3 10 2 11 1 12 13 13
REMARK SMILES IDX 14 14 15 15 16 16 17 17 18 18 19 19 20 20 21 21 22 22 23 23
REMARK SMILES IDX 24 24
REMARK H PARENT
REMARK Flexibility Score: inf
ROOT
ATOM      1  C   UNL     1      83.135 124.491 125.725  1.00  0.00     0.000 C 
ENDROOT
BRANCH   1   2
ATOM      2  C   UNL     1      83.249 123.214 124.869  1.00  0.00     0.000 C 
BRANCH   2   3
ATOM      3  C   UNL     1      84.471 122.338 125.216  1.00  0.00     0.000 C 
BRANCH   3   4
ATOM      4  C   UNL     1      84.089 120.876 125.493  1.00  0.00    -0.000 C 
BRANCH   4   5
ATOM      5  C   UNL     1      82.948 120.793 126.514  1.00  0.00    -0.000 C 
BRANCH   5   6
ATOM      6  C   UNL     1      83.400 120.076 127.794  1.00  0.00    -0.000 C 
BRANCH   6   7
ATOM      7  C   UNL     1      84.873 119.617 127.720  1.00  0.00    -0.000 C 
BRANCH   7   8
ATOM      8  C   UNL     1      85.476 119.258 129.091  1.00  0.00    -0.000 C 
BRANCH   8   9
ATOM      9  C   UNL     1      84.697 119.804 130.301  1.00  0.00    -0.000 C 
BRANCH   9  10
ATOM     10  C   UNL     1      85.498 119.873 131.617  1.00  0.00    -0.000 C 
BRANCH  10  11
ATOM     11  C   UNL     1      85.892 121.292 132.064  1.00  0.00    -0.003 C 
ATOM     12  C   UNL     1      86.970 121.920 131.182  1.00  0.00     0.004 C 
ENDBRANCH  10  11
ENDBRANCH   9  10
ENDBRANCH   8   9
ENDBRANCH   7   8
ENDBRANCH   6   7
ENDBRANCH   5   6
ENDBRANCH   4   5
ENDBRANCH   3   4
ENDBRANCH   2   3
ENDBRANCH   1   2
BRANCH   1  13
ATOM     13  C   UNL     1      81.936 124.522 126.689  1.00  0.00     0.000 C 
BRANCH  13  14
ATOM     14  C   UNL     1      82.301 124.729 128.174  1.00  0.00     0.000 C 
BRANCH  14  15
ATOM     15  C   UNL     1      82.525 123.413 128.949  1.00  0.00     0.000 C 
BRANCH  15  16
ATOM     16  C   UNL     1      83.929 123.333 129.574  1.00  0.00     0.000 C 
BRANCH  16  17
ATOM     17  C   UNL     1      85.048 123.477 128.531  1.00  0.00     0.000 C 
BRANCH  17  18
ATOM     18  C   UNL     1      86.024 124.618 128.862  1.00  0.00     0.000 C 
BRANCH  18  19
ATOM     19  C   UNL     1      85.623 125.944 128.180  1.00  0.00     0.000 C 
BRANCH  19  20
ATOM     20  C   UNL     1      85.324 127.081 129.175  1.00  0.00     0.006 C 
BRANCH  20  21
ATOM     21  C   UNL     1      84.949 126.600 130.586  1.00  0.00     0.053 C 
BRANCH  21  22
ATOM     22  C   UNL     1      83.500 126.821 130.898  1.00  0.00     0.041 C 
ATOM     23  O   UNL     1      82.876 126.004 131.627  1.00  0.00    -0.550 OA
ATOM     24  O   UNL     1      82.844 127.944 130.410  1.00  0.00    -0.550 OA
ENDBRANCH  21  22
ENDBRANCH  20  21
ENDBRANCH  19  20
ENDBRANCH  18  19
ENDBRANCH  17  18
ENDBRANCH  16  17
ENDBRANCH  15  16
ENDBRANCH  14  15
ENDBRANCH  13  14
ENDBRANCH   1  13
TORSDOF 20
ENDMDL
MODEL 6
REMARK VINA RESULT:    -3.752      3.945      6.366
REMARK INTER + INTRA:         -12.222
REMARK INTER:                  -9.418
REMARK INTRA:                  -2.804
REMARK UNBOUND:                -4.085
REMARK SMILES CCCCCCCCCCCCCCCCCCCCCC(=O)[O-]
REMARK SMILES IDX 12 1 11 2 10 3 9 4 8 5 7 6 6 7 5 8 4 9 3 10 2 11 1 12 13 13
REMARK SMILES IDX 14 14 15 15 16 16 17 17 18 18 19 19 20 20 21 21 22 22 23 23
REMARK SMILES IDX 24 24
REMARK H PARENT
REMARK Flexibility Score: inf
ROOT
ATOM      1  C   UNL     1      84.052 122.619 127.358  1.00  0.00     0.000 C 
ENDROOT
BRANCH   1   2
ATOM      2  C   UNL     1      84.013 121.525 128.443  1.00  0.00     0.000 C 
BRANCH   2   3
ATOM      3  C   UNL     1      84.645 120.188 128.005  1.00  0.00     0.000 C 
BRANCH   3   4
ATOM      4  C   UNL     1      85.756 119.721 128.958  1.00  0.00    -0.000 C 
BRANCH   4   5
ATOM      5  C   UNL     1      85.222 119.561 130.386  1.00  0.00    -0.000 C 
BRANCH   5   6
ATOM      6  C   UNL     1      86.119 120.289 131.398  1.00  0.00    -0.000 C 
BRANCH   6   7
ATOM      7  C   UNL     1      85.315 120.863 132.585  1.00  0.00    -0.000 C 
BRANCH   7   8
ATOM      8  C   UNL     1      84.385 122.027 132.193  1.00  0.00    -0.000 C 
BRANCH   8   9
ATOM      9  C   UNL     1      85.036 123.100 131.302  1.00  0.00    -0.000 C 
BRANCH   9  10
ATOM     10  C   UNL     1      86.110 123.963 131.996  1.00  0.00    -0.000 C 
BRANCH  10  11
ATOM     11  C   UNL     1      87.378 124.217 131.162  1.00  0.00    -0.003 C 
ATOM     12  C   UNL     1      87.571 123.199 130.039  1.00  0.00     0.004 C 
ENDBRANCH  10  11
ENDBRANCH   9  10
ENDBRANCH   8   9
ENDBRANCH   7   8
ENDBRANCH   6   7
ENDBRANCH   5   6
ENDBRANCH   4   5
ENDBRANCH   3   4
ENDBRANCH   2   3
ENDBRANCH   1   2
BRANCH   1  13
ATOM     13  C   UNL     1      85.206 123.627 127.492  1.00  0.00     0.000 C 
BRANCH  13  14
ATOM     14  C   UNL     1      84.770 125.098 127.652  1.00  0.00     0.000 C 
BRANCH  14  15
ATOM     15  C   UNL     1      85.831 125.992 128.330  1.00  0.00     0.000 C 
BRANCH  15  16
ATOM     16  C   UNL     1      85.204 127.185 129.072  1.00  0.00     0.000 C 
BRANCH  16  17
ATOM     17  C   UNL     1      84.469 126.762 130.354  1.00  0.00     0.000 C 
BRANCH  17  18
ATOM     18  C   UNL     1      82.939 126.825 130.208  1.00  0.00     0.000 C 
BRANCH  18  19
ATOM     19  C   UNL     1      82.374 128.211 130.583  1.00  0.00     0.000 C 
BRANCH  19  20
ATOM     20  C   UNL     1      83.199 128.941 131.659  1.00  0.00     0.006 C 
BRANCH  20  21
ATOM     21  C   UNL     1      82.498 130.169 132.264  1.00  0.00     0.053 C 
BRANCH  21  22
ATOM     22  C   UNL     1      83.281 131.431 132.059  1.00  0.00     0.041 C 
ATOM     23  O   UNL     1      84.443 131.541 132.534  1.00  0.00    -0.550 OA
ATOM     24  O   UNL     1      82.741 132.474 131.318  1.00  0.00    -0.550 OA
ENDBRANCH  21  22
ENDBRANCH  20  21
ENDBRANCH  19  20
ENDBRANCH  18  19
ENDBRANCH  17  18
ENDBRANCH  16  17
ENDBRANCH  15  16
ENDBRANCH  14  15
ENDBRANCH  13  14
ENDBRANCH   1  13
TORSDOF 20
ENDMDL
MODEL 7
REMARK VINA RESULT:    -3.750      1.928      2.846
REMARK INTER + INTRA:         -12.220
REMARK INTER:                  -9.352
REMARK INTRA:                  -2.867
REMARK UNBOUND:                -4.085
REMARK SMILES CCCCCCCCCCCCCCCCCCCCCC(=O)[O-]
REMARK SMILES IDX 12 1 11 2 10 3 9 4 8 5 7 6 6 7 5 8 4 9 3 10 2 11 1 12 13 13
REMARK SMILES IDX 14 14 15 15 16 16 17 17 18 18 19 19 20 20 21 21 22 22 23 23
REMARK SMILES IDX 24 24
REMARK H PARENT
REMARK Flexibility Score: inf
ROOT
ATOM      1  C   UNL     1      85.632 126.081 128.317  1.00  0.00     0.000 C 
ENDROOT
BRANCH   1   2
ATOM      2  C   UNL     1      84.661 125.223 127.482  1.00  0.00     0.000 C 
BRANCH   2   3
ATOM      3  C   UNL     1      85.021 123.723 127.452  1.00  0.00     0.000 C 
BRANCH   3   4
ATOM      4  C   UNL     1      83.906 122.838 128.029  1.00  0.00    -0.000 C 
BRANCH   4   5
ATOM      5  C   UNL     1      84.026 121.400 127.513  1.00  0.00    -0.000 C 
BRANCH   5   6
ATOM      6  C   UNL     1      82.787 120.998 126.698  1.00  0.00    -0.000 C 
BRANCH   6   7
ATOM      7  C   UNL     1      82.182 122.190 125.925  1.00  0.00    -0.000 C 
BRANCH   7   8
ATOM      8  C   UNL     1      82.708 122.319 124.483  1.00  0.00    -0.000 C 
BRANCH   8   9
ATOM      9  C   UNL     1      83.261 121.016 123.879  1.00  0.00    -0.000 C 
BRANCH   9  10
ATOM     10  C   UNL     1      82.223 120.145 123.141  1.00  0.00    -0.000 C 
BRANCH  10  11
ATOM     11  C   UNL     1      82.620 119.731 121.713  1.00  0.00    -0.003 C 
ATOM     12  C   UNL     1      82.618 120.900 120.729  1.00  0.00     0.004 C 
ENDBRANCH  10  11
ENDBRANCH   9  10
ENDBRANCH   8   9
ENDBRANCH   7   8
ENDBRANCH   6   7
ENDBRANCH   5   6
ENDBRANCH   4   5
ENDBRANCH   3   4
ENDBRANCH   2   3
ENDBRANCH   1   2
BRANCH   1  13
ATOM     13  C   UNL     1      84.958 127.095 129.259  1.00  0.00     0.000 C 
BRANCH  13  14
ATOM     14  C   UNL     1      84.920 126.677 130.744  1.00  0.00     0.000 C 
BRANCH  14  15
ATOM     15  C   UNL     1      84.096 125.398 131.009  1.00  0.00     0.000 C 
BRANCH  15  16
ATOM     16  C   UNL     1      84.970 124.230 131.498  1.00  0.00     0.000 C 
BRANCH  16  17
ATOM     17  C   UNL     1      86.381 124.681 131.908  1.00  0.00     0.000 C 
BRANCH  17  18
ATOM     18  C   UNL     1      87.464 124.205 130.925  1.00  0.00     0.000 C 
BRANCH  18  19
ATOM     19  C   UNL     1      87.041 122.932 130.162  1.00  0.00     0.000 C 
BRANCH  19  20
ATOM     20  C   UNL     1      87.559 121.631 130.803  1.00  0.00     0.006 C 
BRANCH  20  21
ATOM     21  C   UNL     1      86.646 120.414 130.582  1.00  0.00     0.053 C 
BRANCH  21  22
ATOM     22  C   UNL     1      85.370 120.507 131.364  1.00  0.00     0.041 C 
ATOM     23  O   UNL     1      84.279 120.155 130.842  1.00  0.00    -0.550 OA
ATOM     24  O   UNL     1      85.389 120.954 132.679  1.00  0.00    -0.550 OA
ENDBRANCH  21  22
ENDBRANCH  20  21
ENDBRANCH  19  20
ENDBRANCH  18  19
ENDBRANCH  17  18
ENDBRANCH  16  17
ENDBRANCH  15  16
ENDBRANCH  14  15
ENDBRANCH  13  14
ENDBRANCH   1  13
TORSDOF 20
ENDMDL
MODEL 8
REMARK VINA RESULT:    -3.736      2.556      4.579
REMARK INTER + INTRA:         -12.188
REMARK INTER:                  -8.143
REMARK INTRA:                  -4.046
REMARK UNBOUND:                -4.085
REMARK SMILES CCCCCCCCCCCCCCCCCCCCCC(=O)[O-]
REMARK SMILES IDX 12 1 11 2 10 3 9 4 8 5 7 6 6 7 5 8 4 9 3 10 2 11 1 12 13 13
REMARK SMILES IDX 14 14 15 15 16 16 17 17 18 18 19 19 20 20 21 21 22 22 23 23
REMARK SMILES IDX 24 24
REMARK H PARENT
REMARK Flexibility Score: inf
ROOT
ATOM      1  C   UNL     1      84.882 124.737 127.495  1.00  0.00     0.000 C 
ENDROOT
BRANCH   1   2
ATOM      2  C   UNL     1      83.540 124.437 126.800  1.00  0.00     0.000 C 
BRANCH   2   3
ATOM      3  C   UNL     1      83.667 124.165 125.287  1.00  0.00     0.000 C 
BRANCH   3   4
ATOM      4  C   UNL     1      83.277 122.727 124.911  1.00  0.00    -0.000 C 
BRANCH   4   5
ATOM      5  C   UNL     1      84.463 121.773 125.089  1.00  0.00    -0.000 C 
BRANCH   5   6
ATOM      6  C   UNL     1      84.191 120.752 126.204  1.00  0.00    -0.000 C 
BRANCH   6   7
ATOM      7  C   UNL     1      82.698 120.695 126.594  1.00  0.00    -0.000 C 
BRANCH   7   8
ATOM      8  C   UNL     1      82.457 120.231 128.043  1.00  0.00    -0.000 C 
BRANCH   8   9
ATOM      9  C   UNL     1      83.102 121.122 129.120  1.00  0.00    -0.000 C 
BRANCH   9  10
ATOM     10  C   UNL     1      83.804 120.362 130.264  1.00  0.00    -0.000 C 
BRANCH  10  11
ATOM     11  C   UNL     1      85.302 120.089 130.039  1.00  0.00    -0.003 C 
ATOM     12  C   UNL     1      86.082 119.922 131.341  1.00  0.00     0.004 C 
ENDBRANCH  10  11
ENDBRANCH   9  10
ENDBRANCH   8   9
ENDBRANCH   7   8
ENDBRANCH   6   7
ENDBRANCH   5   6
ENDBRANCH   4   5
ENDBRANCH   3   4
ENDBRANCH   2   3
ENDBRANCH   1   2
BRANCH   1  13
ATOM     13  C   UNL     1      85.521 123.539 128.220  1.00  0.00     0.000 C 
BRANCH  13  14
ATOM     14  C   UNL     1      86.925 123.805 128.803  1.00  0.00     0.000 C 
BRANCH  14  15
ATOM     15  C   UNL     1      87.092 123.330 130.263  1.00  0.00     0.000 C 
BRANCH  15  16
ATOM     16  C   UNL     1      87.177 124.504 131.254  1.00  0.00     0.000 C 
BRANCH  16  17
ATOM     17  C   UNL     1      86.097 124.435 132.345  1.00  0.00     0.000 C 
BRANCH  17  18
ATOM     18  C   UNL     1      84.908 123.545 131.946  1.00  0.00     0.000 C 
BRANCH  18  19
ATOM     19  C   UNL     1      83.572 124.318 131.955  1.00  0.00     0.000 C 
BRANCH  19  20
ATOM     20  C   UNL     1      82.981 124.539 130.550  1.00  0.00     0.006 C 
BRANCH  20  21
ATOM     21  C   UNL     1      82.591 125.997 130.254  1.00  0.00     0.053 C 
BRANCH  21  22
ATOM     22  C   UNL     1      83.624 126.972 130.731  1.00  0.00     0.041 C 
ATOM     23  O   UNL     1      83.354 127.777 131.663  1.00  0.00    -0.550 OA
ATOM     24  O   UNL     1      84.894 126.974 130.171  1.00  0.00    -0.550 OA
ENDBRANCH  21  22
ENDBRANCH  20  21
ENDBRANCH  19  20
ENDBRANCH  18  19
ENDBRANCH  17  18
ENDBRANCH  16  17
ENDBRANCH  15  16
ENDBRANCH  14  15
ENDBRANCH  13  14
ENDBRANCH   1  13
TORSDOF 20
ENDMDL
MODEL 9
REMARK VINA RESULT:    -3.673      2.599      4.159
REMARK INTER + INTRA:         -12.052
REMARK INTER:                  -8.126
REMARK INTRA:                  -3.926
REMARK UNBOUND:                -4.085
REMARK SMILES CCCCCCCCCCCCCCCCCCCCCC(=O)[O-]
REMARK SMILES IDX 12 1 11 2 10 3 9 4 8 5 7 6 6 7 5 8 4 9 3 10 2 11 1 12 13 13
REMARK SMILES IDX 14 14 15 15 16 16 17 17 18 18 19 19 20 20 21 21 22 22 23 23
REMARK SMILES IDX 24 24
REMARK H PARENT
REMARK Flexibility Score: inf
ROOT
ATOM      1  C   UNL     1      86.340 124.678 128.251  1.00  0.00     0.000 C 
ENDROOT
BRANCH   1   2
ATOM      2  C   UNL     1      85.910 123.809 129.448  1.00  0.00     0.000 C 
BRANCH   2   3
ATOM      3  C   UNL     1      86.891 123.853 130.638  1.00  0.00     0.000 C 
BRANCH   3   4
ATOM      4  C   UNL     1      86.205 123.561 131.981  1.00  0.00    -0.000 C 
BRANCH   4   5
ATOM      5  C   UNL     1      85.075 122.539 131.807  1.00  0.00    -0.000 C 
BRANCH   5   6
ATOM      6  C   UNL     1      85.521 121.138 132.250  1.00  0.00    -0.000 C 
BRANCH   6   7
ATOM      7  C   UNL     1      86.252 120.373 131.125  1.00  0.00    -0.000 C 
BRANCH   7   8
ATOM      8  C   UNL     1      85.566 119.052 130.732  1.00  0.00    -0.000 C 
BRANCH   8   9
ATOM      9  C   UNL     1      84.518 119.178 129.611  1.00  0.00    -0.000 C 
BRANCH   9  10
ATOM     10  C   UNL     1      84.609 120.470 128.773  1.00  0.00    -0.000 C 
BRANCH  10  11
ATOM     11  C   UNL     1      84.620 120.256 127.250  1.00  0.00    -0.003 C 
ATOM     12  C   UNL     1      83.419 119.456 126.749  1.00  0.00     0.004 C 
ENDBRANCH  10  11
ENDBRANCH   9  10
ENDBRANCH   8   9
ENDBRANCH   7   8
ENDBRANCH   6   7
ENDBRANCH   5   6
ENDBRANCH   4   5
ENDBRANCH   3   4
ENDBRANCH   2   3
ENDBRANCH   1   2
BRANCH   1  13
ATOM     13  C   UNL     1      85.565 125.998 128.093  1.00  0.00     0.000 C 
BRANCH  13  14
ATOM     14  C   UNL     1      85.574 126.910 129.337  1.00  0.00     0.000 C 
BRANCH  14  15
ATOM     15  C   UNL     1      84.179 127.118 129.966  1.00  0.00     0.000 C 
BRANCH  15  16
ATOM     16  C   UNL     1      84.044 126.420 131.331  1.00  0.00     0.000 C 
BRANCH  16  17
ATOM     17  C   UNL     1      82.820 125.494 131.402  1.00  0.00     0.000 C 
BRANCH  17  18
ATOM     18  C   UNL     1      82.265 125.137 130.013  1.00  0.00     0.000 C 
BRANCH  18  19
ATOM     19  C   UNL     1      82.194 123.611 129.788  1.00  0.00     0.000 C 
BRANCH  19  20
ATOM     20  C   UNL     1      82.162 123.210 128.302  1.00  0.00     0.006 C 
BRANCH  20  21
ATOM     21  C   UNL     1      82.584 124.332 127.338  1.00  0.00     0.053 C 
BRANCH  21  22
ATOM     22  C   UNL     1      82.910 123.815 125.969  1.00  0.00     0.041 C 
ATOM     23  O   UNL     1      83.691 124.458 125.218  1.00  0.00    -0.550 OA
ATOM     24  O   UNL     1      82.377 122.609 125.532  1.00  0.00    -0.550 OA
ENDBRANCH  21  22
ENDBRANCH  20  21
ENDBRANCH  19  20
ENDBRANCH  18  19
ENDBRANCH  17  18
ENDBRANCH  16  17
ENDBRANCH  15  16
ENDBRANCH  14  15
ENDBRANCH  13  14
ENDBRANCH   1  13
TORSDOF 20
ENDMDL
