MODEL 1
REMARK VINA RESULT:     0.011      0.000      0.000
REMARK INTER + INTRA:          -0.244
REMARK INTER:                   0.021
REMARK INTRA:                  -0.265
REMARK UNBOUND:                -0.265
REMARK SMILES CCCCCCCCCCCCCCCC(=O)[O-]
REMARK SMILES IDX 9 1 10 2 11 3 12 4 13 5 14 6 15 7 16 8 17 9 18 10 8 11 7 12
REMARK SMILES IDX 6 13 5 14 4 15 3 16 2 17 1 18
REMARK H PARENT
REMARK Flexibility Score: inf
ROOT
ATOM      1  C   UNL     1      53.027 148.102  -1.785  1.00  0.00     0.000 C 
ENDROOT
BRANCH   1   2
ATOM      2  C   UNL     1      52.990 146.823  -0.925  1.00  0.00     0.000 C 
BRANCH   2   3
ATOM      3  C   UNL     1      52.775 147.056   0.584  1.00  0.00     0.000 C 
BRANCH   3   4
ATOM      4  C   UNL     1      51.309 147.006   1.052  1.00  0.00     0.000 C 
BRANCH   4   5
ATOM      5  C   UNL     1      50.449 148.125   0.439  1.00  0.00     0.000 C 
BRANCH   5   6
ATOM      6  C   UNL     1      49.902 147.755  -0.949  1.00  0.00     0.006 C 
BRANCH   6   7
ATOM      7  C   UNL     1      48.407 148.067  -1.099  1.00  0.00     0.053 C 
BRANCH   7   8
ATOM      8  C   UNL     1      47.728 146.998  -1.895  1.00  0.00     0.041 C 
ATOM      9  O   UNL     1      46.996 146.150  -1.321  1.00  0.00    -0.550 OA
ATOM     10  O   UNL     1      47.943 146.908  -3.265  1.00  0.00    -0.550 OA
ENDBRANCH   7   8
ENDBRANCH   6   7
ENDBRANCH   5   6
ENDBRANCH   4   5
ENDBRANCH   3   4
ENDBRANCH   2   3
ENDBRANCH   1   2
BRANCH   1  11
ATOM     11  C   UNL     1      52.836 147.877  -3.298  1.00  0.00     0.000 C 
BRANCH  11  12
ATOM     12  C   UNL     1      54.133 147.660  -4.099  1.00  0.00    -0.000 C 
BRANCH  12  13
ATOM     13  C   UNL     1      53.949 147.880  -5.609  1.00  0.00    -0.000 C 
BRANCH  13  14
ATOM     14  C   UNL     1      52.481 148.125  -6.007  1.00  0.00    -0.000 C 
BRANCH  14  15
ATOM     15  C   UNL     1      52.148 147.866  -7.489  1.00  0.00    -0.000 C 
BRANCH  15  16
ATOM     16  C   UNL     1      50.892 146.998  -7.679  1.00  0.00    -0.000 C 
BRANCH  16  17
ATOM     17  C   UNL     1      49.592 147.807  -7.544  1.00  0.00    -0.003 C 
ATOM     18  C   UNL     1      48.384 146.935  -7.200  1.00  0.00     0.004 C 
ENDBRANCH  16  17
ENDBRANCH  15  16
ENDBRANCH  14  15
ENDBRANCH  13  14
ENDBRANCH  12  13
ENDBRANCH  11  12
ENDBRANCH   1  11
TORSDOF 14
ENDMDL
MODEL 2
REMARK VINA RESULT:     0.019      1.299      2.287
REMARK INTER + INTRA:          -0.231
REMARK INTER:                  -1.143
REMARK INTRA:                   0.912
REMARK UNBOUND:                -0.265
REMARK SMILES CCCCCCCCCCCCCCCC(=O)[O-]
REMARK SMILES IDX 9 1 10 2 11 3 12 4 13 5 14 6 15 7 16 8 17 9 18 10 8 11 7 12
REMARK SMILES IDX 6 13 5 14 4 15 3 16 2 17 1 18
REMARK H PARENT
REMARK Flexibility Score: inf
ROOT
ATOM      1  C   UNL     1      54.146 147.467   0.262  1.00  0.00     0.000 C 
ENDROOT
BRANCH   1   2
ATOM      2  C   UNL     1      53.830 147.883   1.713  1.00  0.00     0.000 C 
BRANCH   2   3
ATOM      3  C   UNL     1      52.334 147.872   2.084  1.00  0.00     0.000 C 
BRANCH   3   4
ATOM      4  C   UNL     1      51.368 148.124   0.913  1.00  0.00     0.000 C 
BRANCH   4   5
ATOM      5  C   UNL     1      50.208 147.114   0.868  1.00  0.00     0.000 C 
BRANCH   5   6
ATOM      6  C   UNL     1      48.860 147.778   0.543  1.00  0.00     0.006 C 
BRANCH   6   7
ATOM      7  C   UNL     1      48.654 147.995  -0.962  1.00  0.00     0.053 C 
BRANCH   7   8
ATOM      8  C   UNL     1      47.480 147.206  -1.447  1.00  0.00     0.041 C 
ATOM      9  O   UNL     1      46.928 147.499  -2.541  1.00  0.00    -0.550 OA
ATOM     10  O   UNL     1      46.961 146.179  -0.669  1.00  0.00    -0.550 OA
ENDBRANCH   7   8
ENDBRANCH   6   7
ENDBRANCH   5   6
ENDBRANCH   4   5
ENDBRANCH   3   4
ENDBRANCH   2   3
ENDBRANCH   1   2
BRANCH   1  11
ATOM     11  C   UNL     1      52.956 147.548  -0.714  1.00  0.00     0.000 C 
BRANCH  11  12
ATOM     12  C   UNL     1      53.305 148.027  -2.136  1.00  0.00    -0.000 C 
BRANCH  12  13
ATOM     13  C   UNL     1      52.080 148.099  -3.061  1.00  0.00    -0.000 C 
BRANCH  13  14
ATOM     14  C   UNL     1      52.309 147.407  -4.419  1.00  0.00    -0.000 C 
BRANCH  14  15
ATOM     15  C   UNL     1      53.631 147.762  -5.125  1.00  0.00    -0.000 C 
BRANCH  15  16
ATOM     16  C   UNL     1      53.444 148.107  -6.613  1.00  0.00    -0.000 C 
BRANCH  16  17
ATOM     17  C   UNL     1      51.965 148.123  -7.031  1.00  0.00    -0.003 C 
ATOM     18  C   UNL     1      51.633 147.059  -8.076  1.00  0.00     0.004 C 
ENDBRANCH  16  17
ENDBRANCH  15  16
ENDBRANCH  14  15
ENDBRANCH  13  14
ENDBRANCH  12  13
ENDBRANCH  11  12
ENDBRANCH   1  11
TORSDOF 14
ENDMDL
MODEL 3
REMARK VINA RESULT:     0.639      1.744      3.173
REMARK INTER + INTRA:           0.898
REMARK INTER:                   1.582
REMARK INTRA:                  -0.684
REMARK UNBOUND:                -0.265
REMARK SMILES CCCCCCCCCCCCCCCC(=O)[O-]
REMARK SMILES IDX 9 1 10 2 11 3 12 4 13 5 14 6 15 7 16 8 17 9 18 10 8 11 7 12
REMARK SMILES IDX 6 13 5 14 4 15 3 16 2 17 1 18
REMARK H PARENT
REMARK Flexibility Score: inf
ROOT
ATOM      1  C   UNL     1      52.856 147.460   1.411  1.00  0.00     0.000 C 
ENDROOT
BRANCH   1   2
ATOM      2  C   UNL     1      51.798 146.682   2.218  1.00  0.00     0.000 C 
BRANCH   2   3
ATOM      3  C   UNL     1      50.488 147.448   2.488  1.00  0.00     0.000 C 
BRANCH   3   4
ATOM      4  C   UNL     1      49.252 146.914   1.742  1.00  0.00     0.000 C 
BRANCH   4   5
ATOM      5  C   UNL     1      48.385 148.035   1.143  1.00  0.00     0.000 C 
BRANCH   5   6
ATOM      6  C   UNL     1      48.421 148.052  -0.393  1.00  0.00     0.006 C 
BRANCH   6   7
ATOM      7  C   UNL     1      47.119 147.539  -1.022  1.00  0.00     0.053 C 
BRANCH   7   8
ATOM      8  C   UNL     1      47.332 147.206  -2.465  1.00  0.00     0.041 C 
ATOM      9  O   UNL     1      47.363 148.123  -3.328  1.00  0.00    -0.550 OA
ATOM     10  O   UNL     1      47.445 145.881  -2.864  1.00  0.00    -0.550 OA
ENDBRANCH   7   8
ENDBRANCH   6   7
ENDBRANCH   5   6
ENDBRANCH   4   5
ENDBRANCH   3   4
ENDBRANCH   2   3
ENDBRANCH   1   2
BRANCH   1  11
ATOM     11  C   UNL     1      53.669 146.613   0.412  1.00  0.00     0.000 C 
BRANCH  11  12
ATOM     12  C   UNL     1      53.726 147.166  -1.024  1.00  0.00    -0.000 C 
BRANCH  12  13
ATOM     13  C   UNL     1      55.163 147.345  -1.541  1.00  0.00    -0.000 C 
BRANCH  13  14
ATOM     14  C   UNL     1      55.227 148.045  -2.911  1.00  0.00    -0.000 C 
BRANCH  14  15
ATOM     15  C   UNL     1      53.987 147.859  -3.806  1.00  0.00    -0.000 C 
BRANCH  15  16
ATOM     16  C   UNL     1      54.294 148.038  -5.303  1.00  0.00    -0.000 C 
BRANCH  16  17
ATOM     17  C   UNL     1      53.035 147.932  -6.178  1.00  0.00    -0.003 C 
ATOM     18  C   UNL     1      51.741 148.049  -5.371  1.00  0.00     0.004 C 
ENDBRANCH  16  17
ENDBRANCH  15  16
ENDBRANCH  14  15
ENDBRANCH  13  14
ENDBRANCH  12  13
ENDBRANCH  11  12
ENDBRANCH   1  11
TORSDOF 14
ENDMDL
