MODEL 1
REMARK VINA RESULT:    -7.055      0.000      0.000
REMARK INTER + INTRA:         -10.963
REMARK INTER:                  -9.323
REMARK INTRA:                  -1.640
REMARK UNBOUND:                -1.640
REMARK SMILES CC[C@H](C=C[C@@H](C)[C@@H]1CC[C@H]2C3=CC[C@H]4C[C@H](O)CC[C@]4(C)[C@@H]3CC[C@]21C)C(C)C
REMARK SMILES IDX 6 1 7 2 5 3 4 4 3 5 2 6 1 7 28 8 29 9 30 10 8 11 9 12 26 13
REMARK SMILES IDX 10 14 11 15 25 16 27 17 12 18 24 19 23 20 13 21 21 22 14 23
REMARK SMILES IDX 15 24 20 25 22 26 16 27 19 28 17 29 18 30
REMARK H PARENT 18 31
REMARK Flexibility Score: inf
ROOT
ATOM      1  C   UNL     1     186.264 189.523 188.280  1.00  0.00     0.012 C 
ATOM      2  C   UNL     1     185.910 189.624 186.782  1.00  0.00     0.012 C 
ENDROOT
BRANCH   1   3
ATOM      3  C   UNL     1     185.847 188.165 188.814  1.00  0.00    -0.028 C 
ATOM      4  C   UNL     1     185.338 188.036 190.050  1.00  0.00    -0.027 C 
BRANCH   4   5
ATOM      5  C   UNL     1     184.858 186.712 190.601  1.00  0.00     0.014 C 
BRANCH   5   6
ATOM      6  C   UNL     1     185.644 186.391 191.895  1.00  0.00     0.004 C 
ATOM      7  C   UNL     1     186.399 187.613 192.432  1.00  0.00     0.004 C 
ENDBRANCH   5   6
BRANCH   5   8
ATOM      8  C   UNL     1     183.320 186.803 190.834  1.00  0.00    -0.011 C 
ATOM      9  C   UNL     1     182.509 186.241 189.656  1.00  0.00     0.008 C 
ATOM     10  C   UNL     1     182.885 188.260 191.096  1.00  0.00     0.008 C 
ENDBRANCH   5   8
ENDBRANCH   4   5
ENDBRANCH   1   3
BRANCH   1  11
ATOM     11  C   UNL     1     185.663 190.648 189.198  1.00  0.00     0.002 C 
ATOM     12  C   UNL     1     184.794 191.652 188.412  1.00  0.00     0.005 C 
ATOM     13  C   UNL     1     186.651 191.534 190.021  1.00  0.00    -0.023 C 
ATOM     14  C   UNL     1     185.579 192.967 188.333  1.00  0.00     0.009 C 
ATOM     15  C   UNL     1     186.894 192.742 189.091  1.00  0.00     0.021 C 
ATOM     16  C   UNL     1     185.931 191.973 191.347  1.00  0.00     0.008 C 
ATOM     17  C   UNL     1     187.976 190.822 190.394  1.00  0.00     0.012 C 
ATOM     18  C   UNL     1     187.379 193.968 189.848  1.00  0.00    -0.067 C 
ATOM     19  C   UNL     1     186.546 193.199 192.042  1.00  0.00     0.009 C 
ATOM     20  C   UNL     1     186.584 194.406 191.079  1.00  0.00     0.021 C 
ATOM     21  C   UNL     1     188.612 194.452 189.582  1.00  0.00    -0.027 C 
ATOM     22  C   UNL     1     187.095 195.768 191.692  1.00  0.00    -0.023 C 
ATOM     23  C   UNL     1     189.266 195.565 190.355  1.00  0.00     0.031 C 
ATOM     24  C   UNL     1     188.653 195.748 191.753  1.00  0.00     0.002 C 
ATOM     25  C   UNL     1     186.544 196.006 193.133  1.00  0.00     0.010 C 
ATOM     26  C   UNL     1     186.573 196.909 190.766  1.00  0.00     0.012 C 
ATOM     27  C   UNL     1     189.246 196.997 192.442  1.00  0.00     0.036 C 
ATOM     28  C   UNL     1     187.118 197.267 193.799  1.00  0.00     0.032 C 
ATOM     29  C   UNL     1     188.653 197.224 193.843  1.00  0.00     0.114 C 
BRANCH  29  30
ATOM     30  O   UNL     1     189.071 196.214 194.726  1.00  0.00    -0.393 OA
ATOM     31  H   UNL     1     189.600 195.567 194.185  1.00  0.00     0.210 HD
ENDBRANCH  29  30
ENDBRANCH   1  11
TORSDOF 6
ENDMDL
MODEL 2
REMARK VINA RESULT:    -6.742      2.460      8.264
REMARK INTER + INTRA:         -10.550
REMARK INTER:                  -9.100
REMARK INTRA:                  -1.451
REMARK UNBOUND:                -1.640
REMARK SMILES CC[C@H](C=C[C@@H](C)[C@@H]1CC[C@H]2C3=CC[C@H]4C[C@H](O)CC[C@]4(C)[C@@H]3CC[C@]21C)C(C)C
REMARK SMILES IDX 6 1 7 2 5 3 4 4 3 5 2 6 1 7 28 8 29 9 30 10 8 11 9 12 26 13
REMARK SMILES IDX 10 14 11 15 25 16 27 17 12 18 24 19 23 20 13 21 21 22 14 23
REMARK SMILES IDX 15 24 20 25 22 26 16 27 19 28 17 29 18 30
REMARK H PARENT 18 31
REMARK Flexibility Score: inf
ROOT
ATOM      1  C   UNL     1     188.420 195.430 189.510  1.00  0.00     0.012 C 
ATOM      2  C   UNL     1     189.819 195.701 188.920  1.00  0.00     0.012 C 
ENDROOT
BRANCH   1   3
ATOM      3  C   UNL     1     187.972 196.623 190.334  1.00  0.00    -0.028 C 
ATOM      4  C   UNL     1     187.758 196.508 191.655  1.00  0.00    -0.027 C 
BRANCH   4   5
ATOM      5  C   UNL     1     187.365 197.682 192.522  1.00  0.00     0.014 C 
BRANCH   5   6
ATOM      6  C   UNL     1     186.525 198.672 191.680  1.00  0.00     0.004 C 
ATOM      7  C   UNL     1     187.087 200.098 191.730  1.00  0.00     0.004 C 
ENDBRANCH   5   6
BRANCH   5   8
ATOM      8  C   UNL     1     186.596 197.141 193.766  1.00  0.00    -0.011 C 
ATOM      9  C   UNL     1     187.183 197.650 195.092  1.00  0.00     0.008 C 
ATOM     10  C   UNL     1     186.582 195.598 193.780  1.00  0.00     0.008 C 
ENDBRANCH   5   8
ENDBRANCH   4   5
ENDBRANCH   1   3
BRANCH   1  11
ATOM     11  C   UNL     1     188.288 194.124 190.374  1.00  0.00     0.002 C 
ATOM     12  C   UNL     1     189.475 193.159 190.173  1.00  0.00     0.005 C 
ATOM     13  C   UNL     1     187.016 193.238 190.181  1.00  0.00    -0.023 C 
ATOM     14  C   UNL     1     188.956 191.962 189.367  1.00  0.00     0.009 C 
ATOM     15  C   UNL     1     187.463 192.213 189.116  1.00  0.00     0.021 C 
ATOM     16  C   UNL     1     186.696 192.533 191.549  1.00  0.00     0.008 C 
ATOM     17  C   UNL     1     185.761 194.026 189.729  1.00  0.00     0.012 C 
ATOM     18  C   UNL     1     186.620 190.948 189.139  1.00  0.00    -0.067 C 
ATOM     19  C   UNL     1     185.796 191.291 191.441  1.00  0.00     0.009 C 
ATOM     20  C   UNL     1     186.418 190.251 190.485  1.00  0.00     0.021 C 
ATOM     21  C   UNL     1     185.872 190.644 188.056  1.00  0.00    -0.027 C 
ATOM     22  C   UNL     1     185.651 188.876 190.360  1.00  0.00    -0.023 C 
ATOM     23  C   UNL     1     184.889 189.507 188.001  1.00  0.00     0.031 C 
ATOM     24  C   UNL     1     184.436 189.055 189.399  1.00  0.00     0.002 C 
ATOM     25  C   UNL     1     185.125 188.371 191.740  1.00  0.00     0.010 C 
ATOM     26  C   UNL     1     186.671 187.835 189.806  1.00  0.00     0.012 C 
ATOM     27  C   UNL     1     183.557 187.789 189.297  1.00  0.00     0.036 C 
ATOM     28  C   UNL     1     184.275 187.095 191.631  1.00  0.00     0.032 C 
ATOM     29  C   UNL     1     183.088 187.295 190.677  1.00  0.00     0.114 C 
BRANCH  29  30
ATOM     30  O   UNL     1     182.177 188.204 191.243  1.00  0.00    -0.393 OA
ATOM     31  H   UNL     1     182.705 188.801 191.838  1.00  0.00     0.210 HD
ENDBRANCH  29  30
ENDBRANCH   1  11
TORSDOF 6
ENDMDL
MODEL 3
REMARK VINA RESULT:    -6.650      2.526      8.532
REMARK INTER + INTRA:         -10.428
REMARK INTER:                  -8.874
REMARK INTRA:                  -1.554
REMARK UNBOUND:                -1.640
REMARK SMILES CC[C@H](C=C[C@@H](C)[C@@H]1CC[C@H]2C3=CC[C@H]4C[C@H](O)CC[C@]4(C)[C@@H]3CC[C@]21C)C(C)C
REMARK SMILES IDX 6 1 7 2 5 3 4 4 3 5 2 6 1 7 28 8 29 9 30 10 8 11 9 12 26 13
REMARK SMILES IDX 10 14 11 15 25 16 27 17 12 18 24 19 23 20 13 21 21 22 14 23
REMARK SMILES IDX 15 24 20 25 22 26 16 27 19 28 17 29 18 30
REMARK H PARENT 18 31
REMARK Flexibility Score: inf
ROOT
ATOM      1  C   UNL     1     188.168 197.961 192.103  1.00  0.00     0.012 C 
ATOM      2  C   UNL     1     189.508 198.629 191.734  1.00  0.00     0.012 C 
ENDROOT
BRANCH   1   3
ATOM      3  C   UNL     1     187.545 198.679 193.286  1.00  0.00    -0.028 C 
ATOM      4  C   UNL     1     187.353 198.045 194.454  1.00  0.00    -0.027 C 
BRANCH   4   5
ATOM      5  C   UNL     1     186.788 198.737 195.674  1.00  0.00     0.014 C 
BRANCH   5   6
ATOM      6  C   UNL     1     186.040 200.016 195.227  1.00  0.00     0.004 C 
ATOM      7  C   UNL     1     184.649 200.124 195.861  1.00  0.00     0.004 C 
ENDBRANCH   5   6
BRANCH   5   8
ATOM      8  C   UNL     1     185.869 197.731 196.430  1.00  0.00    -0.011 C 
ATOM      9  C   UNL     1     186.494 197.227 197.740  1.00  0.00     0.008 C 
ATOM     10  C   UNL     1     185.522 196.520 195.539  1.00  0.00     0.008 C 
ENDBRANCH   5   8
ENDBRANCH   4   5
ENDBRANCH   1   3
BRANCH   1  11
ATOM     11  C   UNL     1     188.236 196.421 192.407  1.00  0.00     0.002 C 
ATOM     12  C   UNL     1     189.544 195.776 191.903  1.00  0.00     0.005 C 
ATOM     13  C   UNL     1     187.100 195.507 191.850  1.00  0.00    -0.023 C 
ATOM     14  C   UNL     1     189.185 194.912 190.688  1.00  0.00     0.009 C 
ATOM     15  C   UNL     1     187.667 195.030 190.495  1.00  0.00     0.021 C 
ATOM     16  C   UNL     1     186.907 194.302 192.841  1.00  0.00     0.008 C 
ATOM     17  C   UNL     1     185.738 196.227 191.681  1.00  0.00     0.012 C 
ATOM     18  C   UNL     1     187.011 193.747 190.012  1.00  0.00    -0.067 C 
ATOM     19  C   UNL     1     186.189 193.081 192.242  1.00  0.00     0.009 C 
ATOM     20  C   UNL     1     186.934 192.574 190.989  1.00  0.00     0.021 C 
ATOM     21  C   UNL     1     186.294 193.774 188.866  1.00  0.00    -0.027 C 
ATOM     22  C   UNL     1     186.367 191.256 190.329  1.00  0.00    -0.023 C 
ATOM     23  C   UNL     1     185.481 192.617 188.353  1.00  0.00     0.031 C 
ATOM     24  C   UNL     1     185.122 191.615 189.463  1.00  0.00     0.002 C 
ATOM     25  C   UNL     1     185.942 190.201 191.399  1.00  0.00     0.010 C 
ATOM     26  C   UNL     1     187.514 190.651 189.463  1.00  0.00     0.012 C 
ATOM     27  C   UNL     1     184.428 190.372 188.861  1.00  0.00     0.036 C 
ATOM     28  C   UNL     1     185.279 188.956 190.788  1.00  0.00     0.032 C 
ATOM     29  C   UNL     1     184.058 189.336 189.936  1.00  0.00     0.114 C 
BRANCH  29  30
ATOM     30  O   UNL     1     183.039 189.830 190.768  1.00  0.00    -0.393 OA
ATOM     31  H   UNL     1     182.461 190.404 190.196  1.00  0.00     0.210 HD
ENDBRANCH  29  30
ENDBRANCH   1  11
TORSDOF 6
ENDMDL
MODEL 4
REMARK VINA RESULT:    -6.552      2.522      8.110
REMARK INTER + INTRA:         -10.299
REMARK INTER:                  -8.865
REMARK INTRA:                  -1.434
REMARK UNBOUND:                -1.640
REMARK SMILES CC[C@H](C=C[C@@H](C)[C@@H]1CC[C@H]2C3=CC[C@H]4C[C@H](O)CC[C@]4(C)[C@@H]3CC[C@]21C)C(C)C
REMARK SMILES IDX 6 1 7 2 5 3 4 4 3 5 2 6 1 7 28 8 29 9 30 10 8 11 9 12 26 13
REMARK SMILES IDX 10 14 11 15 25 16 27 17 12 18 24 19 23 20 13 21 21 22 14 23
REMARK SMILES IDX 15 24 20 25 22 26 16 27 19 28 17 29 18 30
REMARK H PARENT 18 31
REMARK Flexibility Score: inf
ROOT
ATOM      1  C   UNL     1     185.377 192.287 188.786  1.00  0.00     0.012 C 
ATOM      2  C   UNL     1     184.854 191.959 187.373  1.00  0.00     0.012 C 
ENDROOT
BRANCH   1   3
ATOM      3  C   UNL     1     185.760 193.753 188.864  1.00  0.00    -0.028 C 
ATOM      4  C   UNL     1     186.458 194.230 189.908  1.00  0.00    -0.027 C 
BRANCH   4   5
ATOM      5  C   UNL     1     186.909 195.670 189.999  1.00  0.00     0.014 C 
BRANCH   5   6
ATOM      6  C   UNL     1     186.115 196.376 191.125  1.00  0.00     0.004 C 
ATOM      7  C   UNL     1     186.716 196.113 192.510  1.00  0.00     0.004 C 
ENDBRANCH   5   6
BRANCH   5   8
ATOM      8  C   UNL     1     188.448 195.690 190.241  1.00  0.00    -0.011 C 
ATOM      9  C   UNL     1     189.200 196.535 189.201  1.00  0.00     0.008 C 
ATOM     10  C   UNL     1     189.028 194.260 190.242  1.00  0.00     0.008 C 
ENDBRANCH   5   8
ENDBRANCH   4   5
ENDBRANCH   1   3
BRANCH   1  11
ATOM     11  C   UNL     1     186.580 191.409 189.287  1.00  0.00     0.002 C 
ATOM     12  C   UNL     1     187.119 190.464 188.192  1.00  0.00     0.005 C 
ATOM     13  C   UNL     1     186.358 190.491 190.531  1.00  0.00    -0.023 C 
ATOM     14  C   UNL     1     186.698 189.040 188.574  1.00  0.00     0.009 C 
ATOM     15  C   UNL     1     185.936 189.146 189.901  1.00  0.00     0.021 C 
ATOM     16  C   UNL     1     187.724 190.358 191.295  1.00  0.00     0.008 C 
ATOM     17  C   UNL     1     185.290 191.021 191.521  1.00  0.00     0.012 C 
ATOM     18  C   UNL     1     186.172 187.970 190.836  1.00  0.00    -0.067 C 
ATOM     19  C   UNL     1     187.820 189.152 192.244  1.00  0.00     0.009 C 
ATOM     20  C   UNL     1     187.552 187.838 191.480  1.00  0.00     0.021 C 
ATOM     21  C   UNL     1     185.108 187.259 191.270  1.00  0.00    -0.027 C 
ATOM     22  C   UNL     1     187.722 186.505 192.310  1.00  0.00    -0.023 C 
ATOM     23  C   UNL     1     185.186 186.169 192.303  1.00  0.00     0.031 C 
ATOM     24  C   UNL     1     186.446 186.278 193.177  1.00  0.00     0.002 C 
ATOM     25  C   UNL     1     188.963 186.557 193.254  1.00  0.00     0.010 C 
ATOM     26  C   UNL     1     187.928 185.351 191.281  1.00  0.00     0.012 C 
ATOM     27  C   UNL     1     186.561 185.052 194.110  1.00  0.00     0.036 C 
ATOM     28  C   UNL     1     189.085 185.319 194.159  1.00  0.00     0.032 C 
ATOM     29  C   UNL     1     187.816 185.116 194.999  1.00  0.00     0.114 C 
BRANCH  29  30
ATOM     30  O   UNL     1     187.702 186.153 195.940  1.00  0.00    -0.393 OA
ATOM     31  H   UNL     1     186.779 186.514 195.853  1.00  0.00     0.210 HD
ENDBRANCH  29  30
ENDBRANCH   1  11
TORSDOF 6
ENDMDL
MODEL 5
REMARK VINA RESULT:    -6.439      4.245      8.154
REMARK INTER + INTRA:         -10.149
REMARK INTER:                  -9.571
REMARK INTRA:                  -0.579
REMARK UNBOUND:                -1.640
REMARK SMILES CC[C@H](C=C[C@@H](C)[C@@H]1CC[C@H]2C3=CC[C@H]4C[C@H](O)CC[C@]4(C)[C@@H]3CC[C@]21C)C(C)C
REMARK SMILES IDX 6 1 7 2 5 3 4 4 3 5 2 6 1 7 28 8 29 9 30 10 8 11 9 12 26 13
REMARK SMILES IDX 10 14 11 15 25 16 27 17 12 18 24 19 23 20 13 21 21 22 14 23
REMARK SMILES IDX 15 24 20 25 22 26 16 27 19 28 17 29 18 30
REMARK H PARENT 18 31
REMARK Flexibility Score: inf
ROOT
ATOM      1  C   UNL     1     184.884 191.899 188.424  1.00  0.00     0.012 C 
ATOM      2  C   UNL     1     183.874 191.441 187.352  1.00  0.00     0.012 C 
ENDROOT
BRANCH   1   3
ATOM      3  C   UNL     1     186.293 191.826 187.865  1.00  0.00    -0.028 C 
ATOM      4  C   UNL     1     186.549 191.166 186.724  1.00  0.00    -0.027 C 
BRANCH   4   5
ATOM      5  C   UNL     1     187.926 191.115 186.102  1.00  0.00     0.014 C 
BRANCH   5   6
ATOM      6  C   UNL     1     188.830 190.191 186.954  1.00  0.00     0.004 C 
ATOM      7  C   UNL     1     189.620 190.970 188.012  1.00  0.00     0.004 C 
ENDBRANCH   5   6
BRANCH   5   8
ATOM      8  C   UNL     1     187.784 190.630 184.627  1.00  0.00    -0.011 C 
ATOM      9  C   UNL     1     186.677 189.579 184.454  1.00  0.00     0.008 C 
ATOM     10  C   UNL     1     189.115 190.051 184.104  1.00  0.00     0.008 C 
ENDBRANCH   5   8
ENDBRANCH   4   5
ENDBRANCH   1   3
BRANCH   1  11
ATOM     11  C   UNL     1     184.826 191.122 189.788  1.00  0.00     0.002 C 
ATOM     12  C   UNL     1     185.932 191.565 190.769  1.00  0.00     0.005 C 
ATOM     13  C   UNL     1     184.922 189.564 189.755  1.00  0.00    -0.023 C 
ATOM     14  C   UNL     1     186.952 190.423 190.848  1.00  0.00     0.009 C 
ATOM     15  C   UNL     1     186.433 189.303 189.935  1.00  0.00     0.021 C 
ATOM     16  C   UNL     1     184.098 188.994 190.967  1.00  0.00     0.008 C 
ATOM     17  C   UNL     1     184.381 188.926 188.450  1.00  0.00     0.012 C 
ATOM     18  C   UNL     1     186.721 187.906 190.459  1.00  0.00    -0.067 C 
ATOM     19  C   UNL     1     184.454 187.553 191.370  1.00  0.00     0.009 C 
ATOM     20  C   UNL     1     185.958 187.437 191.698  1.00  0.00     0.021 C 
ATOM     21  C   UNL     1     187.416 187.048 189.678  1.00  0.00    -0.027 C 
ATOM     22  C   UNL     1     186.446 186.033 192.231  1.00  0.00    -0.023 C 
ATOM     23  C   UNL     1     187.645 185.600 190.013  1.00  0.00     0.031 C 
ATOM     24  C   UNL     1     186.619 185.062 191.024  1.00  0.00     0.002 C 
ATOM     25  C   UNL     1     185.433 185.403 193.237  1.00  0.00     0.010 C 
ATOM     26  C   UNL     1     187.798 186.273 192.972  1.00  0.00     0.012 C 
ATOM     27  C   UNL     1     186.991 183.625 191.455  1.00  0.00     0.036 C 
ATOM     28  C   UNL     1     185.827 183.985 193.681  1.00  0.00     0.032 C 
ATOM     29  C   UNL     1     185.994 183.049 192.475  1.00  0.00     0.114 C 
BRANCH  29  30
ATOM     30  O   UNL     1     184.743 182.828 191.873  1.00  0.00    -0.393 OA
ATOM     31  H   UNL     1     184.924 182.375 191.005  1.00  0.00     0.210 HD
ENDBRANCH  29  30
ENDBRANCH   1  11
TORSDOF 6
ENDMDL
MODEL 6
REMARK VINA RESULT:    -6.371      4.169      7.313
REMARK INTER + INTRA:         -10.059
REMARK INTER:                  -8.628
REMARK INTRA:                  -1.431
REMARK UNBOUND:                -1.640
REMARK SMILES CC[C@H](C=C[C@@H](C)[C@@H]1CC[C@H]2C3=CC[C@H]4C[C@H](O)CC[C@]4(C)[C@@H]3CC[C@]21C)C(C)C
REMARK SMILES IDX 6 1 7 2 5 3 4 4 3 5 2 6 1 7 28 8 29 9 30 10 8 11 9 12 26 13
REMARK SMILES IDX 10 14 11 15 25 16 27 17 12 18 24 19 23 20 13 21 21 22 14 23
REMARK SMILES IDX 15 24 20 25 22 26 16 27 19 28 17 29 18 30
REMARK H PARENT 18 31
REMARK Flexibility Score: inf
ROOT
ATOM      1  C   UNL     1     187.583 184.878 194.077  1.00  0.00     0.012 C 
ATOM      2  C   UNL     1     188.433 185.340 195.278  1.00  0.00     0.012 C 
ENDROOT
BRANCH   1   3
ATOM      3  C   UNL     1     187.671 183.370 193.935  1.00  0.00    -0.028 C 
ATOM      4  C   UNL     1     187.819 182.798 192.729  1.00  0.00    -0.027 C 
BRANCH   4   5
ATOM      5  C   UNL     1     187.968 181.304 192.548  1.00  0.00     0.014 C 
BRANCH   5   6
ATOM      6  C   UNL     1     188.490 180.686 193.868  1.00  0.00     0.004 C 
ATOM      7  C   UNL     1     190.014 180.514 193.863  1.00  0.00     0.004 C 
ENDBRANCH   5   6
BRANCH   5   8
ATOM      8  C   UNL     1     186.591 180.721 192.111  1.00  0.00    -0.011 C 
ATOM      9  C   UNL     1     185.715 181.753 191.383  1.00  0.00     0.008 C 
ATOM     10  C   UNL     1     185.814 180.166 193.323  1.00  0.00     0.008 C 
ENDBRANCH   5   8
ENDBRANCH   4   5
ENDBRANCH   1   3
BRANCH   1  11
ATOM     11  C   UNL     1     187.930 185.550 192.699  1.00  0.00     0.002 C 
ATOM     12  C   UNL     1     189.164 186.473 192.786  1.00  0.00     0.005 C 
ATOM     13  C   UNL     1     186.832 186.415 192.002  1.00  0.00    -0.023 C 
ATOM     14  C   UNL     1     188.658 187.917 192.683  1.00  0.00     0.009 C 
ATOM     15  C   UNL     1     187.134 187.840 192.513  1.00  0.00     0.021 C 
ATOM     16  C   UNL     1     187.038 186.312 190.447  1.00  0.00     0.008 C 
ATOM     17  C   UNL     1     185.382 185.981 192.335  1.00  0.00     0.012 C 
ATOM     18  C   UNL     1     186.568 188.915 191.598  1.00  0.00    -0.067 C 
ATOM     19  C   UNL     1     186.377 187.435 189.632  1.00  0.00     0.009 C 
ATOM     20  C   UNL     1     186.878 188.816 190.105  1.00  0.00     0.021 C 
ATOM     21  C   UNL     1     185.611 189.740 192.079  1.00  0.00    -0.027 C 
ATOM     22  C   UNL     1     186.361 190.062 189.283  1.00  0.00    -0.023 C 
ATOM     23  C   UNL     1     184.868 190.747 191.244  1.00  0.00     0.031 C 
ATOM     24  C   UNL     1     184.914 190.412 189.743  1.00  0.00     0.002 C 
ATOM     25  C   UNL     1     186.342 189.783 187.747  1.00  0.00     0.010 C 
ATOM     26  C   UNL     1     187.351 191.234 189.562  1.00  0.00     0.012 C 
ATOM     27  C   UNL     1     184.278 191.553 188.918  1.00  0.00     0.036 C 
ATOM     28  C   UNL     1     185.733 190.936 186.932  1.00  0.00     0.032 C 
ATOM     29  C   UNL     1     184.310 191.264 187.407  1.00  0.00     0.114 C 
BRANCH  29  30
ATOM     30  O   UNL     1     183.450 190.199 187.090  1.00  0.00    -0.393 OA
ATOM     31  H   UNL     1     182.628 190.605 186.702  1.00  0.00     0.210 HD
ENDBRANCH  29  30
ENDBRANCH   1  11
TORSDOF 6
ENDMDL
MODEL 7
REMARK VINA RESULT:    -6.349      3.525      8.521
REMARK INTER + INTRA:         -10.030
REMARK INTER:                  -9.006
REMARK INTRA:                  -1.024
REMARK UNBOUND:                -1.640
REMARK SMILES CC[C@H](C=C[C@@H](C)[C@@H]1CC[C@H]2C3=CC[C@H]4C[C@H](O)CC[C@]4(C)[C@@H]3CC[C@]21C)C(C)C
REMARK SMILES IDX 6 1 7 2 5 3 4 4 3 5 2 6 1 7 28 8 29 9 30 10 8 11 9 12 26 13
REMARK SMILES IDX 10 14 11 15 25 16 27 17 12 18 24 19 23 20 13 21 21 22 14 23
REMARK SMILES IDX 15 24 20 25 22 26 16 27 19 28 17 29 18 30
REMARK H PARENT 18 31
REMARK Flexibility Score: inf
ROOT
ATOM      1  C   UNL     1     187.448 195.804 192.667  1.00  0.00     0.012 C 
ATOM      2  C   UNL     1     188.566 195.276 193.589  1.00  0.00     0.012 C 
ENDROOT
BRANCH   1   3
ATOM      3  C   UNL     1     186.470 196.638 193.473  1.00  0.00    -0.028 C 
ATOM      4  C   UNL     1     186.542 196.683 194.813  1.00  0.00    -0.027 C 
BRANCH   4   5
ATOM      5  C   UNL     1     185.625 197.544 195.652  1.00  0.00     0.014 C 
BRANCH   5   6
ATOM      6  C   UNL     1     185.682 197.059 197.120  1.00  0.00     0.004 C 
ATOM      7  C   UNL     1     185.793 195.533 197.222  1.00  0.00     0.004 C 
ENDBRANCH   5   6
BRANCH   5   8
ATOM      8  C   UNL     1     186.061 199.032 195.489  1.00  0.00    -0.011 C 
ATOM      9  C   UNL     1     187.176 199.433 196.466  1.00  0.00     0.008 C 
ATOM     10  C   UNL     1     184.861 199.984 195.676  1.00  0.00     0.008 C 
ENDBRANCH   5   8
ENDBRANCH   4   5
ENDBRANCH   1   3
BRANCH   1  11
ATOM     11  C   UNL     1     186.657 194.709 191.863  1.00  0.00     0.002 C 
ATOM     12  C   UNL     1     186.560 193.371 192.624  1.00  0.00     0.005 C 
ATOM     13  C   UNL     1     187.171 194.323 190.440  1.00  0.00    -0.023 C 
ATOM     14  C   UNL     1     187.481 192.375 191.910  1.00  0.00     0.009 C 
ATOM     15  C   UNL     1     188.098 193.120 190.719  1.00  0.00     0.021 C 
ATOM     16  C   UNL     1     185.935 193.898 189.568  1.00  0.00     0.008 C 
ATOM     17  C   UNL     1     187.919 195.466 189.708  1.00  0.00     0.012 C 
ATOM     18  C   UNL     1     188.299 192.247 189.490  1.00  0.00    -0.067 C 
ATOM     19  C   UNL     1     186.276 193.056 188.328  1.00  0.00     0.009 C 
ATOM     20  C   UNL     1     187.053 191.785 188.733  1.00  0.00     0.021 C 
ATOM     21  C   UNL     1     189.539 192.139 188.964  1.00  0.00    -0.027 C 
ATOM     22  C   UNL     1     187.380 190.770 187.568  1.00  0.00    -0.023 C 
ATOM     23  C   UNL     1     189.849 191.428 187.675  1.00  0.00     0.031 C 
ATOM     24  C   UNL     1     188.614 191.288 186.770  1.00  0.00     0.002 C 
ATOM     25  C   UNL     1     186.181 190.605 186.582  1.00  0.00     0.010 C 
ATOM     26  C   UNL     1     187.667 189.389 188.235  1.00  0.00     0.012 C 
ATOM     27  C   UNL     1     188.945 190.416 185.538  1.00  0.00     0.036 C 
ATOM     28  C   UNL     1     186.512 189.712 185.375  1.00  0.00     0.032 C 
ATOM     29  C   UNL     1     187.733 190.242 184.607  1.00  0.00     0.114 C 
BRANCH  29  30
ATOM     30  O   UNL     1     187.408 191.460 183.987  1.00  0.00    -0.393 OA
ATOM     31  H   UNL     1     188.145 191.659 183.349  1.00  0.00     0.210 HD
ENDBRANCH  29  30
ENDBRANCH   1  11
TORSDOF 6
ENDMDL
MODEL 8
REMARK VINA RESULT:    -6.301      4.836      9.042
REMARK INTER + INTRA:          -9.967
REMARK INTER:                  -8.318
REMARK INTRA:                  -1.649
REMARK UNBOUND:                -1.640
REMARK SMILES CC[C@H](C=C[C@@H](C)[C@@H]1CC[C@H]2C3=CC[C@H]4C[C@H](O)CC[C@]4(C)[C@@H]3CC[C@]21C)C(C)C
REMARK SMILES IDX 6 1 7 2 5 3 4 4 3 5 2 6 1 7 28 8 29 9 30 10 8 11 9 12 26 13
REMARK SMILES IDX 10 14 11 15 25 16 27 17 12 18 24 19 23 20 13 21 21 22 14 23
REMARK SMILES IDX 15 24 20 25 22 26 16 27 19 28 17 29 18 30
REMARK H PARENT 18 31
REMARK Flexibility Score: inf
ROOT
ATOM      1  C   UNL     1     185.539 190.415 189.019  1.00  0.00     0.012 C 
ATOM      2  C   UNL     1     184.092 190.942 188.939  1.00  0.00     0.012 C 
ENDROOT
BRANCH   1   3
ATOM      3  C   UNL     1     186.411 191.155 188.023  1.00  0.00    -0.028 C 
ATOM      4  C   UNL     1     187.123 190.488 187.099  1.00  0.00    -0.027 C 
BRANCH   4   5
ATOM      5  C   UNL     1     187.960 191.188 186.052  1.00  0.00     0.014 C 
BRANCH   5   6
ATOM      6  C   UNL     1     189.451 190.851 186.291  1.00  0.00     0.004 C 
ATOM      7  C   UNL     1     189.630 189.592 187.149  1.00  0.00     0.004 C 
ENDBRANCH   5   6
BRANCH   5   8
ATOM      8  C   UNL     1     187.458 190.747 184.644  1.00  0.00    -0.011 C 
ATOM      9  C   UNL     1     186.576 189.490 184.697  1.00  0.00     0.008 C 
ATOM     10  C   UNL     1     188.642 190.491 183.689  1.00  0.00     0.008 C 
ENDBRANCH   5   8
ENDBRANCH   4   5
ENDBRANCH   1   3
BRANCH   1  11
ATOM     11  C   UNL     1     185.712 188.866 188.810  1.00  0.00     0.002 C 
ATOM     12  C   UNL     1     184.360 188.131 188.695  1.00  0.00     0.005 C 
ATOM     13  C   UNL     1     186.514 188.061 189.881  1.00  0.00    -0.023 C 
ATOM     14  C   UNL     1     184.168 187.330 189.988  1.00  0.00     0.009 C 
ATOM     15  C   UNL     1     185.414 187.576 190.849  1.00  0.00     0.021 C 
ATOM     16  C   UNL     1     187.215 186.851 189.164  1.00  0.00     0.008 C 
ATOM     17  C   UNL     1     187.597 188.893 190.614  1.00  0.00     0.012 C 
ATOM     18  C   UNL     1     185.847 186.362 191.656  1.00  0.00    -0.067 C 
ATOM     19  C   UNL     1     187.646 185.708 190.097  1.00  0.00     0.009 C 
ATOM     20  C   UNL     1     186.437 185.175 190.895  1.00  0.00     0.021 C 
ATOM     21  C   UNL     1     185.949 186.476 192.999  1.00  0.00    -0.027 C 
ATOM     22  C   UNL     1     186.712 183.924 191.820  1.00  0.00    -0.023 C 
ATOM     23  C   UNL     1     186.500 185.402 193.897  1.00  0.00     0.031 C 
ATOM     24  C   UNL     1     187.391 184.404 193.138  1.00  0.00     0.002 C 
ATOM     25  C   UNL     1     187.646 182.880 191.130  1.00  0.00     0.010 C 
ATOM     26  C   UNL     1     185.333 183.251 192.097  1.00  0.00     0.012 C 
ATOM     27  C   UNL     1     187.800 183.237 194.065  1.00  0.00     0.036 C 
ATOM     28  C   UNL     1     188.024 181.708 192.051  1.00  0.00     0.032 C 
ATOM     29  C   UNL     1     188.687 182.207 193.344  1.00  0.00     0.114 C 
BRANCH  29  30
ATOM     30  O   UNL     1     189.944 182.760 193.046  1.00  0.00    -0.393 OA
ATOM     31  H   UNL     1     190.073 183.522 193.673  1.00  0.00     0.210 HD
ENDBRANCH  29  30
ENDBRANCH   1  11
TORSDOF 6
ENDMDL
MODEL 9
REMARK VINA RESULT:    -6.290      5.233      7.995
REMARK INTER + INTRA:          -9.952
REMARK INTER:                  -8.607
REMARK INTRA:                  -1.345
REMARK UNBOUND:                -1.640
REMARK SMILES CC[C@H](C=C[C@@H](C)[C@@H]1CC[C@H]2C3=CC[C@H]4C[C@H](O)CC[C@]4(C)[C@@H]3CC[C@]21C)C(C)C
REMARK SMILES IDX 6 1 7 2 5 3 4 4 3 5 2 6 1 7 28 8 29 9 30 10 8 11 9 12 26 13
REMARK SMILES IDX 10 14 11 15 25 16 27 17 12 18 24 19 23 20 13 21 21 22 14 23
REMARK SMILES IDX 15 24 20 25 22 26 16 27 19 28 17 29 18 30
REMARK H PARENT 18 31
REMARK Flexibility Score: inf
ROOT
ATOM      1  C   UNL     1     191.317 190.298 184.520  1.00  0.00     0.012 C 
ATOM      2  C   UNL     1     191.284 191.555 183.627  1.00  0.00     0.012 C 
ENDROOT
BRANCH   1   3
ATOM      3  C   UNL     1     192.269 189.275 183.929  1.00  0.00    -0.028 C 
ATOM      4  C   UNL     1     191.942 187.973 183.883  1.00  0.00    -0.027 C 
BRANCH   4   5
ATOM      5  C   UNL     1     192.836 186.929 183.254  1.00  0.00     0.014 C 
BRANCH   5   6
ATOM      6  C   UNL     1     193.975 186.580 184.241  1.00  0.00     0.004 C 
ATOM      7  C   UNL     1     195.324 186.409 183.532  1.00  0.00     0.004 C 
ENDBRANCH   5   6
BRANCH   5   8
ATOM      8  C   UNL     1     191.963 185.694 182.877  1.00  0.00    -0.011 C 
ATOM      9  C   UNL     1     190.459 186.010 182.878  1.00  0.00     0.008 C 
ATOM     10  C   UNL     1     192.230 184.514 183.834  1.00  0.00     0.008 C 
ENDBRANCH   5   8
ENDBRANCH   4   5
ENDBRANCH   1   3
BRANCH   1  11
ATOM     11  C   UNL     1     189.925 189.617 184.787  1.00  0.00     0.002 C 
ATOM     12  C   UNL     1     188.810 190.173 183.878  1.00  0.00     0.005 C 
ATOM     13  C   UNL     1     189.335 189.688 186.232  1.00  0.00    -0.023 C 
ATOM     14  C   UNL     1     187.890 191.027 184.758  1.00  0.00     0.009 C 
ATOM     15  C   UNL     1     188.449 190.952 186.185  1.00  0.00     0.021 C 
ATOM     16  C   UNL     1     188.472 188.397 186.474  1.00  0.00     0.008 C 
ATOM     17  C   UNL     1     190.407 189.779 187.347  1.00  0.00     0.012 C 
ATOM     18  C   UNL     1     187.377 190.947 187.262  1.00  0.00    -0.067 C 
ATOM     19  C   UNL     1     187.454 188.506 187.622  1.00  0.00     0.009 C 
ATOM     20  C   UNL     1     186.503 189.700 187.392  1.00  0.00     0.021 C 
ATOM     21  C   UNL     1     187.410 191.902 188.219  1.00  0.00    -0.027 C 
ATOM     22  C   UNL     1     185.335 189.870 188.442  1.00  0.00    -0.023 C 
ATOM     23  C   UNL     1     186.500 191.928 189.416  1.00  0.00     0.031 C 
ATOM     24  C   UNL     1     185.900 190.547 189.727  1.00  0.00     0.002 C 
ATOM     25  C   UNL     1     184.700 188.500 188.839  1.00  0.00     0.010 C 
ATOM     26  C   UNL     1     184.239 190.748 187.765  1.00  0.00     0.012 C 
ATOM     27  C   UNL     1     184.854 190.658 190.860  1.00  0.00     0.036 C 
ATOM     28  C   UNL     1     183.641 188.625 189.946  1.00  0.00     0.032 C 
ATOM     29  C   UNL     1     184.220 189.298 191.199  1.00  0.00     0.114 C 
BRANCH  29  30
ATOM     30  O   UNL     1     185.166 188.448 191.797  1.00  0.00    -0.393 OA
ATOM     31  H   UNL     1     185.508 187.854 191.075  1.00  0.00     0.210 HD
ENDBRANCH  29  30
ENDBRANCH   1  11
TORSDOF 6
ENDMDL
