MODEL 1
REMARK VINA RESULT:    -3.155      0.000      0.000
REMARK INTER + INTRA:          -5.805
REMARK INTER:                  -4.999
REMARK INTRA:                  -0.806
REMARK UNBOUND:                -0.806
REMARK SMILES CCCCCCCCCCCC(=O)[O-]
REMARK SMILES IDX 7 1 8 2 9 3 10 4 11 5 12 6 13 7 14 8 6 9 5 10 4 11 3 12 2 13
REMARK SMILES IDX 1 14
REMARK H PARENT
REMARK Flexibility Score: inf
ROOT
ATOM      1  C   UNL     1       6.691 -23.027 -18.271  1.00  0.00     0.000 C 
ENDROOT
BRANCH   1   2
ATOM      2  C   UNL     1       8.178 -23.090 -18.652  1.00  0.00     0.000 C 
BRANCH   2   3
ATOM      3  C   UNL     1       8.795 -21.698 -18.858  1.00  0.00     0.000 C 
BRANCH   3   4
ATOM      4  C   UNL     1       9.735 -21.641 -20.075  1.00  0.00     0.006 C 
BRANCH   4   5
ATOM      5  C   UNL     1       9.281 -22.576 -21.203  1.00  0.00     0.053 C 
BRANCH   5   6
ATOM      6  C   UNL     1       8.846 -21.809 -22.415  1.00  0.00     0.041 C 
ATOM      7  O   UNL     1       8.922 -20.552 -22.432  1.00  0.00    -0.550 OA
ATOM      8  O   UNL     1       8.390 -22.486 -23.538  1.00  0.00    -0.550 OA
ENDBRANCH   5   6
ENDBRANCH   4   5
ENDBRANCH   3   4
ENDBRANCH   2   3
ENDBRANCH   1   2
BRANCH   1   9
ATOM      9  C   UNL     1       6.513 -23.095 -16.747  1.00  0.00     0.000 C 
BRANCH   9  10
ATOM     10  C   UNL     1       5.732 -21.895 -16.182  1.00  0.00    -0.000 C 
BRANCH  10  11
ATOM     11  C   UNL     1       6.433 -20.530 -16.337  1.00  0.00    -0.000 C 
BRANCH  11  12
ATOM     12  C   UNL     1       7.409 -20.161 -15.203  1.00  0.00    -0.000 C 
BRANCH  12  13
ATOM     13  C   UNL     1       8.739 -20.936 -15.218  1.00  0.00    -0.003 C 
ATOM     14  C   UNL     1       9.849 -20.228 -14.441  1.00  0.00     0.004 C 
ENDBRANCH  12  13
ENDBRANCH  11  12
ENDBRANCH  10  11
ENDBRANCH   9  10
ENDBRANCH   1   9
TORSDOF 10
ENDMDL
MODEL 2
REMARK VINA RESULT:    -2.918      1.268      1.766
REMARK INTER + INTRA:          -5.430
REMARK INTER:                  -4.674
REMARK INTRA:                  -0.756
REMARK UNBOUND:                -0.806
REMARK SMILES CCCCCCCCCCCC(=O)[O-]
REMARK SMILES IDX 7 1 8 2 9 3 10 4 11 5 12 6 13 7 14 8 6 9 5 10 4 11 3 12 2 13
REMARK SMILES IDX 1 14
REMARK H PARENT
REMARK Flexibility Score: inf
ROOT
ATOM      1  C   UNL     1       8.044 -21.477 -18.045  1.00  0.00     0.000 C 
ENDROOT
BRANCH   1   2
ATOM      2  C   UNL     1       8.598 -22.485 -19.062  1.00  0.00     0.000 C 
BRANCH   2   3
ATOM      3  C   UNL     1       7.500 -23.108 -19.937  1.00  0.00     0.000 C 
BRANCH   3   4
ATOM      4  C   UNL     1       7.757 -22.909 -21.441  1.00  0.00     0.006 C 
BRANCH   4   5
ATOM      5  C   UNL     1       8.630 -21.679 -21.722  1.00  0.00     0.053 C 
BRANCH   5   6
ATOM      6  C   UNL     1       9.522 -21.892 -22.906  1.00  0.00     0.041 C 
ATOM      7  O   UNL     1      10.505 -21.131 -23.106  1.00  0.00    -0.550 OA
ATOM      8  O   UNL     1       9.288 -22.954 -23.770  1.00  0.00    -0.550 OA
ENDBRANCH   5   6
ENDBRANCH   4   5
ENDBRANCH   3   4
ENDBRANCH   2   3
ENDBRANCH   1   2
BRANCH   1   9
ATOM      9  C   UNL     1       6.972 -22.126 -17.157  1.00  0.00     0.000 C 
BRANCH   9  10
ATOM     10  C   UNL     1       7.280 -21.994 -15.655  1.00  0.00    -0.000 C 
BRANCH  10  11
ATOM     11  C   UNL     1       7.942 -20.665 -15.239  1.00  0.00    -0.000 C 
BRANCH  11  12
ATOM     12  C   UNL     1       9.158 -20.803 -14.301  1.00  0.00    -0.000 C 
BRANCH  12  13
ATOM     13  C   UNL     1      10.455 -20.165 -14.829  1.00  0.00    -0.003 C 
ATOM     14  C   UNL     1      11.125 -20.996 -15.922  1.00  0.00     0.004 C 
ENDBRANCH  12  13
ENDBRANCH  11  12
ENDBRANCH  10  11
ENDBRANCH   9  10
ENDBRANCH   1   9
TORSDOF 10
ENDMDL
MODEL 3
REMARK VINA RESULT:    -2.837      3.165      6.204
REMARK INTER + INTRA:          -5.301
REMARK INTER:                  -4.279
REMARK INTRA:                  -1.023
REMARK UNBOUND:                -0.806
REMARK SMILES CCCCCCCCCCCC(=O)[O-]
REMARK SMILES IDX 7 1 8 2 9 3 10 4 11 5 12 6 13 7 14 8 6 9 5 10 4 11 3 12 2 13
REMARK SMILES IDX 1 14
REMARK H PARENT
REMARK Flexibility Score: inf
ROOT
ATOM      1  C   UNL     1       8.860 -22.183 -18.846  1.00  0.00     0.000 C 
ENDROOT
BRANCH   1   2
ATOM      2  C   UNL     1       7.655 -22.969 -19.384  1.00  0.00     0.000 C 
BRANCH   2   3
ATOM      3  C   UNL     1       6.525 -23.101 -18.352  1.00  0.00     0.000 C 
BRANCH   3   4
ATOM      4  C   UNL     1       7.028 -22.970 -16.903  1.00  0.00     0.006 C 
BRANCH   4   5
ATOM      5  C   UNL     1       6.224 -21.937 -16.103  1.00  0.00     0.053 C 
BRANCH   5   6
ATOM      6  C   UNL     1       7.052 -20.736 -15.760  1.00  0.00     0.041 C 
ATOM      7  O   UNL     1       6.531 -19.589 -15.747  1.00  0.00    -0.550 OA
ATOM      8  O   UNL     1       8.390 -20.888 -15.422  1.00  0.00    -0.550 OA
ENDBRANCH   5   6
ENDBRANCH   4   5
ENDBRANCH   3   4
ENDBRANCH   2   3
ENDBRANCH   1   2
BRANCH   1   9
ATOM      9  C   UNL     1      10.176 -22.757 -19.389  1.00  0.00     0.000 C 
BRANCH   9  10
ATOM     10  C   UNL     1      11.069 -21.688 -20.045  1.00  0.00    -0.000 C 
BRANCH  10  11
ATOM     11  C   UNL     1      10.932 -21.574 -21.576  1.00  0.00    -0.000 C 
BRANCH  11  12
ATOM     12  C   UNL     1       9.871 -20.569 -22.067  1.00  0.00    -0.000 C 
BRANCH  12  13
ATOM     13  C   UNL     1       8.524 -21.196 -22.468  1.00  0.00    -0.003 C 
ATOM     14  C   UNL     1       8.681 -22.545 -23.169  1.00  0.00     0.004 C 
ENDBRANCH  12  13
ENDBRANCH  11  12
ENDBRANCH  10  11
ENDBRANCH   9  10
ENDBRANCH   1   9
TORSDOF 10
ENDMDL
MODEL 4
REMARK VINA RESULT:    -2.810      3.317      6.141
REMARK INTER + INTRA:          -5.259
REMARK INTER:                  -4.615
REMARK INTRA:                  -0.643
REMARK UNBOUND:                -0.806
REMARK SMILES CCCCCCCCCCCC(=O)[O-]
REMARK SMILES IDX 7 1 8 2 9 3 10 4 11 5 12 6 13 7 14 8 6 9 5 10 4 11 3 12 2 13
REMARK SMILES IDX 1 14
REMARK H PARENT
REMARK Flexibility Score: inf
ROOT
ATOM      1  C   UNL     1       5.772 -22.824 -17.852  1.00  0.00     0.000 C 
ENDROOT
BRANCH   1   2
ATOM      2  C   UNL     1       6.416 -22.515 -16.492  1.00  0.00     0.000 C 
BRANCH   2   3
ATOM      3  C   UNL     1       5.934 -21.182 -15.898  1.00  0.00     0.000 C 
BRANCH   3   4
ATOM      4  C   UNL     1       7.084 -20.338 -15.324  1.00  0.00     0.006 C 
BRANCH   4   5
ATOM      5  C   UNL     1       8.458 -20.954 -15.620  1.00  0.00     0.053 C 
BRANCH   5   6
ATOM      6  C   UNL     1       9.457 -20.615 -14.557  1.00  0.00     0.041 C 
ATOM      7  O   UNL     1       9.291 -21.022 -13.377  1.00  0.00    -0.550 OA
ATOM      8  O   UNL     1      10.590 -19.878 -14.876  1.00  0.00    -0.550 OA
ENDBRANCH   5   6
ENDBRANCH   4   5
ENDBRANCH   3   4
ENDBRANCH   2   3
ENDBRANCH   1   2
BRANCH   1   9
ATOM      9  C   UNL     1       6.843 -23.125 -18.910  1.00  0.00     0.000 C 
BRANCH   9  10
ATOM     10  C   UNL     1       8.069 -22.200 -18.800  1.00  0.00    -0.000 C 
BRANCH  10  11
ATOM     11  C   UNL     1       8.874 -22.026 -20.103  1.00  0.00    -0.000 C 
BRANCH  11  12
ATOM     12  C   UNL     1       8.123 -22.410 -21.394  1.00  0.00    -0.000 C 
BRANCH  12  13
ATOM     13  C   UNL     1       8.661 -21.747 -22.674  1.00  0.00    -0.003 C 
ATOM     14  C   UNL     1       9.475 -20.485 -22.394  1.00  0.00     0.004 C 
ENDBRANCH  12  13
ENDBRANCH  11  12
ENDBRANCH  10  11
ENDBRANCH   9  10
ENDBRANCH   1   9
TORSDOF 10
ENDMDL
MODEL 5
REMARK VINA RESULT:    -2.765      3.186      6.310
REMARK INTER + INTRA:          -5.187
REMARK INTER:                  -4.480
REMARK INTRA:                  -0.707
REMARK UNBOUND:                -0.806
REMARK SMILES CCCCCCCCCCCC(=O)[O-]
REMARK SMILES IDX 7 1 8 2 9 3 10 4 11 5 12 6 13 7 14 8 6 9 5 10 4 11 3 12 2 13
REMARK SMILES IDX 1 14
REMARK H PARENT
REMARK Flexibility Score: inf
ROOT
ATOM      1  C   UNL     1       9.231 -22.154 -19.074  1.00  0.00     0.000 C 
ENDROOT
BRANCH   1   2
ATOM      2  C   UNL     1       9.117 -22.994 -17.794  1.00  0.00     0.000 C 
BRANCH   2   3
ATOM      3  C   UNL     1       8.389 -22.253 -16.662  1.00  0.00     0.000 C 
BRANCH   3   4
ATOM      4  C   UNL     1       7.296 -21.304 -17.182  1.00  0.00     0.006 C 
BRANCH   4   5
ATOM      5  C   UNL     1       6.199 -21.056 -16.138  1.00  0.00     0.053 C 
BRANCH   5   6
ATOM      6  C   UNL     1       5.043 -21.993 -16.316  1.00  0.00     0.041 C 
ATOM      7  O   UNL     1       5.163 -23.018 -17.038  1.00  0.00    -0.550 OA
ATOM      8  O   UNL     1       3.846 -21.752 -15.656  1.00  0.00    -0.550 OA
ENDBRANCH   5   6
ENDBRANCH   4   5
ENDBRANCH   3   4
ENDBRANCH   2   3
ENDBRANCH   1   2
BRANCH   1   9
ATOM      9  C   UNL     1      10.673 -22.150 -19.602  1.00  0.00     0.000 C 
BRANCH   9  10
ATOM     10  C   UNL     1      10.897 -21.120 -20.723  1.00  0.00    -0.000 C 
BRANCH  10  11
ATOM     11  C   UNL     1       9.682 -20.225 -21.038  1.00  0.00    -0.000 C 
BRANCH  11  12
ATOM     12  C   UNL     1       9.074 -20.415 -22.442  1.00  0.00    -0.000 C 
BRANCH  12  13
ATOM     13  C   UNL     1       8.264 -21.711 -22.625  1.00  0.00    -0.003 C 
ATOM     14  C   UNL     1       9.000 -22.760 -23.458  1.00  0.00     0.004 C 
ENDBRANCH  12  13
ENDBRANCH  11  12
ENDBRANCH  10  11
ENDBRANCH   9  10
ENDBRANCH   1   9
TORSDOF 10
ENDMDL
MODEL 6
REMARK VINA RESULT:    -2.605      2.912      6.174
REMARK INTER + INTRA:          -4.933
REMARK INTER:                  -4.111
REMARK INTRA:                  -0.823
REMARK UNBOUND:                -0.806
REMARK SMILES CCCCCCCCCCCC(=O)[O-]
REMARK SMILES IDX 7 1 8 2 9 3 10 4 11 5 12 6 13 7 14 8 6 9 5 10 4 11 3 12 2 13
REMARK SMILES IDX 1 14
REMARK H PARENT
REMARK Flexibility Score: inf
ROOT
ATOM      1  C   UNL     1       7.738 -22.139 -18.670  1.00  0.00     0.000 C 
ENDROOT
BRANCH   1   2
ATOM      2  C   UNL     1       6.722 -22.883 -17.791  1.00  0.00     0.000 C 
BRANCH   2   3
ATOM      3  C   UNL     1       6.423 -22.146 -16.477  1.00  0.00     0.000 C 
BRANCH   3   4
ATOM      4  C   UNL     1       7.197 -20.823 -16.351  1.00  0.00     0.006 C 
BRANCH   4   5
ATOM      5  C   UNL     1       7.926 -20.704 -15.006  1.00  0.00     0.053 C 
BRANCH   5   6
ATOM      6  C   UNL     1       9.414 -20.702 -15.182  1.00  0.00     0.041 C 
ATOM      7  O   UNL     1       9.935 -21.249 -16.189  1.00  0.00    -0.550 OA
ATOM      8  O   UNL     1      10.223 -20.064 -14.251  1.00  0.00    -0.550 OA
ENDBRANCH   5   6
ENDBRANCH   4   5
ENDBRANCH   3   4
ENDBRANCH   2   3
ENDBRANCH   1   2
BRANCH   1   9
ATOM      9  C   UNL     1       8.914 -23.052 -19.043  1.00  0.00     0.000 C 
BRANCH   9  10
ATOM     10  C   UNL     1      10.127 -22.275 -19.584  1.00  0.00    -0.000 C 
BRANCH  10  11
ATOM     11  C   UNL     1      10.422 -22.487 -21.082  1.00  0.00    -0.000 C 
BRANCH  11  12
ATOM     12  C   UNL     1       9.220 -22.953 -21.928  1.00  0.00    -0.000 C 
BRANCH  12  13
ATOM     13  C   UNL     1       8.576 -21.855 -22.793  1.00  0.00    -0.003 C 
ATOM     14  C   UNL     1       8.993 -20.446 -22.375  1.00  0.00     0.004 C 
ENDBRANCH  12  13
ENDBRANCH  11  12
ENDBRANCH  10  11
ENDBRANCH   9  10
ENDBRANCH   1   9
TORSDOF 10
ENDMDL
MODEL 7
REMARK VINA RESULT:    -2.523      3.021      5.982
REMARK INTER + INTRA:          -4.804
REMARK INTER:                  -4.026
REMARK INTRA:                  -0.778
REMARK UNBOUND:                -0.806
REMARK SMILES CCCCCCCCCCCC(=O)[O-]
REMARK SMILES IDX 7 1 8 2 9 3 10 4 11 5 12 6 13 7 14 8 6 9 5 10 4 11 3 12 2 13
REMARK SMILES IDX 1 14
REMARK H PARENT
REMARK Flexibility Score: inf
ROOT
ATOM      1  C   UNL     1       6.911 -22.833 -20.181  1.00  0.00     0.000 C 
ENDROOT
BRANCH   1   2
ATOM      2  C   UNL     1       7.560 -22.704 -18.795  1.00  0.00     0.000 C 
BRANCH   2   3
ATOM      3  C   UNL     1       6.612 -23.110 -17.657  1.00  0.00     0.000 C 
BRANCH   3   4
ATOM      4  C   UNL     1       7.194 -22.809 -16.265  1.00  0.00     0.006 C 
BRANCH   4   5
ATOM      5  C   UNL     1       7.468 -21.313 -16.063  1.00  0.00     0.053 C 
BRANCH   5   6
ATOM      6  C   UNL     1       8.803 -21.077 -15.427  1.00  0.00     0.041 C 
ATOM      7  O   UNL     1       8.879 -20.752 -14.213  1.00  0.00    -0.550 OA
ATOM      8  O   UNL     1       9.965 -21.249 -16.167  1.00  0.00    -0.550 OA
ENDBRANCH   5   6
ENDBRANCH   4   5
ENDBRANCH   3   4
ENDBRANCH   2   3
ENDBRANCH   1   2
BRANCH   1   9
ATOM      9  C   UNL     1       7.969 -23.114 -21.259  1.00  0.00     0.000 C 
BRANCH   9  10
ATOM     10  C   UNL     1       8.134 -21.949 -22.251  1.00  0.00    -0.000 C 
BRANCH  10  11
ATOM     11  C   UNL     1       9.414 -22.000 -23.109  1.00  0.00    -0.000 C 
BRANCH  11  12
ATOM     12  C   UNL     1      10.736 -21.897 -22.322  1.00  0.00    -0.000 C 
BRANCH  12  13
ATOM     13  C   UNL     1      10.787 -20.752 -21.294  1.00  0.00    -0.003 C 
ATOM     14  C   UNL     1      10.941 -21.249 -19.857  1.00  0.00     0.004 C 
ENDBRANCH  12  13
ENDBRANCH  11  12
ENDBRANCH  10  11
ENDBRANCH   9  10
ENDBRANCH   1   9
TORSDOF 10
ENDMDL
MODEL 8
REMARK VINA RESULT:    -2.152      1.595      3.054
REMARK INTER + INTRA:          -4.216
REMARK INTER:                  -3.607
REMARK INTRA:                  -0.609
REMARK UNBOUND:                -0.806
REMARK SMILES CCCCCCCCCCCC(=O)[O-]
REMARK SMILES IDX 7 1 8 2 9 3 10 4 11 5 12 6 13 7 14 8 6 9 5 10 4 11 3 12 2 13
REMARK SMILES IDX 1 14
REMARK H PARENT
REMARK Flexibility Score: inf
ROOT
ATOM      1  C   UNL     1       8.946 -21.794 -18.181  1.00  0.00     0.000 C 
ENDROOT
BRANCH   1   2
ATOM      2  C   UNL     1      10.427 -22.058 -18.489  1.00  0.00     0.000 C 
BRANCH   2   3
ATOM      3  C   UNL     1      10.664 -22.470 -19.950  1.00  0.00     0.000 C 
BRANCH   3   4
ATOM      4  C   UNL     1       9.427 -23.125 -20.589  1.00  0.00     0.006 C 
BRANCH   4   5
ATOM      5  C   UNL     1       9.463 -23.060 -22.121  1.00  0.00     0.053 C 
BRANCH   5   6
ATOM      6  C   UNL     1       9.214 -21.670 -22.623  1.00  0.00     0.041 C 
ATOM      7  O   UNL     1       8.039 -21.225 -22.700  1.00  0.00    -0.550 OA
ATOM      8  O   UNL     1      10.282 -20.855 -22.971  1.00  0.00    -0.550 OA
ENDBRANCH   5   6
ENDBRANCH   4   5
ENDBRANCH   3   4
ENDBRANCH   2   3
ENDBRANCH   1   2
BRANCH   1   9
ATOM      9  C   UNL     1       8.669 -21.914 -16.675  1.00  0.00     0.000 C 
BRANCH   9  10
ATOM     10  C   UNL     1       7.555 -22.926 -16.351  1.00  0.00    -0.000 C 
BRANCH  10  11
ATOM     11  C   UNL     1       6.437 -23.026 -17.408  1.00  0.00    -0.000 C 
BRANCH  11  12
ATOM     12  C   UNL     1       5.001 -23.013 -16.848  1.00  0.00    -0.000 C 
BRANCH  12  13
ATOM     13  C   UNL     1       4.654 -21.782 -15.991  1.00  0.00    -0.003 C 
ATOM     14  C   UNL     1       3.165 -21.689 -15.659  1.00  0.00     0.004 C 
ENDBRANCH  12  13
ENDBRANCH  11  12
ENDBRANCH  10  11
ENDBRANCH   9  10
ENDBRANCH   1   9
TORSDOF 10
ENDMDL
MODEL 9
REMARK VINA RESULT:    -2.107     12.593     14.834
REMARK INTER + INTRA:          -4.145
REMARK INTER:                  -3.814
REMARK INTRA:                  -0.331
REMARK UNBOUND:                -0.806
REMARK SMILES CCCCCCCCCCCC(=O)[O-]
REMARK SMILES IDX 7 1 8 2 9 3 10 4 11 5 12 6 13 7 14 8 6 9 5 10 4 11 3 12 2 13
REMARK SMILES IDX 1 14
REMARK H PARENT
REMARK Flexibility Score: inf
ROOT
ATOM      1  C   UNL     1      -6.383 -21.191 -16.398  1.00  0.00     0.000 C 
ENDROOT
BRANCH   1   2
ATOM      2  C   UNL     1      -5.200 -22.051 -16.867  1.00  0.00     0.000 C 
BRANCH   2   3
ATOM      3  C   UNL     1      -4.146 -22.257 -15.768  1.00  0.00     0.000 C 
BRANCH   3   4
ATOM      4  C   UNL     1      -4.736 -22.879 -14.491  1.00  0.00     0.006 C 
BRANCH   4   5
ATOM      5  C   UNL     1      -3.667 -23.125 -13.418  1.00  0.00     0.053 C 
BRANCH   5   6
ATOM      6  C   UNL     1      -2.357 -22.501 -13.790  1.00  0.00     0.041 C 
ATOM      7  O   UNL     1      -1.865 -21.585 -13.080  1.00  0.00    -0.550 OA
ATOM      8  O   UNL     1      -1.661 -22.956 -14.903  1.00  0.00    -0.550 OA
ENDBRANCH   5   6
ENDBRANCH   4   5
ENDBRANCH   3   4
ENDBRANCH   2   3
ENDBRANCH   1   2
BRANCH   1   9
ATOM      9  C   UNL     1      -7.654 -21.528 -17.191  1.00  0.00     0.000 C 
BRANCH   9  10
ATOM     10  C   UNL     1      -8.800 -22.035 -16.296  1.00  0.00    -0.000 C 
BRANCH  10  11
ATOM     11  C   UNL     1      -8.403 -22.338 -14.838  1.00  0.00    -0.000 C 
BRANCH  11  12
ATOM     12  C   UNL     1      -8.677 -21.202 -13.833  1.00  0.00    -0.000 C 
BRANCH  12  13
ATOM     13  C   UNL     1      -7.714 -21.156 -12.633  1.00  0.00    -0.003 C 
ATOM     14  C   UNL     1      -7.471 -22.531 -12.013  1.00  0.00     0.004 C 
ENDBRANCH  12  13
ENDBRANCH  11  12
ENDBRANCH  10  11
ENDBRANCH   9  10
ENDBRANCH   1   9
TORSDOF 10
ENDMDL
