MODEL 1
REMARK VINA RESULT:    -5.864      0.000      0.000
REMARK INTER + INTRA:         -12.287
REMARK INTER:                 -11.350
REMARK INTRA:                  -0.938
REMARK UNBOUND:                -0.938
REMARK SMILES CCCCCCCCCCCCCCCCCC(=O)[O-]
REMARK SMILES IDX 10 1 11 2 12 3 13 4 14 5 15 6 16 7 17 8 18 9 19 10 20 11
REMARK SMILES IDX 9 12 8 13 7 14 6 15 5 16 4 17 3 18 2 19 1 20
REMARK H PARENT
REMARK Flexibility Score: inf
ROOT
ATOM      1  C   UNL     1       0.626 -26.222   0.125  1.00  0.00     0.000 C 
ENDROOT
BRANCH   1   2
ATOM      2  C   UNL     1       1.537 -27.115  -0.733  1.00  0.00     0.000 C 
BRANCH   2   3
ATOM      3  C   UNL     1       1.804 -28.486  -0.086  1.00  0.00     0.000 C 
BRANCH   3   4
ATOM      4  C   UNL     1       3.150 -28.536   0.654  1.00  0.00     0.000 C 
BRANCH   4   5
ATOM      5  C   UNL     1       2.988 -28.736   2.168  1.00  0.00     0.000 C 
BRANCH   5   6
ATOM      6  C   UNL     1       4.222 -29.425   2.766  1.00  0.00     0.000 C 
BRANCH   6   7
ATOM      7  C   UNL     1       3.830 -30.340   3.935  1.00  0.00     0.006 C 
BRANCH   7   8
ATOM      8  C   UNL     1       3.138 -29.571   5.068  1.00  0.00     0.053 C 
BRANCH   8   9
ATOM      9  C   UNL     1       2.579 -30.493   6.108  1.00  0.00     0.041 C 
ATOM     10  O   UNL     1       1.377 -30.388   6.467  1.00  0.00    -0.550 OA
ATOM     11  O   UNL     1       3.394 -31.451   6.700  1.00  0.00    -0.550 OA
ENDBRANCH   8   9
ENDBRANCH   7   8
ENDBRANCH   6   7
ENDBRANCH   5   6
ENDBRANCH   4   5
ENDBRANCH   3   4
ENDBRANCH   2   3
ENDBRANCH   1   2
BRANCH   1  12
ATOM     12  C   UNL     1      -0.815 -26.157  -0.404  1.00  0.00     0.000 C 
BRANCH  12  13
ATOM     13  C   UNL     1      -0.911 -25.219  -1.617  1.00  0.00    -0.000 C 
BRANCH  13  14
ATOM     14  C   UNL     1      -2.261 -24.487  -1.694  1.00  0.00    -0.000 C 
BRANCH  14  15
ATOM     15  C   UNL     1      -3.446 -25.454  -1.858  1.00  0.00    -0.000 C 
BRANCH  15  16
ATOM     16  C   UNL     1      -4.769 -24.870  -1.332  1.00  0.00    -0.000 C 
BRANCH  16  17
ATOM     17  C   UNL     1      -5.176 -25.410   0.056  1.00  0.00    -0.000 C 
BRANCH  17  18
ATOM     18  C   UNL     1      -4.141 -25.063   1.139  1.00  0.00    -0.000 C 
BRANCH  18  19
ATOM     19  C   UNL     1      -4.047 -23.552   1.403  1.00  0.00    -0.003 C 
ATOM     20  C   UNL     1      -5.265 -23.010   2.152  1.00  0.00     0.004 C 
ENDBRANCH  18  19
ENDBRANCH  17  18
ENDBRANCH  16  17
ENDBRANCH  15  16
ENDBRANCH  14  15
ENDBRANCH  13  14
ENDBRANCH  12  13
ENDBRANCH   1  12
TORSDOF 16
ENDMDL
MODEL 2
REMARK VINA RESULT:    -5.834      1.265      2.764
REMARK INTER + INTRA:         -12.229
REMARK INTER:                 -11.287
REMARK INTRA:                  -0.942
REMARK UNBOUND:                -0.938
REMARK SMILES CCCCCCCCCCCCCCCCCC(=O)[O-]
REMARK SMILES IDX 10 1 11 2 12 3 13 4 14 5 15 6 16 7 17 8 18 9 19 10 20 11
REMARK SMILES IDX 9 12 8 13 7 14 6 15 5 16 4 17 3 18 2 19 1 20
REMARK H PARENT
REMARK Flexibility Score: inf
ROOT
ATOM      1  C   UNL     1       2.212 -28.122   1.387  1.00  0.00     0.000 C 
ENDROOT
BRANCH   1   2
ATOM      2  C   UNL     1       3.178 -28.972   2.229  1.00  0.00     0.000 C 
BRANCH   2   3
ATOM      3  C   UNL     1       4.403 -29.446   1.428  1.00  0.00     0.000 C 
BRANCH   3   4
ATOM      4  C   UNL     1       5.552 -29.919   2.334  1.00  0.00     0.000 C 
BRANCH   4   5
ATOM      5  C   UNL     1       5.154 -29.973   3.817  1.00  0.00     0.000 C 
BRANCH   5   6
ATOM      6  C   UNL     1       4.998 -31.423   4.291  1.00  0.00     0.000 C 
BRANCH   6   7
ATOM      7  C   UNL     1       3.547 -31.717   4.699  1.00  0.00     0.006 C 
BRANCH   7   8
ATOM      8  C   UNL     1       3.277 -31.374   6.170  1.00  0.00     0.053 C 
BRANCH   8   9
ATOM      9  C   UNL     1       2.326 -30.224   6.309  1.00  0.00     0.041 C 
ATOM     10  O   UNL     1       2.755 -29.040   6.282  1.00  0.00    -0.550 OA
ATOM     11  O   UNL     1       0.970 -30.461   6.495  1.00  0.00    -0.550 OA
ENDBRANCH   8   9
ENDBRANCH   7   8
ENDBRANCH   6   7
ENDBRANCH   5   6
ENDBRANCH   4   5
ENDBRANCH   3   4
ENDBRANCH   2   3
ENDBRANCH   1   2
BRANCH   1  12
ATOM     12  C   UNL     1       2.583 -28.099  -0.104  1.00  0.00     0.000 C 
BRANCH  12  13
ATOM     13  C   UNL     1       1.734 -27.068  -0.864  1.00  0.00    -0.000 C 
BRANCH  13  14
ATOM     14  C   UNL     1       0.404 -26.761  -0.156  1.00  0.00    -0.000 C 
BRANCH  14  15
ATOM     15  C   UNL     1      -0.533 -25.893  -1.014  1.00  0.00    -0.000 C 
BRANCH  15  16
ATOM     16  C   UNL     1      -1.153 -24.726  -0.226  1.00  0.00    -0.000 C 
BRANCH  16  17
ATOM     17  C   UNL     1      -2.670 -24.561  -0.456  1.00  0.00    -0.000 C 
BRANCH  17  18
ATOM     18  C   UNL     1      -3.314 -23.621   0.578  1.00  0.00    -0.000 C 
BRANCH  18  19
ATOM     19  C   UNL     1      -4.605 -24.199   1.177  1.00  0.00    -0.003 C 
ATOM     20  C   UNL     1      -5.195 -23.308   2.271  1.00  0.00     0.004 C 
ENDBRANCH  18  19
ENDBRANCH  17  18
ENDBRANCH  16  17
ENDBRANCH  15  16
ENDBRANCH  14  15
ENDBRANCH  13  14
ENDBRANCH  12  13
ENDBRANCH   1  12
TORSDOF 16
ENDMDL
MODEL 3
REMARK VINA RESULT:    -5.737      1.345      2.373
REMARK INTER + INTRA:         -12.041
REMARK INTER:                 -11.326
REMARK INTRA:                  -0.715
REMARK UNBOUND:                -0.938
REMARK SMILES CCCCCCCCCCCCCCCCCC(=O)[O-]
REMARK SMILES IDX 10 1 11 2 12 3 13 4 14 5 15 6 16 7 17 8 18 9 19 10 20 11
REMARK SMILES IDX 9 12 8 13 7 14 6 15 5 16 4 17 3 18 2 19 1 20
REMARK H PARENT
REMARK Flexibility Score: inf
ROOT
ATOM      1  C   UNL     1       3.084 -28.122  -0.387  1.00  0.00     0.000 C 
ENDROOT
BRANCH   1   2
ATOM      2  C   UNL     1       3.845 -28.929   0.678  1.00  0.00     0.000 C 
BRANCH   2   3
ATOM      3  C   UNL     1       2.910 -29.555   1.728  1.00  0.00     0.000 C 
BRANCH   3   4
ATOM      4  C   UNL     1       3.359 -29.254   3.168  1.00  0.00     0.000 C 
BRANCH   4   5
ATOM      5  C   UNL     1       4.666 -29.968   3.543  1.00  0.00     0.000 C 
BRANCH   5   6
ATOM      6  C   UNL     1       4.390 -31.394   4.038  1.00  0.00     0.000 C 
BRANCH   6   7
ATOM      7  C   UNL     1       3.045 -31.471   4.775  1.00  0.00     0.006 C 
BRANCH   7   8
ATOM      8  C   UNL     1       3.157 -31.019   6.237  1.00  0.00     0.053 C 
BRANCH   8   9
ATOM      9  C   UNL     1       2.109 -30.007   6.589  1.00  0.00     0.041 C 
ATOM     10  O   UNL     1       2.442 -28.828   6.883  1.00  0.00    -0.550 OA
ATOM     11  O   UNL     1       0.769 -30.372   6.619  1.00  0.00    -0.550 OA
ENDBRANCH   8   9
ENDBRANCH   7   8
ENDBRANCH   6   7
ENDBRANCH   5   6
ENDBRANCH   4   5
ENDBRANCH   3   4
ENDBRANCH   2   3
ENDBRANCH   1   2
BRANCH   1  12
ATOM     12  C   UNL     1       1.669 -27.726   0.064  1.00  0.00     0.000 C 
BRANCH  12  13
ATOM     13  C   UNL     1       1.053 -26.702  -0.903  1.00  0.00    -0.000 C 
BRANCH  13  14
ATOM     14  C   UNL     1      -0.356 -26.260  -0.476  1.00  0.00    -0.000 C 
BRANCH  14  15
ATOM     15  C   UNL     1      -0.972 -25.237  -1.446  1.00  0.00    -0.000 C 
BRANCH  15  16
ATOM     16  C   UNL     1      -1.770 -24.137  -0.727  1.00  0.00    -0.000 C 
BRANCH  16  17
ATOM     17  C   UNL     1      -2.984 -24.668   0.064  1.00  0.00    -0.000 C 
BRANCH  17  18
ATOM     18  C   UNL     1      -3.611 -23.587   0.961  1.00  0.00    -0.000 C 
BRANCH  18  19
ATOM     19  C   UNL     1      -5.047 -23.933   1.386  1.00  0.00    -0.003 C 
ATOM     20  C   UNL     1      -5.482 -23.185   2.646  1.00  0.00     0.004 C 
ENDBRANCH  18  19
ENDBRANCH  17  18
ENDBRANCH  16  17
ENDBRANCH  15  16
ENDBRANCH  14  15
ENDBRANCH  13  14
ENDBRANCH  12  13
ENDBRANCH   1  12
TORSDOF 16
ENDMDL
MODEL 4
REMARK VINA RESULT:    -5.701      3.815      9.160
REMARK INTER + INTRA:         -11.971
REMARK INTER:                 -10.893
REMARK INTRA:                  -1.079
REMARK UNBOUND:                -0.938
REMARK SMILES CCCCCCCCCCCCCCCCCC(=O)[O-]
REMARK SMILES IDX 10 1 11 2 12 3 13 4 14 5 15 6 16 7 17 8 18 9 19 10 20 11
REMARK SMILES IDX 9 12 8 13 7 14 6 15 5 16 4 17 3 18 2 19 1 20
REMARK H PARENT
REMARK Flexibility Score: inf
ROOT
ATOM      1  C   UNL     1       2.033 -28.199   0.721  1.00  0.00     0.000 C 
ENDROOT
BRANCH   1   2
ATOM      2  C   UNL     1       2.305 -27.704  -0.709  1.00  0.00     0.000 C 
BRANCH   2   3
ATOM      3  C   UNL     1       1.247 -26.703  -1.202  1.00  0.00     0.000 C 
BRANCH   3   4
ATOM      4  C   UNL     1       0.015 -26.647  -0.283  1.00  0.00     0.000 C 
BRANCH   4   5
ATOM      5  C   UNL     1      -0.694 -25.285  -0.325  1.00  0.00     0.000 C 
BRANCH   5   6
ATOM      6  C   UNL     1      -1.680 -25.215  -1.498  1.00  0.00     0.000 C 
BRANCH   6   7
ATOM      7  C   UNL     1      -2.950 -24.447  -1.104  1.00  0.00     0.006 C 
BRANCH   7   8
ATOM      8  C   UNL     1      -2.921 -23.986   0.359  1.00  0.00     0.053 C 
BRANCH   8   9
ATOM      9  C   UNL     1      -4.299 -23.757   0.899  1.00  0.00     0.041 C 
ATOM     10  O   UNL     1      -5.190 -24.636   0.755  1.00  0.00    -0.550 OA
ATOM     11  O   UNL     1      -4.609 -22.562   1.537  1.00  0.00    -0.550 OA
ENDBRANCH   8   9
ENDBRANCH   7   8
ENDBRANCH   6   7
ENDBRANCH   5   6
ENDBRANCH   4   5
ENDBRANCH   3   4
ENDBRANCH   2   3
ENDBRANCH   1   2
BRANCH   1  12
ATOM     12  C   UNL     1       3.082 -29.208   1.213  1.00  0.00     0.000 C 
BRANCH  12  13
ATOM     13  C   UNL     1       3.107 -29.268   2.749  1.00  0.00    -0.000 C 
BRANCH  13  14
ATOM     14  C   UNL     1       4.449 -29.777   3.299  1.00  0.00    -0.000 C 
BRANCH  14  15
ATOM     15  C   UNL     1       4.347 -31.197   3.881  1.00  0.00    -0.000 C 
BRANCH  15  16
ATOM     16  C   UNL     1       4.812 -31.277   5.345  1.00  0.00    -0.000 C 
BRANCH  16  17
ATOM     17  C   UNL     1       3.673 -31.578   6.342  1.00  0.00    -0.000 C 
BRANCH  17  18
ATOM     18  C   UNL     1       2.288 -31.511   5.677  1.00  0.00    -0.000 C 
BRANCH  18  19
ATOM     19  C   UNL     1       1.401 -30.405   6.270  1.00  0.00    -0.003 C 
ATOM     20  C   UNL     1       2.205 -29.178   6.702  1.00  0.00     0.004 C 
ENDBRANCH  18  19
ENDBRANCH  17  18
ENDBRANCH  16  17
ENDBRANCH  15  16
ENDBRANCH  14  15
ENDBRANCH  13  14
ENDBRANCH  12  13
ENDBRANCH   1  12
TORSDOF 16
ENDMDL
MODEL 5
REMARK VINA RESULT:    -5.682      1.007      1.947
REMARK INTER + INTRA:         -11.934
REMARK INTER:                 -11.128
REMARK INTRA:                  -0.807
REMARK UNBOUND:                -0.938
REMARK SMILES CCCCCCCCCCCCCCCCCC(=O)[O-]
REMARK SMILES IDX 10 1 11 2 12 3 13 4 14 5 15 6 16 7 17 8 18 9 19 10 20 11
REMARK SMILES IDX 9 12 8 13 7 14 6 15 5 16 4 17 3 18 2 19 1 20
REMARK H PARENT
REMARK Flexibility Score: inf
ROOT
ATOM      1  C   UNL     1       0.887 -27.643   0.510  1.00  0.00     0.000 C 
ENDROOT
BRANCH   1   2
ATOM      2  C   UNL     1       1.946 -28.671   0.079  1.00  0.00     0.000 C 
BRANCH   2   3
ATOM      3  C   UNL     1       3.247 -28.561   0.894  1.00  0.00     0.000 C 
BRANCH   3   4
ATOM      4  C   UNL     1       3.199 -29.383   2.193  1.00  0.00     0.000 C 
BRANCH   4   5
ATOM      5  C   UNL     1       4.590 -29.603   2.806  1.00  0.00     0.000 C 
BRANCH   5   6
ATOM      6  C   UNL     1       4.479 -30.115   4.248  1.00  0.00     0.000 C 
BRANCH   6   7
ATOM      7  C   UNL     1       3.236 -29.540   4.943  1.00  0.00     0.006 C 
BRANCH   7   8
ATOM      8  C   UNL     1       2.917 -30.266   6.257  1.00  0.00     0.053 C 
BRANCH   8   9
ATOM      9  C   UNL     1       2.399 -31.651   6.017  1.00  0.00     0.041 C 
ATOM     10  O   UNL     1       1.169 -31.841   5.818  1.00  0.00    -0.550 OA
ATOM     11  O   UNL     1       3.268 -32.734   6.041  1.00  0.00    -0.550 OA
ENDBRANCH   8   9
ENDBRANCH   7   8
ENDBRANCH   6   7
ENDBRANCH   5   6
ENDBRANCH   4   5
ENDBRANCH   3   4
ENDBRANCH   2   3
ENDBRANCH   1   2
BRANCH   1  12
ATOM     12  C   UNL     1       0.582 -26.608  -0.583  1.00  0.00     0.000 C 
BRANCH  12  13
ATOM     13  C   UNL     1      -0.684 -25.806  -0.241  1.00  0.00    -0.000 C 
BRANCH  13  14
ATOM     14  C   UNL     1      -1.359 -25.206  -1.485  1.00  0.00    -0.000 C 
BRANCH  14  15
ATOM     15  C   UNL     1      -2.257 -24.004  -1.146  1.00  0.00    -0.000 C 
BRANCH  15  16
ATOM     16  C   UNL     1      -2.254 -23.661   0.353  1.00  0.00    -0.000 C 
BRANCH  16  17
ATOM     17  C   UNL     1      -3.639 -23.251   0.898  1.00  0.00    -0.000 C 
BRANCH  17  18
ATOM     18  C   UNL     1      -4.365 -24.424   1.578  1.00  0.00    -0.000 C 
BRANCH  18  19
ATOM     19  C   UNL     1      -4.319 -25.712   0.740  1.00  0.00    -0.003 C 
ATOM     20  C   UNL     1      -5.495 -25.821  -0.232  1.00  0.00     0.004 C 
ENDBRANCH  18  19
ENDBRANCH  17  18
ENDBRANCH  16  17
ENDBRANCH  15  16
ENDBRANCH  14  15
ENDBRANCH  13  14
ENDBRANCH  12  13
ENDBRANCH   1  12
TORSDOF 16
ENDMDL
MODEL 6
REMARK VINA RESULT:    -5.642      1.641      3.220
REMARK INTER + INTRA:         -11.857
REMARK INTER:                 -10.149
REMARK INTRA:                  -1.708
REMARK UNBOUND:                -0.938
REMARK SMILES CCCCCCCCCCCCCCCCCC(=O)[O-]
REMARK SMILES IDX 10 1 11 2 12 3 13 4 14 5 15 6 16 7 17 8 18 9 19 10 20 11
REMARK SMILES IDX 9 12 8 13 7 14 6 15 5 16 4 17 3 18 2 19 1 20
REMARK H PARENT
REMARK Flexibility Score: inf
ROOT
ATOM      1  C   UNL     1      -1.431 -24.713  -1.493  1.00  0.00     0.000 C 
ENDROOT
BRANCH   1   2
ATOM      2  C   UNL     1      -0.440 -25.852  -1.786  1.00  0.00     0.000 C 
BRANCH   2   3
ATOM      3  C   UNL     1       0.176 -26.447  -0.508  1.00  0.00     0.000 C 
BRANCH   3   4
ATOM      4  C   UNL     1       1.682 -26.720  -0.651  1.00  0.00     0.000 C 
BRANCH   4   5
ATOM      5  C   UNL     1       2.073 -28.135  -0.201  1.00  0.00     0.000 C 
BRANCH   5   6
ATOM      6  C   UNL     1       2.045 -28.253   1.328  1.00  0.00     0.000 C 
BRANCH   6   7
ATOM      7  C   UNL     1       3.336 -28.897   1.855  1.00  0.00     0.006 C 
BRANCH   7   8
ATOM      8  C   UNL     1       3.263 -29.198   3.358  1.00  0.00     0.053 C 
BRANCH   8   9
ATOM      9  C   UNL     1       4.473 -29.941   3.837  1.00  0.00     0.041 C 
ATOM     10  O   UNL     1       5.518 -29.968   3.134  1.00  0.00    -0.550 OA
ATOM     11  O   UNL     1       4.438 -30.626   5.044  1.00  0.00    -0.550 OA
ENDBRANCH   8   9
ENDBRANCH   7   8
ENDBRANCH   6   7
ENDBRANCH   5   6
ENDBRANCH   4   5
ENDBRANCH   3   4
ENDBRANCH   2   3
ENDBRANCH   1   2
BRANCH   1  12
ATOM     12  C   UNL     1      -1.776 -24.593  -0.000  1.00  0.00     0.000 C 
BRANCH  12  13
ATOM     13  C   UNL     1      -2.877 -23.545   0.225  1.00  0.00    -0.000 C 
BRANCH  13  14
ATOM     14  C   UNL     1      -4.025 -24.071   1.101  1.00  0.00    -0.000 C 
BRANCH  14  15
ATOM     15  C   UNL     1      -4.403 -25.524   0.766  1.00  0.00    -0.000 C 
BRANCH  15  16
ATOM     16  C   UNL     1      -5.353 -25.631  -0.439  1.00  0.00    -0.000 C 
BRANCH  16  17
ATOM     17  C   UNL     1      -4.732 -26.347  -1.656  1.00  0.00    -0.000 C 
BRANCH  17  18
ATOM     18  C   UNL     1      -4.955 -25.567  -2.964  1.00  0.00    -0.000 C 
BRANCH  18  19
ATOM     19  C   UNL     1      -4.961 -24.045  -2.749  1.00  0.00    -0.003 C 
ATOM     20  C   UNL     1      -4.083 -23.307  -3.760  1.00  0.00     0.004 C 
ENDBRANCH  18  19
ENDBRANCH  17  18
ENDBRANCH  16  17
ENDBRANCH  15  16
ENDBRANCH  14  15
ENDBRANCH  13  14
ENDBRANCH  12  13
ENDBRANCH   1  12
TORSDOF 16
ENDMDL
MODEL 7
REMARK VINA RESULT:    -5.543      3.709      9.189
REMARK INTER + INTRA:         -11.666
REMARK INTER:                 -10.575
REMARK INTRA:                  -1.090
REMARK UNBOUND:                -0.938
REMARK SMILES CCCCCCCCCCCCCCCCCC(=O)[O-]
REMARK SMILES IDX 10 1 11 2 12 3 13 4 14 5 15 6 16 7 17 8 18 9 19 10 20 11
REMARK SMILES IDX 9 12 8 13 7 14 6 15 5 16 4 17 3 18 2 19 1 20
REMARK H PARENT
REMARK Flexibility Score: inf
ROOT
ATOM      1  C   UNL     1       2.112 -26.953  -1.144  1.00  0.00     0.000 C 
ENDROOT
BRANCH   1   2
ATOM      2  C   UNL     1       0.707 -26.351  -0.976  1.00  0.00     0.000 C 
BRANCH   2   3
ATOM      3  C   UNL     1      -0.112 -27.051   0.123  1.00  0.00     0.000 C 
BRANCH   3   4
ATOM      4  C   UNL     1      -1.567 -26.558   0.178  1.00  0.00     0.000 C 
BRANCH   4   5
ATOM      5  C   UNL     1      -1.835 -25.393  -0.786  1.00  0.00     0.000 C 
BRANCH   5   6
ATOM      6  C   UNL     1      -3.225 -25.517  -1.424  1.00  0.00     0.000 C 
BRANCH   6   7
ATOM      7  C   UNL     1      -4.134 -24.357  -0.993  1.00  0.00     0.006 C 
BRANCH   7   8
ATOM      8  C   UNL     1      -4.802 -24.616   0.364  1.00  0.00     0.053 C 
BRANCH   8   9
ATOM      9  C   UNL     1      -4.484 -23.539   1.356  1.00  0.00     0.041 C 
ATOM     10  O   UNL     1      -3.406 -22.893   1.265  1.00  0.00    -0.550 OA
ATOM     11  O   UNL     1      -5.364 -23.267   2.395  1.00  0.00    -0.550 OA
ENDBRANCH   8   9
ENDBRANCH   7   8
ENDBRANCH   6   7
ENDBRANCH   5   6
ENDBRANCH   4   5
ENDBRANCH   3   4
ENDBRANCH   2   3
ENDBRANCH   1   2
BRANCH   1  12
ATOM     12  C   UNL     1       2.301 -28.254  -0.349  1.00  0.00     0.000 C 
BRANCH  12  13
ATOM     13  C   UNL     1       3.794 -28.566  -0.157  1.00  0.00    -0.000 C 
BRANCH  13  14
ATOM     14  C   UNL     1       4.114 -29.075   1.258  1.00  0.00    -0.000 C 
BRANCH  14  15
ATOM     15  C   UNL     1       2.984 -28.784   2.259  1.00  0.00    -0.000 C 
BRANCH  15  16
ATOM     16  C   UNL     1       3.310 -29.262   3.684  1.00  0.00    -0.000 C 
BRANCH  16  17
ATOM     17  C   UNL     1       4.408 -30.345   3.738  1.00  0.00    -0.000 C 
BRANCH  17  18
ATOM     18  C   UNL     1       5.009 -30.492   5.147  1.00  0.00    -0.000 C 
BRANCH  18  19
ATOM     19  C   UNL     1       4.168 -31.403   6.054  1.00  0.00    -0.003 C 
ATOM     20  C   UNL     1       3.835 -32.742   5.395  1.00  0.00     0.004 C 
ENDBRANCH  18  19
ENDBRANCH  17  18
ENDBRANCH  16  17
ENDBRANCH  15  16
ENDBRANCH  14  15
ENDBRANCH  13  14
ENDBRANCH  12  13
ENDBRANCH   1  12
TORSDOF 16
ENDMDL
MODEL 8
REMARK VINA RESULT:    -5.541      3.928      6.934
REMARK INTER + INTRA:         -11.662
REMARK INTER:                  -9.994
REMARK INTRA:                  -1.667
REMARK UNBOUND:                -0.938
REMARK SMILES CCCCCCCCCCCCCCCCCC(=O)[O-]
REMARK SMILES IDX 10 1 11 2 12 3 13 4 14 5 15 6 16 7 17 8 18 9 19 10 20 11
REMARK SMILES IDX 9 12 8 13 7 14 6 15 5 16 4 17 3 18 2 19 1 20
REMARK H PARENT
REMARK Flexibility Score: inf
ROOT
ATOM      1  C   UNL     1       0.960 -27.834  -0.317  1.00  0.00     0.000 C 
ENDROOT
BRANCH   1   2
ATOM      2  C   UNL     1       1.596 -27.789   1.083  1.00  0.00     0.000 C 
BRANCH   2   3
ATOM      3  C   UNL     1       2.314 -29.099   1.450  1.00  0.00     0.000 C 
BRANCH   3   4
ATOM      4  C   UNL     1       3.342 -28.911   2.578  1.00  0.00     0.000 C 
BRANCH   4   5
ATOM      5  C   UNL     1       4.622 -29.730   2.357  1.00  0.00     0.000 C 
BRANCH   5   6
ATOM      6  C   UNL     1       4.936 -30.599   3.582  1.00  0.00     0.000 C 
BRANCH   6   7
ATOM      7  C   UNL     1       4.351 -29.981   4.860  1.00  0.00     0.006 C 
BRANCH   7   8
ATOM      8  C   UNL     1       3.666 -31.027   5.750  1.00  0.00     0.053 C 
BRANCH   8   9
ATOM      9  C   UNL     1       2.297 -30.589   6.173  1.00  0.00     0.041 C 
ATOM     10  O   UNL     1       1.304 -31.338   5.975  1.00  0.00    -0.550 OA
ATOM     11  O   UNL     1       2.113 -29.344   6.760  1.00  0.00    -0.550 OA
ENDBRANCH   8   9
ENDBRANCH   7   8
ENDBRANCH   6   7
ENDBRANCH   5   6
ENDBRANCH   4   5
ENDBRANCH   3   4
ENDBRANCH   2   3
ENDBRANCH   1   2
BRANCH   1  12
ATOM     12  C   UNL     1       1.410 -26.670  -1.213  1.00  0.00     0.000 C 
BRANCH  12  13
ATOM     13  C   UNL     1       2.426 -27.149  -2.263  1.00  0.00    -0.000 C 
BRANCH  13  14
ATOM     14  C   UNL     1       3.874 -27.097  -1.750  1.00  0.00    -0.000 C 
BRANCH  14  15
ATOM     15  C   UNL     1       4.456 -28.496  -1.486  1.00  0.00    -0.000 C 
BRANCH  15  16
ATOM     16  C   UNL     1       5.977 -28.478  -1.261  1.00  0.00    -0.000 C 
BRANCH  16  17
ATOM     17  C   UNL     1       6.646 -27.146  -1.660  1.00  0.00    -0.000 C 
BRANCH  17  18
ATOM     18  C   UNL     1       7.439 -27.266  -2.973  1.00  0.00    -0.000 C 
BRANCH  18  19
ATOM     19  C   UNL     1       6.722 -26.600  -4.158  1.00  0.00    -0.003 C 
ATOM     20  C   UNL     1       6.213 -27.615  -5.182  1.00  0.00     0.004 C 
ENDBRANCH  18  19
ENDBRANCH  17  18
ENDBRANCH  16  17
ENDBRANCH  15  16
ENDBRANCH  14  15
ENDBRANCH  13  14
ENDBRANCH  12  13
ENDBRANCH   1  12
TORSDOF 16
ENDMDL
MODEL 9
REMARK VINA RESULT:    -5.533      1.215      2.295
REMARK INTER + INTRA:         -11.647
REMARK INTER:                 -10.454
REMARK INTRA:                  -1.193
REMARK UNBOUND:                -0.938
REMARK SMILES CCCCCCCCCCCCCCCCCC(=O)[O-]
REMARK SMILES IDX 10 1 11 2 12 3 13 4 14 5 15 6 16 7 17 8 18 9 19 10 20 11
REMARK SMILES IDX 9 12 8 13 7 14 6 15 5 16 4 17 3 18 2 19 1 20
REMARK H PARENT
REMARK Flexibility Score: inf
ROOT
ATOM      1  C   UNL     1      -0.086 -25.982  -0.265  1.00  0.00     0.000 C 
ENDROOT
BRANCH   1   2
ATOM      2  C   UNL     1       0.217 -27.390   0.273  1.00  0.00     0.000 C 
BRANCH   2   3
ATOM      3  C   UNL     1       1.685 -27.802   0.063  1.00  0.00     0.000 C 
BRANCH   3   4
ATOM      4  C   UNL     1       2.392 -28.154   1.382  1.00  0.00     0.000 C 
BRANCH   4   5
ATOM      5  C   UNL     1       3.609 -29.069   1.176  1.00  0.00     0.000 C 
BRANCH   5   6
ATOM      6  C   UNL     1       4.113 -29.622   2.516  1.00  0.00     0.000 C 
BRANCH   6   7
ATOM      7  C   UNL     1       3.153 -29.259   3.657  1.00  0.00     0.006 C 
BRANCH   7   8
ATOM      8  C   UNL     1       3.675 -29.720   5.025  1.00  0.00     0.053 C 
BRANCH   8   9
ATOM      9  C   UNL     1       3.025 -30.995   5.468  1.00  0.00     0.041 C 
ATOM     10  O   UNL     1       1.847 -30.984   5.914  1.00  0.00    -0.550 OA
ATOM     11  O   UNL     1       3.729 -32.192   5.415  1.00  0.00    -0.550 OA
ENDBRANCH   8   9
ENDBRANCH   7   8
ENDBRANCH   6   7
ENDBRANCH   5   6
ENDBRANCH   4   5
ENDBRANCH   3   4
ENDBRANCH   2   3
ENDBRANCH   1   2
BRANCH   1  12
ATOM     12  C   UNL     1      -1.592 -25.703  -0.390  1.00  0.00     0.000 C 
BRANCH  12  13
ATOM     13  C   UNL     1      -1.874 -24.193  -0.363  1.00  0.00    -0.000 C 
BRANCH  13  14
ATOM     14  C   UNL     1      -3.047 -23.827   0.561  1.00  0.00    -0.000 C 
BRANCH  14  15
ATOM     15  C   UNL     1      -3.911 -25.046   0.927  1.00  0.00    -0.000 C 
BRANCH  15  16
ATOM     16  C   UNL     1      -5.187 -25.152   0.075  1.00  0.00    -0.000 C 
BRANCH  16  17
ATOM     17  C   UNL     1      -5.243 -26.420  -0.802  1.00  0.00    -0.000 C 
BRANCH  17  18
ATOM     18  C   UNL     1      -5.046 -26.102  -2.294  1.00  0.00    -0.000 C 
BRANCH  18  19
ATOM     19  C   UNL     1      -4.921 -24.594  -2.564  1.00  0.00    -0.003 C 
ATOM     20  C   UNL     1      -5.479 -24.194  -3.931  1.00  0.00     0.004 C 
ENDBRANCH  18  19
ENDBRANCH  17  18
ENDBRANCH  16  17
ENDBRANCH  15  16
ENDBRANCH  14  15
ENDBRANCH  13  14
ENDBRANCH  12  13
ENDBRANCH   1  12
TORSDOF 16
ENDMDL
