MODEL 1
REMARK VINA RESULT:    -2.887      0.000      0.000
REMARK INTER + INTRA:          -6.616
REMARK INTER:                  -5.587
REMARK INTRA:                  -1.030
REMARK UNBOUND:                -1.030
REMARK SMILES CCCCCCCCCCCCCCCCCC(=O)[O-]
REMARK SMILES IDX 10 1 11 2 12 3 13 4 14 5 15 6 16 7 17 8 18 9 19 10 20 11
REMARK SMILES IDX 9 12 8 13 7 14 6 15 5 16 4 17 3 18 2 19 1 20
REMARK H PARENT
REMARK Flexibility Score: inf
ROOT
ATOM      1  C   UNL     1      13.662 -13.020  -1.976  1.00  0.00     0.000 C 
ENDROOT
BRANCH   1   2
ATOM      2  C   UNL     1      12.407 -12.558  -2.735  1.00  0.00     0.000 C 
BRANCH   2   3
ATOM      3  C   UNL     1      12.744 -11.875  -4.072  1.00  0.00     0.000 C 
BRANCH   3   4
ATOM      4  C   UNL     1      14.112 -12.306  -4.623  1.00  0.00     0.000 C 
BRANCH   4   5
ATOM      5  C   UNL     1      13.992 -13.152  -5.903  1.00  0.00     0.000 C 
BRANCH   5   6
ATOM      6  C   UNL     1      14.455 -14.606  -5.703  1.00  0.00     0.000 C 
BRANCH   6   7
ATOM      7  C   UNL     1      13.792 -15.344  -4.521  1.00  0.00     0.006 C 
BRANCH   7   8
ATOM      8  C   UNL     1      13.612 -16.855  -4.733  1.00  0.00     0.053 C 
BRANCH   8   9
ATOM      9  C   UNL     1      13.245 -17.561  -3.465  1.00  0.00     0.041 C 
ATOM     10  O   UNL     1      12.699 -16.928  -2.522  1.00  0.00    -0.550 OA
ATOM     11  O   UNL     1      13.535 -18.910  -3.309  1.00  0.00    -0.550 OA
ENDBRANCH   8   9
ENDBRANCH   7   8
ENDBRANCH   6   7
ENDBRANCH   5   6
ENDBRANCH   4   5
ENDBRANCH   3   4
ENDBRANCH   2   3
ENDBRANCH   1   2
BRANCH   1  12
ATOM     12  C   UNL     1      14.037 -12.073  -0.824  1.00  0.00     0.000 C 
BRANCH  12  13
ATOM     13  C   UNL     1      14.335 -12.822   0.484  1.00  0.00    -0.000 C 
BRANCH  13  14
ATOM     14  C   UNL     1      14.444 -14.341   0.282  1.00  0.00    -0.000 C 
BRANCH  14  15
ATOM     15  C   UNL     1      14.905 -15.035   1.570  1.00  0.00    -0.000 C 
BRANCH  15  16
ATOM     16  C   UNL     1      14.592 -16.539   1.528  1.00  0.00    -0.000 C 
BRANCH  16  17
ATOM     17  C   UNL     1      15.125 -17.290   2.758  1.00  0.00    -0.000 C 
BRANCH  17  18
ATOM     18  C   UNL     1      14.898 -16.518   4.066  1.00  0.00    -0.000 C 
BRANCH  18  19
ATOM     19  C   UNL     1      14.193 -17.398   5.106  1.00  0.00    -0.003 C 
ATOM     20  C   UNL     1      13.926 -16.625   6.393  1.00  0.00     0.004 C 
ENDBRANCH  18  19
ENDBRANCH  17  18
ENDBRANCH  16  17
ENDBRANCH  15  16
ENDBRANCH  14  15
ENDBRANCH  13  14
ENDBRANCH  12  13
ENDBRANCH   1  12
TORSDOF 16
ENDMDL
MODEL 2
REMARK VINA RESULT:    -1.850      2.307      5.822
REMARK INTER + INTRA:          -4.610
REMARK INTER:                  -2.957
REMARK INTRA:                  -1.653
REMARK UNBOUND:                -1.030
REMARK SMILES CCCCCCCCCCCCCCCCCC(=O)[O-]
REMARK SMILES IDX 10 1 11 2 12 3 13 4 14 5 15 6 16 7 17 8 18 9 19 10 20 11
REMARK SMILES IDX 9 12 8 13 7 14 6 15 5 16 4 17 3 18 2 19 1 20
REMARK H PARENT
REMARK Flexibility Score: inf
ROOT
ATOM      1  C   UNL     1      13.917 -15.999   0.734  1.00  0.00     0.000 C 
ENDROOT
BRANCH   1   2
ATOM      2  C   UNL     1      12.810 -16.311  -0.286  1.00  0.00     0.000 C 
BRANCH   2   3
ATOM      3  C   UNL     1      12.445 -15.092  -1.152  1.00  0.00     0.000 C 
BRANCH   3   4
ATOM      4  C   UNL     1      12.632 -15.360  -2.653  1.00  0.00     0.000 C 
BRANCH   4   5
ATOM      5  C   UNL     1      12.574 -16.859  -2.996  1.00  0.00     0.000 C 
BRANCH   5   6
ATOM      6  C   UNL     1      13.307 -17.200  -4.306  1.00  0.00     0.000 C 
BRANCH   6   7
ATOM      7  C   UNL     1      13.953 -18.600  -4.346  1.00  0.00     0.006 C 
BRANCH   7   8
ATOM      8  C   UNL     1      15.048 -18.828  -3.292  1.00  0.00     0.053 C 
BRANCH   8   9
ATOM      9  C   UNL     1      14.494 -19.379  -2.015  1.00  0.00     0.041 C 
ATOM     10  O   UNL     1      13.440 -20.069  -2.027  1.00  0.00    -0.550 OA
ATOM     11  O   UNL     1      15.121 -19.102  -0.807  1.00  0.00    -0.550 OA
ENDBRANCH   8   9
ENDBRANCH   7   8
ENDBRANCH   6   7
ENDBRANCH   5   6
ENDBRANCH   4   5
ENDBRANCH   3   4
ENDBRANCH   2   3
ENDBRANCH   1   2
BRANCH   1  12
ATOM     12  C   UNL     1      14.793 -14.809   0.307  1.00  0.00     0.000 C 
BRANCH  12  13
ATOM     13  C   UNL     1      14.622 -13.589   1.226  1.00  0.00    -0.000 C 
BRANCH  13  14
ATOM     14  C   UNL     1      14.143 -12.341   0.468  1.00  0.00    -0.000 C 
BRANCH  14  15
ATOM     15  C   UNL     1      15.006 -12.088  -0.774  1.00  0.00    -0.000 C 
BRANCH  15  16
ATOM     16  C   UNL     1      14.130 -11.875  -2.018  1.00  0.00    -0.000 C 
BRANCH  16  17
ATOM     17  C   UNL     1      14.857 -12.236  -3.323  1.00  0.00    -0.000 C 
BRANCH  17  18
ATOM     18  C   UNL     1      13.921 -12.861  -4.369  1.00  0.00    -0.000 C 
BRANCH  18  19
ATOM     19  C   UNL     1      14.535 -12.780  -5.772  1.00  0.00    -0.003 C 
ATOM     20  C   UNL     1      14.130 -13.981  -6.621  1.00  0.00     0.004 C 
ENDBRANCH  18  19
ENDBRANCH  17  18
ENDBRANCH  16  17
ENDBRANCH  15  16
ENDBRANCH  14  15
ENDBRANCH  13  14
ENDBRANCH  12  13
ENDBRANCH   1  12
TORSDOF 16
ENDMDL
MODEL 3
REMARK VINA RESULT:    -1.224      2.053      7.282
REMARK INTER + INTRA:          -3.399
REMARK INTER:                  -2.259
REMARK INTRA:                  -1.140
REMARK UNBOUND:                -1.030
REMARK SMILES CCCCCCCCCCCCCCCCCC(=O)[O-]
REMARK SMILES IDX 10 1 11 2 12 3 13 4 14 5 15 6 16 7 17 8 18 9 19 10 20 11
REMARK SMILES IDX 9 12 8 13 7 14 6 15 5 16 4 17 3 18 2 19 1 20
REMARK H PARENT
REMARK Flexibility Score: inf
ROOT
ATOM      1  C   UNL     1      14.918 -18.016  -0.707  1.00  0.00     0.000 C 
ENDROOT
BRANCH   1   2
ATOM      2  C   UNL     1      15.108 -18.312   0.789  1.00  0.00     0.000 C 
BRANCH   2   3
ATOM      3  C   UNL     1      15.125 -17.034   1.646  1.00  0.00     0.000 C 
BRANCH   3   4
ATOM      4  C   UNL     1      14.364 -15.874   0.986  1.00  0.00     0.000 C 
BRANCH   4   5
ATOM      5  C   UNL     1      14.685 -14.515   1.632  1.00  0.00     0.000 C 
BRANCH   5   6
ATOM      6  C   UNL     1      14.800 -13.377   0.601  1.00  0.00     0.000 C 
BRANCH   6   7
ATOM      7  C   UNL     1      13.460 -12.914  -0.010  1.00  0.00     0.006 C 
BRANCH   7   8
ATOM      8  C   UNL     1      13.278 -13.274  -1.493  1.00  0.00     0.053 C 
BRANCH   8   9
ATOM      9  C   UNL     1      12.046 -14.094  -1.724  1.00  0.00     0.041 C 
ATOM     10  O   UNL     1      11.216 -13.755  -2.608  1.00  0.00    -0.550 OA
ATOM     11  O   UNL     1      11.797 -15.213  -0.940  1.00  0.00    -0.550 OA
ENDBRANCH   8   9
ENDBRANCH   7   8
ENDBRANCH   6   7
ENDBRANCH   5   6
ENDBRANCH   4   5
ENDBRANCH   3   4
ENDBRANCH   2   3
ENDBRANCH   1   2
BRANCH   1  12
ATOM     12  C   UNL     1      15.035 -19.279  -1.577  1.00  0.00     0.000 C 
BRANCH  12  13
ATOM     13  C   UNL     1      14.520 -19.060  -3.008  1.00  0.00    -0.000 C 
BRANCH  13  14
ATOM     14  C   UNL     1      13.287 -18.145  -3.059  1.00  0.00    -0.000 C 
BRANCH  14  15
ATOM     15  C   UNL     1      13.103 -17.548  -4.460  1.00  0.00    -0.000 C 
BRANCH  15  16
ATOM     16  C   UNL     1      14.320 -16.701  -4.862  1.00  0.00    -0.000 C 
BRANCH  16  17
ATOM     17  C   UNL     1      14.032 -15.192  -4.817  1.00  0.00    -0.000 C 
BRANCH  17  18
ATOM     18  C   UNL     1      14.408 -14.478  -6.124  1.00  0.00    -0.000 C 
BRANCH  18  19
ATOM     19  C   UNL     1      14.385 -12.955  -5.942  1.00  0.00    -0.003 C 
ATOM     20  C   UNL     1      13.753 -12.569  -4.609  1.00  0.00     0.004 C 
ENDBRANCH  18  19
ENDBRANCH  17  18
ENDBRANCH  16  17
ENDBRANCH  15  16
ENDBRANCH  14  15
ENDBRANCH  13  14
ENDBRANCH  12  13
ENDBRANCH   1  12
TORSDOF 16
ENDMDL
MODEL 4
REMARK VINA RESULT:    -1.224      3.220      7.906
REMARK INTER + INTRA:          -3.398
REMARK INTER:                  -2.325
REMARK INTRA:                  -1.072
REMARK UNBOUND:                -1.030
REMARK SMILES CCCCCCCCCCCCCCCCCC(=O)[O-]
REMARK SMILES IDX 10 1 11 2 12 3 13 4 14 5 15 6 16 7 17 8 18 9 19 10 20 11
REMARK SMILES IDX 9 12 8 13 7 14 6 15 5 16 4 17 3 18 2 19 1 20
REMARK H PARENT
REMARK Flexibility Score: inf
ROOT
ATOM      1  C   UNL     1      12.024 -14.463  -0.830  1.00  0.00     0.000 C 
ENDROOT
BRANCH   1   2
ATOM      2  C   UNL     1      12.274 -15.808  -1.532  1.00  0.00     0.000 C 
BRANCH   2   3
ATOM      3  C   UNL     1      13.333 -16.661  -0.812  1.00  0.00     0.000 C 
BRANCH   3   4
ATOM      4  C   UNL     1      14.040 -15.894   0.315  1.00  0.00     0.000 C 
BRANCH   4   5
ATOM      5  C   UNL     1      14.934 -16.802   1.177  1.00  0.00     0.000 C 
BRANCH   5   6
ATOM      6  C   UNL     1      15.050 -16.316   2.633  1.00  0.00     0.000 C 
BRANCH   6   7
ATOM      7  C   UNL     1      14.151 -17.060   3.642  1.00  0.00     0.006 C 
BRANCH   7   8
ATOM      8  C   UNL     1      14.873 -17.531   4.913  1.00  0.00     0.053 C 
BRANCH   8   9
ATOM      9  C   UNL     1      14.411 -16.789   6.129  1.00  0.00     0.041 C 
ATOM     10  O   UNL     1      13.924 -17.415   7.108  1.00  0.00    -0.550 OA
ATOM     11  O   UNL     1      14.486 -15.402   6.168  1.00  0.00    -0.550 OA
ENDBRANCH   8   9
ENDBRANCH   7   8
ENDBRANCH   6   7
ENDBRANCH   5   6
ENDBRANCH   4   5
ENDBRANCH   3   4
ENDBRANCH   2   3
ENDBRANCH   1   2
BRANCH   1  12
ATOM     12  C   UNL     1      12.948 -13.348  -1.347  1.00  0.00     0.000 C 
BRANCH  12  13
ATOM     13  C   UNL     1      12.518 -12.814  -2.722  1.00  0.00    -0.000 C 
BRANCH  13  14
ATOM     14  C   UNL     1      13.564 -11.878  -3.346  1.00  0.00    -0.000 C 
BRANCH  14  15
ATOM     15  C   UNL     1      13.457 -11.875  -4.876  1.00  0.00    -0.000 C 
BRANCH  15  16
ATOM     16  C   UNL     1      14.577 -12.717  -5.507  1.00  0.00    -0.000 C 
BRANCH  16  17
ATOM     17  C   UNL     1      14.040 -13.924  -6.292  1.00  0.00    -0.000 C 
BRANCH  17  18
ATOM     18  C   UNL     1      14.709 -15.244  -5.879  1.00  0.00    -0.000 C 
BRANCH  18  19
ATOM     19  C   UNL     1      14.164 -15.735  -4.532  1.00  0.00    -0.003 C 
ATOM     20  C   UNL     1      13.544 -17.123  -4.661  1.00  0.00     0.004 C 
ENDBRANCH  18  19
ENDBRANCH  17  18
ENDBRANCH  16  17
ENDBRANCH  15  16
ENDBRANCH  14  15
ENDBRANCH  13  14
ENDBRANCH  12  13
ENDBRANCH   1  12
TORSDOF 16
ENDMDL
MODEL 5
REMARK VINA RESULT:    -0.931      2.896      6.933
REMARK INTER + INTRA:          -2.830
REMARK INTER:                  -1.831
REMARK INTRA:                  -0.999
REMARK UNBOUND:                -1.030
REMARK SMILES CCCCCCCCCCCCCCCCCC(=O)[O-]
REMARK SMILES IDX 10 1 11 2 12 3 13 4 14 5 15 6 16 7 17 8 18 9 19 10 20 11
REMARK SMILES IDX 9 12 8 13 7 14 6 15 5 16 4 17 3 18 2 19 1 20
REMARK H PARENT
REMARK Flexibility Score: inf
ROOT
ATOM      1  C   UNL     1      11.966 -14.689  -2.401  1.00  0.00     0.000 C 
ENDROOT
BRANCH   1   2
ATOM      2  C   UNL     1      12.285 -14.822  -0.903  1.00  0.00     0.000 C 
BRANCH   2   3
ATOM      3  C   UNL     1      12.982 -13.573  -0.335  1.00  0.00     0.000 C 
BRANCH   3   4
ATOM      4  C   UNL     1      14.479 -13.801  -0.079  1.00  0.00     0.000 C 
BRANCH   4   5
ATOM      5  C   UNL     1      14.749 -14.483   1.274  1.00  0.00     0.000 C 
BRANCH   5   6
ATOM      6  C   UNL     1      14.326 -15.963   1.290  1.00  0.00     0.000 C 
BRANCH   6   7
ATOM      7  C   UNL     1      14.877 -16.785   2.474  1.00  0.00     0.006 C 
BRANCH   7   8
ATOM      8  C   UNL     1      15.125 -15.972   3.754  1.00  0.00     0.053 C 
BRANCH   8   9
ATOM      9  C   UNL     1      14.745 -16.735   4.986  1.00  0.00     0.041 C 
ATOM     10  O   UNL     1      14.109 -16.166   5.912  1.00  0.00    -0.550 OA
ATOM     11  O   UNL     1      15.125 -18.064   5.127  1.00  0.00    -0.550 OA
ENDBRANCH   8   9
ENDBRANCH   7   8
ENDBRANCH   6   7
ENDBRANCH   5   6
ENDBRANCH   4   5
ENDBRANCH   3   4
ENDBRANCH   2   3
ENDBRANCH   1   2
BRANCH   1  12
ATOM     12  C   UNL     1      11.721 -13.231  -2.824  1.00  0.00     0.000 C 
BRANCH  12  13
ATOM     13  C   UNL     1      12.899 -12.638  -3.613  1.00  0.00    -0.000 C 
BRANCH  13  14
ATOM     14  C   UNL     1      14.010 -13.666  -3.876  1.00  0.00    -0.000 C 
BRANCH  14  15
ATOM     15  C   UNL     1      14.084 -14.026  -5.365  1.00  0.00    -0.000 C 
BRANCH  15  16
ATOM     16  C   UNL     1      14.406 -15.517  -5.555  1.00  0.00    -0.000 C 
BRANCH  16  17
ATOM     17  C   UNL     1      14.001 -16.369  -4.343  1.00  0.00    -0.000 C 
BRANCH  17  18
ATOM     18  C   UNL     1      13.132 -17.575  -4.731  1.00  0.00    -0.000 C 
BRANCH  18  19
ATOM     19  C   UNL     1      13.257 -18.698  -3.693  1.00  0.00    -0.003 C 
ATOM     20  C   UNL     1      14.541 -18.557  -2.882  1.00  0.00     0.004 C 
ENDBRANCH  18  19
ENDBRANCH  17  18
ENDBRANCH  16  17
ENDBRANCH  15  16
ENDBRANCH  14  15
ENDBRANCH  13  14
ENDBRANCH  12  13
ENDBRANCH   1  12
TORSDOF 16
ENDMDL
MODEL 6
REMARK VINA RESULT:    -0.822      2.893      7.522
REMARK INTER + INTRA:          -2.621
REMARK INTER:                  -1.222
REMARK INTRA:                  -1.399
REMARK UNBOUND:                -1.030
REMARK SMILES CCCCCCCCCCCCCCCCCC(=O)[O-]
REMARK SMILES IDX 10 1 11 2 12 3 13 4 14 5 15 6 16 7 17 8 18 9 19 10 20 11
REMARK SMILES IDX 9 12 8 13 7 14 6 15 5 16 4 17 3 18 2 19 1 20
REMARK H PARENT
REMARK Flexibility Score: inf
ROOT
ATOM      1  C   UNL     1      13.957 -18.327  -2.952  1.00  0.00     0.000 C 
ENDROOT
BRANCH   1   2
ATOM      2  C   UNL     1      13.623 -17.874  -1.521  1.00  0.00     0.000 C 
BRANCH   2   3
ATOM      3  C   UNL     1      12.822 -16.561  -1.489  1.00  0.00     0.000 C 
BRANCH   3   4
ATOM      4  C   UNL     1      12.897 -15.860  -0.124  1.00  0.00     0.000 C 
BRANCH   4   5
ATOM      5  C   UNL     1      14.336 -15.764   0.411  1.00  0.00     0.000 C 
BRANCH   5   6
ATOM      6  C   UNL     1      14.643 -16.816   1.493  1.00  0.00     0.000 C 
BRANCH   6   7
ATOM      7  C   UNL     1      15.105 -16.242   2.848  1.00  0.00     0.006 C 
BRANCH   7   8
ATOM      8  C   UNL     1      15.103 -17.254   4.004  1.00  0.00     0.053 C 
BRANCH   8   9
ATOM      9  C   UNL     1      14.343 -16.750   5.191  1.00  0.00     0.041 C 
ATOM     10  O   UNL     1      14.838 -15.856   5.928  1.00  0.00    -0.550 OA
ATOM     11  O   UNL     1      13.102 -17.290   5.505  1.00  0.00    -0.550 OA
ENDBRANCH   8   9
ENDBRANCH   7   8
ENDBRANCH   6   7
ENDBRANCH   5   6
ENDBRANCH   4   5
ENDBRANCH   3   4
ENDBRANCH   2   3
ENDBRANCH   1   2
BRANCH   1  12
ATOM     12  C   UNL     1      12.969 -17.769  -3.991  1.00  0.00     0.000 C 
BRANCH  12  13
ATOM     13  C   UNL     1      13.677 -17.058  -5.156  1.00  0.00    -0.000 C 
BRANCH  13  14
ATOM     14  C   UNL     1      14.364 -15.754  -4.723  1.00  0.00    -0.000 C 
BRANCH  14  15
ATOM     15  C   UNL     1      13.636 -14.532  -5.297  1.00  0.00    -0.000 C 
BRANCH  15  16
ATOM     16  C   UNL     1      14.557 -13.302  -5.315  1.00  0.00    -0.000 C 
BRANCH  16  17
ATOM     17  C   UNL     1      14.120 -12.221  -4.315  1.00  0.00    -0.000 C 
BRANCH  17  18
ATOM     18  C   UNL     1      14.706 -12.441  -2.912  1.00  0.00    -0.000 C 
BRANCH  18  19
ATOM     19  C   UNL     1      13.622 -12.296  -1.837  1.00  0.00    -0.003 C 
ATOM     20  C   UNL     1      12.324 -12.973  -2.267  1.00  0.00     0.004 C 
ENDBRANCH  18  19
ENDBRANCH  17  18
ENDBRANCH  16  17
ENDBRANCH  15  16
ENDBRANCH  14  15
ENDBRANCH  13  14
ENDBRANCH  12  13
ENDBRANCH   1  12
TORSDOF 16
ENDMDL
MODEL 7
REMARK VINA RESULT:    -0.764      3.286      7.395
REMARK INTER + INTRA:          -2.508
REMARK INTER:                  -1.578
REMARK INTRA:                  -0.929
REMARK UNBOUND:                -1.030
REMARK SMILES CCCCCCCCCCCCCCCCCC(=O)[O-]
REMARK SMILES IDX 10 1 11 2 12 3 13 4 14 5 15 6 16 7 17 8 18 9 19 10 20 11
REMARK SMILES IDX 9 12 8 13 7 14 6 15 5 16 4 17 3 18 2 19 1 20
REMARK H PARENT
REMARK Flexibility Score: inf
ROOT
ATOM      1  C   UNL     1      13.263 -18.032  -2.740  1.00  0.00     0.000 C 
ENDROOT
BRANCH   1   2
ATOM      2  C   UNL     1      14.449 -18.967  -2.450  1.00  0.00     0.000 C 
BRANCH   2   3
ATOM      3  C   UNL     1      14.984 -18.812  -1.015  1.00  0.00     0.000 C 
BRANCH   3   4
ATOM      4  C   UNL     1      14.342 -17.631  -0.273  1.00  0.00     0.000 C 
BRANCH   4   5
ATOM      5  C   UNL     1      15.121 -17.238   0.995  1.00  0.00     0.000 C 
BRANCH   5   6
ATOM      6  C   UNL     1      14.199 -16.834   2.160  1.00  0.00     0.000 C 
BRANCH   6   7
ATOM      7  C   UNL     1      14.878 -16.798   3.545  1.00  0.00     0.006 C 
BRANCH   7   8
ATOM      8  C   UNL     1      14.045 -17.415   4.679  1.00  0.00     0.053 C 
BRANCH   8   9
ATOM      9  C   UNL     1      14.072 -16.574   5.918  1.00  0.00     0.041 C 
ATOM     10  O   UNL     1      13.772 -17.077   7.033  1.00  0.00    -0.550 OA
ATOM     11  O   UNL     1      14.394 -15.225   5.836  1.00  0.00    -0.550 OA
ENDBRANCH   8   9
ENDBRANCH   7   8
ENDBRANCH   6   7
ENDBRANCH   5   6
ENDBRANCH   4   5
ENDBRANCH   3   4
ENDBRANCH   2   3
ENDBRANCH   1   2
BRANCH   1  12
ATOM     12  C   UNL     1      13.122 -17.708  -4.237  1.00  0.00     0.000 C 
BRANCH  12  13
ATOM     13  C   UNL     1      13.900 -16.447  -4.644  1.00  0.00    -0.000 C 
BRANCH  13  14
ATOM     14  C   UNL     1      13.861 -15.355  -3.564  1.00  0.00    -0.000 C 
BRANCH  14  15
ATOM     15  C   UNL     1      12.451 -15.210  -2.979  1.00  0.00    -0.000 C 
BRANCH  15  16
ATOM     16  C   UNL     1      12.045 -13.731  -2.880  1.00  0.00    -0.000 C 
BRANCH  16  17
ATOM     17  C   UNL     1      12.781 -12.990  -1.754  1.00  0.00    -0.000 C 
BRANCH  17  18
ATOM     18  C   UNL     1      13.133 -13.906  -0.572  1.00  0.00    -0.000 C 
BRANCH  18  19
ATOM     19  C   UNL     1      14.311 -13.340   0.229  1.00  0.00    -0.003 C 
ATOM     20  C   UNL     1      14.623 -11.906  -0.188  1.00  0.00     0.004 C 
ENDBRANCH  18  19
ENDBRANCH  17  18
ENDBRANCH  16  17
ENDBRANCH  15  16
ENDBRANCH  14  15
ENDBRANCH  13  14
ENDBRANCH  12  13
ENDBRANCH   1  12
TORSDOF 16
ENDMDL
MODEL 8
REMARK VINA RESULT:     0.099      2.837      5.830
REMARK INTER + INTRA:          -0.839
REMARK INTER:                   0.428
REMARK INTRA:                  -1.267
REMARK UNBOUND:                -1.030
REMARK SMILES CCCCCCCCCCCCCCCCCC(=O)[O-]
REMARK SMILES IDX 10 1 11 2 12 3 13 4 14 5 15 6 16 7 17 8 18 9 19 10 20 11
REMARK SMILES IDX 9 12 8 13 7 14 6 15 5 16 4 17 3 18 2 19 1 20
REMARK H PARENT
REMARK Flexibility Score: inf
ROOT
ATOM      1  C   UNL     1      13.818 -15.596   1.254  1.00  0.00     0.000 C 
ENDROOT
BRANCH   1   2
ATOM      2  C   UNL     1      14.392 -14.295   1.839  1.00  0.00     0.000 C 
BRANCH   2   3
ATOM      3  C   UNL     1      13.941 -13.048   1.060  1.00  0.00     0.000 C 
BRANCH   3   4
ATOM      4  C   UNL     1      15.123 -12.184   0.597  1.00  0.00     0.000 C 
BRANCH   4   5
ATOM      5  C   UNL     1      15.074 -11.875  -0.909  1.00  0.00     0.000 C 
BRANCH   5   6
ATOM      6  C   UNL     1      14.352 -12.967  -1.719  1.00  0.00     0.000 C 
BRANCH   6   7
ATOM      7  C   UNL     1      13.788 -12.504  -3.079  1.00  0.00     0.006 C 
BRANCH   7   8
ATOM      8  C   UNL     1      14.853 -12.213  -4.146  1.00  0.00     0.053 C 
BRANCH   8   9
ATOM      9  C   UNL     1      14.308 -12.346  -5.535  1.00  0.00     0.041 C 
ATOM     10  O   UNL     1      13.120 -12.012  -5.784  1.00  0.00    -0.550 OA
ATOM     11  O   UNL     1      15.102 -12.870  -6.547  1.00  0.00    -0.550 OA
ENDBRANCH   8   9
ENDBRANCH   7   8
ENDBRANCH   6   7
ENDBRANCH   5   6
ENDBRANCH   4   5
ENDBRANCH   3   4
ENDBRANCH   2   3
ENDBRANCH   1   2
BRANCH   1  12
ATOM     12  C   UNL     1      14.856 -16.730   1.209  1.00  0.00     0.000 C 
BRANCH  12  13
ATOM     13  C   UNL     1      14.948 -17.392  -0.175  1.00  0.00    -0.000 C 
BRANCH  13  14
ATOM     14  C   UNL     1      15.109 -18.917  -0.090  1.00  0.00    -0.000 C 
BRANCH  14  15
ATOM     15  C   UNL     1      14.970 -19.562  -1.475  1.00  0.00    -0.000 C 
BRANCH  15  16
ATOM     16  C   UNL     1      13.585 -19.278  -2.078  1.00  0.00    -0.000 C 
BRANCH  16  17
ATOM     17  C   UNL     1      13.663 -18.791  -3.533  1.00  0.00    -0.000 C 
BRANCH  17  18
ATOM     18  C   UNL     1      13.600 -17.260  -3.649  1.00  0.00    -0.000 C 
BRANCH  18  19
ATOM     19  C   UNL     1      12.730 -16.662  -2.537  1.00  0.00    -0.003 C 
ATOM     20  C   UNL     1      12.118 -15.333  -2.970  1.00  0.00     0.004 C 
ENDBRANCH  18  19
ENDBRANCH  17  18
ENDBRANCH  16  17
ENDBRANCH  15  16
ENDBRANCH  14  15
ENDBRANCH  13  14
ENDBRANCH  12  13
ENDBRANCH   1  12
TORSDOF 16
ENDMDL
