MODEL 1
REMARK VINA RESULT:     8.462      0.000      0.000
REMARK INTER + INTRA:          10.581
REMARK INTER:                  10.440
REMARK INTRA:                   0.141
REMARK UNBOUND:                 0.141
REMARK SMILES Oc1cc(O)c2cc(O)c(-c3cc(O)c(O)c(O)c3)[o+]c2c1
REMARK SMILES IDX 10 1 20 2 21 3 22 4 2 5 3 6 4 7 6 8 7 9 8 10 11 11 12 12
REMARK SMILES IDX 13 13 19 14 15 15 17 16 14 17 16 19 18 21 9 23 1 25 5 27
REMARK H PARENT 14 18 16 20 18 22 9 24 1 26 5 28
REMARK Flexibility Score: inf
ROOT
ATOM      1  C   UNL     1      15.651  22.756 -10.029  1.00  0.00     0.402 A 
ATOM      2  O   UNL     1      14.534  23.453 -10.221  1.00  0.00    -0.202 OA
ATOM      3  C   UNL     1      13.885  24.074  -9.241  1.00  0.00     0.368 A 
ATOM      4  C   UNL     1      12.717  24.780  -9.541  1.00  0.00     0.162 A 
ATOM      5  C   UNL     1      12.012  25.440  -8.529  1.00  0.00     0.128 A 
ATOM      6  C   UNL     1      12.477  25.391  -7.213  1.00  0.00     0.093 A 
ATOM      7  C   UNL     1      13.644  24.689  -6.887  1.00  0.00     0.136 A 
ATOM      8  C   UNL     1      14.364  24.020  -7.910  1.00  0.00     0.125 A 
ATOM      9  C   UNL     1      15.550  23.305  -7.678  1.00  0.00     0.078 A 
ATOM     10  C   UNL     1      16.207  22.675  -8.739  1.00  0.00     0.223 A 
ENDROOT
BRANCH   1  11
ATOM     11  C   UNL     1      16.277  22.100 -11.200  1.00  0.00     0.091 A 
ATOM     12  C   UNL     1      16.906  20.857 -11.041  1.00  0.00     0.068 A 
ATOM     13  C   UNL     1      17.525  20.218 -12.121  1.00  0.00     0.162 A 
ATOM     14  C   UNL     1      16.305  22.723 -12.458  1.00  0.00     0.068 A 
ATOM     15  C   UNL     1      17.529  20.841 -13.391  1.00  0.00     0.200 A 
ATOM     16  C   UNL     1      16.921  22.095 -13.548  1.00  0.00     0.162 A 
BRANCH  13  17
ATOM     17  O   UNL     1      18.121  18.976 -11.887  1.00  0.00    -0.504 OA
ATOM     18  H   UNL     1      18.968  18.661 -12.338  1.00  0.00     0.293 HD
ENDBRANCH  13  17
BRANCH  15  19
ATOM     19  O   UNL     1      18.124  20.256 -14.512  1.00  0.00    -0.502 OA
ATOM     20  H   UNL     1      17.638  19.658 -15.164  1.00  0.00     0.293 HD
ENDBRANCH  15  19
BRANCH  16  21
ATOM     21  O   UNL     1      16.938  22.716 -14.795  1.00  0.00    -0.504 OA
ATOM     22  H   UNL     1      17.248  23.675 -14.907  1.00  0.00     0.293 HD
ENDBRANCH  16  21
ENDBRANCH   1  11
BRANCH  10  23
ATOM     23  O   UNL     1      17.412  22.006  -8.518  1.00  0.00    -0.500 OA
ATOM     24  H   UNL     1      18.200  22.461  -8.073  1.00  0.00     0.294 HD
ENDBRANCH  10  23
BRANCH   5  25
ATOM     25  O   UNL     1      10.847  26.147  -8.822  1.00  0.00    -0.507 OA
ATOM     26  H   UNL     1       9.931  25.728  -8.711  1.00  0.00     0.293 HD
ENDBRANCH   5  25
BRANCH   7  27
ATOM     27  O   UNL     1      14.039  24.687  -5.546  1.00  0.00    -0.507 OA
ATOM     28  H   UNL     1      14.755  24.086  -5.164  1.00  0.00     0.293 HD
ENDBRANCH   7  27
TORSDOF 7
ENDMDL
