MODEL 1
REMARK VINA RESULT:    -4.607      0.000      0.000
REMARK INTER + INTRA:          -5.422
REMARK INTER:                  -5.280
REMARK INTRA:                  -0.142
REMARK UNBOUND:                -0.142
REMARK SMILES O=C([O-])C=Cc1ccc(O)cc1
REMARK SMILES IDX 6 1 7 2 12 3 8 4 11 5 9 6 5 7 4 8 2 9 1 10 3 11 10 12
REMARK H PARENT 10 13
REMARK Flexibility Score: inf
ROOT
ATOM      1  C   UNL     1       3.717  -8.642   4.740  1.00  0.00    -0.025 A 
ATOM      2  C   UNL     1       5.063  -8.242   4.675  1.00  0.00     0.012 A 
ATOM      3  C   UNL     1       3.014  -8.468   5.950  1.00  0.00     0.012 A 
ATOM      4  C   UNL     1       5.701  -7.706   5.796  1.00  0.00     0.047 A 
ATOM      5  C   UNL     1       3.657  -7.931   7.070  1.00  0.00     0.047 A 
ATOM      6  C   UNL     1       5.000  -7.552   6.999  1.00  0.00     0.115 A 
ENDROOT
BRANCH   1   7
ATOM      7  C   UNL     1       3.081  -9.196   3.519  1.00  0.00     0.010 C 
ATOM      8  C   UNL     1       1.754  -9.275   3.340  1.00  0.00     0.025 C 
BRANCH   8   9
ATOM      9  C   UNL     1       1.159  -9.842   2.118  1.00  0.00     0.064 C 
ATOM     10  O   UNL     1       1.863 -10.458   1.275  1.00  0.00    -0.545 OA
ATOM     11  O   UNL     1      -0.203  -9.694   1.891  1.00  0.00    -0.545 OA
ENDBRANCH   8   9
ENDBRANCH   1   7
BRANCH   6  12
ATOM     12  O   UNL     1       5.625  -7.019   8.123  1.00  0.00    -0.508 OA
ATOM     13  H   UNL     1       6.226  -6.205   8.059  1.00  0.00     0.293 HD
ENDBRANCH   6  12
TORSDOF 3
ENDMDL
MODEL 2
REMARK VINA RESULT:    -4.411      1.732      2.520
REMARK INTER + INTRA:          -5.198
REMARK INTER:                  -5.052
REMARK INTRA:                  -0.147
REMARK UNBOUND:                -0.142
REMARK SMILES O=C([O-])C=Cc1ccc(O)cc1
REMARK SMILES IDX 6 1 7 2 12 3 8 4 11 5 9 6 5 7 4 8 2 9 1 10 3 11 10 12
REMARK H PARENT 10 13
REMARK Flexibility Score: inf
ROOT
ATOM      1  C   UNL     1       4.696  -7.612   6.367  1.00  0.00    -0.025 A 
ATOM      2  C   UNL     1       5.899  -8.334   6.304  1.00  0.00     0.012 A 
ATOM      3  C   UNL     1       4.692  -6.350   6.996  1.00  0.00     0.012 A 
ATOM      4  C   UNL     1       7.067  -7.823   6.877  1.00  0.00     0.047 A 
ATOM      5  C   UNL     1       5.863  -5.842   7.568  1.00  0.00     0.047 A 
ATOM      6  C   UNL     1       7.051  -6.576   7.514  1.00  0.00     0.115 A 
ENDROOT
BRANCH   1   7
ATOM      7  C   UNL     1       3.485  -8.192   5.734  1.00  0.00     0.010 C 
ATOM      8  C   UNL     1       3.483  -8.783   4.530  1.00  0.00     0.025 C 
BRANCH   8   9
ATOM      9  C   UNL     1       2.259  -9.338   3.929  1.00  0.00     0.064 C 
ATOM     10  O   UNL     1       1.244  -9.590   4.632  1.00  0.00    -0.545 OA
ATOM     11  O   UNL     1       2.223  -9.591   2.564  1.00  0.00    -0.545 OA
ENDBRANCH   8   9
ENDBRANCH   1   7
BRANCH   6  12
ATOM     12  O   UNL     1       8.208  -6.056   8.088  1.00  0.00    -0.508 OA
ATOM     13  H   UNL     1       9.074  -6.584   8.108  1.00  0.00     0.293 HD
ENDBRANCH   6  12
TORSDOF 3
ENDMDL
MODEL 3
REMARK VINA RESULT:    -4.095     14.068     15.605
REMARK INTER + INTRA:          -4.836
REMARK INTER:                  -4.693
REMARK INTRA:                  -0.142
REMARK UNBOUND:                -0.142
REMARK SMILES O=C([O-])C=Cc1ccc(O)cc1
REMARK SMILES IDX 6 1 7 2 12 3 8 4 11 5 9 6 5 7 4 8 2 9 1 10 3 11 10 12
REMARK H PARENT 10 13
REMARK Flexibility Score: inf
ROOT
ATOM      1  C   UNL     1      13.631   1.695   0.802  1.00  0.00    -0.025 A 
ATOM      2  C   UNL     1      13.975   1.785   2.162  1.00  0.00     0.012 A 
ATOM      3  C   UNL     1      13.643   0.430   0.181  1.00  0.00     0.012 A 
ATOM      4  C   UNL     1      14.345   0.646   2.880  1.00  0.00     0.047 A 
ATOM      5  C   UNL     1      14.014  -0.710   0.903  1.00  0.00     0.047 A 
ATOM      6  C   UNL     1      14.369  -0.605   2.251  1.00  0.00     0.115 A 
ENDROOT
BRANCH   1   7
ATOM      7  C   UNL     1      13.234   2.933   0.085  1.00  0.00     0.010 C 
ATOM      8  C   UNL     1      12.306   3.790   0.535  1.00  0.00     0.025 C 
BRANCH   8   9
ATOM      9  C   UNL     1      11.930   5.003  -0.209  1.00  0.00     0.064 C 
ATOM     10  O   UNL     1      10.732   5.229  -0.525  1.00  0.00    -0.545 OA
ATOM     11  O   UNL     1      12.914   5.914  -0.571  1.00  0.00    -0.545 OA
ENDBRANCH   8   9
ENDBRANCH   1   7
BRANCH   6  12
ATOM     12  O   UNL     1      14.737  -1.749   2.955  1.00  0.00    -0.508 OA
ATOM     13  H   UNL     1      14.048  -2.325   3.426  1.00  0.00     0.293 HD
ENDBRANCH   6  12
TORSDOF 3
ENDMDL
MODEL 4
REMARK VINA RESULT:    -4.014      8.452      9.969
REMARK INTER + INTRA:          -4.743
REMARK INTER:                  -4.593
REMARK INTRA:                  -0.150
REMARK UNBOUND:                -0.142
REMARK SMILES O=C([O-])C=Cc1ccc(O)cc1
REMARK SMILES IDX 6 1 7 2 12 3 8 4 11 5 9 6 5 7 4 8 2 9 1 10 3 11 10 12
REMARK H PARENT 10 13
REMARK Flexibility Score: inf
ROOT
ATOM      1  C   UNL     1      -2.060 -12.601  -2.154  1.00  0.00    -0.025 A 
ATOM      2  C   UNL     1      -1.538 -11.690  -1.220  1.00  0.00     0.012 A 
ATOM      3  C   UNL     1      -3.263 -13.270  -1.851  1.00  0.00     0.012 A 
ATOM      4  C   UNL     1      -2.185 -11.469  -0.002  1.00  0.00     0.047 A 
ATOM      5  C   UNL     1      -3.909 -13.046  -0.630  1.00  0.00     0.047 A 
ATOM      6  C   UNL     1      -3.372 -12.150   0.298  1.00  0.00     0.115 A 
ENDROOT
BRANCH   1   7
ATOM      7  C   UNL     1      -1.341 -12.793  -3.439  1.00  0.00     0.010 C 
ATOM      8  C   UNL     1      -0.479 -11.903  -3.950  1.00  0.00     0.025 C 
BRANCH   8   9
ATOM      9  C   UNL     1       0.208 -12.123  -5.234  1.00  0.00     0.064 C 
ATOM     10  O   UNL     1      -0.441 -12.316  -6.296  1.00  0.00    -0.545 OA
ATOM     11  O   UNL     1       1.596 -12.119  -5.274  1.00  0.00    -0.545 OA
ENDBRANCH   8   9
ENDBRANCH   1   7
BRANCH   6  12
ATOM     12  O   UNL     1      -4.027 -11.938   1.508  1.00  0.00    -0.508 OA
ATOM     13  H   UNL     1      -3.720 -12.391   2.363  1.00  0.00     0.293 HD
ENDBRANCH   6  12
TORSDOF 3
ENDMDL
MODEL 5
REMARK VINA RESULT:    -3.992      9.932     11.539
REMARK INTER + INTRA:          -4.717
REMARK INTER:                  -4.581
REMARK INTRA:                  -0.137
REMARK UNBOUND:                -0.142
REMARK SMILES O=C([O-])C=Cc1ccc(O)cc1
REMARK SMILES IDX 6 1 7 2 12 3 8 4 11 5 9 6 5 7 4 8 2 9 1 10 3 11 10 12
REMARK H PARENT 10 13
REMARK Flexibility Score: inf
ROOT
ATOM      1  C   UNL     1       7.702   1.770   4.023  1.00  0.00    -0.025 A 
ATOM      2  C   UNL     1       7.124   2.989   4.418  1.00  0.00     0.012 A 
ATOM      3  C   UNL     1       9.055   1.756   3.631  1.00  0.00     0.012 A 
ATOM      4  C   UNL     1       7.871   4.170   4.399  1.00  0.00     0.047 A 
ATOM      5  C   UNL     1       9.800   2.940   3.613  1.00  0.00     0.047 A 
ATOM      6  C   UNL     1       9.210   4.149   3.992  1.00  0.00     0.115 A 
ENDROOT
BRANCH   1   7
ATOM      7  C   UNL     1       6.870   0.542   4.072  1.00  0.00     0.010 C 
ATOM      8  C   UNL     1       6.862  -0.313   5.105  1.00  0.00     0.025 C 
BRANCH   8   9
ATOM      9  C   UNL     1       6.032  -1.529   5.112  1.00  0.00     0.064 C 
ATOM     10  O   UNL     1       5.019  -1.632   4.371  1.00  0.00    -0.545 OA
ATOM     11  O   UNL     1       6.370  -2.581   5.954  1.00  0.00    -0.545 OA
ENDBRANCH   8   9
ENDBRANCH   1   7
BRANCH   6  12
ATOM     12  O   UNL     1       9.965   5.319   3.968  1.00  0.00    -0.508 OA
ATOM     13  H   UNL     1       9.594   6.182   3.585  1.00  0.00     0.293 HD
ENDBRANCH   6  12
TORSDOF 3
ENDMDL
MODEL 6
REMARK VINA RESULT:    -3.923      3.076      6.828
REMARK INTER + INTRA:          -4.638
REMARK INTER:                  -4.495
REMARK INTRA:                  -0.143
REMARK UNBOUND:                -0.142
REMARK SMILES O=C([O-])C=Cc1ccc(O)cc1
REMARK SMILES IDX 6 1 7 2 12 3 8 4 11 5 9 6 5 7 4 8 2 9 1 10 3 11 10 12
REMARK H PARENT 10 13
REMARK Flexibility Score: inf
ROOT
ATOM      1  C   UNL     1       5.827  -6.892   6.708  1.00  0.00    -0.025 A 
ATOM      2  C   UNL     1       4.709  -6.653   7.526  1.00  0.00     0.012 A 
ATOM      3  C   UNL     1       5.701  -7.791   5.630  1.00  0.00     0.012 A 
ATOM      4  C   UNL     1       3.500  -7.313   7.289  1.00  0.00     0.047 A 
ATOM      5  C   UNL     1       4.489  -8.450   5.396  1.00  0.00     0.047 A 
ATOM      6  C   UNL     1       3.388  -8.217   6.225  1.00  0.00     0.115 A 
ENDROOT
BRANCH   1   7
ATOM      7  C   UNL     1       7.085  -6.158   6.994  1.00  0.00     0.010 C 
ATOM      8  C   UNL     1       7.184  -4.821   6.995  1.00  0.00     0.025 C 
BRANCH   8   9
ATOM      9  C   UNL     1       8.453  -4.127   7.272  1.00  0.00     0.064 C 
ATOM     10  O   UNL     1       9.492  -4.768   7.583  1.00  0.00    -0.545 OA
ATOM     11  O   UNL     1       8.505  -2.742   7.190  1.00  0.00    -0.545 OA
ENDBRANCH   8   9
ENDBRANCH   1   7
BRANCH   6  12
ATOM     12  O   UNL     1       2.189  -8.881   5.979  1.00  0.00    -0.508 OA
ATOM     13  H   UNL     1       1.756  -9.470   6.682  1.00  0.00     0.293 HD
ENDBRANCH   6  12
TORSDOF 3
ENDMDL
MODEL 7
REMARK VINA RESULT:    -3.911      9.440     11.224
REMARK INTER + INTRA:          -4.625
REMARK INTER:                  -4.473
REMARK INTRA:                  -0.152
REMARK UNBOUND:                -0.142
REMARK SMILES O=C([O-])C=Cc1ccc(O)cc1
REMARK SMILES IDX 6 1 7 2 12 3 8 4 11 5 9 6 5 7 4 8 2 9 1 10 3 11 10 12
REMARK H PARENT 10 13
REMARK Flexibility Score: inf
ROOT
ATOM      1  C   UNL     1       8.832   1.011   4.126  1.00  0.00    -0.025 A 
ATOM      2  C   UNL     1       9.927   0.435   4.793  1.00  0.00     0.012 A 
ATOM      3  C   UNL     1       9.065   2.065   3.219  1.00  0.00     0.012 A 
ATOM      4  C   UNL     1      11.222   0.914   4.579  1.00  0.00     0.047 A 
ATOM      5  C   UNL     1      10.363   2.542   3.009  1.00  0.00     0.047 A 
ATOM      6  C   UNL     1      11.443   1.972   3.689  1.00  0.00     0.115 A 
ENDROOT
BRANCH   1   7
ATOM      7  C   UNL     1       7.477   0.460   4.378  1.00  0.00     0.010 C 
ATOM      8  C   UNL     1       7.241  -0.624   5.132  1.00  0.00     0.025 C 
BRANCH   8   9
ATOM      9  C   UNL     1       5.883  -1.149   5.350  1.00  0.00     0.064 C 
ATOM     10  O   UNL     1       5.214  -1.641   4.403  1.00  0.00    -0.545 OA
ATOM     11  O   UNL     1       5.329  -1.099   6.623  1.00  0.00    -0.545 OA
ENDBRANCH   8   9
ENDBRANCH   1   7
BRANCH   6  12
ATOM     12  O   UNL     1      12.729   2.459   3.468  1.00  0.00    -0.508 OA
ATOM     13  H   UNL     1      13.127   2.501   2.536  1.00  0.00     0.293 HD
ENDBRANCH   6  12
TORSDOF 3
ENDMDL
MODEL 8
REMARK VINA RESULT:    -3.821     13.856     16.039
REMARK INTER + INTRA:          -4.522
REMARK INTER:                  -4.379
REMARK INTRA:                  -0.143
REMARK UNBOUND:                -0.142
REMARK SMILES O=C([O-])C=Cc1ccc(O)cc1
REMARK SMILES IDX 6 1 7 2 12 3 8 4 11 5 9 6 5 7 4 8 2 9 1 10 3 11 10 12
REMARK H PARENT 10 13
REMARK Flexibility Score: inf
ROOT
ATOM      1  C   UNL     1      14.293   1.236   1.217  1.00  0.00    -0.025 A 
ATOM      2  C   UNL     1      13.947   0.651  -0.013  1.00  0.00     0.012 A 
ATOM      3  C   UNL     1      14.325   0.425   2.370  1.00  0.00     0.012 A 
ATOM      4  C   UNL     1      13.618  -0.705  -0.090  1.00  0.00     0.047 A 
ATOM      5  C   UNL     1      13.995  -0.932   2.289  1.00  0.00     0.047 A 
ATOM      6  C   UNL     1      13.638  -1.500   1.063  1.00  0.00     0.115 A 
ENDROOT
BRANCH   1   7
ATOM      7  C   UNL     1      14.645   2.678   1.245  1.00  0.00     0.010 C 
ATOM      8  C   UNL     1      13.866   3.645   0.740  1.00  0.00     0.025 C 
BRANCH   8   9
ATOM      9  C   UNL     1      14.254   5.065   0.775  1.00  0.00     0.064 C 
ATOM     10  O   UNL     1      15.125   5.483   1.584  1.00  0.00    -0.545 OA
ATOM     11  O   UNL     1      13.648   5.960  -0.097  1.00  0.00    -0.545 OA
ENDBRANCH   8   9
ENDBRANCH   1   7
BRANCH   6  12
ATOM     12  O   UNL     1      13.311  -2.852   1.000  1.00  0.00    -0.508 OA
ATOM     13  H   UNL     1      12.367  -3.178   1.176  1.00  0.00     0.293 HD
ENDBRANCH   6  12
TORSDOF 3
ENDMDL
