MODEL 1
REMARK VINA RESULT:    -5.010      0.000      0.000
REMARK INTER + INTRA:          -9.279
REMARK INTER:                  -8.524
REMARK INTRA:                  -0.755
REMARK UNBOUND:                -0.755
REMARK SMILES CCCCCCCCCCCCCC(=O)[O-]
REMARK SMILES IDX 8 1 9 2 10 3 11 4 12 5 13 6 14 7 15 8 16 9 7 10 6 11 5 12
REMARK SMILES IDX 4 13 3 14 2 15 1 16
REMARK H PARENT
REMARK Flexibility Score: inf
ROOT
ATOM      1  C   UNL     1      30.198  -8.651  14.186  1.00  0.00     0.000 C 
ENDROOT
BRANCH   1   2
ATOM      2  C   UNL     1      31.002  -9.334  13.070  1.00  0.00     0.000 C 
BRANCH   2   3
ATOM      3  C   UNL     1      31.290  -8.353  11.923  1.00  0.00     0.000 C 
BRANCH   3   4
ATOM      4  C   UNL     1      30.705  -6.956  12.177  1.00  0.00     0.000 C 
BRANCH   4   5
ATOM      5  C   UNL     1      31.147  -5.926  11.126  1.00  0.00     0.006 C 
BRANCH   5   6
ATOM      6  C   UNL     1      32.440  -5.225  11.557  1.00  0.00     0.053 C 
BRANCH   6   7
ATOM      7  C   UNL     1      33.576  -5.631  10.672  1.00  0.00     0.041 C 
ATOM      8  O   UNL     1      34.729  -5.786  11.153  1.00  0.00    -0.550 OA
ATOM      9  O   UNL     1      33.351  -5.887   9.325  1.00  0.00    -0.550 OA
ENDBRANCH   6   7
ENDBRANCH   5   6
ENDBRANCH   4   5
ENDBRANCH   3   4
ENDBRANCH   2   3
ENDBRANCH   1   2
BRANCH   1  10
ATOM     10  C   UNL     1      29.500  -9.656  15.117  1.00  0.00     0.000 C 
BRANCH  10  11
ATOM     11  C   UNL     1      27.967  -9.518  15.092  1.00  0.00    -0.000 C 
BRANCH  11  12
ATOM     12  C   UNL     1      27.261 -10.841  14.753  1.00  0.00    -0.000 C 
BRANCH  12  13
ATOM     13  C   UNL     1      28.246 -11.977  14.438  1.00  0.00    -0.000 C 
BRANCH  13  14
ATOM     14  C   UNL     1      28.141 -13.098  15.478  1.00  0.00    -0.000 C 
BRANCH  14  15
ATOM     15  C   UNL     1      27.993 -14.465  14.800  1.00  0.00    -0.003 C 
ATOM     16  C   UNL     1      27.104 -14.373  13.563  1.00  0.00     0.004 C 
ENDBRANCH  14  15
ENDBRANCH  13  14
ENDBRANCH  12  13
ENDBRANCH  11  12
ENDBRANCH  10  11
ENDBRANCH   1  10
TORSDOF 12
ENDMDL
MODEL 2
REMARK VINA RESULT:    -4.994      1.301      2.171
REMARK INTER + INTRA:          -9.252
REMARK INTER:                  -8.129
REMARK INTRA:                  -1.123
REMARK UNBOUND:                -0.755
REMARK SMILES CCCCCCCCCCCCCC(=O)[O-]
REMARK SMILES IDX 8 1 9 2 10 3 11 4 12 5 13 6 14 7 15 8 16 9 7 10 6 11 5 12
REMARK SMILES IDX 4 13 3 14 2 15 1 16
REMARK H PARENT
REMARK Flexibility Score: inf
ROOT
ATOM      1  C   UNL     1      29.569 -10.867  13.487  1.00  0.00     0.000 C 
ENDROOT
BRANCH   1   2
ATOM      2  C   UNL     1      30.608  -9.809  13.089  1.00  0.00     0.000 C 
BRANCH   2   3
ATOM      3  C   UNL     1      30.203  -8.421  13.607  1.00  0.00     0.000 C 
BRANCH   3   4
ATOM      4  C   UNL     1      30.603  -7.289  12.647  1.00  0.00     0.000 C 
BRANCH   4   5
ATOM      5  C   UNL     1      31.282  -7.807  11.370  1.00  0.00     0.006 C 
BRANCH   5   6
ATOM      6  C   UNL     1      31.095  -6.820  10.213  1.00  0.00     0.053 C 
BRANCH   6   7
ATOM      7  C   UNL     1      32.355  -6.052   9.970  1.00  0.00     0.041 C 
ATOM      8  O   UNL     1      32.910  -6.085   8.841  1.00  0.00    -0.550 OA
ATOM      9  O   UNL     1      32.890  -5.258  10.978  1.00  0.00    -0.550 OA
ENDBRANCH   6   7
ENDBRANCH   5   6
ENDBRANCH   4   5
ENDBRANCH   3   4
ENDBRANCH   2   3
ENDBRANCH   1   2
BRANCH   1  10
ATOM     10  C   UNL     1      28.507 -10.323  14.457  1.00  0.00     0.000 C 
BRANCH  10  11
ATOM     11  C   UNL     1      27.102 -10.881  14.169  1.00  0.00    -0.000 C 
BRANCH  11  12
ATOM     12  C   UNL     1      27.117 -12.384  13.849  1.00  0.00    -0.000 C 
BRANCH  12  13
ATOM     13  C   UNL     1      26.929 -13.260  15.098  1.00  0.00    -0.000 C 
BRANCH  13  14
ATOM     14  C   UNL     1      28.260 -13.884  15.534  1.00  0.00    -0.000 C 
BRANCH  14  15
ATOM     15  C   UNL     1      28.851 -13.136  16.735  1.00  0.00    -0.003 C 
ATOM     16  C   UNL     1      30.342 -12.875  16.541  1.00  0.00     0.004 C 
ENDBRANCH  14  15
ENDBRANCH  13  14
ENDBRANCH  12  13
ENDBRANCH  11  12
ENDBRANCH  10  11
ENDBRANCH   1  10
TORSDOF 12
ENDMDL
MODEL 3
REMARK VINA RESULT:    -4.962      1.388      2.324
REMARK INTER + INTRA:          -9.197
REMARK INTER:                  -7.373
REMARK INTRA:                  -1.823
REMARK UNBOUND:                -0.755
REMARK SMILES CCCCCCCCCCCCCC(=O)[O-]
REMARK SMILES IDX 8 1 9 2 10 3 11 4 12 5 13 6 14 7 15 8 16 9 7 10 6 11 5 12
REMARK SMILES IDX 4 13 3 14 2 15 1 16
REMARK H PARENT
REMARK Flexibility Score: inf
ROOT
ATOM      1  C   UNL     1      30.983  -9.880  16.118  1.00  0.00     0.000 C 
ENDROOT
BRANCH   1   2
ATOM      2  C   UNL     1      31.847  -9.566  14.887  1.00  0.00     0.000 C 
BRANCH   2   3
ATOM      3  C   UNL     1      31.406 -10.406  13.679  1.00  0.00     0.000 C 
BRANCH   3   4
ATOM      4  C   UNL     1      30.816  -9.551  12.546  1.00  0.00     0.000 C 
BRANCH   4   5
ATOM      5  C   UNL     1      30.763  -8.056  12.896  1.00  0.00     0.006 C 
BRANCH   5   6
ATOM      6  C   UNL     1      30.899  -7.194  11.637  1.00  0.00     0.053 C 
BRANCH   6   7
ATOM      7  C   UNL     1      32.161  -6.393  11.684  1.00  0.00     0.041 C 
ATOM      8  O   UNL     1      32.148  -5.171  11.382  1.00  0.00    -0.550 OA
ATOM      9  O   UNL     1      33.344  -6.985  12.110  1.00  0.00    -0.550 OA
ENDBRANCH   6   7
ENDBRANCH   5   6
ENDBRANCH   4   5
ENDBRANCH   3   4
ENDBRANCH   2   3
ENDBRANCH   1   2
BRANCH   1  10
ATOM     10  C   UNL     1      30.031  -8.729  16.486  1.00  0.00     0.000 C 
BRANCH  10  11
ATOM     11  C   UNL     1      28.551  -9.151  16.445  1.00  0.00    -0.000 C 
BRANCH  11  12
ATOM     12  C   UNL     1      28.045  -9.389  15.013  1.00  0.00    -0.000 C 
BRANCH  12  13
ATOM     13  C   UNL     1      27.286 -10.716  14.864  1.00  0.00    -0.000 C 
BRANCH  13  14
ATOM     14  C   UNL     1      28.119 -11.738  14.083  1.00  0.00    -0.000 C 
BRANCH  14  15
ATOM     15  C   UNL     1      28.194 -13.074  14.830  1.00  0.00    -0.003 C 
ATOM     16  C   UNL     1      28.673 -12.876  16.266  1.00  0.00     0.004 C 
ENDBRANCH  14  15
ENDBRANCH  13  14
ENDBRANCH  12  13
ENDBRANCH  11  12
ENDBRANCH  10  11
ENDBRANCH   1  10
TORSDOF 12
ENDMDL
MODEL 4
REMARK VINA RESULT:    -4.939      4.111      8.185
REMARK INTER + INTRA:          -9.158
REMARK INTER:                  -8.258
REMARK INTRA:                  -0.899
REMARK UNBOUND:                -0.755
REMARK SMILES CCCCCCCCCCCCCC(=O)[O-]
REMARK SMILES IDX 8 1 9 2 10 3 11 4 12 5 13 6 14 7 15 8 16 9 7 10 6 11 5 12
REMARK SMILES IDX 4 13 3 14 2 15 1 16
REMARK H PARENT
REMARK Flexibility Score: inf
ROOT
ATOM      1  C   UNL     1      30.735  -9.905  12.998  1.00  0.00     0.000 C 
ENDROOT
BRANCH   1   2
ATOM      2  C   UNL     1      29.602 -10.889  13.327  1.00  0.00     0.000 C 
BRANCH   2   3
ATOM      3  C   UNL     1      28.693 -10.328  14.431  1.00  0.00     0.000 C 
BRANCH   3   4
ATOM      4  C   UNL     1      27.272 -10.911  14.381  1.00  0.00     0.000 C 
BRANCH   4   5
ATOM      5  C   UNL     1      27.254 -12.402  14.010  1.00  0.00     0.006 C 
BRANCH   5   6
ATOM      6  C   UNL     1      27.035 -13.272  15.252  1.00  0.00     0.053 C 
BRANCH   6   7
ATOM      7  C   UNL     1      28.341 -13.795  15.762  1.00  0.00     0.041 C 
ATOM      8  O   UNL     1      29.004 -13.133  16.602  1.00  0.00    -0.550 OA
ATOM      9  O   UNL     1      28.800 -15.039  15.347  1.00  0.00    -0.550 OA
ENDBRANCH   6   7
ENDBRANCH   5   6
ENDBRANCH   4   5
ENDBRANCH   3   4
ENDBRANCH   2   3
ENDBRANCH   1   2
BRANCH   1  10
ATOM     10  C   UNL     1      30.519  -8.518  13.625  1.00  0.00     0.000 C 
BRANCH  10  11
ATOM     11  C   UNL     1      30.615  -7.381  12.592  1.00  0.00    -0.000 C 
BRANCH  11  12
ATOM     12  C   UNL     1      31.211  -7.847  11.254  1.00  0.00    -0.000 C 
BRANCH  12  13
ATOM     13  C   UNL     1      31.372  -6.702  10.243  1.00  0.00    -0.000 C 
BRANCH  13  14
ATOM     14  C   UNL     1      32.299  -5.612  10.794  1.00  0.00    -0.000 C 
BRANCH  14  15
ATOM     15  C   UNL     1      33.725  -5.779  10.256  1.00  0.00    -0.003 C 
ATOM     16  C   UNL     1      34.650  -6.362  11.320  1.00  0.00     0.004 C 
ENDBRANCH  14  15
ENDBRANCH  13  14
ENDBRANCH  12  13
ENDBRANCH  11  12
ENDBRANCH  10  11
ENDBRANCH   1  10
TORSDOF 12
ENDMDL
MODEL 5
REMARK VINA RESULT:    -4.928      1.885      3.132
REMARK INTER + INTRA:          -9.140
REMARK INTER:                  -7.664
REMARK INTRA:                  -1.476
REMARK UNBOUND:                -0.755
REMARK SMILES CCCCCCCCCCCCCC(=O)[O-]
REMARK SMILES IDX 8 1 9 2 10 3 11 4 12 5 13 6 14 7 15 8 16 9 7 10 6 11 5 12
REMARK SMILES IDX 4 13 3 14 2 15 1 16
REMARK H PARENT
REMARK Flexibility Score: inf
ROOT
ATOM      1  C   UNL     1      30.683  -7.897  13.099  1.00  0.00     0.000 C 
ENDROOT
BRANCH   1   2
ATOM      2  C   UNL     1      30.499  -6.747  12.097  1.00  0.00     0.000 C 
BRANCH   2   3
ATOM      3  C   UNL     1      31.170  -7.077  10.755  1.00  0.00     0.000 C 
BRANCH   3   4
ATOM      4  C   UNL     1      32.133  -5.976  10.288  1.00  0.00     0.000 C 
BRANCH   4   5
ATOM      5  C   UNL     1      32.971  -5.393  11.436  1.00  0.00     0.006 C 
BRANCH   5   6
ATOM      6  C   UNL     1      34.424  -5.871  11.351  1.00  0.00     0.053 C 
BRANCH   6   7
ATOM      7  C   UNL     1      34.545  -7.272  11.863  1.00  0.00     0.041 C 
ATOM      8  O   UNL     1      34.401  -7.512  13.090  1.00  0.00    -0.550 OA
ATOM      9  O   UNL     1      34.767  -8.319  10.977  1.00  0.00    -0.550 OA
ENDBRANCH   6   7
ENDBRANCH   5   6
ENDBRANCH   4   5
ENDBRANCH   3   4
ENDBRANCH   2   3
ENDBRANCH   1   2
BRANCH   1  10
ATOM     10  C   UNL     1      31.304  -9.149  12.460  1.00  0.00     0.000 C 
BRANCH  10  11
ATOM     11  C   UNL     1      30.993 -10.433  13.251  1.00  0.00    -0.000 C 
BRANCH  11  12
ATOM     12  C   UNL     1      29.553 -10.925  13.035  1.00  0.00    -0.000 C 
BRANCH  12  13
ATOM     13  C   UNL     1      28.831 -11.247  14.352  1.00  0.00    -0.000 C 
BRANCH  13  14
ATOM     14  C   UNL     1      27.668 -10.277  14.590  1.00  0.00    -0.000 C 
BRANCH  14  15
ATOM     15  C   UNL     1      28.087  -9.133  15.520  1.00  0.00    -0.003 C 
ATOM     16  C   UNL     1      29.195  -9.575  16.472  1.00  0.00     0.004 C 
ENDBRANCH  14  15
ENDBRANCH  13  14
ENDBRANCH  12  13
ENDBRANCH  11  12
ENDBRANCH  10  11
ENDBRANCH   1  10
TORSDOF 12
ENDMDL
MODEL 6
REMARK VINA RESULT:    -4.849      3.881      7.788
REMARK INTER + INTRA:          -9.006
REMARK INTER:                  -7.705
REMARK INTRA:                  -1.301
REMARK UNBOUND:                -0.755
REMARK SMILES CCCCCCCCCCCCCC(=O)[O-]
REMARK SMILES IDX 8 1 9 2 10 3 11 4 12 5 13 6 14 7 15 8 16 9 7 10 6 11 5 12
REMARK SMILES IDX 4 13 3 14 2 15 1 16
REMARK H PARENT
REMARK Flexibility Score: inf
ROOT
ATOM      1  C   UNL     1      30.335  -7.160  12.458  1.00  0.00     0.000 C 
ENDROOT
BRANCH   1   2
ATOM      2  C   UNL     1      31.089  -8.494  12.562  1.00  0.00     0.000 C 
BRANCH   2   3
ATOM      3  C   UNL     1      30.431  -9.415  13.601  1.00  0.00     0.000 C 
BRANCH   3   4
ATOM      4  C   UNL     1      29.798  -8.638  14.766  1.00  0.00     0.000 C 
BRANCH   4   5
ATOM      5  C   UNL     1      28.415  -9.179  15.158  1.00  0.00     0.006 C 
BRANCH   5   6
ATOM      6  C   UNL     1      28.179 -10.568  14.556  1.00  0.00     0.053 C 
BRANCH   6   7
ATOM      7  C   UNL     1      28.194 -11.613  15.627  1.00  0.00     0.041 C 
ATOM      8  O   UNL     1      27.206 -12.378  15.779  1.00  0.00    -0.550 OA
ATOM      9  O   UNL     1      29.320 -11.775  16.424  1.00  0.00    -0.550 OA
ENDBRANCH   6   7
ENDBRANCH   5   6
ENDBRANCH   4   5
ENDBRANCH   3   4
ENDBRANCH   2   3
ENDBRANCH   1   2
BRANCH   1  10
ATOM     10  C   UNL     1      31.088  -6.116  11.617  1.00  0.00     0.000 C 
BRANCH  10  11
ATOM     11  C   UNL     1      31.365  -6.601  10.182  1.00  0.00    -0.000 C 
BRANCH  11  12
ATOM     12  C   UNL     1      32.690  -6.059   9.622  1.00  0.00    -0.000 C 
BRANCH  12  13
ATOM     13  C   UNL     1      33.547  -5.363  10.690  1.00  0.00    -0.000 C 
BRANCH  13  14
ATOM     14  C   UNL     1      34.824  -6.163  10.974  1.00  0.00    -0.000 C 
BRANCH  14  15
ATOM     15  C   UNL     1      34.587  -7.204  12.073  1.00  0.00    -0.003 C 
ATOM     16  C   UNL     1      34.657  -8.622  11.513  1.00  0.00     0.004 C 
ENDBRANCH  14  15
ENDBRANCH  13  14
ENDBRANCH  12  13
ENDBRANCH  11  12
ENDBRANCH  10  11
ENDBRANCH   1  10
TORSDOF 12
ENDMDL
MODEL 7
REMARK VINA RESULT:    -4.844      0.961      1.568
REMARK INTER + INTRA:          -8.996
REMARK INTER:                  -8.275
REMARK INTRA:                  -0.722
REMARK UNBOUND:                -0.755
REMARK SMILES CCCCCCCCCCCCCC(=O)[O-]
REMARK SMILES IDX 8 1 9 2 10 3 11 4 12 5 13 6 14 7 15 8 16 9 7 10 6 11 5 12
REMARK SMILES IDX 4 13 3 14 2 15 1 16
REMARK H PARENT
REMARK Flexibility Score: inf
ROOT
ATOM      1  C   UNL     1      30.114 -10.588  12.949  1.00  0.00     0.000 C 
ENDROOT
BRANCH   1   2
ATOM      2  C   UNL     1      31.066  -9.545  12.343  1.00  0.00     0.000 C 
BRANCH   2   3
ATOM      3  C   UNL     1      31.005  -8.226  13.128  1.00  0.00     0.000 C 
BRANCH   3   4
ATOM      4  C   UNL     1      30.289  -7.108  12.355  1.00  0.00     0.000 C 
BRANCH   4   5
ATOM      5  C   UNL     1      31.006  -6.736  11.048  1.00  0.00     0.006 C 
BRANCH   5   6
ATOM      6  C   UNL     1      32.070  -5.661  11.295  1.00  0.00     0.053 C 
BRANCH   6   7
ATOM      7  C   UNL     1      33.140  -5.734  10.252  1.00  0.00     0.041 C 
ATOM      8  O   UNL     1      32.838  -5.943   9.048  1.00  0.00    -0.550 OA
ATOM      9  O   UNL     1      34.467  -5.520  10.603  1.00  0.00    -0.550 OA
ENDBRANCH   6   7
ENDBRANCH   5   6
ENDBRANCH   4   5
ENDBRANCH   3   4
ENDBRANCH   2   3
ENDBRANCH   1   2
BRANCH   1  10
ATOM     10  C   UNL     1      29.323 -10.044  14.150  1.00  0.00     0.000 C 
BRANCH  10  11
ATOM     11  C   UNL     1      28.504 -11.136  14.861  1.00  0.00    -0.000 C 
BRANCH  11  12
ATOM     12  C   UNL     1      29.386 -12.118  15.649  1.00  0.00    -0.000 C 
BRANCH  12  13
ATOM     13  C   UNL     1      28.579 -13.247  16.307  1.00  0.00    -0.000 C 
BRANCH  13  14
ATOM     14  C   UNL     1      28.504 -14.473  15.390  1.00  0.00    -0.000 C 
BRANCH  14  15
ATOM     15  C   UNL     1      27.091 -14.650  14.821  1.00  0.00    -0.003 C 
ATOM     16  C   UNL     1      27.045 -14.292  13.338  1.00  0.00     0.004 C 
ENDBRANCH  14  15
ENDBRANCH  13  14
ENDBRANCH  12  13
ENDBRANCH  11  12
ENDBRANCH  10  11
ENDBRANCH   1  10
TORSDOF 12
ENDMDL
MODEL 8
REMARK VINA RESULT:    -4.822      3.801      7.792
REMARK INTER + INTRA:          -8.959
REMARK INTER:                  -7.704
REMARK INTRA:                  -1.255
REMARK UNBOUND:                -0.755
REMARK SMILES CCCCCCCCCCCCCC(=O)[O-]
REMARK SMILES IDX 8 1 9 2 10 3 11 4 12 5 13 6 14 7 15 8 16 9 7 10 6 11 5 12
REMARK SMILES IDX 4 13 3 14 2 15 1 16
REMARK H PARENT
REMARK Flexibility Score: inf
ROOT
ATOM      1  C   UNL     1      30.632  -6.815  11.926  1.00  0.00     0.000 C 
ENDROOT
BRANCH   1   2
ATOM      2  C   UNL     1      31.496  -8.054  12.206  1.00  0.00     0.000 C 
BRANCH   2   3
ATOM      3  C   UNL     1      30.695  -9.120  12.969  1.00  0.00     0.000 C 
BRANCH   3   4
ATOM      4  C   UNL     1      30.214  -8.630  14.344  1.00  0.00     0.000 C 
BRANCH   4   5
ATOM      5  C   UNL     1      29.517  -9.731  15.156  1.00  0.00     0.006 C 
BRANCH   5   6
ATOM      6  C   UNL     1      27.994  -9.636  15.013  1.00  0.00     0.053 C 
BRANCH   6   7
ATOM      7  C   UNL     1      27.410 -10.983  14.724  1.00  0.00     0.041 C 
ATOM      8  O   UNL     1      26.919 -11.230  13.592  1.00  0.00    -0.550 OA
ATOM      9  O   UNL     1      27.453 -11.980  15.690  1.00  0.00    -0.550 OA
ENDBRANCH   6   7
ENDBRANCH   5   6
ENDBRANCH   4   5
ENDBRANCH   3   4
ENDBRANCH   2   3
ENDBRANCH   1   2
BRANCH   1  10
ATOM     10  C   UNL     1      31.444  -5.640  11.358  1.00  0.00     0.000 C 
BRANCH  10  11
ATOM     11  C   UNL     1      32.924  -5.683  11.782  1.00  0.00    -0.000 C 
BRANCH  11  12
ATOM     12  C   UNL     1      33.874  -5.258  10.652  1.00  0.00    -0.000 C 
BRANCH  12  13
ATOM     13  C   UNL     1      34.456  -6.454   9.883  1.00  0.00    -0.000 C 
BRANCH  13  14
ATOM     14  C   UNL     1      33.658  -6.721   8.601  1.00  0.00    -0.000 C 
BRANCH  14  15
ATOM     15  C   UNL     1      32.986  -8.098   8.649  1.00  0.00    -0.003 C 
ATOM     16  C   UNL     1      31.479  -7.983   8.439  1.00  0.00     0.004 C 
ENDBRANCH  14  15
ENDBRANCH  13  14
ENDBRANCH  12  13
ENDBRANCH  11  12
ENDBRANCH  10  11
ENDBRANCH   1  10
TORSDOF 12
ENDMDL
MODEL 9
REMARK VINA RESULT:    -4.805      3.496      7.498
REMARK INTER + INTRA:          -8.930
REMARK INTER:                  -7.114
REMARK INTRA:                  -1.817
REMARK UNBOUND:                -0.755
REMARK SMILES CCCCCCCCCCCCCC(=O)[O-]
REMARK SMILES IDX 8 1 9 2 10 3 11 4 12 5 13 6 14 7 15 8 16 9 7 10 6 11 5 12
REMARK SMILES IDX 4 13 3 14 2 15 1 16
REMARK H PARENT
REMARK Flexibility Score: inf
ROOT
ATOM      1  C   UNL     1      32.899  -6.068  11.743  1.00  0.00     0.000 C 
ENDROOT
BRANCH   1   2
ATOM      2  C   UNL     1      31.399  -5.947  11.437  1.00  0.00     0.000 C 
BRANCH   2   3
ATOM      3  C   UNL     1      30.605  -7.062  12.136  1.00  0.00     0.000 C 
BRANCH   3   4
ATOM      4  C   UNL     1      31.427  -8.347  12.322  1.00  0.00     0.000 C 
BRANCH   4   5
ATOM      5  C   UNL     1      31.315  -8.923  13.742  1.00  0.00     0.006 C 
BRANCH   5   6
ATOM      6  C   UNL     1      29.882  -8.801  14.271  1.00  0.00     0.053 C 
BRANCH   6   7
ATOM      7  C   UNL     1      29.307 -10.154  14.545  1.00  0.00     0.041 C 
ATOM      8  O   UNL     1      29.148 -10.977  13.605  1.00  0.00    -0.550 OA
ATOM      9  O   UNL     1      28.994 -10.526  15.846  1.00  0.00    -0.550 OA
ENDBRANCH   6   7
ENDBRANCH   5   6
ENDBRANCH   4   5
ENDBRANCH   3   4
ENDBRANCH   2   3
ENDBRANCH   1   2
BRANCH   1  10
ATOM     10  C   UNL     1      33.772  -5.257  10.772  1.00  0.00     0.000 C 
BRANCH  10  11
ATOM     11  C   UNL     1      34.880  -6.105  10.123  1.00  0.00    -0.000 C 
BRANCH  11  12
ATOM     12  C   UNL     1      34.459  -7.569   9.919  1.00  0.00    -0.000 C 
BRANCH  12  13
ATOM     13  C   UNL     1      33.761  -7.805   8.571  1.00  0.00    -0.000 C 
BRANCH  13  14
ATOM     14  C   UNL     1      32.393  -8.466   8.772  1.00  0.00    -0.000 C 
BRANCH  14  15
ATOM     15  C   UNL     1      31.283  -7.648   8.101  1.00  0.00    -0.003 C 
ATOM     16  C   UNL     1      31.776  -6.253   7.728  1.00  0.00     0.004 C 
ENDBRANCH  14  15
ENDBRANCH  13  14
ENDBRANCH  12  13
ENDBRANCH  11  12
ENDBRANCH  10  11
ENDBRANCH   1  10
TORSDOF 12
ENDMDL
