MODEL 1
REMARK VINA RESULT:    -4.052      0.000      0.000
REMARK INTER + INTRA:          -4.170
REMARK INTER:                  -4.170
REMARK INTRA:                   0.000
REMARK UNBOUND:                 0.000
REMARK SMILES CC1(C)[C@H]2CC[C@](C)(C2)[C@H]1O
REMARK SMILES IDX 1 1 2 2 4 3 5 4 6 5 7 6 9 7 10 8 8 9 3 10 11 11
REMARK H PARENT 11 12
REMARK Flexibility Score: inf
ROOT
ATOM      1  C   UNL     1     141.017 138.020 129.250  1.00  0.00     0.014 C 
ATOM      2  C   UNL     1     139.946 136.902 129.300  1.00  0.00    -0.006 C 
ATOM      3  C   UNL     1     138.882 137.225 130.405  1.00  0.00    -0.002 C 
ATOM      4  C   UNL     1     137.667 136.279 130.305  1.00  0.00     0.005 C 
ATOM      5  C   UNL     1     138.258 134.920 130.714  1.00  0.00     0.010 C 
ATOM      6  C   UNL     1     139.712 135.285 131.104  1.00  0.00    -0.006 C 
ATOM      7  C   UNL     1     139.535 136.680 131.663  1.00  0.00     0.013 C 
ATOM      8  C   UNL     1     140.558 135.563 129.832  1.00  0.00     0.126 C 
ATOM      9  C   UNL     1     140.357 134.301 132.085  1.00  0.00     0.014 C 
ATOM     10  C   UNL     1     139.340 136.784 127.878  1.00  0.00     0.014 C 
ENDROOT
BRANCH   8  11
ATOM     11  O   UNL     1     140.471 134.514 128.900  1.00  0.00    -0.392 OA
ATOM     12  H   UNL     1     140.068 134.896 128.077  1.00  0.00     0.211 HD
ENDBRANCH   8  11
TORSDOF 1
ENDMDL
MODEL 2
REMARK VINA RESULT:    -4.038      4.396      5.883
REMARK INTER + INTRA:          -4.156
REMARK INTER:                  -4.156
REMARK INTRA:                   0.000
REMARK UNBOUND:                 0.000
REMARK SMILES CC1(C)[C@H]2CC[C@](C)(C2)[C@H]1O
REMARK SMILES IDX 1 1 2 2 4 3 5 4 6 5 7 6 9 7 10 8 8 9 3 10 11 11
REMARK H PARENT 11 12
REMARK Flexibility Score: inf
ROOT
ATOM      1  C   UNL     1     134.175 137.107 129.352  1.00  0.00     0.014 C 
ATOM      2  C   UNL     1     135.224 138.247 129.336  1.00  0.00    -0.006 C 
ATOM      3  C   UNL     1     136.372 137.936 130.358  1.00  0.00    -0.002 C 
ATOM      4  C   UNL     1     137.557 138.907 130.181  1.00  0.00     0.005 C 
ATOM      5  C   UNL     1     136.970 140.250 130.646  1.00  0.00     0.010 C 
ATOM      6  C   UNL     1     135.556 139.853 131.136  1.00  0.00    -0.006 C 
ATOM      7  C   UNL     1     135.801 138.457 131.666  1.00  0.00     0.013 C 
ATOM      8  C   UNL     1     134.626 139.568 129.925  1.00  0.00     0.126 C 
ATOM      9  C   UNL     1     134.964 140.814 132.171  1.00  0.00     0.014 C 
ATOM     10  C   UNL     1     135.724 138.390 127.875  1.00  0.00     0.014 C 
ENDROOT
BRANCH   8  11
ATOM     11  O   UNL     1     134.625 140.627 129.000  1.00  0.00    -0.392 OA
ATOM     12  H   UNL     1     134.671 140.217 128.097  1.00  0.00     0.211 HD
ENDBRANCH   8  11
TORSDOF 1
ENDMDL
MODEL 3
REMARK VINA RESULT:    -4.005      3.124      4.103
REMARK INTER + INTRA:          -4.122
REMARK INTER:                  -4.122
REMARK INTRA:                   0.000
REMARK UNBOUND:                 0.000
REMARK SMILES CC1(C)[C@H]2CC[C@](C)(C2)[C@H]1O
REMARK SMILES IDX 1 1 2 2 4 3 5 4 6 5 7 6 9 7 10 8 8 9 3 10 11 11
REMARK H PARENT 11 12
REMARK Flexibility Score: inf
ROOT
ATOM      1  C   UNL     1     138.147 134.243 129.345  1.00  0.00     0.014 C 
ATOM      2  C   UNL     1     136.986 135.268 129.335  1.00  0.00    -0.006 C 
ATOM      3  C   UNL     1     137.272 136.417 130.362  1.00  0.00    -0.002 C 
ATOM      4  C   UNL     1     136.276 137.583 130.191  1.00  0.00     0.005 C 
ATOM      5  C   UNL     1     134.946 136.966 130.653  1.00  0.00     0.010 C 
ATOM      6  C   UNL     1     135.374 135.558 131.135  1.00  0.00    -0.006 C 
ATOM      7  C   UNL     1     136.764 135.829 131.667  1.00  0.00     0.013 C 
ATOM      8  C   UNL     1     135.678 134.640 129.920  1.00  0.00     0.126 C 
ATOM      9  C   UNL     1     134.425 134.941 132.167  1.00  0.00     0.014 C 
ATOM     10  C   UNL     1     136.832 135.773 127.876  1.00  0.00     0.014 C 
ENDROOT
BRANCH   8  11
ATOM     11  O   UNL     1     134.619 134.621 128.995  1.00  0.00    -0.392 OA
ATOM     12  H   UNL     1     134.272 133.691 128.977  1.00  0.00     0.211 HD
ENDBRANCH   8  11
TORSDOF 1
ENDMDL
MODEL 4
REMARK VINA RESULT:    -3.863      1.601      2.360
REMARK INTER + INTRA:          -3.976
REMARK INTER:                  -3.976
REMARK INTRA:                   0.000
REMARK UNBOUND:                 0.000
REMARK SMILES CC1(C)[C@H]2CC[C@](C)(C2)[C@H]1O
REMARK SMILES IDX 1 1 2 2 4 3 5 4 6 5 7 6 9 7 10 8 8 9 3 10 11 11
REMARK H PARENT 11 12
REMARK Flexibility Score: inf
ROOT
ATOM      1  C   UNL     1     140.963 138.008 129.163  1.00  0.00     0.014 C 
ATOM      2  C   UNL     1     139.688 137.209 129.531  1.00  0.00    -0.006 C 
ATOM      3  C   UNL     1     140.024 136.128 130.615  1.00  0.00    -0.002 C 
ATOM      4  C   UNL     1     138.741 135.497 131.193  1.00  0.00     0.005 C 
ATOM      5  C   UNL     1     138.186 134.699 130.002  1.00  0.00     0.010 C 
ATOM      6  C   UNL     1     139.284 134.885 128.927  1.00  0.00    -0.006 C 
ATOM      7  C   UNL     1     140.532 134.966 129.779  1.00  0.00     0.013 C 
ATOM      8  C   UNL     1     139.219 136.319 128.332  1.00  0.00     0.126 C 
ATOM      9  C   UNL     1     139.321 133.771 127.877  1.00  0.00     0.014 C 
ATOM     10  C   UNL     1     138.622 138.235 129.995  1.00  0.00     0.014 C 
ENDROOT
BRANCH   8  11
ATOM     11  O   UNL     1     137.928 136.645 127.881  1.00  0.00    -0.392 OA
ATOM     12  H   UNL     1     137.792 137.608 128.078  1.00  0.00     0.211 HD
ENDBRANCH   8  11
TORSDOF 1
ENDMDL
MODEL 5
REMARK VINA RESULT:    -3.860      2.930      4.643
REMARK INTER + INTRA:          -3.973
REMARK INTER:                  -3.973
REMARK INTRA:                   0.000
REMARK UNBOUND:                 0.000
REMARK SMILES CC1(C)[C@H]2CC[C@](C)(C2)[C@H]1O
REMARK SMILES IDX 1 1 2 2 4 3 5 4 6 5 7 6 9 7 10 8 8 9 3 10 11 11
REMARK H PARENT 11 12
REMARK Flexibility Score: inf
ROOT
ATOM      1  C   UNL     1     138.063 134.331 129.201  1.00  0.00     0.014 C 
ATOM      2  C   UNL     1     137.210 135.576 129.552  1.00  0.00    -0.006 C 
ATOM      3  C   UNL     1     136.137 135.206 130.633  1.00  0.00    -0.002 C 
ATOM      4  C   UNL     1     135.451 136.468 131.196  1.00  0.00     0.005 C 
ATOM      5  C   UNL     1     134.638 136.979 129.995  1.00  0.00     0.010 C 
ATOM      6  C   UNL     1     134.876 135.880 128.931  1.00  0.00    -0.006 C 
ATOM      7  C   UNL     1     135.002 134.644 129.795  1.00  0.00     0.013 C 
ATOM      8  C   UNL     1     136.309 135.997 128.344  1.00  0.00     0.126 C 
ATOM      9  C   UNL     1     133.770 135.788 127.875  1.00  0.00     0.014 C 
ATOM     10  C   UNL     1     138.189 136.687 130.012  1.00  0.00     0.014 C 
ENDROOT
BRANCH   8  11
ATOM     11  O   UNL     1     136.585 137.297 127.883  1.00  0.00    -0.392 OA
ATOM     12  H   UNL     1     136.096 137.921 128.479  1.00  0.00     0.211 HD
ENDBRANCH   8  11
TORSDOF 1
ENDMDL
MODEL 6
REMARK VINA RESULT:    -3.851      4.136      5.896
REMARK INTER + INTRA:          -3.964
REMARK INTER:                  -3.964
REMARK INTRA:                   0.000
REMARK UNBOUND:                 0.000
REMARK SMILES CC1(C)[C@H]2CC[C@](C)(C2)[C@H]1O
REMARK SMILES IDX 1 1 2 2 4 3 5 4 6 5 7 6 9 7 10 8 8 9 3 10 11 11
REMARK H PARENT 11 12
REMARK Flexibility Score: inf
ROOT
ATOM      1  C   UNL     1     134.250 137.209 129.059  1.00  0.00     0.014 C 
ATOM      2  C   UNL     1     135.506 138.018 129.471  1.00  0.00    -0.006 C 
ATOM      3  C   UNL     1     135.129 139.080 130.561  1.00  0.00    -0.002 C 
ATOM      4  C   UNL     1     136.389 139.716 131.181  1.00  0.00     0.005 C 
ATOM      5  C   UNL     1     136.966 140.537 130.016  1.00  0.00     0.010 C 
ATOM      6  C   UNL     1     135.898 140.354 128.910  1.00  0.00    -0.006 C 
ATOM      7  C   UNL     1     134.630 140.247 129.728  1.00  0.00     0.013 C 
ATOM      8  C   UNL     1     135.996 138.930 128.298  1.00  0.00     0.126 C 
ATOM      9  C   UNL     1     135.876 141.483 127.875  1.00  0.00     0.014 C 
ATOM     10  C   UNL     1     136.571 136.997 129.949  1.00  0.00     0.014 C 
ENDROOT
BRANCH   8  11
ATOM     11  O   UNL     1     137.302 138.624 127.876  1.00  0.00    -0.392 OA
ATOM     12  H   UNL     1     137.906 139.269 128.328  1.00  0.00     0.211 HD
ENDBRANCH   8  11
TORSDOF 1
ENDMDL
MODEL 7
REMARK VINA RESULT:    -3.725      2.277      4.199
REMARK INTER + INTRA:          -3.834
REMARK INTER:                  -3.834
REMARK INTRA:                   0.000
REMARK UNBOUND:                 0.000
REMARK SMILES CC1(C)[C@H]2CC[C@](C)(C2)[C@H]1O
REMARK SMILES IDX 1 1 2 2 4 3 5 4 6 5 7 6 9 7 10 8 8 9 3 10 11 11
REMARK H PARENT 11 12
REMARK Flexibility Score: inf
ROOT
ATOM      1  C   UNL     1     139.502 137.347 131.814  1.00  0.00     0.014 C 
ATOM      2  C   UNL     1     139.640 137.652 130.301  1.00  0.00    -0.006 C 
ATOM      3  C   UNL     1     140.619 138.856 130.082  1.00  0.00    -0.002 C 
ATOM      4  C   UNL     1     140.984 139.017 128.592  1.00  0.00     0.005 C 
ATOM      5  C   UNL     1     139.657 139.469 127.962  1.00  0.00     0.010 C 
ATOM      6  C   UNL     1     138.730 139.618 129.192  1.00  0.00    -0.006 C 
ATOM      7  C   UNL     1     139.709 140.059 130.258  1.00  0.00     0.013 C 
ATOM      8  C   UNL     1     138.304 138.221 129.719  1.00  0.00     0.126 C 
ATOM      9  C   UNL     1     137.566 140.591 128.979  1.00  0.00     0.014 C 
ATOM     10  C   UNL     1     140.110 136.344 129.611  1.00  0.00     0.014 C 
ENDROOT
BRANCH   8  11
ATOM     11  O   UNL     1     137.764 137.415 128.701  1.00  0.00    -0.392 OA
ATOM     12  H   UNL     1     138.342 137.537 127.904  1.00  0.00     0.211 HD
ENDBRANCH   8  11
TORSDOF 1
ENDMDL
MODEL 8
REMARK VINA RESULT:    -3.724      3.835      5.153
REMARK INTER + INTRA:          -3.833
REMARK INTER:                  -3.833
REMARK INTRA:                   0.000
REMARK UNBOUND:                 0.000
REMARK SMILES CC1(C)[C@H]2CC[C@](C)(C2)[C@H]1O
REMARK SMILES IDX 1 1 2 2 4 3 5 4 6 5 7 6 9 7 10 8 8 9 3 10 11 11
REMARK H PARENT 11 12
REMARK Flexibility Score: inf
ROOT
ATOM      1  C   UNL     1     137.605 139.535 131.875  1.00  0.00     0.014 C 
ATOM      2  C   UNL     1     137.386 139.673 130.348  1.00  0.00    -0.006 C 
ATOM      3  C   UNL     1     136.155 140.601 130.062  1.00  0.00    -0.002 C 
ATOM      4  C   UNL     1     136.069 140.972 128.567  1.00  0.00     0.005 C 
ATOM      5  C   UNL     1     135.714 139.632 127.903  1.00  0.00     0.010 C 
ATOM      6  C   UNL     1     135.532 138.688 129.116  1.00  0.00    -0.006 C 
ATOM      7  C   UNL     1     134.985 139.638 130.159  1.00  0.00     0.013 C 
ATOM      8  C   UNL     1     136.912 138.318 129.724  1.00  0.00     0.126 C 
ATOM      9  C   UNL     1     134.626 137.485 128.837  1.00  0.00     0.014 C 
ATOM     10  C   UNL     1     138.711 140.205 129.741  1.00  0.00     0.014 C 
ENDROOT
BRANCH   8  11
ATOM     11  O   UNL     1     137.801 137.823 128.753  1.00  0.00    -0.392 OA
ATOM     12  H   UNL     1     137.859 138.512 128.041  1.00  0.00     0.211 HD
ENDBRANCH   8  11
TORSDOF 1
ENDMDL
MODEL 9
REMARK VINA RESULT:    -2.376      3.255      4.191
REMARK INTER + INTRA:          -2.446
REMARK INTER:                  -2.446
REMARK INTRA:                   0.000
REMARK UNBOUND:                 0.000
REMARK SMILES CC1(C)[C@H]2CC[C@](C)(C2)[C@H]1O
REMARK SMILES IDX 1 1 2 2 4 3 5 4 6 5 7 6 9 7 10 8 8 9 3 10 11 11
REMARK H PARENT 11 12
REMARK Flexibility Score: inf
ROOT
ATOM      1  C   UNL     1     137.100 141.000 129.331  1.00  0.00     0.014 C 
ATOM      2  C   UNL     1     138.260 139.973 129.337  1.00  0.00    -0.006 C 
ATOM      3  C   UNL     1     137.940 138.806 130.334  1.00  0.00    -0.002 C 
ATOM      4  C   UNL     1     138.939 137.642 130.172  1.00  0.00     0.005 C 
ATOM      5  C   UNL     1     140.255 138.247 130.686  1.00  0.00     0.010 C 
ATOM      6  C   UNL     1     139.815 139.646 131.181  1.00  0.00    -0.006 C 
ATOM      7  C   UNL     1     138.408 139.368 131.665  1.00  0.00     0.013 C 
ATOM      8  C   UNL     1     139.550 140.587 129.975  1.00  0.00     0.126 C 
ATOM      9  C   UNL     1     140.733 140.242 132.253  1.00  0.00     0.014 C 
ATOM     10  C   UNL     1     138.457 139.496 127.875  1.00  0.00     0.014 C 
ENDROOT
BRANCH   8  11
ATOM     11  O   UNL     1     140.637 140.621 129.083  1.00  0.00    -0.392 OA
ATOM     12  H   UNL     1     140.560 139.816 128.508  1.00  0.00     0.211 HD
ENDBRANCH   8  11
TORSDOF 1
ENDMDL
