MODEL 1
REMARK VINA RESULT:    -5.713      0.000      0.000
REMARK INTER + INTRA:          -6.858
REMARK INTER:                  -6.882
REMARK INTRA:                   0.024
REMARK UNBOUND:                 0.024
REMARK SMILES O=c1c(O)c(-c2ccc(O)c(O)c2)oc2cc(O)cc(O)c12
REMARK SMILES IDX 5 1 3 2 2 3 1 4 22 5 20 6 19 7 17 8 16 9 15 10 14 11 6 12
REMARK SMILES IDX 7 13 8 14 9 15 13 16 11 17 10 18 12 20 4 22 21 24 18 26
REMARK H PARENT 10 19 12 21 4 23 21 25 18 27
REMARK Flexibility Score: inf
ROOT
ATOM      1  C   UNL     1     -57.778  17.658 -17.676  1.00  0.00     0.180 A 
ATOM      2  C   UNL     1     -57.804  18.896 -17.009  1.00  0.00     0.208 A 
ATOM      3  C   UNL     1     -56.617  19.392 -16.447  1.00  0.00     0.238 A 
ATOM      4  O   UNL     1     -56.634  20.524 -15.899  1.00  0.00    -0.285 OA
ATOM      5  C   UNL     1     -55.423  18.636 -16.544  1.00  0.00     0.111 A 
ATOM      6  C   UNL     1     -54.171  19.025 -15.977  1.00  0.00     0.134 A 
ATOM      7  C   UNL     1     -53.026  18.265 -16.247  1.00  0.00     0.093 A 
ATOM      8  C   UNL     1     -53.101  17.097 -17.010  1.00  0.00     0.123 A 
ATOM      9  C   UNL     1     -54.328  16.679 -17.518  1.00  0.00     0.094 A 
ATOM     10  C   UNL     1     -55.481  17.435 -17.296  1.00  0.00     0.146 A 
ATOM     11  O   UNL     1     -56.630  17.006 -17.807  1.00  0.00    -0.452 OA
ENDROOT
BRANCH   1  12
ATOM     12  C   UNL     1     -58.994  17.059 -18.272  1.00  0.00     0.025 A 
ATOM     13  C   UNL     1     -58.926  16.487 -19.553  1.00  0.00     0.016 A 
ATOM     14  C   UNL     1     -60.055  15.898 -20.125  1.00  0.00     0.051 A 
ATOM     15  C   UNL     1     -61.264  15.856 -19.424  1.00  0.00     0.157 A 
ATOM     16  C   UNL     1     -60.205  16.997 -17.560  1.00  0.00     0.062 A 
ATOM     17  C   UNL     1     -61.339  16.405 -18.133  1.00  0.00     0.158 A 
BRANCH  15  18
ATOM     18  O   UNL     1     -62.376  15.263 -20.022  1.00  0.00    -0.504 OA
ATOM     19  H   UNL     1     -63.207  15.025 -19.496  1.00  0.00     0.293 HD
ENDBRANCH  15  18
BRANCH  17  20
ATOM     20  O   UNL     1     -62.538  16.353 -17.422  1.00  0.00    -0.504 OA
ATOM     21  H   UNL     1     -63.241  15.649 -17.615  1.00  0.00     0.293 HD
ENDBRANCH  17  20
ENDBRANCH   1  12
BRANCH   2  22
ATOM     22  O   UNL     1     -58.989  19.634 -16.944  1.00  0.00    -0.502 OA
ATOM     23  H   UNL     1     -59.733  19.530 -17.623  1.00  0.00     0.293 HD
ENDBRANCH   2  22
BRANCH   6  24
ATOM     24  O   UNL     1     -54.007  20.121 -15.126  1.00  0.00    -0.507 OA
ATOM     25  H   UNL     1     -54.580  20.951 -15.141  1.00  0.00     0.293 HD
ENDBRANCH   6  24
BRANCH   8  26
ATOM     26  O   UNL     1     -51.959  16.338 -17.261  1.00  0.00    -0.508 OA
ATOM     27  H   UNL     1     -51.367  16.007 -16.508  1.00  0.00     0.293 HD
ENDBRANCH   8  26
TORSDOF 6
ENDMDL
MODEL 2
REMARK VINA RESULT:    -5.496      1.457      3.008
REMARK INTER + INTRA:          -6.596
REMARK INTER:                  -6.335
REMARK INTRA:                  -0.261
REMARK UNBOUND:                 0.024
REMARK SMILES O=c1c(O)c(-c2ccc(O)c(O)c2)oc2cc(O)cc(O)c12
REMARK SMILES IDX 5 1 3 2 2 3 1 4 22 5 20 6 19 7 17 8 16 9 15 10 14 11 6 12
REMARK SMILES IDX 7 13 8 14 9 15 13 16 11 17 10 18 12 20 4 22 21 24 18 26
REMARK H PARENT 10 19 12 21 4 23 21 25 18 27
REMARK Flexibility Score: inf
ROOT
ATOM      1  C   UNL     1     -57.494  18.051 -17.457  1.00  0.00     0.180 A 
ATOM      2  C   UNL     1     -56.362  17.224 -17.559  1.00  0.00     0.208 A 
ATOM      3  C   UNL     1     -55.167  17.626 -16.942  1.00  0.00     0.238 A 
ATOM      4  O   UNL     1     -54.172  16.857 -16.990  1.00  0.00    -0.285 OA
ATOM      5  C   UNL     1     -55.115  18.858 -16.245  1.00  0.00     0.111 A 
ATOM      6  C   UNL     1     -53.945  19.383 -15.615  1.00  0.00     0.134 A 
ATOM      7  C   UNL     1     -54.041  20.547 -14.842  1.00  0.00     0.093 A 
ATOM      8  C   UNL     1     -55.250  21.238 -14.730  1.00  0.00     0.123 A 
ATOM      9  C   UNL     1     -56.382  20.766 -15.389  1.00  0.00     0.094 A 
ATOM     10  C   UNL     1     -56.326  19.588 -16.138  1.00  0.00     0.146 A 
ATOM     11  O   UNL     1     -57.431  19.166 -16.741  1.00  0.00    -0.452 OA
ENDROOT
BRANCH   1  12
ATOM     12  C   UNL     1     -58.782  17.706 -18.101  1.00  0.00     0.025 A 
ATOM     13  C   UNL     1     -58.914  17.830 -19.494  1.00  0.00     0.016 A 
ATOM     14  C   UNL     1     -60.113  17.490 -20.124  1.00  0.00     0.051 A 
ATOM     15  C   UNL     1     -61.193  17.007 -19.378  1.00  0.00     0.157 A 
ATOM     16  C   UNL     1     -59.861  17.200 -17.355  1.00  0.00     0.062 A 
ATOM     17  C   UNL     1     -61.066  16.857 -17.987  1.00  0.00     0.158 A 
BRANCH  15  18
ATOM     18  O   UNL     1     -62.378  16.678 -20.034  1.00  0.00    -0.504 OA
ATOM     19  H   UNL     1     -63.287  16.881 -19.638  1.00  0.00     0.293 HD
ENDBRANCH  15  18
BRANCH  17  20
ATOM     20  O   UNL     1     -62.133  16.361 -17.239  1.00  0.00    -0.504 OA
ATOM     21  H   UNL     1     -61.987  15.877 -16.360  1.00  0.00     0.293 HD
ENDBRANCH  17  20
ENDBRANCH   1  12
BRANCH   2  22
ATOM     22  O   UNL     1     -56.442  16.002 -18.234  1.00  0.00    -0.502 OA
ATOM     23  H   UNL     1     -55.733  15.696 -18.889  1.00  0.00     0.293 HD
ENDBRANCH   2  22
BRANCH   6  24
ATOM     24  O   UNL     1     -52.672  18.820 -15.740  1.00  0.00    -0.507 OA
ATOM     25  H   UNL     1     -51.969  18.823 -15.017  1.00  0.00     0.293 HD
ENDBRANCH   6  24
BRANCH   8  26
ATOM     26  O   UNL     1     -55.333  22.405 -13.971  1.00  0.00    -0.508 OA
ATOM     27  H   UNL     1     -54.618  23.121 -14.021  1.00  0.00     0.293 HD
ENDBRANCH   8  26
TORSDOF 6
ENDMDL
MODEL 3
REMARK VINA RESULT:    -5.370      8.165      9.827
REMARK INTER + INTRA:          -6.445
REMARK INTER:                  -6.205
REMARK INTRA:                  -0.240
REMARK UNBOUND:                 0.024
REMARK SMILES O=c1c(O)c(-c2ccc(O)c(O)c2)oc2cc(O)cc(O)c12
REMARK SMILES IDX 5 1 3 2 2 3 1 4 22 5 20 6 19 7 17 8 16 9 15 10 14 11 6 12
REMARK SMILES IDX 7 13 8 14 9 15 13 16 11 17 10 18 12 20 4 22 21 24 18 26
REMARK H PARENT 10 19 12 21 4 23 21 25 18 27
REMARK Flexibility Score: inf
ROOT
ATOM      1  C   UNL     1     -58.154  24.727 -12.761  1.00  0.00     0.180 A 
ATOM      2  C   UNL     1     -58.822  25.498 -11.794  1.00  0.00     0.208 A 
ATOM      3  C   UNL     1     -59.330  24.865 -10.649  1.00  0.00     0.238 A 
ATOM      4  O   UNL     1     -59.879  25.568  -9.762  1.00  0.00    -0.285 OA
ATOM      5  C   UNL     1     -59.178  23.465 -10.493  1.00  0.00     0.111 A 
ATOM      6  C   UNL     1     -59.689  22.713  -9.392  1.00  0.00     0.134 A 
ATOM      7  C   UNL     1     -59.366  21.355  -9.275  1.00  0.00     0.093 A 
ATOM      8  C   UNL     1     -58.607  20.709 -10.253  1.00  0.00     0.123 A 
ATOM      9  C   UNL     1     -58.155  21.421 -11.361  1.00  0.00     0.094 A 
ATOM     10  C   UNL     1     -58.429  22.784 -11.487  1.00  0.00     0.146 A 
ATOM     11  O   UNL     1     -57.970  23.428 -12.554  1.00  0.00    -0.452 OA
ENDROOT
BRANCH   1  12
ATOM     12  C   UNL     1     -57.613  25.319 -14.006  1.00  0.00     0.025 A 
ATOM     13  C   UNL     1     -56.224  25.357 -14.206  1.00  0.00     0.016 A 
ATOM     14  C   UNL     1     -55.693  25.892 -15.382  1.00  0.00     0.051 A 
ATOM     15  C   UNL     1     -56.539  26.383 -16.381  1.00  0.00     0.157 A 
ATOM     16  C   UNL     1     -58.463  25.794 -15.020  1.00  0.00     0.062 A 
ATOM     17  C   UNL     1     -57.931  26.331 -16.202  1.00  0.00     0.158 A 
BRANCH  15  18
ATOM     18  O   UNL     1     -55.980  26.914 -17.544  1.00  0.00    -0.504 OA
ATOM     19  H   UNL     1     -56.545  27.352 -18.260  1.00  0.00     0.293 HD
ENDBRANCH  15  18
BRANCH  17  20
ATOM     20  O   UNL     1     -58.781  26.805 -17.201  1.00  0.00    -0.504 OA
ATOM     21  H   UNL     1     -59.702  27.171 -16.986  1.00  0.00     0.293 HD
ENDBRANCH  17  20
ENDBRANCH   1  12
BRANCH   2  22
ATOM     22  O   UNL     1     -58.942  26.881 -11.958  1.00  0.00    -0.502 OA
ATOM     23  H   UNL     1     -59.655  27.425 -11.488  1.00  0.00     0.293 HD
ENDBRANCH   2  22
BRANCH   6  24
ATOM     24  O   UNL     1     -60.532  23.241  -8.410  1.00  0.00    -0.507 OA
ATOM     25  H   UNL     1     -60.879  24.188  -8.400  1.00  0.00     0.293 HD
ENDBRANCH   6  24
BRANCH   8  26
ATOM     26  O   UNL     1     -58.304  19.353 -10.136  1.00  0.00    -0.508 OA
ATOM     27  H   UNL     1     -58.371  18.870  -9.248  1.00  0.00     0.293 HD
ENDBRANCH   8  26
TORSDOF 6
ENDMDL
MODEL 4
REMARK VINA RESULT:    -5.251      5.935      9.346
REMARK INTER + INTRA:          -6.302
REMARK INTER:                  -5.995
REMARK INTRA:                  -0.307
REMARK UNBOUND:                 0.024
REMARK SMILES O=c1c(O)c(-c2ccc(O)c(O)c2)oc2cc(O)cc(O)c12
REMARK SMILES IDX 5 1 3 2 2 3 1 4 22 5 20 6 19 7 17 8 16 9 15 10 14 11 6 12
REMARK SMILES IDX 7 13 8 14 9 15 13 16 11 17 10 18 12 20 4 22 21 24 18 26
REMARK H PARENT 10 19 12 21 4 23 21 25 18 27
REMARK Flexibility Score: inf
ROOT
ATOM      1  C   UNL     1     -56.569  23.985 -14.360  1.00  0.00     0.180 A 
ATOM      2  C   UNL     1     -57.419  24.159 -13.254  1.00  0.00     0.208 A 
ATOM      3  C   UNL     1     -58.348  25.211 -13.267  1.00  0.00     0.238 A 
ATOM      4  O   UNL     1     -59.143  25.329 -12.299  1.00  0.00    -0.285 OA
ATOM      5  C   UNL     1     -58.404  26.086 -14.379  1.00  0.00     0.111 A 
ATOM      6  C   UNL     1     -59.280  27.209 -14.482  1.00  0.00     0.134 A 
ATOM      7  C   UNL     1     -59.342  27.928 -15.683  1.00  0.00     0.093 A 
ATOM      8  C   UNL     1     -58.515  27.603 -16.760  1.00  0.00     0.123 A 
ATOM      9  C   UNL     1     -57.615  26.546 -16.648  1.00  0.00     0.094 A 
ATOM     10  C   UNL     1     -57.556  25.788 -15.476  1.00  0.00     0.146 A 
ATOM     11  O   UNL     1     -56.692  24.781 -15.415  1.00  0.00    -0.452 OA
ENDROOT
BRANCH   1  12
ATOM     12  C   UNL     1     -55.548  22.914 -14.408  1.00  0.00     0.025 A 
ATOM     13  C   UNL     1     -54.232  23.193 -14.005  1.00  0.00     0.016 A 
ATOM     14  C   UNL     1     -53.259  22.192 -14.023  1.00  0.00     0.051 A 
ATOM     15  C   UNL     1     -53.585  20.895 -14.428  1.00  0.00     0.157 A 
ATOM     16  C   UNL     1     -55.880  21.603 -14.795  1.00  0.00     0.062 A 
ATOM     17  C   UNL     1     -54.903  20.596 -14.812  1.00  0.00     0.158 A 
BRANCH  15  18
ATOM     18  O   UNL     1     -52.592  19.916 -14.437  1.00  0.00    -0.504 OA
ATOM     19  H   UNL     1     -52.573  19.162 -13.763  1.00  0.00     0.293 HD
ENDBRANCH  15  18
BRANCH  17  20
ATOM     20  O   UNL     1     -55.240  19.300 -15.203  1.00  0.00    -0.504 OA
ATOM     21  H   UNL     1     -54.549  18.559 -15.238  1.00  0.00     0.293 HD
ENDBRANCH  17  20
ENDBRANCH   1  12
BRANCH   2  22
ATOM     22  O   UNL     1     -57.361  23.270 -12.176  1.00  0.00    -0.502 OA
ATOM     23  H   UNL     1     -57.995  23.329 -11.388  1.00  0.00     0.293 HD
ENDBRANCH   2  22
BRANCH   6  24
ATOM     24  O   UNL     1     -60.080  27.674 -13.434  1.00  0.00    -0.507 OA
ATOM     25  H   UNL     1     -60.503  27.087 -12.731  1.00  0.00     0.293 HD
ENDBRANCH   6  24
BRANCH   8  26
ATOM     26  O   UNL     1     -58.572  28.333 -17.946  1.00  0.00    -0.508 OA
ATOM     27  H   UNL     1     -57.750  28.477 -18.520  1.00  0.00     0.293 HD
ENDBRANCH   8  26
TORSDOF 6
ENDMDL
MODEL 5
REMARK VINA RESULT:    -5.177      8.000     10.196
REMARK INTER + INTRA:          -6.212
REMARK INTER:                  -6.446
REMARK INTRA:                   0.234
REMARK UNBOUND:                 0.024
REMARK SMILES O=c1c(O)c(-c2ccc(O)c(O)c2)oc2cc(O)cc(O)c12
REMARK SMILES IDX 5 1 3 2 2 3 1 4 22 5 20 6 19 7 17 8 16 9 15 10 14 11 6 12
REMARK SMILES IDX 7 13 8 14 9 15 13 16 11 17 10 18 12 20 4 22 21 24 18 26
REMARK H PARENT 10 19 12 21 4 23 21 25 18 27
REMARK Flexibility Score: inf
ROOT
ATOM      1  C   UNL     1     -58.151  24.860 -13.361  1.00  0.00     0.180 A 
ATOM      2  C   UNL     1     -57.395  23.675 -13.371  1.00  0.00     0.208 A 
ATOM      3  C   UNL     1     -57.377  22.868 -12.222  1.00  0.00     0.238 A 
ATOM      4  O   UNL     1     -56.743  21.782 -12.255  1.00  0.00    -0.285 OA
ATOM      5  C   UNL     1     -58.102  23.265 -11.072  1.00  0.00     0.111 A 
ATOM      6  C   UNL     1     -58.123  22.545  -9.839  1.00  0.00     0.134 A 
ATOM      7  C   UNL     1     -58.979  22.960  -8.811  1.00  0.00     0.093 A 
ATOM      8  C   UNL     1     -59.765  24.107  -8.948  1.00  0.00     0.123 A 
ATOM      9  C   UNL     1     -59.706  24.849 -10.125  1.00  0.00     0.094 A 
ATOM     10  C   UNL     1     -58.890  24.440 -11.181  1.00  0.00     0.146 A 
ATOM     11  O   UNL     1     -58.872  25.171 -12.290  1.00  0.00    -0.452 OA
ENDROOT
BRANCH   1  12
ATOM     12  C   UNL     1     -58.199  25.774 -14.524  1.00  0.00     0.025 A 
ATOM     13  C   UNL     1     -59.337  26.570 -14.732  1.00  0.00     0.016 A 
ATOM     14  C   UNL     1     -59.394  27.455 -15.811  1.00  0.00     0.051 A 
ATOM     15  C   UNL     1     -58.314  27.569 -16.691  1.00  0.00     0.157 A 
ATOM     16  C   UNL     1     -57.104  25.906 -15.397  1.00  0.00     0.062 A 
ATOM     17  C   UNL     1     -57.160  26.794 -16.481  1.00  0.00     0.158 A 
BRANCH  15  18
ATOM     18  O   UNL     1     -58.400  28.459 -17.761  1.00  0.00    -0.504 OA
ATOM     19  H   UNL     1     -58.331  29.460 -17.635  1.00  0.00     0.293 HD
ENDBRANCH  15  18
BRANCH  17  20
ATOM     20  O   UNL     1     -56.073  26.914 -17.346  1.00  0.00    -0.504 OA
ATOM     21  H   UNL     1     -55.753  27.818 -17.675  1.00  0.00     0.293 HD
ENDBRANCH  17  20
ENDBRANCH   1  12
BRANCH   2  22
ATOM     22  O   UNL     1     -56.704  23.292 -14.524  1.00  0.00    -0.502 OA
ATOM     23  H   UNL     1     -55.694  23.312 -14.584  1.00  0.00     0.293 HD
ENDBRANCH   2  22
BRANCH   6  24
ATOM     24  O   UNL     1     -57.309  21.441  -9.566  1.00  0.00    -0.507 OA
ATOM     25  H   UNL     1     -57.605  20.621  -9.059  1.00  0.00     0.293 HD
ENDBRANCH   6  24
BRANCH   8  26
ATOM     26  O   UNL     1     -60.602  24.522  -7.914  1.00  0.00    -0.508 OA
ATOM     27  H   UNL     1     -61.411  25.106  -8.090  1.00  0.00     0.293 HD
ENDBRANCH   8  26
TORSDOF 6
ENDMDL
MODEL 6
REMARK VINA RESULT:    -5.134      7.577      9.025
REMARK INTER + INTRA:          -6.161
REMARK INTER:                  -5.947
REMARK INTRA:                  -0.214
REMARK UNBOUND:                 0.024
REMARK SMILES O=c1c(O)c(-c2ccc(O)c(O)c2)oc2cc(O)cc(O)c12
REMARK SMILES IDX 5 1 3 2 2 3 1 4 22 5 20 6 19 7 17 8 16 9 15 10 14 11 6 12
REMARK SMILES IDX 7 13 8 14 9 15 13 16 11 17 10 18 12 20 4 22 21 24 18 26
REMARK H PARENT 10 19 12 21 4 23 21 25 18 27
REMARK Flexibility Score: inf
ROOT
ATOM      1  C   UNL     1     -53.538  14.071 -11.900  1.00  0.00     0.180 A 
ATOM      2  C   UNL     1     -53.921  12.955 -12.665  1.00  0.00     0.208 A 
ATOM      3  C   UNL     1     -52.962  12.314 -13.464  1.00  0.00     0.238 A 
ATOM      4  O   UNL     1     -53.297  11.285 -14.104  1.00  0.00    -0.285 OA
ATOM      5  C   UNL     1     -51.634  12.806 -13.500  1.00  0.00     0.111 A 
ATOM      6  C   UNL     1     -50.589  12.258 -14.305  1.00  0.00     0.134 A 
ATOM      7  C   UNL     1     -49.283  12.742 -14.163  1.00  0.00     0.093 A 
ATOM      8  C   UNL     1     -48.996  13.797 -13.293  1.00  0.00     0.123 A 
ATOM      9  C   UNL     1     -50.020  14.377 -12.548  1.00  0.00     0.094 A 
ATOM     10  C   UNL     1     -51.326  13.892 -12.641  1.00  0.00     0.146 A 
ATOM     11  O   UNL     1     -52.271  14.467 -11.904  1.00  0.00    -0.452 OA
ENDROOT
BRANCH   1  12
ATOM     12  C   UNL     1     -54.498  14.813 -11.053  1.00  0.00     0.025 A 
ATOM     13  C   UNL     1     -55.513  15.571 -11.659  1.00  0.00     0.016 A 
ATOM     14  C   UNL     1     -56.442  16.262 -10.878  1.00  0.00     0.051 A 
ATOM     15  C   UNL     1     -56.383  16.196  -9.483  1.00  0.00     0.157 A 
ATOM     16  C   UNL     1     -54.453  14.730  -9.649  1.00  0.00     0.062 A 
ATOM     17  C   UNL     1     -55.387  15.423  -8.864  1.00  0.00     0.158 A 
BRANCH  15  18
ATOM     18  O   UNL     1     -57.323  16.898  -8.729  1.00  0.00    -0.504 OA
ATOM     19  H   UNL     1     -58.307  16.906  -8.968  1.00  0.00     0.293 HD
ENDBRANCH  15  18
BRANCH  17  20
ATOM     20  O   UNL     1     -55.331  15.340  -7.473  1.00  0.00    -0.504 OA
ATOM     21  H   UNL     1     -55.940  15.895  -6.883  1.00  0.00     0.293 HD
ENDBRANCH  17  20
ENDBRANCH   1  12
BRANCH   2  22
ATOM     22  O   UNL     1     -55.232  12.474 -12.597  1.00  0.00    -0.502 OA
ATOM     23  H   UNL     1     -56.028  13.083 -12.452  1.00  0.00     0.293 HD
ENDBRANCH   2  22
BRANCH   6  24
ATOM     24  O   UNL     1     -50.786  11.267 -15.270  1.00  0.00    -0.507 OA
ATOM     25  H   UNL     1     -51.687  10.953 -15.596  1.00  0.00     0.293 HD
ENDBRANCH   6  24
BRANCH   8  26
ATOM     26  O   UNL     1     -47.696  14.283 -13.170  1.00  0.00    -0.508 OA
ATOM     27  H   UNL     1     -47.035  14.227 -13.935  1.00  0.00     0.293 HD
ENDBRANCH   8  26
TORSDOF 6
ENDMDL
MODEL 7
REMARK VINA RESULT:    -5.131      9.440     11.201
REMARK INTER + INTRA:          -6.157
REMARK INTER:                  -6.603
REMARK INTRA:                   0.446
REMARK UNBOUND:                 0.024
REMARK SMILES O=c1c(O)c(-c2ccc(O)c(O)c2)oc2cc(O)cc(O)c12
REMARK SMILES IDX 5 1 3 2 2 3 1 4 22 5 20 6 19 7 17 8 16 9 15 10 14 11 6 12
REMARK SMILES IDX 7 13 8 14 9 15 13 16 11 17 10 18 12 20 4 22 21 24 18 26
REMARK H PARENT 10 19 12 21 4 23 21 25 18 27
REMARK Flexibility Score: inf
ROOT
ATOM      1  C   UNL     1     -59.461  26.204 -13.293  1.00  0.00     0.180 A 
ATOM      2  C   UNL     1     -60.647  26.937 -13.115  1.00  0.00     0.208 A 
ATOM      3  C   UNL     1     -61.455  26.667 -11.999  1.00  0.00     0.238 A 
ATOM      4  O   UNL     1     -62.487  27.362 -11.817  1.00  0.00    -0.285 OA
ATOM      5  C   UNL     1     -61.073  25.657 -11.082  1.00  0.00     0.111 A 
ATOM      6  C   UNL     1     -61.836  25.273  -9.938  1.00  0.00     0.134 A 
ATOM      7  C   UNL     1     -61.299  24.354  -9.028  1.00  0.00     0.093 A 
ATOM      8  C   UNL     1     -60.056  23.757  -9.256  1.00  0.00     0.123 A 
ATOM      9  C   UNL     1     -59.332  24.081 -10.400  1.00  0.00     0.094 A 
ATOM     10  C   UNL     1     -59.825  25.022 -11.307  1.00  0.00     0.146 A 
ATOM     11  O   UNL     1     -59.097  25.311 -12.380  1.00  0.00    -0.452 OA
ENDROOT
BRANCH   1  12
ATOM     12  C   UNL     1     -58.571  26.415 -14.457  1.00  0.00     0.025 A 
ATOM     13  C   UNL     1     -57.332  25.756 -14.509  1.00  0.00     0.016 A 
ATOM     14  C   UNL     1     -56.487  25.924 -15.608  1.00  0.00     0.051 A 
ATOM     15  C   UNL     1     -56.870  26.738 -16.678  1.00  0.00     0.157 A 
ATOM     16  C   UNL     1     -58.964  27.216 -15.544  1.00  0.00     0.062 A 
ATOM     17  C   UNL     1     -58.117  27.385 -16.648  1.00  0.00     0.158 A 
BRANCH  15  18
ATOM     18  O   UNL     1     -56.005  26.888 -17.761  1.00  0.00    -0.504 OA
ATOM     19  H   UNL     1     -56.340  27.104 -18.691  1.00  0.00     0.293 HD
ENDBRANCH  15  18
BRANCH  17  20
ATOM     20  O   UNL     1     -58.513  28.187 -17.719  1.00  0.00    -0.504 OA
ATOM     21  H   UNL     1     -58.579  29.195 -17.632  1.00  0.00     0.293 HD
ENDBRANCH  17  20
ENDBRANCH   1  12
BRANCH   2  22
ATOM     22  O   UNL     1     -60.994  27.944 -14.022  1.00  0.00    -0.502 OA
ATOM     23  H   UNL     1     -61.639  28.687 -13.787  1.00  0.00     0.293 HD
ENDBRANCH   2  22
BRANCH   6  24
ATOM     24  O   UNL     1     -63.125  25.740  -9.666  1.00  0.00    -0.507 OA
ATOM     25  H   UNL     1     -63.534  26.567 -10.073  1.00  0.00     0.293 HD
ENDBRANCH   6  24
BRANCH   8  26
ATOM     26  O   UNL     1     -59.537  22.831  -8.353  1.00  0.00    -0.508 OA
ATOM     27  H   UNL     1     -59.693  21.836  -8.465  1.00  0.00     0.293 HD
ENDBRANCH   8  26
TORSDOF 6
ENDMDL
MODEL 8
REMARK VINA RESULT:    -5.080      8.316     10.087
REMARK INTER + INTRA:          -6.095
REMARK INTER:                  -5.782
REMARK INTRA:                  -0.314
REMARK UNBOUND:                 0.024
REMARK SMILES O=c1c(O)c(-c2ccc(O)c(O)c2)oc2cc(O)cc(O)c12
REMARK SMILES IDX 5 1 3 2 2 3 1 4 22 5 20 6 19 7 17 8 16 9 15 10 14 11 6 12
REMARK SMILES IDX 7 13 8 14 9 15 13 16 11 17 10 18 12 20 4 22 21 24 18 26
REMARK H PARENT 10 19 12 21 4 23 21 25 18 27
REMARK Flexibility Score: inf
ROOT
ATOM      1  C   UNL     1     -57.616  25.567 -12.982  1.00  0.00     0.180 A 
ATOM      2  C   UNL     1     -57.003  26.220 -11.898  1.00  0.00     0.208 A 
ATOM      3  C   UNL     1     -56.847  25.529 -10.686  1.00  0.00     0.238 A 
ATOM      4  O   UNL     1     -56.249  26.100  -9.737  1.00  0.00    -0.285 OA
ATOM      5  C   UNL     1     -57.319  24.199 -10.568  1.00  0.00     0.111 A 
ATOM      6  C   UNL     1     -57.249  23.418  -9.375  1.00  0.00     0.134 A 
ATOM      7  C   UNL     1     -57.628  22.070  -9.409  1.00  0.00     0.093 A 
ATOM      8  C   UNL     1     -58.135  21.494 -10.576  1.00  0.00     0.123 A 
ATOM      9  C   UNL     1     -58.263  22.265 -11.729  1.00  0.00     0.094 A 
ATOM     10  C   UNL     1     -57.859  23.602 -11.736  1.00  0.00     0.146 A 
ATOM     11  O   UNL     1     -57.988  24.298 -12.860  1.00  0.00    -0.452 OA
ENDROOT
BRANCH   1  12
ATOM     12  C   UNL     1     -57.838  26.237 -14.283  1.00  0.00     0.025 A 
ATOM     13  C   UNL     1     -59.059  26.887 -14.527  1.00  0.00     0.016 A 
ATOM     14  C   UNL     1     -59.281  27.544 -15.739  1.00  0.00     0.051 A 
ATOM     15  C   UNL     1     -58.285  27.576 -16.720  1.00  0.00     0.157 A 
ATOM     16  C   UNL     1     -56.830  26.289 -15.262  1.00  0.00     0.062 A 
ATOM     17  C   UNL     1     -57.051  26.949 -16.479  1.00  0.00     0.158 A 
BRANCH  15  18
ATOM     18  O   UNL     1     -58.536  28.237 -17.921  1.00  0.00    -0.504 OA
ATOM     19  H   UNL     1     -57.793  28.626 -18.487  1.00  0.00     0.293 HD
ENDBRANCH  15  18
BRANCH  17  20
ATOM     20  O   UNL     1     -56.048  26.990 -17.447  1.00  0.00    -0.504 OA
ATOM     21  H   UNL     1     -56.234  26.760 -18.416  1.00  0.00     0.293 HD
ENDBRANCH  17  20
ENDBRANCH   1  12
BRANCH   2  22
ATOM     22  O   UNL     1     -56.525  27.525 -12.044  1.00  0.00    -0.502 OA
ATOM     23  H   UNL     1     -55.604  27.805 -11.728  1.00  0.00     0.293 HD
ENDBRANCH   2  22
BRANCH   6  24
ATOM     24  O   UNL     1     -56.844  23.921  -8.135  1.00  0.00    -0.507 OA
ATOM     25  H   UNL     1     -55.885  24.072  -7.862  1.00  0.00     0.293 HD
ENDBRANCH   6  24
BRANCH   8  26
ATOM     26  O   UNL     1     -58.525  20.156 -10.597  1.00  0.00    -0.508 OA
ATOM     27  H   UNL     1     -59.393  19.851 -10.172  1.00  0.00     0.293 HD
ENDBRANCH   8  26
TORSDOF 6
ENDMDL
MODEL 9
REMARK VINA RESULT:    -5.061      6.297      9.832
REMARK INTER + INTRA:          -6.073
REMARK INTER:                  -5.738
REMARK INTRA:                  -0.335
REMARK UNBOUND:                 0.024
REMARK SMILES O=c1c(O)c(-c2ccc(O)c(O)c2)oc2cc(O)cc(O)c12
REMARK SMILES IDX 5 1 3 2 2 3 1 4 22 5 20 6 19 7 17 8 16 9 15 10 14 11 6 12
REMARK SMILES IDX 7 13 8 14 9 15 13 16 11 17 10 18 12 20 4 22 21 24 18 26
REMARK H PARENT 10 19 12 21 4 23 21 25 18 27
REMARK Flexibility Score: inf
ROOT
ATOM      1  C   UNL     1     -56.352  24.570 -14.747  1.00  0.00     0.180 A 
ATOM      2  C   UNL     1     -55.869  25.406 -15.769  1.00  0.00     0.208 A 
ATOM      3  C   UNL     1     -56.661  26.483 -16.199  1.00  0.00     0.238 A 
ATOM      4  O   UNL     1     -56.201  27.259 -17.076  1.00  0.00    -0.285 OA
ATOM      5  C   UNL     1     -57.932  26.700 -15.613  1.00  0.00     0.111 A 
ATOM      6  C   UNL     1     -58.834  27.737 -15.999  1.00  0.00     0.134 A 
ATOM      7  C   UNL     1     -60.008  27.940 -15.262  1.00  0.00     0.093 A 
ATOM      8  C   UNL     1     -60.342  27.102 -14.195  1.00  0.00     0.123 A 
ATOM      9  C   UNL     1     -59.496  26.051 -13.849  1.00  0.00     0.094 A 
ATOM     10  C   UNL     1     -58.301  25.847 -14.542  1.00  0.00     0.146 A 
ATOM     11  O   UNL     1     -57.518  24.839 -14.173  1.00  0.00    -0.452 OA
ENDROOT
BRANCH   1  12
ATOM     12  C   UNL     1     -55.586  23.401 -14.258  1.00  0.00     0.025 A 
ATOM     13  C   UNL     1     -54.750  23.540 -13.139  1.00  0.00     0.016 A 
ATOM     14  C   UNL     1     -54.036  22.445 -12.649  1.00  0.00     0.051 A 
ATOM     15  C   UNL     1     -54.154  21.192 -13.257  1.00  0.00     0.157 A 
ATOM     16  C   UNL     1     -55.721  22.135 -14.856  1.00  0.00     0.062 A 
ATOM     17  C   UNL     1     -55.005  21.034 -14.364  1.00  0.00     0.158 A 
BRANCH  15  18
ATOM     18  O   UNL     1     -53.427  20.118 -12.746  1.00  0.00    -0.504 OA
ATOM     19  H   UNL     1     -53.875  19.267 -12.430  1.00  0.00     0.293 HD
ENDBRANCH  15  18
BRANCH  17  20
ATOM     20  O   UNL     1     -55.140  19.784 -14.966  1.00  0.00    -0.504 OA
ATOM     21  H   UNL     1     -54.484  19.032 -14.785  1.00  0.00     0.293 HD
ENDBRANCH  17  20
ENDBRANCH   1  12
BRANCH   2  22
ATOM     22  O   UNL     1     -54.603  25.185 -16.319  1.00  0.00    -0.502 OA
ATOM     23  H   UNL     1     -54.468  24.687 -17.190  1.00  0.00     0.293 HD
ENDBRANCH   2  22
BRANCH   6  24
ATOM     24  O   UNL     1     -58.640  28.570 -17.105  1.00  0.00    -0.507 OA
ATOM     25  H   UNL     1     -57.748  28.938 -17.397  1.00  0.00     0.293 HD
ENDBRANCH   6  24
BRANCH   8  26
ATOM     26  O   UNL     1     -61.520  27.302 -13.477  1.00  0.00    -0.508 OA
ATOM     27  H   UNL     1     -61.939  28.220 -13.392  1.00  0.00     0.293 HD
ENDBRANCH   8  26
TORSDOF 6
ENDMDL
