MODEL 1
REMARK VINA RESULT:    -2.742      0.000      0.000
REMARK INTER + INTRA:          -8.074
REMARK INTER:                  -5.308
REMARK INTRA:                  -2.767
REMARK UNBOUND:                -2.767
REMARK SMILES CCCCCCCCCCCCCCCCCC(=O)[O-]
REMARK SMILES IDX 10 1 11 2 12 3 13 4 14 5 15 6 16 7 17 8 18 9 19 10 20 11
REMARK SMILES IDX 9 12 8 13 7 14 6 15 5 16 4 17 3 18 2 19 1 20
REMARK H PARENT
REMARK Flexibility Score: inf
ROOT
ATOM      1  C   UNL     1      11.215 -18.965  20.751  1.00  0.00     0.000 C 
ENDROOT
BRANCH   1   2
ATOM      2  C   UNL     1      11.667 -18.934  19.277  1.00  0.00     0.000 C 
BRANCH   2   3
ATOM      3  C   UNL     1      10.584 -19.328  18.253  1.00  0.00     0.000 C 
BRANCH   3   4
ATOM      4  C   UNL     1       9.315 -18.456  18.276  1.00  0.00     0.000 C 
BRANCH   4   5
ATOM      5  C   UNL     1       8.022 -19.286  18.359  1.00  0.00     0.000 C 
BRANCH   5   6
ATOM      6  C   UNL     1       8.130 -20.442  19.367  1.00  0.00     0.000 C 
BRANCH   6   7
ATOM      7  C   UNL     1       7.494 -20.109  20.725  1.00  0.00     0.006 C 
BRANCH   7   8
ATOM      8  C   UNL     1       7.914 -21.124  21.791  1.00  0.00     0.053 C 
BRANCH   8   9
ATOM      9  C   UNL     1       8.211 -20.433  23.085  1.00  0.00     0.041 C 
ATOM     10  O   UNL     1       8.717 -19.281  23.086  1.00  0.00    -0.550 OA
ATOM     11  O   UNL     1       7.878 -21.041  24.288  1.00  0.00    -0.550 OA
ENDBRANCH   8   9
ENDBRANCH   7   8
ENDBRANCH   6   7
ENDBRANCH   5   6
ENDBRANCH   4   5
ENDBRANCH   3   4
ENDBRANCH   2   3
ENDBRANCH   1   2
BRANCH   1  12
ATOM     12  C   UNL     1      12.358 -19.013  21.785  1.00  0.00     0.000 C 
BRANCH  12  13
ATOM     13  C   UNL     1      13.573 -18.126  21.458  1.00  0.00    -0.000 C 
BRANCH  13  14
ATOM     14  C   UNL     1      13.400 -16.676  21.942  1.00  0.00    -0.000 C 
BRANCH  14  15
ATOM     15  C   UNL     1      13.827 -15.647  20.882  1.00  0.00    -0.000 C 
BRANCH  15  16
ATOM     16  C   UNL     1      12.807 -15.516  19.737  1.00  0.00    -0.000 C 
BRANCH  16  17
ATOM     17  C   UNL     1      11.601 -14.643  20.119  1.00  0.00    -0.000 C 
BRANCH  17  18
ATOM     18  C   UNL     1      10.265 -15.384  19.970  1.00  0.00    -0.000 C 
BRANCH  18  19
ATOM     19  C   UNL     1       9.717 -15.808  21.338  1.00  0.00    -0.003 C 
ATOM     20  C   UNL     1       8.283 -16.315  21.224  1.00  0.00     0.004 C 
ENDBRANCH  18  19
ENDBRANCH  17  18
ENDBRANCH  16  17
ENDBRANCH  15  16
ENDBRANCH  14  15
ENDBRANCH  13  14
ENDBRANCH  12  13
ENDBRANCH   1  12
TORSDOF 16
ENDMDL
MODEL 2
REMARK VINA RESULT:    -2.731      2.881      6.182
REMARK INTER + INTRA:          -8.053
REMARK INTER:                  -5.039
REMARK INTRA:                  -3.013
REMARK UNBOUND:                -2.767
REMARK SMILES CCCCCCCCCCCCCCCCCC(=O)[O-]
REMARK SMILES IDX 10 1 11 2 12 3 13 4 14 5 15 6 16 7 17 8 18 9 19 10 20 11
REMARK SMILES IDX 9 12 8 13 7 14 6 15 5 16 4 17 3 18 2 19 1 20
REMARK H PARENT
REMARK Flexibility Score: inf
ROOT
ATOM      1  C   UNL     1      10.612 -19.283  18.651  1.00  0.00     0.000 C 
ENDROOT
BRANCH   1   2
ATOM      2  C   UNL     1      11.547 -18.359  19.456  1.00  0.00     0.000 C 
BRANCH   2   3
ATOM      3  C   UNL     1      12.102 -18.966  20.759  1.00  0.00     0.000 C 
BRANCH   3   4
ATOM      4  C   UNL     1      12.703 -17.952  21.750  1.00  0.00     0.000 C 
BRANCH   4   5
ATOM      5  C   UNL     1      11.864 -16.668  21.870  1.00  0.00     0.000 C 
BRANCH   5   6
ATOM      6  C   UNL     1      12.715 -15.394  21.742  1.00  0.00     0.000 C 
BRANCH   6   7
ATOM      7  C   UNL     1      13.350 -15.240  20.351  1.00  0.00     0.006 C 
BRANCH   7   8
ATOM      8  C   UNL     1      12.375 -14.576  19.375  1.00  0.00     0.053 C 
BRANCH   8   9
ATOM      9  C   UNL     1      12.042 -13.188  19.828  1.00  0.00     0.041 C 
ATOM     10  O   UNL     1      10.847 -12.867  20.058  1.00  0.00    -0.550 OA
ATOM     11  O   UNL     1      13.058 -12.269  20.051  1.00  0.00    -0.550 OA
ENDBRANCH   8   9
ENDBRANCH   7   8
ENDBRANCH   6   7
ENDBRANCH   5   6
ENDBRANCH   4   5
ENDBRANCH   3   4
ENDBRANCH   2   3
ENDBRANCH   1   2
BRANCH   1  12
ATOM     12  C   UNL     1       9.374 -18.592  18.045  1.00  0.00     0.000 C 
BRANCH  12  13
ATOM     13  C   UNL     1       8.058 -19.381  18.171  1.00  0.00    -0.000 C 
BRANCH  13  14
ATOM     14  C   UNL     1       8.119 -20.476  19.250  1.00  0.00    -0.000 C 
BRANCH  14  15
ATOM     15  C   UNL     1       7.459 -20.041  20.568  1.00  0.00    -0.000 C 
BRANCH  15  16
ATOM     16  C   UNL     1       8.484 -19.773  21.685  1.00  0.00    -0.000 C 
BRANCH  16  17
ATOM     17  C   UNL     1       8.697 -18.272  21.942  1.00  0.00    -0.000 C 
BRANCH  17  18
ATOM     18  C   UNL     1       7.579 -17.406  21.345  1.00  0.00    -0.000 C 
BRANCH  18  19
ATOM     19  C   UNL     1       8.016 -15.940  21.243  1.00  0.00    -0.003 C 
ATOM     20  C   UNL     1       8.875 -15.707  20.004  1.00  0.00     0.004 C 
ENDBRANCH  18  19
ENDBRANCH  17  18
ENDBRANCH  16  17
ENDBRANCH  15  16
ENDBRANCH  14  15
ENDBRANCH  13  14
ENDBRANCH  12  13
ENDBRANCH   1  12
TORSDOF 16
ENDMDL
MODEL 3
REMARK VINA RESULT:    -2.687      1.941      3.238
REMARK INTER + INTRA:          -7.967
REMARK INTER:                  -5.230
REMARK INTRA:                  -2.736
REMARK UNBOUND:                -2.767
REMARK SMILES CCCCCCCCCCCCCCCCCC(=O)[O-]
REMARK SMILES IDX 10 1 11 2 12 3 13 4 14 5 15 6 16 7 17 8 18 9 19 10 20 11
REMARK SMILES IDX 9 12 8 13 7 14 6 15 5 16 4 17 3 18 2 19 1 20
REMARK H PARENT
REMARK Flexibility Score: inf
ROOT
ATOM      1  C   UNL     1      13.668 -17.083  22.898  1.00  0.00     0.000 C 
ENDROOT
BRANCH   1   2
ATOM      2  C   UNL     1      12.649 -18.237  22.976  1.00  0.00     0.000 C 
BRANCH   2   3
ATOM      3  C   UNL     1      12.672 -19.209  21.780  1.00  0.00     0.000 C 
BRANCH   3   4
ATOM      4  C   UNL     1      11.431 -19.157  20.871  1.00  0.00     0.000 C 
BRANCH   4   5
ATOM      5  C   UNL     1      11.784 -18.932  19.391  1.00  0.00     0.000 C 
BRANCH   5   6
ATOM      6  C   UNL     1      10.625 -19.292  18.447  1.00  0.00     0.000 C 
BRANCH   6   7
ATOM      7  C   UNL     1       9.349 -18.488  18.739  1.00  0.00     0.006 C 
BRANCH   7   8
ATOM      8  C   UNL     1       8.112 -19.206  18.193  1.00  0.00     0.053 C 
BRANCH   8   9
ATOM      9  C   UNL     1       6.932 -18.968  19.082  1.00  0.00     0.041 C 
ATOM     10  O   UNL     1       6.945 -19.372  20.274  1.00  0.00    -0.550 OA
ATOM     11  O   UNL     1       5.842 -18.249  18.610  1.00  0.00    -0.550 OA
ENDBRANCH   8   9
ENDBRANCH   7   8
ENDBRANCH   6   7
ENDBRANCH   5   6
ENDBRANCH   4   5
ENDBRANCH   3   4
ENDBRANCH   2   3
ENDBRANCH   1   2
BRANCH   1  12
ATOM     12  C   UNL     1      14.742 -17.231  21.802  1.00  0.00     0.000 C 
BRANCH  12  13
ATOM     13  C   UNL     1      14.912 -16.007  20.884  1.00  0.00    -0.000 C 
BRANCH  13  14
ATOM     14  C   UNL     1      14.257 -14.737  21.454  1.00  0.00    -0.000 C 
BRANCH  14  15
ATOM     15  C   UNL     1      13.145 -14.189  20.544  1.00  0.00    -0.000 C 
BRANCH  15  16
ATOM     16  C   UNL     1      12.520 -15.275  19.650  1.00  0.00    -0.000 C 
BRANCH  16  17
ATOM     17  C   UNL     1      10.990 -15.338  19.781  1.00  0.00    -0.000 C 
BRANCH  17  18
ATOM     18  C   UNL     1      10.497 -14.892  21.166  1.00  0.00    -0.000 C 
BRANCH  18  19
ATOM     19  C   UNL     1       9.925 -16.077  21.952  1.00  0.00    -0.003 C 
ATOM     20  C   UNL     1       8.462 -16.319  21.597  1.00  0.00     0.004 C 
ENDBRANCH  18  19
ENDBRANCH  17  18
ENDBRANCH  16  17
ENDBRANCH  15  16
ENDBRANCH  14  15
ENDBRANCH  13  14
ENDBRANCH  12  13
ENDBRANCH   1  12
TORSDOF 16
ENDMDL
MODEL 4
REMARK VINA RESULT:    -2.665      3.415      6.408
REMARK INTER + INTRA:          -7.924
REMARK INTER:                  -5.596
REMARK INTRA:                  -2.328
REMARK UNBOUND:                -2.767
REMARK SMILES CCCCCCCCCCCCCCCCCC(=O)[O-]
REMARK SMILES IDX 10 1 11 2 12 3 13 4 14 5 15 6 16 7 17 8 18 9 19 10 20 11
REMARK SMILES IDX 9 12 8 13 7 14 6 15 5 16 4 17 3 18 2 19 1 20
REMARK H PARENT
REMARK Flexibility Score: inf
ROOT
ATOM      1  C   UNL     1       7.037 -17.880  19.049  1.00  0.00     0.000 C 
ENDROOT
BRANCH   1   2
ATOM      2  C   UNL     1       7.413 -16.450  18.613  1.00  0.00     0.000 C 
BRANCH   2   3
ATOM      3  C   UNL     1       8.829 -15.995  19.019  1.00  0.00     0.000 C 
BRANCH   3   4
ATOM      4  C   UNL     1       8.895 -15.096  20.267  1.00  0.00     0.000 C 
BRANCH   4   5
ATOM      5  C   UNL     1      10.315 -14.986  20.848  1.00  0.00     0.000 C 
BRANCH   5   6
ATOM      6  C   UNL     1      11.401 -15.352  19.823  1.00  0.00     0.000 C 
BRANCH   6   7
ATOM      7  C   UNL     1      12.407 -14.214  19.590  1.00  0.00     0.006 C 
BRANCH   7   8
ATOM      8  C   UNL     1      13.496 -14.217  20.665  1.00  0.00     0.053 C 
BRANCH   8   9
ATOM      9  C   UNL     1      13.689 -12.840  21.219  1.00  0.00     0.041 C 
ATOM     10  O   UNL     1      14.822 -12.475  21.629  1.00  0.00    -0.550 OA
ATOM     11  O   UNL     1      12.630 -11.942  21.231  1.00  0.00    -0.550 OA
ENDBRANCH   8   9
ENDBRANCH   7   8
ENDBRANCH   6   7
ENDBRANCH   5   6
ENDBRANCH   4   5
ENDBRANCH   3   4
ENDBRANCH   2   3
ENDBRANCH   1   2
BRANCH   1  12
ATOM     12  C   UNL     1       7.671 -19.008  18.210  1.00  0.00     0.000 C 
BRANCH  12  13
ATOM     13  C   UNL     1       8.828 -19.759  18.892  1.00  0.00    -0.000 C 
BRANCH  13  14
ATOM     14  C   UNL     1      10.208 -19.352  18.348  1.00  0.00    -0.000 C 
BRANCH  14  15
ATOM     15  C   UNL     1      11.162 -18.880  19.457  1.00  0.00    -0.000 C 
BRANCH  15  16
ATOM     16  C   UNL     1      10.481 -18.807  20.836  1.00  0.00    -0.000 C 
BRANCH  16  17
ATOM     17  C   UNL     1      11.481 -18.553  21.975  1.00  0.00    -0.000 C 
BRANCH  17  18
ATOM     18  C   UNL     1      12.619 -19.583  22.002  1.00  0.00    -0.000 C 
BRANCH  18  19
ATOM     19  C   UNL     1      13.935 -18.935  22.448  1.00  0.00    -0.003 C 
ATOM     20  C   UNL     1      14.239 -17.685  21.629  1.00  0.00     0.004 C 
ENDBRANCH  18  19
ENDBRANCH  17  18
ENDBRANCH  16  17
ENDBRANCH  15  16
ENDBRANCH  14  15
ENDBRANCH  13  14
ENDBRANCH  12  13
ENDBRANCH   1  12
TORSDOF 16
ENDMDL
MODEL 5
REMARK VINA RESULT:    -2.654      1.840      3.128
REMARK INTER + INTRA:          -7.904
REMARK INTER:                  -5.293
REMARK INTRA:                  -2.611
REMARK UNBOUND:                -2.767
REMARK SMILES CCCCCCCCCCCCCCCCCC(=O)[O-]
REMARK SMILES IDX 10 1 11 2 12 3 13 4 14 5 15 6 16 7 17 8 18 9 19 10 20 11
REMARK SMILES IDX 9 12 8 13 7 14 6 15 5 16 4 17 3 18 2 19 1 20
REMARK H PARENT
REMARK Flexibility Score: inf
ROOT
ATOM      1  C   UNL     1      12.715 -16.938  21.984  1.00  0.00     0.000 C 
ENDROOT
BRANCH   1   2
ATOM      2  C   UNL     1      12.836 -18.382  21.460  1.00  0.00     0.000 C 
BRANCH   2   3
ATOM      3  C   UNL     1      11.596 -18.910  20.711  1.00  0.00     0.000 C 
BRANCH   3   4
ATOM      4  C   UNL     1      11.672 -18.820  19.175  1.00  0.00     0.000 C 
BRANCH   4   5
ATOM      5  C   UNL     1      10.550 -19.607  18.476  1.00  0.00     0.000 C 
BRANCH   5   6
ATOM      6  C   UNL     1       9.267 -18.777  18.304  1.00  0.00     0.000 C 
BRANCH   6   7
ATOM      7  C   UNL     1       7.992 -19.591  18.568  1.00  0.00     0.006 C 
BRANCH   7   8
ATOM      8  C   UNL     1       7.586 -19.512  20.042  1.00  0.00     0.053 C 
BRANCH   8   9
ATOM      9  C   UNL     1       6.128 -19.200  20.168  1.00  0.00     0.041 C 
ATOM     10  O   UNL     1       5.532 -18.575  19.253  1.00  0.00    -0.550 OA
ATOM     11  O   UNL     1       5.416 -19.650  21.272  1.00  0.00    -0.550 OA
ENDBRANCH   8   9
ENDBRANCH   7   8
ENDBRANCH   6   7
ENDBRANCH   5   6
ENDBRANCH   4   5
ENDBRANCH   3   4
ENDBRANCH   2   3
ENDBRANCH   1   2
BRANCH   1  12
ATOM     12  C   UNL     1      13.557 -15.893  21.224  1.00  0.00     0.000 C 
BRANCH  12  13
ATOM     13  C   UNL     1      13.040 -15.534  19.820  1.00  0.00    -0.000 C 
BRANCH  13  14
ATOM     14  C   UNL     1      12.415 -14.129  19.754  1.00  0.00    -0.000 C 
BRANCH  14  15
ATOM     15  C   UNL     1      10.927 -14.129  20.138  1.00  0.00    -0.000 C 
BRANCH  15  16
ATOM     16  C   UNL     1      10.209 -15.429  19.735  1.00  0.00    -0.000 C 
BRANCH  16  17
ATOM     17  C   UNL     1       9.248 -15.934  20.824  1.00  0.00    -0.000 C 
BRANCH  17  18
ATOM     18  C   UNL     1       7.786 -15.959  20.356  1.00  0.00    -0.000 C 
BRANCH  18  19
ATOM     19  C   UNL     1       7.656 -15.403  18.933  1.00  0.00    -0.003 C 
ATOM     20  C   UNL     1       6.799 -14.141  18.912  1.00  0.00     0.004 C 
ENDBRANCH  18  19
ENDBRANCH  17  18
ENDBRANCH  16  17
ENDBRANCH  15  16
ENDBRANCH  14  15
ENDBRANCH  13  14
ENDBRANCH  12  13
ENDBRANCH   1  12
TORSDOF 16
ENDMDL
MODEL 6
REMARK VINA RESULT:    -2.654      2.912      5.906
REMARK INTER + INTRA:          -7.903
REMARK INTER:                  -4.895
REMARK INTRA:                  -3.009
REMARK UNBOUND:                -2.767
REMARK SMILES CCCCCCCCCCCCCCCCCC(=O)[O-]
REMARK SMILES IDX 10 1 11 2 12 3 13 4 14 5 15 6 16 7 17 8 18 9 19 10 20 11
REMARK SMILES IDX 9 12 8 13 7 14 6 15 5 16 4 17 3 18 2 19 1 20
REMARK H PARENT
REMARK Flexibility Score: inf
ROOT
ATOM      1  C   UNL     1       9.241 -17.915  22.253  1.00  0.00     0.000 C 
ENDROOT
BRANCH   1   2
ATOM      2  C   UNL     1      10.667 -18.497  22.211  1.00  0.00     0.000 C 
BRANCH   2   3
ATOM      3  C   UNL     1      11.153 -18.936  20.815  1.00  0.00     0.000 C 
BRANCH   3   4
ATOM      4  C   UNL     1      12.596 -18.526  20.466  1.00  0.00     0.000 C 
BRANCH   4   5
ATOM      5  C   UNL     1      13.187 -17.517  21.466  1.00  0.00     0.000 C 
BRANCH   5   6
ATOM      6  C   UNL     1      13.450 -16.142  20.829  1.00  0.00     0.000 C 
BRANCH   6   7
ATOM      7  C   UNL     1      12.357 -15.730  19.831  1.00  0.00     0.006 C 
BRANCH   7   8
ATOM      8  C   UNL     1      11.262 -14.914  20.523  1.00  0.00     0.053 C 
BRANCH   8   9
ATOM      9  C   UNL     1      11.293 -13.493  20.055  1.00  0.00     0.041 C 
ATOM     10  O   UNL     1      12.358 -12.997  19.603  1.00  0.00    -0.550 OA
ATOM     11  O   UNL     1      10.131 -12.733  20.066  1.00  0.00    -0.550 OA
ENDBRANCH   8   9
ENDBRANCH   7   8
ENDBRANCH   6   7
ENDBRANCH   5   6
ENDBRANCH   4   5
ENDBRANCH   3   4
ENDBRANCH   2   3
ENDBRANCH   1   2
BRANCH   1  12
ATOM     12  C   UNL     1       8.116 -18.954  22.432  1.00  0.00     0.000 C 
BRANCH  12  13
ATOM     13  C   UNL     1       7.399 -19.371  21.135  1.00  0.00    -0.000 C 
BRANCH  13  14
ATOM     14  C   UNL     1       7.937 -20.689  20.552  1.00  0.00    -0.000 C 
BRANCH  14  15
ATOM     15  C   UNL     1       8.306 -20.568  19.065  1.00  0.00    -0.000 C 
BRANCH  15  16
ATOM     16  C   UNL     1       7.856 -19.232  18.448  1.00  0.00    -0.000 C 
BRANCH  16  17
ATOM     17  C   UNL     1       9.030 -18.422  17.875  1.00  0.00    -0.000 C 
BRANCH  17  18
ATOM     18  C   UNL     1       9.054 -16.974  18.387  1.00  0.00    -0.000 C 
BRANCH  18  19
ATOM     19  C   UNL     1       7.634 -16.466  18.662  1.00  0.00    -0.003 C 
ATOM     20  C   UNL     1       7.588 -15.618  19.928  1.00  0.00     0.004 C 
ENDBRANCH  18  19
ENDBRANCH  17  18
ENDBRANCH  16  17
ENDBRANCH  15  16
ENDBRANCH  14  15
ENDBRANCH  13  14
ENDBRANCH  12  13
ENDBRANCH   1  12
TORSDOF 16
ENDMDL
MODEL 7
REMARK VINA RESULT:    -2.651      1.665      2.785
REMARK INTER + INTRA:          -7.898
REMARK INTER:                  -5.268
REMARK INTRA:                  -2.631
REMARK UNBOUND:                -2.767
REMARK SMILES CCCCCCCCCCCCCCCCCC(=O)[O-]
REMARK SMILES IDX 10 1 11 2 12 3 13 4 14 5 15 6 16 7 17 8 18 9 19 10 20 11
REMARK SMILES IDX 9 12 8 13 7 14 6 15 5 16 4 17 3 18 2 19 1 20
REMARK H PARENT
REMARK Flexibility Score: inf
ROOT
ATOM      1  C   UNL     1      10.452 -19.622  22.009  1.00  0.00     0.000 C 
ENDROOT
BRANCH   1   2
ATOM      2  C   UNL     1      10.358 -18.118  21.688  1.00  0.00     0.000 C 
BRANCH   2   3
ATOM      3  C   UNL     1      10.523 -17.756  20.199  1.00  0.00     0.000 C 
BRANCH   3   4
ATOM      4  C   UNL     1      11.330 -18.768  19.366  1.00  0.00     0.000 C 
BRANCH   4   5
ATOM      5  C   UNL     1      10.507 -19.392  18.225  1.00  0.00     0.000 C 
BRANCH   5   6
ATOM      6  C   UNL     1       9.117 -18.750  18.083  1.00  0.00     0.000 C 
BRANCH   6   7
ATOM      7  C   UNL     1       7.979 -19.698  18.492  1.00  0.00     0.006 C 
BRANCH   7   8
ATOM      8  C   UNL     1       6.954 -18.977  19.370  1.00  0.00     0.053 C 
BRANCH   8   9
ATOM      9  C   UNL     1       6.975 -19.530  20.762  1.00  0.00     0.041 C 
ATOM     10  O   UNL     1       7.304 -20.728  20.962  1.00  0.00    -0.550 OA
ATOM     11  O   UNL     1       6.685 -18.705  21.840  1.00  0.00    -0.550 OA
ENDBRANCH   8   9
ENDBRANCH   7   8
ENDBRANCH   6   7
ENDBRANCH   5   6
ENDBRANCH   4   5
ENDBRANCH   3   4
ENDBRANCH   2   3
ENDBRANCH   1   2
BRANCH   1  12
ATOM     12  C   UNL     1      11.623 -20.023  22.929  1.00  0.00     0.000 C 
BRANCH  12  13
ATOM     13  C   UNL     1      13.026 -19.755  22.356  1.00  0.00    -0.000 C 
BRANCH  13  14
ATOM     14  C   UNL     1      13.989 -19.151  23.392  1.00  0.00    -0.000 C 
BRANCH  14  15
ATOM     15  C   UNL     1      14.733 -17.918  22.856  1.00  0.00    -0.000 C 
BRANCH  15  16
ATOM     16  C   UNL     1      14.224 -17.472  21.473  1.00  0.00    -0.000 C 
BRANCH  16  17
ATOM     17  C   UNL     1      13.568 -16.082  21.507  1.00  0.00    -0.000 C 
BRANCH  17  18
ATOM     18  C   UNL     1      13.257 -15.542  20.104  1.00  0.00    -0.000 C 
BRANCH  18  19
ATOM     19  C   UNL     1      12.282 -14.360  20.175  1.00  0.00    -0.003 C 
ATOM     20  C   UNL     1      11.502 -14.368  21.486  1.00  0.00     0.004 C 
ENDBRANCH  18  19
ENDBRANCH  17  18
ENDBRANCH  16  17
ENDBRANCH  15  16
ENDBRANCH  14  15
ENDBRANCH  13  14
ENDBRANCH  12  13
ENDBRANCH   1  12
TORSDOF 16
ENDMDL
MODEL 8
REMARK VINA RESULT:    -2.646      2.496      5.291
REMARK INTER + INTRA:          -7.888
REMARK INTER:                  -4.517
REMARK INTRA:                  -3.371
REMARK UNBOUND:                -2.767
REMARK SMILES CCCCCCCCCCCCCCCCCC(=O)[O-]
REMARK SMILES IDX 10 1 11 2 12 3 13 4 14 5 15 6 16 7 17 8 18 9 19 10 20 11
REMARK SMILES IDX 9 12 8 13 7 14 6 15 5 16 4 17 3 18 2 19 1 20
REMARK H PARENT
REMARK Flexibility Score: inf
ROOT
ATOM      1  C   UNL     1       8.912 -19.875  18.926  1.00  0.00     0.000 C 
ENDROOT
BRANCH   1   2
ATOM      2  C   UNL     1       7.672 -19.194  18.314  1.00  0.00     0.000 C 
BRANCH   2   3
ATOM      3  C   UNL     1       7.701 -17.653  18.327  1.00  0.00     0.000 C 
BRANCH   3   4
ATOM      4  C   UNL     1       7.031 -16.997  19.549  1.00  0.00     0.000 C 
BRANCH   4   5
ATOM      5  C   UNL     1       7.758 -15.723  20.014  1.00  0.00     0.000 C 
BRANCH   5   6
ATOM      6  C   UNL     1       9.123 -15.541  19.331  1.00  0.00     0.000 C 
BRANCH   6   7
ATOM      7  C   UNL     1      10.159 -14.864  20.242  1.00  0.00     0.006 C 
BRANCH   7   8
ATOM      8  C   UNL     1      11.582 -15.269  19.849  1.00  0.00     0.053 C 
BRANCH   8   9
ATOM      9  C   UNL     1      12.505 -15.144  21.021  1.00  0.00     0.041 C 
ATOM     10  O   UNL     1      12.659 -14.032  21.590  1.00  0.00    -0.550 OA
ATOM     11  O   UNL     1      13.151 -16.268  21.518  1.00  0.00    -0.550 OA
ENDBRANCH   8   9
ENDBRANCH   7   8
ENDBRANCH   6   7
ENDBRANCH   5   6
ENDBRANCH   4   5
ENDBRANCH   3   4
ENDBRANCH   2   3
ENDBRANCH   1   2
BRANCH   1  12
ATOM     12  C   UNL     1      10.255 -19.179  18.627  1.00  0.00     0.000 C 
BRANCH  12  13
ATOM     13  C   UNL     1      11.040 -18.714  19.867  1.00  0.00    -0.000 C 
BRANCH  13  14
ATOM     14  C   UNL     1      10.422 -19.209  21.186  1.00  0.00    -0.000 C 
BRANCH  14  15
ATOM     15  C   UNL     1       9.891 -18.057  22.055  1.00  0.00    -0.000 C 
BRANCH  15  16
ATOM     16  C   UNL     1       8.470 -18.319  22.585  1.00  0.00    -0.000 C 
BRANCH  16  17
ATOM     17  C   UNL     1       8.159 -19.819  22.723  1.00  0.00    -0.000 C 
BRANCH  17  18
ATOM     18  C   UNL     1       6.906 -20.237  21.940  1.00  0.00    -0.000 C 
BRANCH  18  19
ATOM     19  C   UNL     1       5.701 -19.374  22.332  1.00  0.00    -0.003 C 
ATOM     20  C   UNL     1       4.712 -19.252  21.178  1.00  0.00     0.004 C 
ENDBRANCH  18  19
ENDBRANCH  17  18
ENDBRANCH  16  17
ENDBRANCH  15  16
ENDBRANCH  14  15
ENDBRANCH  13  14
ENDBRANCH  12  13
ENDBRANCH   1  12
TORSDOF 16
ENDMDL
MODEL 9
REMARK VINA RESULT:    -2.577      2.357      5.996
REMARK INTER + INTRA:          -7.755
REMARK INTER:                  -4.919
REMARK INTRA:                  -2.836
REMARK UNBOUND:                -2.767
REMARK SMILES CCCCCCCCCCCCCCCCCC(=O)[O-]
REMARK SMILES IDX 10 1 11 2 12 3 13 4 14 5 15 6 16 7 17 8 18 9 19 10 20 11
REMARK SMILES IDX 9 12 8 13 7 14 6 15 5 16 4 17 3 18 2 19 1 20
REMARK H PARENT
REMARK Flexibility Score: inf
ROOT
ATOM      1  C   UNL     1      10.393 -17.349  21.129  1.00  0.00     0.000 C 
ENDROOT
BRANCH   1   2
ATOM      2  C   UNL     1       9.291 -16.273  21.151  1.00  0.00     0.000 C 
BRANCH   2   3
ATOM      3  C   UNL     1       9.455 -15.149  20.108  1.00  0.00     0.000 C 
BRANCH   3   4
ATOM      4  C   UNL     1       9.420 -13.719  20.676  1.00  0.00     0.000 C 
BRANCH   4   5
ATOM      5  C   UNL     1      10.747 -12.966  20.478  1.00  0.00     0.000 C 
BRANCH   5   6
ATOM      6  C   UNL     1      11.794 -13.805  19.726  1.00  0.00     0.000 C 
BRANCH   6   7
ATOM      7  C   UNL     1      13.130 -13.903  20.478  1.00  0.00     0.006 C 
BRANCH   7   8
ATOM      8  C   UNL     1      12.989 -14.767  21.734  1.00  0.00     0.053 C 
BRANCH   8   9
ATOM      9  C   UNL     1      13.948 -15.915  21.691  1.00  0.00     0.041 C 
ATOM     10  O   UNL     1      13.732 -16.947  22.380  1.00  0.00    -0.550 OA
ATOM     11  O   UNL     1      15.049 -15.868  20.847  1.00  0.00    -0.550 OA
ENDBRANCH   8   9
ENDBRANCH   7   8
ENDBRANCH   6   7
ENDBRANCH   5   6
ENDBRANCH   4   5
ENDBRANCH   3   4
ENDBRANCH   2   3
ENDBRANCH   1   2
BRANCH   1  12
ATOM     12  C   UNL     1      11.176 -17.458  19.805  1.00  0.00     0.000 C 
BRANCH  12  13
ATOM     13  C   UNL     1      11.548 -18.891  19.381  1.00  0.00    -0.000 C 
BRANCH  13  14
ATOM     14  C   UNL     1      10.561 -19.489  18.364  1.00  0.00    -0.000 C 
BRANCH  14  15
ATOM     15  C   UNL     1       9.504 -18.473  17.902  1.00  0.00    -0.000 C 
BRANCH  15  16
ATOM     16  C   UNL     1       8.067 -18.932  18.205  1.00  0.00    -0.000 C 
BRANCH  16  17
ATOM     17  C   UNL     1       8.022 -20.152  19.140  1.00  0.00    -0.000 C 
BRANCH  17  18
ATOM     18  C   UNL     1       7.511 -19.800  20.545  1.00  0.00    -0.000 C 
BRANCH  18  19
ATOM     19  C   UNL     1       8.423 -20.397  21.624  1.00  0.00    -0.003 C 
ATOM     20  C   UNL     1       8.191 -19.724  22.973  1.00  0.00     0.004 C 
ENDBRANCH  18  19
ENDBRANCH  17  18
ENDBRANCH  16  17
ENDBRANCH  15  16
ENDBRANCH  14  15
ENDBRANCH  13  14
ENDBRANCH  12  13
ENDBRANCH   1  12
TORSDOF 16
ENDMDL
