MODEL 1
REMARK VINA RESULT:    -7.104      0.000      0.000
REMARK INTER + INTRA:          -8.741
REMARK INTER:                  -8.557
REMARK INTRA:                  -0.184
REMARK UNBOUND:                -0.184
REMARK SMILES O=c1c(O)c(-c2ccc(O)c(O)c2)oc2cc(O)cc(O)c12
REMARK SMILES IDX 5 1 3 2 2 3 1 4 22 5 20 6 19 7 17 8 16 9 15 10 14 11 6 12
REMARK SMILES IDX 7 13 8 14 9 15 13 16 11 17 10 18 12 20 4 22 21 24 18 26
REMARK H PARENT 10 19 12 21 4 23 21 25 18 27
REMARK Flexibility Score: inf
ROOT
ATOM      1  C   UNL     1      33.370  13.944 -11.900  1.00  0.00     0.180 A 
ATOM      2  C   UNL     1      33.927  15.188 -11.554  1.00  0.00     0.208 A 
ATOM      3  C   UNL     1      35.323  15.320 -11.509  1.00  0.00     0.238 A 
ATOM      4  O   UNL     1      35.816  16.450 -11.252  1.00  0.00    -0.285 OA
ATOM      5  C   UNL     1      36.146  14.205 -11.796  1.00  0.00     0.111 A 
ATOM      6  C   UNL     1      37.572  14.214 -11.741  1.00  0.00     0.134 A 
ATOM      7  C   UNL     1      38.287  13.089 -12.171  1.00  0.00     0.093 A 
ATOM      8  C   UNL     1      37.629  11.934 -12.590  1.00  0.00     0.123 A 
ATOM      9  C   UNL     1      36.234  11.892 -12.590  1.00  0.00     0.094 A 
ATOM     10  C   UNL     1      35.493  13.012 -12.202  1.00  0.00     0.146 A 
ATOM     11  O   UNL     1      34.168  12.935 -12.228  1.00  0.00    -0.452 OA
ENDROOT
BRANCH   1  12
ATOM     12  C   UNL     1      31.907  13.721 -11.945  1.00  0.00     0.025 A 
ATOM     13  C   UNL     1      31.301  13.348 -13.155  1.00  0.00     0.016 A 
ATOM     14  C   UNL     1      29.925  13.111 -13.214  1.00  0.00     0.051 A 
ATOM     15  C   UNL     1      29.137  13.229 -12.062  1.00  0.00     0.157 A 
ATOM     16  C   UNL     1      31.116  13.818 -10.785  1.00  0.00     0.062 A 
ATOM     17  C   UNL     1      29.738  13.579 -10.841  1.00  0.00     0.158 A 
BRANCH  15  18
ATOM     18  O   UNL     1      27.764  12.994 -12.125  1.00  0.00    -0.504 OA
ATOM     19  H   UNL     1      27.302  12.371 -11.474  1.00  0.00     0.293 HD
ENDBRANCH  15  18
BRANCH  17  20
ATOM     20  O   UNL     1      28.984  13.689  -9.673  1.00  0.00    -0.504 OA
ATOM     21  H   UNL     1      29.246  14.314  -8.920  1.00  0.00     0.293 HD
ENDBRANCH  17  20
ENDBRANCH   1  12
BRANCH   2  22
ATOM     22  O   UNL     1      33.095  16.282 -11.297  1.00  0.00    -0.502 OA
ATOM     23  H   UNL     1      32.387  16.267 -10.573  1.00  0.00     0.293 HD
ENDBRANCH   2  22
BRANCH   6  24
ATOM     24  O   UNL     1      38.328  15.284 -11.251  1.00  0.00    -0.507 OA
ATOM     25  H   UNL     1      38.085  16.257 -11.364  1.00  0.00     0.293 HD
ENDBRANCH   6  24
BRANCH   8  26
ATOM     26  O   UNL     1      38.373  10.828 -12.996  1.00  0.00    -0.508 OA
ATOM     27  H   UNL     1      38.337  10.487 -13.949  1.00  0.00     0.293 HD
ENDBRANCH   8  26
TORSDOF 6
ENDMDL
MODEL 2
REMARK VINA RESULT:    -7.070      3.816      9.080
REMARK INTER + INTRA:          -8.700
REMARK INTER:                  -8.516
REMARK INTRA:                  -0.185
REMARK UNBOUND:                -0.184
REMARK SMILES O=c1c(O)c(-c2ccc(O)c(O)c2)oc2cc(O)cc(O)c12
REMARK SMILES IDX 5 1 3 2 2 3 1 4 22 5 20 6 19 7 17 8 16 9 15 10 14 11 6 12
REMARK SMILES IDX 7 13 8 14 9 15 13 16 11 17 10 18 12 20 4 22 21 24 18 26
REMARK H PARENT 10 19 12 21 4 23 21 25 18 27
REMARK Flexibility Score: inf
ROOT
ATOM      1  C   UNL     1      39.793  14.362 -10.895  1.00  0.00     0.180 A 
ATOM      2  C   UNL     1      39.258  14.595 -12.175  1.00  0.00     0.208 A 
ATOM      3  C   UNL     1      37.865  14.576 -12.344  1.00  0.00     0.238 A 
ATOM      4  O   UNL     1      37.390  14.839 -13.480  1.00  0.00    -0.285 OA
ATOM      5  C   UNL     1      37.024  14.311 -11.236  1.00  0.00     0.111 A 
ATOM      6  C   UNL     1      35.600  14.229 -11.300  1.00  0.00     0.134 A 
ATOM      7  C   UNL     1      34.862  14.090 -10.119  1.00  0.00     0.093 A 
ATOM      8  C   UNL     1      35.497  13.965  -8.884  1.00  0.00     0.123 A 
ATOM      9  C   UNL     1      36.891  13.984  -8.815  1.00  0.00     0.094 A 
ATOM     10  C   UNL     1      37.653  14.158  -9.974  1.00  0.00     0.146 A 
ATOM     11  O   UNL     1      38.976  14.182  -9.864  1.00  0.00    -0.452 OA
ENDROOT
BRANCH   1  12
ATOM     12  C   UNL     1      41.252  14.341 -10.642  1.00  0.00     0.025 A 
ATOM     13  C   UNL     1      41.813  15.272  -9.756  1.00  0.00     0.016 A 
ATOM     14  C   UNL     1      43.185  15.256  -9.487  1.00  0.00     0.051 A 
ATOM     15  C   UNL     1      44.011  14.299 -10.088  1.00  0.00     0.157 A 
ATOM     16  C   UNL     1      42.082  13.368 -11.229  1.00  0.00     0.062 A 
ATOM     17  C   UNL     1      43.455  13.347 -10.959  1.00  0.00     0.158 A 
BRANCH  15  18
ATOM     18  O   UNL     1      45.380  14.287  -9.820  1.00  0.00    -0.504 OA
ATOM     19  H   UNL     1      45.889  13.420  -9.702  1.00  0.00     0.293 HD
ENDBRANCH  15  18
BRANCH  17  20
ATOM     20  O   UNL     1      44.249  12.372 -11.562  1.00  0.00    -0.504 OA
ATOM     21  H   UNL     1      44.804  11.719 -11.020  1.00  0.00     0.293 HD
ENDBRANCH  17  20
ENDBRANCH   1  12
BRANCH   2  22
ATOM     22  O   UNL     1      40.106  14.877 -13.249  1.00  0.00    -0.502 OA
ATOM     23  H   UNL     1      41.110  14.750 -13.196  1.00  0.00     0.293 HD
ENDBRANCH   2  22
BRANCH   6  24
ATOM     24  O   UNL     1      34.871  14.250 -12.493  1.00  0.00    -0.507 OA
ATOM     25  H   UNL     1      34.585  13.430 -13.006  1.00  0.00     0.293 HD
ENDBRANCH   6  24
BRANCH   8  26
ATOM     26  O   UNL     1      34.731  13.813  -7.729  1.00  0.00    -0.508 OA
ATOM     27  H   UNL     1      34.645  12.917  -7.266  1.00  0.00     0.293 HD
ENDBRANCH   8  26
TORSDOF 6
ENDMDL
MODEL 3
REMARK VINA RESULT:    -6.999      1.453      6.858
REMARK INTER + INTRA:          -8.616
REMARK INTER:                  -8.305
REMARK INTRA:                  -0.311
REMARK UNBOUND:                -0.184
REMARK SMILES O=c1c(O)c(-c2ccc(O)c(O)c2)oc2cc(O)cc(O)c12
REMARK SMILES IDX 5 1 3 2 2 3 1 4 22 5 20 6 19 7 17 8 16 9 15 10 14 11 6 12
REMARK SMILES IDX 7 13 8 14 9 15 13 16 11 17 10 18 12 20 4 22 21 24 18 26
REMARK H PARENT 10 19 12 21 4 23 21 25 18 27
REMARK Flexibility Score: inf
ROOT
ATOM      1  C   UNL     1      33.815  13.362 -11.218  1.00  0.00     0.180 A 
ATOM      2  C   UNL     1      33.478  13.841  -9.940  1.00  0.00     0.208 A 
ATOM      3  C   UNL     1      32.131  14.096  -9.641  1.00  0.00     0.238 A 
ATOM      4  O   UNL     1      31.830  14.473  -8.478  1.00  0.00    -0.285 OA
ATOM      5  C   UNL     1      31.138  13.883 -10.627  1.00  0.00     0.111 A 
ATOM      6  C   UNL     1      29.747  14.146 -10.447  1.00  0.00     0.134 A 
ATOM      7  C   UNL     1      28.838  13.776 -11.446  1.00  0.00     0.093 A 
ATOM      8  C   UNL     1      29.276  13.213 -12.645  1.00  0.00     0.123 A 
ATOM      9  C   UNL     1      30.640  13.007 -12.857  1.00  0.00     0.094 A 
ATOM     10  C   UNL     1      31.567  13.332 -11.863  1.00  0.00     0.146 A 
ATOM     11  O   UNL     1      32.854  13.110 -12.100  1.00  0.00    -0.452 OA
ENDROOT
BRANCH   1  12
ATOM     12  C   UNL     1      35.216  13.093 -11.616  1.00  0.00     0.025 A 
ATOM     13  C   UNL     1      35.682  11.770 -11.652  1.00  0.00     0.016 A 
ATOM     14  C   UNL     1      36.995  11.493 -12.045  1.00  0.00     0.051 A 
ATOM     15  C   UNL     1      37.854  12.533 -12.422  1.00  0.00     0.157 A 
ATOM     16  C   UNL     1      36.075  14.133 -12.015  1.00  0.00     0.062 A 
ATOM     17  C   UNL     1      37.389  13.859 -12.412  1.00  0.00     0.158 A 
BRANCH  15  18
ATOM     18  O   UNL     1      39.164  12.253 -12.812  1.00  0.00    -0.504 OA
ATOM     19  H   UNL     1      39.958  12.599 -12.288  1.00  0.00     0.293 HD
ENDBRANCH  15  18
BRANCH  17  20
ATOM     20  O   UNL     1      38.215  14.914 -12.796  1.00  0.00    -0.504 OA
ATOM     21  H   UNL     1      37.863  15.714 -13.310  1.00  0.00     0.293 HD
ENDBRANCH  17  20
ENDBRANCH   1  12
BRANCH   2  22
ATOM     22  O   UNL     1      34.473  14.022  -8.974  1.00  0.00    -0.502 OA
ATOM     23  H   UNL     1      35.150  13.304  -8.751  1.00  0.00     0.293 HD
ENDBRANCH   2  22
BRANCH   6  24
ATOM     24  O   UNL     1      29.213  14.789  -9.326  1.00  0.00    -0.507 OA
ATOM     25  H   UNL     1      28.228  14.870  -9.125  1.00  0.00     0.293 HD
ENDBRANCH   6  24
BRANCH   8  26
ATOM     26  O   UNL     1      28.345  12.872 -13.624  1.00  0.00    -0.508 OA
ATOM     27  H   UNL     1      27.366  12.742 -13.401  1.00  0.00     0.293 HD
ENDBRANCH   8  26
TORSDOF 6
ENDMDL
MODEL 4
REMARK VINA RESULT:    -6.930      2.255      7.320
REMARK INTER + INTRA:          -8.532
REMARK INTER:                  -8.681
REMARK INTRA:                   0.148
REMARK UNBOUND:                -0.184
REMARK SMILES O=c1c(O)c(-c2ccc(O)c(O)c2)oc2cc(O)cc(O)c12
REMARK SMILES IDX 5 1 3 2 2 3 1 4 22 5 20 6 19 7 17 8 16 9 15 10 14 11 6 12
REMARK SMILES IDX 7 13 8 14 9 15 13 16 11 17 10 18 12 20 4 22 21 24 18 26
REMARK H PARENT 10 19 12 21 4 23 21 25 18 27
REMARK Flexibility Score: inf
ROOT
ATOM      1  C   UNL     1      34.904  14.155 -10.318  1.00  0.00     0.180 A 
ATOM      2  C   UNL     1      34.511  14.302 -11.660  1.00  0.00     0.208 A 
ATOM      3  C   UNL     1      33.142  14.360 -11.966  1.00  0.00     0.238 A 
ATOM      4  O   UNL     1      32.797  14.546 -13.162  1.00  0.00    -0.285 OA
ATOM      5  C   UNL     1      32.184  14.258 -10.929  1.00  0.00     0.111 A 
ATOM      6  C   UNL     1      30.770  14.265 -11.128  1.00  0.00     0.134 A 
ATOM      7  C   UNL     1      29.916  14.288 -10.018  1.00  0.00     0.093 A 
ATOM      8  C   UNL     1      30.421  14.238  -8.720  1.00  0.00     0.123 A 
ATOM      9  C   UNL     1      31.800  14.170  -8.514  1.00  0.00     0.094 A 
ATOM     10  C   UNL     1      32.678  14.182  -9.601  1.00  0.00     0.146 A 
ATOM     11  O   UNL     1      33.984  14.128  -9.362  1.00  0.00    -0.452 OA
ENDROOT
BRANCH   1  12
ATOM     12  C   UNL     1      36.327  14.060  -9.920  1.00  0.00     0.025 A 
ATOM     13  C   UNL     1      36.716  13.105  -8.968  1.00  0.00     0.016 A 
ATOM     14  C   UNL     1      38.058  12.985  -8.594  1.00  0.00     0.051 A 
ATOM     15  C   UNL     1      39.031  13.806  -9.177  1.00  0.00     0.157 A 
ATOM     16  C   UNL     1      37.310  14.869 -10.519  1.00  0.00     0.062 A 
ATOM     17  C   UNL     1      38.654  14.749 -10.148  1.00  0.00     0.158 A 
BRANCH  15  18
ATOM     18  O   UNL     1      40.368  13.685  -8.800  1.00  0.00    -0.504 OA
ATOM     19  H   UNL     1      40.759  12.796  -8.513  1.00  0.00     0.293 HD
ENDBRANCH  15  18
BRANCH  17  20
ATOM     20  O   UNL     1      39.602  15.571 -10.759  1.00  0.00    -0.504 OA
ATOM     21  H   UNL     1      39.346  16.435 -11.222  1.00  0.00     0.293 HD
ENDBRANCH  17  20
ENDBRANCH   1  12
BRANCH   2  22
ATOM     22  O   UNL     1      35.475  14.424 -12.665  1.00  0.00    -0.502 OA
ATOM     23  H   UNL     1      35.446  13.872 -13.514  1.00  0.00     0.293 HD
ENDBRANCH   2  22
BRANCH   6  24
ATOM     24  O   UNL     1      30.159  14.222 -12.385  1.00  0.00    -0.507 OA
ATOM     25  H   UNL     1      30.215  13.444 -13.025  1.00  0.00     0.293 HD
ENDBRANCH   6  24
BRANCH   8  26
ATOM     26  O   UNL     1      29.542  14.246  -7.639  1.00  0.00    -0.508 OA
ATOM     27  H   UNL     1      29.847  14.001  -6.706  1.00  0.00     0.293 HD
ENDBRANCH   8  26
TORSDOF 6
ENDMDL
MODEL 5
REMARK VINA RESULT:    -6.821      1.238      2.958
REMARK INTER + INTRA:          -8.400
REMARK INTER:                  -8.142
REMARK INTRA:                  -0.259
REMARK UNBOUND:                -0.184
REMARK SMILES O=c1c(O)c(-c2ccc(O)c(O)c2)oc2cc(O)cc(O)c12
REMARK SMILES IDX 5 1 3 2 2 3 1 4 22 5 20 6 19 7 17 8 16 9 15 10 14 11 6 12
REMARK SMILES IDX 7 13 8 14 9 15 13 16 11 17 10 18 12 20 4 22 21 24 18 26
REMARK H PARENT 10 19 12 21 4 23 21 25 18 27
REMARK Flexibility Score: inf
ROOT
ATOM      1  C   UNL     1      33.212  13.859 -11.869  1.00  0.00     0.180 A 
ATOM      2  C   UNL     1      34.081  12.758 -11.977  1.00  0.00     0.208 A 
ATOM      3  C   UNL     1      35.466  12.980 -11.956  1.00  0.00     0.238 A 
ATOM      4  O   UNL     1      36.239  11.986 -11.998  1.00  0.00    -0.285 OA
ATOM      5  C   UNL     1      35.967  14.299 -11.841  1.00  0.00     0.111 A 
ATOM      6  C   UNL     1      37.353  14.643 -11.849  1.00  0.00     0.134 A 
ATOM      7  C   UNL     1      37.737  15.967 -11.600  1.00  0.00     0.093 A 
ATOM      8  C   UNL     1      36.787  16.968 -11.408  1.00  0.00     0.123 A 
ATOM      9  C   UNL     1      35.428  16.654 -11.457  1.00  0.00     0.094 A 
ATOM     10  C   UNL     1      35.015  15.336 -11.668  1.00  0.00     0.146 A 
ATOM     11  O   UNL     1      33.712  15.077 -11.697  1.00  0.00    -0.452 OA
ENDROOT
BRANCH   1  12
ATOM     12  C   UNL     1      31.740  13.708 -11.908  1.00  0.00     0.025 A 
ATOM     13  C   UNL     1      31.107  13.422 -13.128  1.00  0.00     0.016 A 
ATOM     14  C   UNL     1      29.720  13.255 -13.184  1.00  0.00     0.051 A 
ATOM     15  C   UNL     1      28.949  13.356 -12.019  1.00  0.00     0.157 A 
ATOM     16  C   UNL     1      30.964  13.788 -10.737  1.00  0.00     0.062 A 
ATOM     17  C   UNL     1      29.576  13.618 -10.789  1.00  0.00     0.158 A 
BRANCH  15  18
ATOM     18  O   UNL     1      27.565  13.190 -12.079  1.00  0.00    -0.504 OA
ATOM     19  H   UNL     1      27.135  12.280 -11.971  1.00  0.00     0.293 HD
ENDBRANCH  15  18
BRANCH  17  20
ATOM     20  O   UNL     1      28.838  13.709  -9.610  1.00  0.00    -0.504 OA
ATOM     21  H   UNL     1      28.342  14.553  -9.349  1.00  0.00     0.293 HD
ENDBRANCH  17  20
ENDBRANCH   1  12
BRANCH   2  22
ATOM     22  O   UNL     1      33.564  11.462 -12.066  1.00  0.00    -0.502 OA
ATOM     23  H   UNL     1      32.738  11.244 -12.610  1.00  0.00     0.293 HD
ENDBRANCH   2  22
BRANCH   6  24
ATOM     24  O   UNL     1      38.381  13.736 -12.123  1.00  0.00    -0.507 OA
ATOM     25  H   UNL     1      38.915  13.714 -12.979  1.00  0.00     0.293 HD
ENDBRANCH   6  24
BRANCH   8  26
ATOM     26  O   UNL     1      37.205  18.278 -11.177  1.00  0.00    -0.508 OA
ATOM     27  H   UNL     1      36.765  19.063 -11.640  1.00  0.00     0.293 HD
ENDBRANCH   8  26
TORSDOF 6
ENDMDL
MODEL 6
REMARK VINA RESULT:    -6.798      3.832      8.991
REMARK INTER + INTRA:          -8.373
REMARK INTER:                  -8.110
REMARK INTRA:                  -0.263
REMARK UNBOUND:                -0.184
REMARK SMILES O=c1c(O)c(-c2ccc(O)c(O)c2)oc2cc(O)cc(O)c12
REMARK SMILES IDX 5 1 3 2 2 3 1 4 22 5 20 6 19 7 17 8 16 9 15 10 14 11 6 12
REMARK SMILES IDX 7 13 8 14 9 15 13 16 11 17 10 18 12 20 4 22 21 24 18 26
REMARK H PARENT 10 19 12 21 4 23 21 25 18 27
REMARK Flexibility Score: inf
ROOT
ATOM      1  C   UNL     1      39.721  14.401 -10.752  1.00  0.00     0.180 A 
ATOM      2  C   UNL     1      38.853  13.960  -9.737  1.00  0.00     0.208 A 
ATOM      3  C   UNL     1      37.467  14.070  -9.931  1.00  0.00     0.238 A 
ATOM      4  O   UNL     1      36.695  13.624  -9.042  1.00  0.00    -0.285 OA
ATOM      5  C   UNL     1      36.966  14.633 -11.129  1.00  0.00     0.111 A 
ATOM      6  C   UNL     1      35.581  14.829 -11.415  1.00  0.00     0.134 A 
ATOM      7  C   UNL     1      35.194  15.275 -12.685  1.00  0.00     0.093 A 
ATOM      8  C   UNL     1      36.143  15.592 -13.656  1.00  0.00     0.123 A 
ATOM      9  C   UNL     1      37.502  15.461 -13.368  1.00  0.00     0.094 A 
ATOM     10  C   UNL     1      37.917  14.984 -12.122  1.00  0.00     0.146 A 
ATOM     11  O   UNL     1      39.219  14.863 -11.891  1.00  0.00    -0.452 OA
ENDROOT
BRANCH   1  12
ATOM     12  C   UNL     1      41.193  14.341 -10.611  1.00  0.00     0.025 A 
ATOM     13  C   UNL     1      41.846  15.260  -9.776  1.00  0.00     0.016 A 
ATOM     14  C   UNL     1      43.233  15.207  -9.612  1.00  0.00     0.051 A 
ATOM     15  C   UNL     1      43.985  14.225 -10.269  1.00  0.00     0.157 A 
ATOM     16  C   UNL     1      41.949  13.343 -11.253  1.00  0.00     0.062 A 
ATOM     17  C   UNL     1      43.338  13.286 -11.089  1.00  0.00     0.158 A 
BRANCH  15  18
ATOM     18  O   UNL     1      45.370  14.177 -10.105  1.00  0.00    -0.504 OA
ATOM     19  H   UNL     1      45.930  13.458 -10.545  1.00  0.00     0.293 HD
ENDBRANCH  15  18
BRANCH  17  20
ATOM     20  O   UNL     1      44.057  12.286 -11.744  1.00  0.00    -0.504 OA
ATOM     21  H   UNL     1      43.703  11.824 -12.573  1.00  0.00     0.293 HD
ENDBRANCH  17  20
ENDBRANCH   1  12
BRANCH   2  22
ATOM     22  O   UNL     1      39.370  13.387  -8.571  1.00  0.00    -0.502 OA
ATOM     23  H   UNL     1      39.600  13.937  -7.753  1.00  0.00     0.293 HD
ENDBRANCH   2  22
BRANCH   6  24
ATOM     24  O   UNL     1      34.556  14.631 -10.484  1.00  0.00    -0.507 OA
ATOM     25  H   UNL     1      34.026  13.778 -10.388  1.00  0.00     0.293 HD
ENDBRANCH   6  24
BRANCH   8  26
ATOM     26  O   UNL     1      35.722  16.048 -14.905  1.00  0.00    -0.508 OA
ATOM     27  H   UNL     1      34.923  16.661 -15.002  1.00  0.00     0.293 HD
ENDBRANCH   8  26
TORSDOF 6
ENDMDL
MODEL 7
REMARK VINA RESULT:    -6.776      4.202      7.256
REMARK INTER + INTRA:          -8.347
REMARK INTER:                  -8.039
REMARK INTRA:                  -0.308
REMARK UNBOUND:                -0.184
REMARK SMILES O=c1c(O)c(-c2ccc(O)c(O)c2)oc2cc(O)cc(O)c12
REMARK SMILES IDX 5 1 3 2 2 3 1 4 22 5 20 6 19 7 17 8 16 9 15 10 14 11 6 12
REMARK SMILES IDX 7 13 8 14 9 15 13 16 11 17 10 18 12 20 4 22 21 24 18 26
REMARK H PARENT 10 19 12 21 4 23 21 25 18 27
REMARK Flexibility Score: inf
ROOT
ATOM      1  C   UNL     1      39.977  14.114 -11.035  1.00  0.00     0.180 A 
ATOM      2  C   UNL     1      40.506  13.100 -11.853  1.00  0.00     0.208 A 
ATOM      3  C   UNL     1      41.884  12.836 -11.804  1.00  0.00     0.238 A 
ATOM      4  O   UNL     1      42.343  11.890 -12.498  1.00  0.00    -0.285 OA
ATOM      5  C   UNL     1      42.717  13.596 -10.950  1.00  0.00     0.111 A 
ATOM      6  C   UNL     1      44.133  13.441 -10.849  1.00  0.00     0.134 A 
ATOM      7  C   UNL     1      44.839  14.159  -9.876  1.00  0.00     0.093 A 
ATOM      8  C   UNL     1      44.193  15.074  -9.046  1.00  0.00     0.123 A 
ATOM      9  C   UNL     1      42.819  15.278  -9.176  1.00  0.00     0.094 A 
ATOM     10  C   UNL     1      42.081  14.549 -10.112  1.00  0.00     0.146 A 
ATOM     11  O   UNL     1      40.774  14.765 -10.196  1.00  0.00    -0.452 OA
ENDROOT
BRANCH   1  12
ATOM     12  C   UNL     1      38.539  14.468 -11.049  1.00  0.00     0.025 A 
ATOM     13  C   UNL     1      38.047  15.320 -12.049  1.00  0.00     0.016 A 
ATOM     14  C   UNL     1      36.689  15.650 -12.094  1.00  0.00     0.051 A 
ATOM     15  C   UNL     1      35.802  15.120 -11.148  1.00  0.00     0.157 A 
ATOM     16  C   UNL     1      37.642  13.921 -10.114  1.00  0.00     0.062 A 
ATOM     17  C   UNL     1      36.281  14.247 -10.157  1.00  0.00     0.158 A 
BRANCH  15  18
ATOM     18  O   UNL     1      34.449  15.453 -11.194  1.00  0.00    -0.504 OA
ATOM     19  H   UNL     1      34.060  16.175 -10.600  1.00  0.00     0.293 HD
ENDBRANCH  15  18
BRANCH  17  20
ATOM     20  O   UNL     1      35.421  13.691  -9.211  1.00  0.00    -0.504 OA
ATOM     21  H   UNL     1      34.753  14.251  -8.695  1.00  0.00     0.293 HD
ENDBRANCH  17  20
ENDBRANCH   1  12
BRANCH   2  22
ATOM     22  O   UNL     1      39.661  12.346 -12.672  1.00  0.00    -0.502 OA
ATOM     23  H   UNL     1      39.538  12.548 -13.657  1.00  0.00     0.293 HD
ENDBRANCH   2  22
BRANCH   6  24
ATOM     24  O   UNL     1      44.890  12.622 -11.693  1.00  0.00    -0.507 OA
ATOM     25  H   UNL     1      44.635  11.684 -11.962  1.00  0.00     0.293 HD
ENDBRANCH   6  24
BRANCH   8  26
ATOM     26  O   UNL     1      44.931  15.782  -8.099  1.00  0.00    -0.508 OA
ATOM     27  H   UNL     1      45.527  15.310  -7.431  1.00  0.00     0.293 HD
ENDBRANCH   8  26
TORSDOF 6
ENDMDL
MODEL 8
REMARK VINA RESULT:    -6.760      2.174      7.112
REMARK INTER + INTRA:          -8.327
REMARK INTER:                  -8.049
REMARK INTRA:                  -0.278
REMARK UNBOUND:                -0.184
REMARK SMILES O=c1c(O)c(-c2ccc(O)c(O)c2)oc2cc(O)cc(O)c12
REMARK SMILES IDX 5 1 3 2 2 3 1 4 22 5 20 6 19 7 17 8 16 9 15 10 14 11 6 12
REMARK SMILES IDX 7 13 8 14 9 15 13 16 11 17 10 18 12 20 4 22 21 24 18 26
REMARK H PARENT 10 19 12 21 4 23 21 25 18 27
REMARK Flexibility Score: inf
ROOT
ATOM      1  C   UNL     1      35.855  14.188 -10.575  1.00  0.00     0.180 A 
ATOM      2  C   UNL     1      35.424  14.237  -9.237  1.00  0.00     0.208 A 
ATOM      3  C   UNL     1      34.061  14.054  -8.954  1.00  0.00     0.238 A 
ATOM      4  O   UNL     1      33.689  14.044  -7.751  1.00  0.00    -0.285 OA
ATOM      5  C   UNL     1      33.145  13.838 -10.011  1.00  0.00     0.111 A 
ATOM      6  C   UNL     1      31.736  13.679  -9.844  1.00  0.00     0.134 A 
ATOM      7  C   UNL     1      30.942  13.342 -10.947  1.00  0.00     0.093 A 
ATOM      8  C   UNL     1      31.494  13.222 -12.221  1.00  0.00     0.123 A 
ATOM      9  C   UNL     1      32.861  13.434 -12.408  1.00  0.00     0.094 A 
ATOM     10  C   UNL     1      33.685  13.736 -11.320  1.00  0.00     0.146 A 
ATOM     11  O   UNL     1      34.982  13.919 -11.538  1.00  0.00    -0.452 OA
ENDROOT
BRANCH   1  12
ATOM     12  C   UNL     1      37.271  14.397 -10.955  1.00  0.00     0.025 A 
ATOM     13  C   UNL     1      38.038  13.306 -11.391  1.00  0.00     0.016 A 
ATOM     14  C   UNL     1      39.370  13.485 -11.774  1.00  0.00     0.051 A 
ATOM     15  C   UNL     1      39.949  14.760 -11.741  1.00  0.00     0.157 A 
ATOM     16  C   UNL     1      37.850  15.679 -10.943  1.00  0.00     0.062 A 
ATOM     17  C   UNL     1      39.183  15.862 -11.328  1.00  0.00     0.158 A 
BRANCH  15  18
ATOM     18  O   UNL     1      41.280  14.934 -12.123  1.00  0.00    -0.504 OA
ATOM     19  H   UNL     1      41.687  14.405 -12.884  1.00  0.00     0.293 HD
ENDBRANCH  15  18
BRANCH  17  20
ATOM     20  O   UNL     1      39.726  17.146 -11.300  1.00  0.00    -0.504 OA
ATOM     21  H   UNL     1      39.404  17.882 -11.918  1.00  0.00     0.293 HD
ENDBRANCH  17  20
ENDBRANCH   1  12
BRANCH   2  22
ATOM     22  O   UNL     1      36.349  14.429  -8.208  1.00  0.00    -0.502 OA
ATOM     23  H   UNL     1      36.864  15.294  -8.095  1.00  0.00     0.293 HD
ENDBRANCH   2  22
BRANCH   6  24
ATOM     24  O   UNL     1      31.069  13.868  -8.629  1.00  0.00    -0.507 OA
ATOM     25  H   UNL     1      31.205  13.303  -7.805  1.00  0.00     0.293 HD
ENDBRANCH   6  24
BRANCH   8  26
ATOM     26  O   UNL     1      30.672  12.900 -13.299  1.00  0.00    -0.508 OA
ATOM     27  H   UNL     1      31.006  12.951 -14.254  1.00  0.00     0.293 HD
ENDBRANCH   8  26
TORSDOF 6
ENDMDL
MODEL 9
REMARK VINA RESULT:    -6.680      2.356      7.616
REMARK INTER + INTRA:          -8.232
REMARK INTER:                  -7.929
REMARK INTRA:                  -0.302
REMARK UNBOUND:                -0.184
REMARK SMILES O=c1c(O)c(-c2ccc(O)c(O)c2)oc2cc(O)cc(O)c12
REMARK SMILES IDX 5 1 3 2 2 3 1 4 22 5 20 6 19 7 17 8 16 9 15 10 14 11 6 12
REMARK SMILES IDX 7 13 8 14 9 15 13 16 11 17 10 18 12 20 4 22 21 24 18 26
REMARK H PARENT 10 19 12 21 4 23 21 25 18 27
REMARK Flexibility Score: inf
ROOT
ATOM      1  C   UNL     1      37.067  13.537 -11.739  1.00  0.00     0.180 A 
ATOM      2  C   UNL     1      36.224  12.412 -11.710  1.00  0.00     0.208 A 
ATOM      3  C   UNL     1      34.864  12.573 -12.013  1.00  0.00     0.238 A 
ATOM      4  O   UNL     1      34.125  11.553 -12.040  1.00  0.00    -0.285 OA
ATOM      5  C   UNL     1      34.359  13.858 -12.327  1.00  0.00     0.111 A 
ATOM      6  C   UNL     1      32.989  14.144 -12.611  1.00  0.00     0.134 A 
ATOM      7  C   UNL     1      32.625  15.428 -13.035  1.00  0.00     0.093 A 
ATOM      8  C   UNL     1      33.567  16.452 -13.122  1.00  0.00     0.123 A 
ATOM      9  C   UNL     1      34.899  16.199 -12.789  1.00  0.00     0.094 A 
ATOM     10  C   UNL     1      35.299  14.919 -12.398  1.00  0.00     0.146 A 
ATOM     11  O   UNL     1      36.577  14.717 -12.100  1.00  0.00    -0.452 OA
ENDROOT
BRANCH   1  12
ATOM     12  C   UNL     1      38.508  13.452 -11.407  1.00  0.00     0.025 A 
ATOM     13  C   UNL     1      39.422  13.055 -12.394  1.00  0.00     0.016 A 
ATOM     14  C   UNL     1      40.789  12.988 -12.108  1.00  0.00     0.051 A 
ATOM     15  C   UNL     1      41.261  13.331 -10.835  1.00  0.00     0.157 A 
ATOM     16  C   UNL     1      38.988  13.816 -10.136  1.00  0.00     0.062 A 
ATOM     17  C   UNL     1      40.357  13.753  -9.847  1.00  0.00     0.158 A 
BRANCH  15  18
ATOM     18  O   UNL     1      42.626  13.261 -10.552  1.00  0.00    -0.504 OA
ATOM     19  H   UNL     1      43.323  13.365 -11.278  1.00  0.00     0.293 HD
ENDBRANCH  15  18
BRANCH  17  20
ATOM     20  O   UNL     1      40.798  14.116  -8.575  1.00  0.00    -0.504 OA
ATOM     21  H   UNL     1      41.704  13.835  -8.218  1.00  0.00     0.293 HD
ENDBRANCH  17  20
ENDBRANCH   1  12
BRANCH   2  22
ATOM     22  O   UNL     1      36.749  11.149 -11.420  1.00  0.00    -0.502 OA
ATOM     23  H   UNL     1      36.531  10.655 -10.563  1.00  0.00     0.293 HD
ENDBRANCH   2  22
BRANCH   6  24
ATOM     24  O   UNL     1      31.952  13.217 -12.467  1.00  0.00    -0.507 OA
ATOM     25  H   UNL     1      31.704  12.763 -11.600  1.00  0.00     0.293 HD
ENDBRANCH   6  24
BRANCH   8  26
ATOM     26  O   UNL     1      33.166  17.722 -13.533  1.00  0.00    -0.508 OA
ATOM     27  H   UNL     1      32.190  17.945 -13.684  1.00  0.00     0.293 HD
ENDBRANCH   8  26
TORSDOF 6
ENDMDL
