MODEL 1
REMARK VINA RESULT:    -6.559      0.000      0.000
REMARK INTER + INTRA:          -6.942
REMARK INTER:                  -6.942
REMARK INTRA:                   0.000
REMARK UNBOUND:                 0.000
REMARK SMILES O=c1ccc2cc(O)c(O)cc2o1
REMARK SMILES IDX 4 1 3 2 2 3 1 4 13 5 12 6 11 7 9 8 7 9 6 10 5 11 8 12 10 14
REMARK H PARENT 8 13 10 15
REMARK Flexibility Score: inf
ROOT
ATOM      1  C   UNL     1      -0.220  53.660  -4.173  1.00  0.00     0.019 A 
ATOM      2  C   UNL     1      -0.110  52.465  -4.884  1.00  0.00     0.094 A 
ATOM      3  C   UNL     1       0.030  52.514  -6.275  1.00  0.00     0.336 A 
ATOM      4  O   UNL     1       0.131  51.446  -6.935  1.00  0.00    -0.246 OA
ATOM      5  O   UNL     1       0.057  53.683  -6.909  1.00  0.00    -0.423 OA
ATOM      6  C   UNL     1      -0.046  54.846  -6.270  1.00  0.00     0.142 A 
ATOM      7  C   UNL     1      -0.011  56.044  -6.990  1.00  0.00     0.098 A 
ATOM      8  C   UNL     1      -0.118  57.273  -6.321  1.00  0.00     0.161 A 
ATOM      9  C   UNL     1      -0.261  57.302  -4.925  1.00  0.00     0.158 A 
ATOM     10  C   UNL     1      -0.296  56.103  -4.198  1.00  0.00     0.062 A 
ATOM     11  C   UNL     1      -0.189  54.874  -4.866  1.00  0.00     0.022 A 
ENDROOT
BRANCH   9  12
ATOM     12  O   UNL     1      -0.367  58.527  -4.269  1.00  0.00    -0.504 OA
ATOM     13  H   UNL     1      -1.131  59.166  -4.459  1.00  0.00     0.293 HD
ENDBRANCH   9  12
BRANCH   8  14
ATOM     14  O   UNL     1      -0.085  58.469  -7.035  1.00  0.00    -0.504 OA
ATOM     15  H   UNL     1      -0.743  59.217  -6.848  1.00  0.00     0.293 HD
ENDBRANCH   8  14
TORSDOF 2
ENDMDL
MODEL 2
REMARK VINA RESULT:    -6.508      1.073      4.507
REMARK INTER + INTRA:          -6.889
REMARK INTER:                  -6.889
REMARK INTRA:                   0.000
REMARK UNBOUND:                 0.000
REMARK SMILES O=c1ccc2cc(O)c(O)cc2o1
REMARK SMILES IDX 4 1 3 2 2 3 1 4 13 5 12 6 11 7 9 8 7 9 6 10 5 11 8 12 10 14
REMARK H PARENT 8 13 10 15
REMARK Flexibility Score: inf
ROOT
ATOM      1  C   UNL     1      -0.414  56.493  -4.331  1.00  0.00     0.019 A 
ATOM      2  C   UNL     1      -0.217  57.691  -5.017  1.00  0.00     0.094 A 
ATOM      3  C   UNL     1       0.148  57.647  -6.367  1.00  0.00     0.336 A 
ATOM      4  O   UNL     1       0.330  58.718  -7.004  1.00  0.00    -0.246 OA
ATOM      5  O   UNL     1       0.304  56.479  -6.986  1.00  0.00    -0.423 OA
ATOM      6  C   UNL     1       0.126  55.314  -6.369  1.00  0.00     0.142 A 
ATOM      7  C   UNL     1       0.305  54.117  -7.070  1.00  0.00     0.098 A 
ATOM      8  C   UNL     1       0.118  52.885  -6.425  1.00  0.00     0.161 A 
ATOM      9  C   UNL     1      -0.248  52.852  -5.071  1.00  0.00     0.158 A 
ATOM     10  C   UNL     1      -0.429  54.048  -4.362  1.00  0.00     0.062 A 
ATOM     11  C   UNL     1      -0.242  55.280  -5.006  1.00  0.00     0.022 A 
ENDROOT
BRANCH   9  12
ATOM     12  O   UNL     1      -0.431  51.623  -4.437  1.00  0.00    -0.504 OA
ATOM     13  H   UNL     1      -0.517  50.762  -4.965  1.00  0.00     0.293 HD
ENDBRANCH   9  12
BRANCH   8  14
ATOM     14  O   UNL     1       0.296  51.691  -7.121  1.00  0.00    -0.504 OA
ATOM     15  H   UNL     1      -0.472  51.243  -7.608  1.00  0.00     0.293 HD
ENDBRANCH   8  14
TORSDOF 2
ENDMDL
MODEL 3
REMARK VINA RESULT:    -5.976      1.108      5.028
REMARK INTER + INTRA:          -6.326
REMARK INTER:                  -6.326
REMARK INTRA:                   0.000
REMARK UNBOUND:                 0.000
REMARK SMILES O=c1ccc2cc(O)c(O)cc2o1
REMARK SMILES IDX 4 1 3 2 2 3 1 4 13 5 12 6 11 7 9 8 7 9 6 10 5 11 8 12 10 14
REMARK H PARENT 8 13 10 15
REMARK Flexibility Score: inf
ROOT
ATOM      1  C   UNL     1       0.296  56.494  -6.910  1.00  0.00     0.019 A 
ATOM      2  C   UNL     1       0.087  57.644  -6.150  1.00  0.00     0.094 A 
ATOM      3  C   UNL     1      -0.296  57.511  -4.810  1.00  0.00     0.336 A 
ATOM      4  O   UNL     1      -0.490  58.537  -4.107  1.00  0.00    -0.246 OA
ATOM      5  O   UNL     1      -0.456  56.304  -4.272  1.00  0.00    -0.423 OA
ATOM      6  C   UNL     1      -0.267  55.182  -4.962  1.00  0.00     0.142 A 
ATOM      7  C   UNL     1      -0.450  53.942  -4.343  1.00  0.00     0.098 A 
ATOM      8  C   UNL     1      -0.251  52.756  -5.066  1.00  0.00     0.161 A 
ATOM      9  C   UNL     1       0.133  52.812  -6.414  1.00  0.00     0.158 A 
ATOM     10  C   UNL     1       0.319  54.053  -7.040  1.00  0.00     0.062 A 
ATOM     11  C   UNL     1       0.120  55.239  -6.319  1.00  0.00     0.022 A 
ENDROOT
BRANCH   9  12
ATOM     12  O   UNL     1       0.328  51.629  -7.125  1.00  0.00    -0.504 OA
ATOM     13  H   UNL     1       0.549  50.758  -6.655  1.00  0.00     0.293 HD
ENDBRANCH   9  12
BRANCH   8  14
ATOM     14  O   UNL     1      -0.434  51.518  -4.453  1.00  0.00    -0.504 OA
ATOM     15  H   UNL     1      -1.339  51.064  -4.436  1.00  0.00     0.293 HD
ENDBRANCH   8  14
TORSDOF 2
ENDMDL
MODEL 4
REMARK VINA RESULT:    -5.709     11.640     14.155
REMARK INTER + INTRA:          -6.043
REMARK INTER:                  -6.043
REMARK INTRA:                   0.000
REMARK UNBOUND:                 0.000
REMARK SMILES O=c1ccc2cc(O)c(O)cc2o1
REMARK SMILES IDX 4 1 3 2 2 3 1 4 13 5 12 6 11 7 9 8 7 9 6 10 5 11 8 12 10 14
REMARK H PARENT 8 13 10 15
REMARK Flexibility Score: inf
ROOT
ATOM      1  C   UNL     1      -7.680  63.938   3.974  1.00  0.00     0.019 A 
ATOM      2  C   UNL     1      -6.957  64.903   4.675  1.00  0.00     0.094 A 
ATOM      3  C   UNL     1      -5.628  64.637   5.022  1.00  0.00     0.336 A 
ATOM      4  O   UNL     1      -4.959  65.495   5.654  1.00  0.00    -0.246 OA
ATOM      5  O   UNL     1      -5.063  63.479   4.686  1.00  0.00    -0.423 OA
ATOM      6  C   UNL     1      -5.716  62.532   4.017  1.00  0.00     0.142 A 
ATOM      7  C   UNL     1      -5.071  61.335   3.692  1.00  0.00     0.098 A 
ATOM      8  C   UNL     1      -5.755  60.333   2.987  1.00  0.00     0.161 A 
ATOM      9  C   UNL     1      -7.091  60.530   2.606  1.00  0.00     0.158 A 
ATOM     10  C   UNL     1      -7.743  61.729   2.930  1.00  0.00     0.062 A 
ATOM     11  C   UNL     1      -7.061  62.731   3.635  1.00  0.00     0.022 A 
ENDROOT
BRANCH   9  12
ATOM     12  O   UNL     1      -7.763  59.529   1.906  1.00  0.00    -0.504 OA
ATOM     13  H   UNL     1      -7.263  58.784   1.436  1.00  0.00     0.293 HD
ENDBRANCH   9  12
BRANCH   8  14
ATOM     14  O   UNL     1      -5.115  59.138   2.661  1.00  0.00    -0.504 OA
ATOM     15  H   UNL     1      -5.275  58.677   1.774  1.00  0.00     0.293 HD
ENDBRANCH   8  14
TORSDOF 2
ENDMDL
MODEL 5
REMARK VINA RESULT:    -5.709     11.696     14.187
REMARK INTER + INTRA:          -6.043
REMARK INTER:                  -6.043
REMARK INTRA:                   0.000
REMARK UNBOUND:                 0.000
REMARK SMILES O=c1ccc2cc(O)c(O)cc2o1
REMARK SMILES IDX 4 1 3 2 2 3 1 4 13 5 12 6 11 7 9 8 7 9 6 10 5 11 8 12 10 14
REMARK H PARENT 8 13 10 15
REMARK Flexibility Score: inf
ROOT
ATOM      1  C   UNL     1      -5.071  63.557   4.681  1.00  0.00     0.019 A 
ATOM      2  C   UNL     1      -5.750  64.745   4.952  1.00  0.00     0.094 A 
ATOM      3  C   UNL     1      -7.072  64.886   4.514  1.00  0.00     0.336 A 
ATOM      4  O   UNL     1      -7.702  65.950   4.750  1.00  0.00    -0.246 OA
ATOM      5  O   UNL     1      -7.670  63.901   3.849  1.00  0.00    -0.423 OA
ATOM      6  C   UNL     1      -7.059  62.753   3.568  1.00  0.00     0.142 A 
ATOM      7  C   UNL     1      -7.738  61.753   2.865  1.00  0.00     0.098 A 
ATOM      8  C   UNL     1      -7.098  60.540   2.568  1.00  0.00     0.161 A 
ATOM      9  C   UNL     1      -5.773  60.327   2.976  1.00  0.00     0.158 A 
ATOM     10  C   UNL     1      -5.087  61.327   3.681  1.00  0.00     0.062 A 
ATOM     11  C   UNL     1      -5.724  62.539   3.979  1.00  0.00     0.022 A 
ENDROOT
BRANCH   9  12
ATOM     12  O   UNL     1      -5.145  59.120   2.675  1.00  0.00    -0.504 OA
ATOM     13  H   UNL     1      -4.854  58.478   3.403  1.00  0.00     0.293 HD
ENDBRANCH   9  12
BRANCH   8  14
ATOM     14  O   UNL     1      -7.773  59.542   1.867  1.00  0.00    -0.504 OA
ATOM     15  H   UNL     1      -7.412  58.596   1.813  1.00  0.00     0.293 HD
ENDBRANCH   8  14
TORSDOF 2
ENDMDL
MODEL 6
REMARK VINA RESULT:    -5.691     12.172     13.298
REMARK INTER + INTRA:          -6.024
REMARK INTER:                  -6.024
REMARK INTRA:                   0.000
REMARK UNBOUND:                 0.000
REMARK SMILES O=c1ccc2cc(O)c(O)cc2o1
REMARK SMILES IDX 4 1 3 2 2 3 1 4 13 5 12 6 11 7 9 8 7 9 6 10 5 11 8 12 10 14
REMARK H PARENT 8 13 10 15
REMARK Flexibility Score: inf
ROOT
ATOM      1  C   UNL     1       5.436  51.212   7.298  1.00  0.00     0.019 A 
ATOM      2  C   UNL     1       4.669  50.425   8.156  1.00  0.00     0.094 A 
ATOM      3  C   UNL     1       3.292  50.661   8.244  1.00  0.00     0.336 A 
ATOM      4  O   UNL     1       2.583  49.961   9.013  1.00  0.00    -0.246 OA
ATOM      5  O   UNL     1       2.726  51.622   7.518  1.00  0.00    -0.423 OA
ATOM      6  C   UNL     1       3.421  52.395   6.688  1.00  0.00     0.142 A 
ATOM      7  C   UNL     1       2.771  53.389   5.950  1.00  0.00     0.098 A 
ATOM      8  C   UNL     1       3.499  54.207   5.072  1.00  0.00     0.161 A 
ATOM      9  C   UNL     1       4.883  54.028   4.933  1.00  0.00     0.158 A 
ATOM     10  C   UNL     1       5.540  53.032   5.670  1.00  0.00     0.062 A 
ATOM     11  C   UNL     1       4.815  52.215   6.548  1.00  0.00     0.022 A 
ENDROOT
BRANCH   9  12
ATOM     12  O   UNL     1       5.599  54.846   4.059  1.00  0.00    -0.504 OA
ATOM     13  H   UNL     1       5.776  54.570   3.100  1.00  0.00     0.293 HD
ENDBRANCH   9  12
BRANCH   8  14
ATOM     14  O   UNL     1       2.854  55.199   4.336  1.00  0.00    -0.504 OA
ATOM     15  H   UNL     1       3.262  55.580   3.490  1.00  0.00     0.293 HD
ENDBRANCH   8  14
TORSDOF 2
ENDMDL
MODEL 7
REMARK VINA RESULT:    -5.547     12.278     13.737
REMARK INTER + INTRA:          -5.872
REMARK INTER:                  -5.872
REMARK INTRA:                   0.000
REMARK UNBOUND:                 0.000
REMARK SMILES O=c1ccc2cc(O)c(O)cc2o1
REMARK SMILES IDX 4 1 3 2 2 3 1 4 13 5 12 6 11 7 9 8 7 9 6 10 5 11 8 12 10 14
REMARK H PARENT 8 13 10 15
REMARK Flexibility Score: inf
ROOT
ATOM      1  C   UNL     1       3.172  54.169   5.266  1.00  0.00     0.019 A 
ATOM      2  C   UNL     1       4.163  54.690   4.435  1.00  0.00     0.094 A 
ATOM      3  C   UNL     1       5.454  54.155   4.500  1.00  0.00     0.336 A 
ATOM      4  O   UNL     1       6.362  54.612   3.759  1.00  0.00    -0.246 OA
ATOM      5  O   UNL     1       5.730  53.162   5.343  1.00  0.00    -0.423 OA
ATOM      6  C   UNL     1       4.814  52.636   6.153  1.00  0.00     0.142 A 
ATOM      7  C   UNL     1       5.162  51.594   7.018  1.00  0.00     0.098 A 
ATOM      8  C   UNL     1       4.200  51.035   7.873  1.00  0.00     0.161 A 
ATOM      9  C   UNL     1       2.885  51.522   7.863  1.00  0.00     0.158 A 
ATOM     10  C   UNL     1       2.530  52.567   6.997  1.00  0.00     0.062 A 
ATOM     11  C   UNL     1       3.490  53.127   6.142  1.00  0.00     0.022 A 
ENDROOT
BRANCH   9  12
ATOM     12  O   UNL     1       1.936  50.961   8.716  1.00  0.00    -0.504 OA
ATOM     13  H   UNL     1       1.427  50.122   8.465  1.00  0.00     0.293 HD
ENDBRANCH   9  12
BRANCH   8  14
ATOM     14  O   UNL     1       4.544  49.997   8.737  1.00  0.00    -0.504 OA
ATOM     15  H   UNL     1       4.852  50.177   9.685  1.00  0.00     0.293 HD
ENDBRANCH   8  14
TORSDOF 2
ENDMDL
MODEL 8
REMARK VINA RESULT:    -5.507     13.045     14.940
REMARK INTER + INTRA:          -5.829
REMARK INTER:                  -5.829
REMARK INTRA:                   0.000
REMARK UNBOUND:                 0.000
REMARK SMILES O=c1ccc2cc(O)c(O)cc2o1
REMARK SMILES IDX 4 1 3 2 2 3 1 4 13 5 12 6 11 7 9 8 7 9 6 10 5 11 8 12 10 14
REMARK H PARENT 8 13 10 15
REMARK Flexibility Score: inf
ROOT
ATOM      1  C   UNL     1      -6.057  63.452   4.472  1.00  0.00     0.019 A 
ATOM      2  C   UNL     1      -5.885  62.089   4.229  1.00  0.00     0.094 A 
ATOM      3  C   UNL     1      -6.837  61.412   3.459  1.00  0.00     0.336 A 
ATOM      4  O   UNL     1      -6.699  60.182   3.228  1.00  0.00    -0.246 OA
ATOM      5  O   UNL     1      -7.890  62.060   2.966  1.00  0.00    -0.423 OA
ATOM      6  C   UNL     1      -8.092  63.359   3.174  1.00  0.00     0.142 A 
ATOM      7  C   UNL     1      -9.217  63.987   2.631  1.00  0.00     0.098 A 
ATOM      8  C   UNL     1      -9.435  65.356   2.847  1.00  0.00     0.161 A 
ATOM      9  C   UNL     1      -8.522  66.100   3.610  1.00  0.00     0.158 A 
ATOM     10  C   UNL     1      -7.391  65.475   4.157  1.00  0.00     0.062 A 
ATOM     11  C   UNL     1      -7.173  64.107   3.942  1.00  0.00     0.022 A 
ENDROOT
BRANCH   9  12
ATOM     12  O   UNL     1      -8.746  67.460   3.819  1.00  0.00    -0.504 OA
ATOM     13  H   UNL     1      -7.988  68.131   3.801  1.00  0.00     0.293 HD
ENDBRANCH   9  12
BRANCH   8  14
ATOM     14  O   UNL     1     -10.556  65.985   2.308  1.00  0.00    -0.504 OA
ATOM     15  H   UNL     1     -11.006  65.637   1.469  1.00  0.00     0.293 HD
ENDBRANCH   8  14
TORSDOF 2
ENDMDL
MODEL 9
REMARK VINA RESULT:    -5.483     12.131     14.459
REMARK INTER + INTRA:          -5.804
REMARK INTER:                  -5.804
REMARK INTRA:                   0.000
REMARK UNBOUND:                 0.000
REMARK SMILES O=c1ccc2cc(O)c(O)cc2o1
REMARK SMILES IDX 4 1 3 2 2 3 1 4 13 5 12 6 11 7 9 8 7 9 6 10 5 11 8 12 10 14
REMARK H PARENT 8 13 10 15
REMARK Flexibility Score: inf
ROOT
ATOM      1  C   UNL     1      -7.163  64.533   4.585  1.00  0.00     0.019 A 
ATOM      2  C   UNL     1      -8.487  64.885   4.322  1.00  0.00     0.094 A 
ATOM      3  C   UNL     1      -9.306  63.981   3.637  1.00  0.00     0.336 A 
ATOM      4  O   UNL     1     -10.503  64.280   3.390  1.00  0.00    -0.246 OA
ATOM      5  O   UNL     1      -8.828  62.802   3.245  1.00  0.00    -0.423 OA
ATOM      6  C   UNL     1      -7.572  62.427   3.476  1.00  0.00     0.142 A 
ATOM      7  C   UNL     1      -7.126  61.176   3.040  1.00  0.00     0.098 A 
ATOM      8  C   UNL     1      -5.802  60.775   3.281  1.00  0.00     0.161 A 
ATOM      9  C   UNL     1      -4.923  61.631   3.961  1.00  0.00     0.158 A 
ATOM     10  C   UNL     1      -5.366  62.887   4.401  1.00  0.00     0.062 A 
ATOM     11  C   UNL     1      -6.687  63.289   4.161  1.00  0.00     0.022 A 
ENDROOT
BRANCH   9  12
ATOM     12  O   UNL     1      -3.611  61.224   4.196  1.00  0.00    -0.504 OA
ATOM     13  H   UNL     1      -3.270  61.049   5.134  1.00  0.00     0.293 HD
ENDBRANCH   9  12
BRANCH   8  14
ATOM     14  O   UNL     1      -5.354  59.529   2.847  1.00  0.00    -0.504 OA
ATOM     15  H   UNL     1      -5.943  58.918   2.293  1.00  0.00     0.293 HD
ENDBRANCH   8  14
TORSDOF 2
ENDMDL
