MODEL 1
REMARK VINA RESULT:    12.917      0.000      0.000
REMARK INTER + INTRA:          35.557
REMARK INTER:                  34.060
REMARK INTRA:                   1.497
REMARK UNBOUND:                 1.497
REMARK SMILES CCCCCCCCCCCCCCCCCCCCCCCCCCCCCC(=O)[O-]
REMARK SMILES IDX 16 1 17 2 18 3 19 4 20 5 21 6 22 7 23 8 24 9 25 10 26 11
REMARK SMILES IDX 27 12 28 13 29 14 30 15 31 16 32 17 15 18 14 19 13 20 12 21
REMARK SMILES IDX 11 22 10 23 9 24 8 25 7 26 6 27 5 28 4 29 3 30 2 31 1 32
REMARK H PARENT
REMARK Flexibility Score: inf
ROOT
ATOM      1  C   UNL     1       8.283  42.028  11.253  1.00  0.00     0.000 C 
ENDROOT
BRANCH   1   2
ATOM      2  C   UNL     1       7.300  42.535  10.175  1.00  0.00     0.000 C 
BRANCH   2   3
ATOM      3  C   UNL     1       7.377  44.042   9.875  1.00  0.00     0.000 C 
BRANCH   3   4
ATOM      4  C   UNL     1       7.212  44.958  11.102  1.00  0.00     0.000 C 
BRANCH   4   5
ATOM      5  C   UNL     1       5.749  45.115  11.565  1.00  0.00     0.000 C 
BRANCH   5   6
ATOM      6  C   UNL     1       5.447  44.326  12.848  1.00  0.00     0.000 C 
BRANCH   6   7
ATOM      7  C   UNL     1       4.124  43.560  12.712  1.00  0.00     0.000 C 
BRANCH   7   8
ATOM      8  C   UNL     1       3.945  42.921  11.325  1.00  0.00     0.000 C 
BRANCH   8   9
ATOM      9  C   UNL     1       2.468  42.653  10.984  1.00  0.00     0.000 C 
BRANCH   9  10
ATOM     10  C   UNL     1       1.553  43.818  11.405  1.00  0.00     0.000 C 
BRANCH  10  11
ATOM     11  C   UNL     1       0.643  43.446  12.587  1.00  0.00     0.000 C 
BRANCH  11  12
ATOM     12  C   UNL     1      -0.389  44.542  12.908  1.00  0.00     0.000 C 
BRANCH  12  13
ATOM     13  C   UNL     1      -0.536  44.870  14.409  1.00  0.00     0.006 C 
BRANCH  13  14
ATOM     14  C   UNL     1      -1.850  44.381  15.047  1.00  0.00     0.053 C 
BRANCH  14  15
ATOM     15  C   UNL     1      -2.299  43.067  14.483  1.00  0.00     0.041 C 
ATOM     16  O   UNL     1      -3.380  42.549  14.870  1.00  0.00    -0.550 OA
ATOM     17  O   UNL     1      -1.553  42.446  13.490  1.00  0.00    -0.550 OA
ENDBRANCH  14  15
ENDBRANCH  13  14
ENDBRANCH  12  13
ENDBRANCH  11  12
ENDBRANCH  10  11
ENDBRANCH   9  10
ENDBRANCH   8   9
ENDBRANCH   7   8
ENDBRANCH   6   7
ENDBRANCH   5   6
ENDBRANCH   4   5
ENDBRANCH   3   4
ENDBRANCH   2   3
ENDBRANCH   1   2
BRANCH   1  18
ATOM     18  C   UNL     1       7.626  41.407  12.499  1.00  0.00     0.000 C 
BRANCH  18  19
ATOM     19  C   UNL     1       7.161  42.460  13.517  1.00  0.00     0.000 C 
BRANCH  19  20
ATOM     20  C   UNL     1       7.015  41.845  14.914  1.00  0.00     0.000 C 
BRANCH  20  21
ATOM     21  C   UNL     1       5.558  41.914  15.391  1.00  0.00     0.000 C 
BRANCH  21  22
ATOM     22  C   UNL     1       5.230  40.866  16.471  1.00  0.00     0.000 C 
BRANCH  22  23
ATOM     23  C   UNL     1       6.049  40.990  17.772  1.00  0.00     0.000 C 
BRANCH  23  24
ATOM     24  C   UNL     1       6.103  39.716  18.639  1.00  0.00    -0.000 C 
BRANCH  24  25
ATOM     25  C   UNL     1       5.095  39.679  19.801  1.00  0.00    -0.000 C 
BRANCH  25  26
ATOM     26  C   UNL     1       3.635  39.646  19.326  1.00  0.00    -0.000 C 
BRANCH  26  27
ATOM     27  C   UNL     1       2.673  39.627  20.520  1.00  0.00    -0.000 C 
BRANCH  27  28
ATOM     28  C   UNL     1       2.633  40.994  21.221  1.00  0.00    -0.000 C 
BRANCH  28  29
ATOM     29  C   UNL     1       3.745  41.941  20.721  1.00  0.00    -0.000 C 
BRANCH  29  30
ATOM     30  C   UNL     1       3.268  43.386  20.478  1.00  0.00    -0.000 C 
BRANCH  30  31
ATOM     31  C   UNL     1       3.793  44.418  21.489  1.00  0.00    -0.003 C 
ATOM     32  C   UNL     1       4.968  43.895  22.317  1.00  0.00     0.004 C 
ENDBRANCH  30  31
ENDBRANCH  29  30
ENDBRANCH  28  29
ENDBRANCH  27  28
ENDBRANCH  26  27
ENDBRANCH  25  26
ENDBRANCH  24  25
ENDBRANCH  23  24
ENDBRANCH  22  23
ENDBRANCH  21  22
ENDBRANCH  20  21
ENDBRANCH  19  20
ENDBRANCH  18  19
ENDBRANCH   1  18
TORSDOF 28
ENDMDL
MODEL 2
REMARK VINA RESULT:    14.604      1.618      4.002
REMARK INTER + INTRA:          40.006
REMARK INTER:                  39.561
REMARK INTRA:                   0.444
REMARK UNBOUND:                 1.497
REMARK SMILES CCCCCCCCCCCCCCCCCCCCCCCCCCCCCC(=O)[O-]
REMARK SMILES IDX 16 1 17 2 18 3 19 4 20 5 21 6 22 7 23 8 24 9 25 10 26 11
REMARK SMILES IDX 27 12 28 13 29 14 30 15 31 16 32 17 15 18 14 19 13 20 12 21
REMARK SMILES IDX 11 22 10 23 9 24 8 25 7 26 6 27 5 28 4 29 3 30 2 31 1 32
REMARK H PARENT
REMARK Flexibility Score: inf
ROOT
ATOM      1  C   UNL     1       4.872  41.434  15.577  1.00  0.00     0.000 C 
ENDROOT
BRANCH   1   2
ATOM      2  C   UNL     1       6.063  42.107  14.861  1.00  0.00     0.000 C 
BRANCH   2   3
ATOM      3  C   UNL     1       7.326  41.239  14.730  1.00  0.00     0.000 C 
BRANCH   3   4
ATOM      4  C   UNL     1       8.057  41.352  13.379  1.00  0.00     0.000 C 
BRANCH   4   5
ATOM      5  C   UNL     1       7.562  42.523  12.504  1.00  0.00     0.000 C 
BRANCH   5   6
ATOM      6  C   UNL     1       7.116  42.070  11.107  1.00  0.00     0.000 C 
BRANCH   6   7
ATOM      7  C   UNL     1       6.695  43.278  10.256  1.00  0.00     0.000 C 
BRANCH   7   8
ATOM      8  C   UNL     1       5.171  43.395  10.102  1.00  0.00     0.000 C 
BRANCH   8   9
ATOM      9  C   UNL     1       4.559  44.435  11.058  1.00  0.00     0.000 C 
BRANCH   9  10
ATOM     10  C   UNL     1       3.035  44.566  10.878  1.00  0.00     0.000 C 
BRANCH  10  11
ATOM     11  C   UNL     1       2.256  43.628  11.815  1.00  0.00     0.000 C 
BRANCH  11  12
ATOM     12  C   UNL     1       0.804  44.087  12.039  1.00  0.00     0.000 C 
BRANCH  12  13
ATOM     13  C   UNL     1       0.273  43.870  13.471  1.00  0.00     0.006 C 
BRANCH  13  14
ATOM     14  C   UNL     1      -0.736  44.931  13.950  1.00  0.00     0.053 C 
BRANCH  14  15
ATOM     15  C   UNL     1      -1.913  44.319  14.646  1.00  0.00     0.041 C 
ATOM     16  O   UNL     1      -2.778  45.055  15.191  1.00  0.00    -0.550 OA
ATOM     17  O   UNL     1      -2.084  42.942  14.642  1.00  0.00    -0.550 OA
ENDBRANCH  14  15
ENDBRANCH  13  14
ENDBRANCH  12  13
ENDBRANCH  11  12
ENDBRANCH  10  11
ENDBRANCH   9  10
ENDBRANCH   8   9
ENDBRANCH   7   8
ENDBRANCH   6   7
ENDBRANCH   5   6
ENDBRANCH   4   5
ENDBRANCH   3   4
ENDBRANCH   2   3
ENDBRANCH   1   2
BRANCH   1  18
ATOM     18  C   UNL     1       5.112  41.082  17.057  1.00  0.00     0.000 C 
BRANCH  18  19
ATOM     19  C   UNL     1       4.738  39.631  17.395  1.00  0.00     0.000 C 
BRANCH  19  20
ATOM     20  C   UNL     1       4.705  39.413  18.912  1.00  0.00     0.000 C 
BRANCH  20  21
ATOM     21  C   UNL     1       5.476  40.521  19.640  1.00  0.00     0.000 C 
BRANCH  21  22
ATOM     22  C   UNL     1       4.561  41.633  20.184  1.00  0.00     0.000 C 
BRANCH  22  23
ATOM     23  C   UNL     1       3.317  41.138  20.951  1.00  0.00     0.000 C 
BRANCH  23  24
ATOM     24  C   UNL     1       1.998  41.855  20.598  1.00  0.00    -0.000 C 
BRANCH  24  25
ATOM     25  C   UNL     1       2.042  43.389  20.715  1.00  0.00    -0.000 C 
BRANCH  25  26
ATOM     26  C   UNL     1       3.469  43.954  20.646  1.00  0.00    -0.000 C 
BRANCH  26  27
ATOM     27  C   UNL     1       4.061  44.112  22.052  1.00  0.00    -0.000 C 
BRANCH  27  28
ATOM     28  C   UNL     1       5.547  43.723  22.073  1.00  0.00    -0.000 C 
BRANCH  28  29
ATOM     29  C   UNL     1       5.973  43.110  23.425  1.00  0.00    -0.000 C 
BRANCH  29  30
ATOM     30  C   UNL     1       6.644  44.116  24.380  1.00  0.00    -0.000 C 
BRANCH  30  31
ATOM     31  C   UNL     1       7.653  43.500  25.362  1.00  0.00    -0.003 C 
ATOM     32  C   UNL     1       7.457  41.995  25.550  1.00  0.00     0.004 C 
ENDBRANCH  30  31
ENDBRANCH  29  30
ENDBRANCH  28  29
ENDBRANCH  27  28
ENDBRANCH  26  27
ENDBRANCH  25  26
ENDBRANCH  24  25
ENDBRANCH  23  24
ENDBRANCH  22  23
ENDBRANCH  21  22
ENDBRANCH  20  21
ENDBRANCH  19  20
ENDBRANCH  18  19
ENDBRANCH   1  18
TORSDOF 28
ENDMDL
MODEL 3
REMARK VINA RESULT:    14.877      1.528      2.541
REMARK INTER + INTRA:          40.725
REMARK INTER:                  41.015
REMARK INTRA:                  -0.291
REMARK UNBOUND:                 1.497
REMARK SMILES CCCCCCCCCCCCCCCCCCCCCCCCCCCCCC(=O)[O-]
REMARK SMILES IDX 16 1 17 2 18 3 19 4 20 5 21 6 22 7 23 8 24 9 25 10 26 11
REMARK SMILES IDX 27 12 28 13 29 14 30 15 31 16 32 17 15 18 14 19 13 20 12 21
REMARK SMILES IDX 11 22 10 23 9 24 8 25 7 26 6 27 5 28 4 29 3 30 2 31 1 32
REMARK H PARENT
REMARK Flexibility Score: inf
ROOT
ATOM      1  C   UNL     1       5.805  43.886  13.105  1.00  0.00     0.000 C 
ENDROOT
BRANCH   1   2
ATOM      2  C   UNL     1       7.057  44.209  12.260  1.00  0.00     0.000 C 
BRANCH   2   3
ATOM      3  C   UNL     1       7.842  42.985  11.757  1.00  0.00     0.000 C 
BRANCH   3   4
ATOM      4  C   UNL     1       7.543  42.575  10.302  1.00  0.00     0.000 C 
BRANCH   4   5
ATOM      5  C   UNL     1       6.082  42.826   9.876  1.00  0.00     0.000 C 
BRANCH   5   6
ATOM      6  C   UNL     1       5.158  41.646  10.209  1.00  0.00     0.000 C 
BRANCH   6   7
ATOM      7  C   UNL     1       3.685  42.065  10.101  1.00  0.00     0.000 C 
BRANCH   7   8
ATOM      8  C   UNL     1       3.511  43.577   9.881  1.00  0.00     0.000 C 
BRANCH   8   9
ATOM      9  C   UNL     1       2.239  44.128  10.550  1.00  0.00     0.000 C 
BRANCH   9  10
ATOM     10  C   UNL     1       2.191  43.816  12.056  1.00  0.00     0.000 C 
BRANCH  10  11
ATOM     11  C   UNL     1       1.314  44.814  12.830  1.00  0.00     0.000 C 
BRANCH  11  12
ATOM     12  C   UNL     1       0.089  44.146  13.480  1.00  0.00     0.000 C 
BRANCH  12  13
ATOM     13  C   UNL     1      -0.377  44.798  14.799  1.00  0.00     0.006 C 
BRANCH  13  14
ATOM     14  C   UNL     1      -1.903  44.795  15.012  1.00  0.00     0.053 C 
BRANCH  14  15
ATOM     15  C   UNL     1      -2.528  43.494  14.610  1.00  0.00     0.041 C 
ATOM     16  O   UNL     1      -1.912  42.706  13.844  1.00  0.00    -0.550 OA
ATOM     17  O   UNL     1      -3.763  43.127  15.126  1.00  0.00    -0.550 OA
ENDBRANCH  14  15
ENDBRANCH  13  14
ENDBRANCH  12  13
ENDBRANCH  11  12
ENDBRANCH  10  11
ENDBRANCH   9  10
ENDBRANCH   8   9
ENDBRANCH   7   8
ENDBRANCH   6   7
ENDBRANCH   5   6
ENDBRANCH   4   5
ENDBRANCH   3   4
ENDBRANCH   2   3
ENDBRANCH   1   2
BRANCH   1  18
ATOM     18  C   UNL     1       5.711  42.435  13.610  1.00  0.00     0.000 C 
BRANCH  18  19
ATOM     19  C   UNL     1       7.079  41.840  13.977  1.00  0.00     0.000 C 
BRANCH  19  20
ATOM     20  C   UNL     1       7.028  41.152  15.346  1.00  0.00     0.000 C 
BRANCH  20  21
ATOM     21  C   UNL     1       5.629  41.269  15.965  1.00  0.00     0.000 C 
BRANCH  21  22
ATOM     22  C   UNL     1       5.296  40.108  16.919  1.00  0.00     0.000 C 
BRANCH  22  23
ATOM     23  C   UNL     1       6.097  40.095  18.237  1.00  0.00     0.000 C 
BRANCH  23  24
ATOM     24  C   UNL     1       5.264  40.314  19.516  1.00  0.00    -0.000 C 
BRANCH  24  25
ATOM     25  C   UNL     1       5.701  41.511  20.378  1.00  0.00    -0.000 C 
BRANCH  25  26
ATOM     26  C   UNL     1       4.596  42.000  21.328  1.00  0.00    -0.000 C 
BRANCH  26  27
ATOM     27  C   UNL     1       4.725  43.506  21.584  1.00  0.00    -0.000 C 
BRANCH  27  28
ATOM     28  C   UNL     1       3.654  44.293  20.811  1.00  0.00    -0.000 C 
BRANCH  28  29
ATOM     29  C   UNL     1       2.222  43.921  21.251  1.00  0.00    -0.000 C 
BRANCH  29  30
ATOM     30  C   UNL     1       1.140  44.282  20.215  1.00  0.00    -0.000 C 
BRANCH  30  31
ATOM     31  C   UNL     1      -0.082  45.018  20.788  1.00  0.00    -0.003 C 
ATOM     32  C   UNL     1      -0.992  44.107  21.612  1.00  0.00     0.004 C 
ENDBRANCH  30  31
ENDBRANCH  29  30
ENDBRANCH  28  29
ENDBRANCH  27  28
ENDBRANCH  26  27
ENDBRANCH  25  26
ENDBRANCH  24  25
ENDBRANCH  23  24
ENDBRANCH  22  23
ENDBRANCH  21  22
ENDBRANCH  20  21
ENDBRANCH  19  20
ENDBRANCH  18  19
ENDBRANCH   1  18
TORSDOF 28
ENDMDL
