MODEL 1
REMARK VINA RESULT:    -3.606      0.000      0.000
REMARK INTER + INTRA:          -9.343
REMARK INTER:                  -6.980
REMARK INTRA:                  -2.363
REMARK UNBOUND:                -2.363
REMARK SMILES CCCCCCCCCCCCCCCCCC(=O)[O-]
REMARK SMILES IDX 10 1 11 2 12 3 13 4 14 5 15 6 16 7 17 8 18 9 19 10 20 11
REMARK SMILES IDX 9 12 8 13 7 14 6 15 5 16 4 17 3 18 2 19 1 20
REMARK H PARENT
REMARK Flexibility Score: inf
ROOT
ATOM      1  C   UNL     1     119.078  52.647  53.916  1.00  0.00     0.000 C 
ENDROOT
BRANCH   1   2
ATOM      2  C   UNL     1     119.036  53.839  54.888  1.00  0.00     0.000 C 
BRANCH   2   3
ATOM      3  C   UNL     1     120.062  53.783  56.037  1.00  0.00     0.000 C 
BRANCH   3   4
ATOM      4  C   UNL     1     121.270  52.862  55.788  1.00  0.00     0.000 C 
BRANCH   4   5
ATOM      5  C   UNL     1     122.605  53.623  55.767  1.00  0.00     0.000 C 
BRANCH   5   6
ATOM      6  C   UNL     1     122.731  54.472  54.493  1.00  0.00     0.000 C 
BRANCH   6   7
ATOM      7  C   UNL     1     122.567  53.650  53.202  1.00  0.00     0.006 C 
BRANCH   7   8
ATOM      8  C   UNL     1     123.242  54.279  51.970  1.00  0.00     0.053 C 
BRANCH   8   9
ATOM      9  C   UNL     1     124.675  54.641  52.218  1.00  0.00     0.041 C 
ATOM     10  O   UNL     1     125.545  53.741  52.352  1.00  0.00    -0.550 OA
ATOM     11  O   UNL     1     125.055  55.977  52.269  1.00  0.00    -0.550 OA
ENDBRANCH   8   9
ENDBRANCH   7   8
ENDBRANCH   6   7
ENDBRANCH   5   6
ENDBRANCH   4   5
ENDBRANCH   3   4
ENDBRANCH   2   3
ENDBRANCH   1   2
BRANCH   1  12
ATOM     12  C   UNL     1     117.785  51.819  53.932  1.00  0.00     0.000 C 
BRANCH  12  13
ATOM     13  C   UNL     1     116.626  52.618  54.550  1.00  0.00    -0.000 C 
BRANCH  13  14
ATOM     14  C   UNL     1     115.450  52.798  53.567  1.00  0.00    -0.000 C 
BRANCH  14  15
ATOM     15  C   UNL     1     115.862  52.737  52.083  1.00  0.00    -0.000 C 
BRANCH  15  16
ATOM     16  C   UNL     1     115.393  53.925  51.225  1.00  0.00    -0.000 C 
BRANCH  16  17
ATOM     17  C   UNL     1     116.557  54.653  50.527  1.00  0.00    -0.000 C 
BRANCH  17  18
ATOM     18  C   UNL     1     117.899  53.930  50.714  1.00  0.00    -0.000 C 
BRANCH  18  19
ATOM     19  C   UNL     1     119.051  54.893  51.042  1.00  0.00    -0.003 C 
ATOM     20  C   UNL     1     118.577  56.028  51.945  1.00  0.00     0.004 C 
ENDBRANCH  18  19
ENDBRANCH  17  18
ENDBRANCH  16  17
ENDBRANCH  15  16
ENDBRANCH  14  15
ENDBRANCH  13  14
ENDBRANCH  12  13
ENDBRANCH   1  12
TORSDOF 16
ENDMDL
MODEL 2
REMARK VINA RESULT:    -3.555      2.726      6.153
REMARK INTER + INTRA:          -9.244
REMARK INTER:                  -6.796
REMARK INTRA:                  -2.448
REMARK UNBOUND:                -2.363
REMARK SMILES CCCCCCCCCCCCCCCCCC(=O)[O-]
REMARK SMILES IDX 10 1 11 2 12 3 13 4 14 5 15 6 16 7 17 8 18 9 19 10 20 11
REMARK SMILES IDX 9 12 8 13 7 14 6 15 5 16 4 17 3 18 2 19 1 20
REMARK H PARENT
REMARK Flexibility Score: inf
ROOT
ATOM      1  C   UNL     1     119.201  52.551  53.931  1.00  0.00     0.000 C 
ENDROOT
BRANCH   1   2
ATOM      2  C   UNL     1     117.903  51.723  53.957  1.00  0.00     0.000 C 
BRANCH   2   3
ATOM      3  C   UNL     1     116.707  52.403  54.652  1.00  0.00     0.000 C 
BRANCH   3   4
ATOM      4  C   UNL     1     115.568  52.837  53.712  1.00  0.00     0.000 C 
BRANCH   4   5
ATOM      5  C   UNL     1     115.428  51.924  52.484  1.00  0.00     0.000 C 
BRANCH   5   6
ATOM      6  C   UNL     1     115.804  52.675  51.197  1.00  0.00     0.000 C 
BRANCH   6   7
ATOM      7  C   UNL     1     116.005  54.185  51.418  1.00  0.00     0.006 C 
BRANCH   7   8
ATOM      8  C   UNL     1     117.430  54.678  51.112  1.00  0.00     0.053 C 
BRANCH   8   9
ATOM      9  C   UNL     1     117.474  55.650  49.972  1.00  0.00     0.041 C 
ATOM     10  O   UNL     1     116.450  56.314  49.661  1.00  0.00    -0.550 OA
ATOM     11  O   UNL     1     118.658  55.846  49.271  1.00  0.00    -0.550 OA
ENDBRANCH   8   9
ENDBRANCH   7   8
ENDBRANCH   6   7
ENDBRANCH   5   6
ENDBRANCH   4   5
ENDBRANCH   3   4
ENDBRANCH   2   3
ENDBRANCH   1   2
BRANCH   1  12
ATOM     12  C   UNL     1     118.997  53.994  54.413  1.00  0.00     0.000 C 
BRANCH  12  13
ATOM     13  C   UNL     1     119.796  54.264  55.698  1.00  0.00    -0.000 C 
BRANCH  13  14
ATOM     14  C   UNL     1     120.885  53.198  55.944  1.00  0.00    -0.000 C 
BRANCH  14  15
ATOM     15  C   UNL     1     122.277  53.595  55.414  1.00  0.00    -0.000 C 
BRANCH  15  16
ATOM     16  C   UNL     1     122.905  52.602  54.420  1.00  0.00    -0.000 C 
BRANCH  16  17
ATOM     17  C   UNL     1     123.160  53.225  53.035  1.00  0.00    -0.000 C 
BRANCH  17  18
ATOM     18  C   UNL     1     123.229  54.759  53.084  1.00  0.00    -0.000 C 
BRANCH  18  19
ATOM     19  C   UNL     1     122.545  55.422  51.879  1.00  0.00    -0.003 C 
ATOM     20  C   UNL     1     121.207  54.754  51.573  1.00  0.00     0.004 C 
ENDBRANCH  18  19
ENDBRANCH  17  18
ENDBRANCH  16  17
ENDBRANCH  15  16
ENDBRANCH  14  15
ENDBRANCH  13  14
ENDBRANCH  12  13
ENDBRANCH   1  12
TORSDOF 16
ENDMDL
MODEL 3
REMARK VINA RESULT:    -3.530      1.723      2.736
REMARK INTER + INTRA:          -9.196
REMARK INTER:                  -6.586
REMARK INTRA:                  -2.609
REMARK UNBOUND:                -2.363
REMARK SMILES CCCCCCCCCCCCCCCCCC(=O)[O-]
REMARK SMILES IDX 10 1 11 2 12 3 13 4 14 5 15 6 16 7 17 8 18 9 19 10 20 11
REMARK SMILES IDX 9 12 8 13 7 14 6 15 5 16 4 17 3 18 2 19 1 20
REMARK H PARENT
REMARK Flexibility Score: inf
ROOT
ATOM      1  C   UNL     1     119.655  54.274  55.414  1.00  0.00     0.000 C 
ENDROOT
BRANCH   1   2
ATOM      2  C   UNL     1     120.610  53.138  55.822  1.00  0.00     0.000 C 
BRANCH   2   3
ATOM      3  C   UNL     1     122.110  53.490  55.759  1.00  0.00     0.000 C 
BRANCH   3   4
ATOM      4  C   UNL     1     122.769  53.291  54.381  1.00  0.00     0.000 C 
BRANCH   4   5
ATOM      5  C   UNL     1     123.240  54.610  53.751  1.00  0.00     0.000 C 
BRANCH   5   6
ATOM      6  C   UNL     1     123.182  54.536  52.218  1.00  0.00     0.000 C 
BRANCH   6   7
ATOM      7  C   UNL     1     121.781  54.187  51.684  1.00  0.00     0.006 C 
BRANCH   7   8
ATOM      8  C   UNL     1     120.933  55.412  51.303  1.00  0.00     0.053 C 
BRANCH   8   9
ATOM      9  C   UNL     1     121.636  56.328  50.346  1.00  0.00     0.041 C 
ATOM     10  O   UNL     1     121.978  55.917  49.207  1.00  0.00    -0.550 OA
ATOM     11  O   UNL     1     121.885  57.648  50.703  1.00  0.00    -0.550 OA
ENDBRANCH   8   9
ENDBRANCH   7   8
ENDBRANCH   6   7
ENDBRANCH   5   6
ENDBRANCH   4   5
ENDBRANCH   3   4
ENDBRANCH   2   3
ENDBRANCH   1   2
BRANCH   1  12
ATOM     12  C   UNL     1     118.900  53.978  54.110  1.00  0.00     0.000 C 
BRANCH  12  13
ATOM     13  C   UNL     1     119.077  52.510  53.691  1.00  0.00    -0.000 C 
BRANCH  13  14
ATOM     14  C   UNL     1     117.823  51.661  53.989  1.00  0.00    -0.000 C 
BRANCH  14  15
ATOM     15  C   UNL     1     116.616  52.483  54.484  1.00  0.00    -0.000 C 
BRANCH  15  16
ATOM     16  C   UNL     1     115.410  52.512  53.529  1.00  0.00    -0.000 C 
BRANCH  16  17
ATOM     17  C   UNL     1     115.496  53.646  52.492  1.00  0.00    -0.000 C 
BRANCH  17  18
ATOM     18  C   UNL     1     115.864  53.136  51.091  1.00  0.00    -0.000 C 
BRANCH  18  19
ATOM     19  C   UNL     1     117.205  53.693  50.589  1.00  0.00    -0.003 C 
ATOM     20  C   UNL     1     117.386  55.148  51.012  1.00  0.00     0.004 C 
ENDBRANCH  18  19
ENDBRANCH  17  18
ENDBRANCH  16  17
ENDBRANCH  15  16
ENDBRANCH  14  15
ENDBRANCH  13  14
ENDBRANCH  12  13
ENDBRANCH   1  12
TORSDOF 16
ENDMDL
MODEL 4
REMARK VINA RESULT:    -3.513      8.668     10.799
REMARK INTER + INTRA:          -9.161
REMARK INTER:                  -6.027
REMARK INTRA:                  -3.135
REMARK UNBOUND:                -2.363
REMARK SMILES CCCCCCCCCCCCCCCCCC(=O)[O-]
REMARK SMILES IDX 10 1 11 2 12 3 13 4 14 5 15 6 16 7 17 8 18 9 19 10 20 11
REMARK SMILES IDX 9 12 8 13 7 14 6 15 5 16 4 17 3 18 2 19 1 20
REMARK H PARENT
REMARK Flexibility Score: inf
ROOT
ATOM      1  C   UNL     1     122.825  53.294  45.476  1.00  0.00     0.000 C 
ENDROOT
BRANCH   1   2
ATOM      2  C   UNL     1     124.121  53.057  46.271  1.00  0.00     0.000 C 
BRANCH   2   3
ATOM      3  C   UNL     1     125.271  52.413  45.473  1.00  0.00     0.000 C 
BRANCH   3   4
ATOM      4  C   UNL     1     126.287  53.405  44.876  1.00  0.00     0.000 C 
BRANCH   4   5
ATOM      5  C   UNL     1     126.104  53.607  43.364  1.00  0.00     0.000 C 
BRANCH   5   6
ATOM      6  C   UNL     1     126.033  55.101  43.015  1.00  0.00     0.000 C 
BRANCH   6   7
ATOM      7  C   UNL     1     124.674  55.736  43.361  1.00  0.00     0.006 C 
BRANCH   7   8
ATOM      8  C   UNL     1     124.776  56.977  44.266  1.00  0.00     0.053 C 
BRANCH   8   9
ATOM      9  C   UNL     1     124.102  56.784  45.591  1.00  0.00     0.041 C 
ATOM     10  O   UNL     1     122.851  56.885  45.690  1.00  0.00    -0.550 OA
ATOM     11  O   UNL     1     124.856  56.460  46.713  1.00  0.00    -0.550 OA
ENDBRANCH   8   9
ENDBRANCH   7   8
ENDBRANCH   6   7
ENDBRANCH   5   6
ENDBRANCH   4   5
ENDBRANCH   3   4
ENDBRANCH   2   3
ENDBRANCH   1   2
BRANCH   1  12
ATOM     12  C   UNL     1     122.574  52.215  44.412  1.00  0.00     0.000 C 
BRANCH  12  13
ATOM     13  C   UNL     1     122.438  52.840  43.015  1.00  0.00    -0.000 C 
BRANCH  13  14
ATOM     14  C   UNL     1     122.823  51.853  41.892  1.00  0.00    -0.000 C 
BRANCH  14  15
ATOM     15  C   UNL     1     123.833  50.774  42.330  1.00  0.00    -0.000 C 
BRANCH  15  16
ATOM     16  C   UNL     1     123.337  49.323  42.202  1.00  0.00    -0.000 C 
BRANCH  16  17
ATOM     17  C   UNL     1     123.447  48.535  43.519  1.00  0.00    -0.000 C 
BRANCH  17  18
ATOM     18  C   UNL     1     124.631  48.996  44.383  1.00  0.00    -0.000 C 
BRANCH  18  19
ATOM     19  C   UNL     1     124.403  48.752  45.882  1.00  0.00    -0.003 C 
ATOM     20  C   UNL     1     123.001  49.187  46.301  1.00  0.00     0.004 C 
ENDBRANCH  18  19
ENDBRANCH  17  18
ENDBRANCH  16  17
ENDBRANCH  15  16
ENDBRANCH  14  15
ENDBRANCH  13  14
ENDBRANCH  12  13
ENDBRANCH   1  12
TORSDOF 16
ENDMDL
MODEL 5
REMARK VINA RESULT:    -3.489      8.760     10.928
REMARK INTER + INTRA:          -9.115
REMARK INTER:                  -6.191
REMARK INTRA:                  -2.924
REMARK UNBOUND:                -2.363
REMARK SMILES CCCCCCCCCCCCCCCCCC(=O)[O-]
REMARK SMILES IDX 10 1 11 2 12 3 13 4 14 5 15 6 16 7 17 8 18 9 19 10 20 11
REMARK SMILES IDX 9 12 8 13 7 14 6 15 5 16 4 17 3 18 2 19 1 20
REMARK H PARENT
REMARK Flexibility Score: inf
ROOT
ATOM      1  C   UNL     1     124.086  53.105  46.553  1.00  0.00     0.000 C 
ENDROOT
BRANCH   1   2
ATOM      2  C   UNL     1     125.477  53.278  45.917  1.00  0.00     0.000 C 
BRANCH   2   3
ATOM      3  C   UNL     1     125.737  52.414  44.668  1.00  0.00     0.000 C 
BRANCH   3   4
ATOM      4  C   UNL     1     125.928  53.202  43.359  1.00  0.00     0.000 C 
BRANCH   4   5
ATOM      5  C   UNL     1     126.773  54.471  43.545  1.00  0.00     0.000 C 
BRANCH   5   6
ATOM      6  C   UNL     1     126.064  55.695  42.946  1.00  0.00     0.000 C 
BRANCH   6   7
ATOM      7  C   UNL     1     124.597  55.822  43.397  1.00  0.00     0.006 C 
BRANCH   7   8
ATOM      8  C   UNL     1     124.408  56.643  44.684  1.00  0.00     0.053 C 
BRANCH   8   9
ATOM      9  C   UNL     1     123.472  57.799  44.501  1.00  0.00     0.041 C 
ATOM     10  O   UNL     1     122.571  57.756  43.622  1.00  0.00    -0.550 OA
ATOM     11  O   UNL     1     123.574  58.915  45.324  1.00  0.00    -0.550 OA
ENDBRANCH   8   9
ENDBRANCH   7   8
ENDBRANCH   6   7
ENDBRANCH   5   6
ENDBRANCH   4   5
ENDBRANCH   3   4
ENDBRANCH   2   3
ENDBRANCH   1   2
BRANCH   1  12
ATOM     12  C   UNL     1     123.089  52.401  45.622  1.00  0.00     0.000 C 
BRANCH  12  13
ATOM     13  C   UNL     1     122.230  53.422  44.859  1.00  0.00    -0.000 C 
BRANCH  13  14
ATOM     14  C   UNL     1     122.196  53.142  43.342  1.00  0.00    -0.000 C 
BRANCH  14  15
ATOM     15  C   UNL     1     121.196  52.042  42.934  1.00  0.00    -0.000 C 
BRANCH  15  16
ATOM     16  C   UNL     1     121.755  50.972  41.980  1.00  0.00    -0.000 C 
BRANCH  16  17
ATOM     17  C   UNL     1     123.240  51.193  41.639  1.00  0.00    -0.000 C 
BRANCH  17  18
ATOM     18  C   UNL     1     124.142  50.078  42.188  1.00  0.00    -0.000 C 
BRANCH  18  19
ATOM     19  C   UNL     1     123.542  49.379  43.417  1.00  0.00    -0.003 C 
ATOM     20  C   UNL     1     124.638  48.881  44.354  1.00  0.00     0.004 C 
ENDBRANCH  18  19
ENDBRANCH  17  18
ENDBRANCH  16  17
ENDBRANCH  15  16
ENDBRANCH  14  15
ENDBRANCH  13  14
ENDBRANCH  12  13
ENDBRANCH   1  12
TORSDOF 16
ENDMDL
MODEL 6
REMARK VINA RESULT:    -3.484      1.935      3.591
REMARK INTER + INTRA:          -9.106
REMARK INTER:                  -6.871
REMARK INTRA:                  -2.235
REMARK UNBOUND:                -2.363
REMARK SMILES CCCCCCCCCCCCCCCCCC(=O)[O-]
REMARK SMILES IDX 10 1 11 2 12 3 13 4 14 5 15 6 16 7 17 8 18 9 19 10 20 11
REMARK SMILES IDX 9 12 8 13 7 14 6 15 5 16 4 17 3 18 2 19 1 20
REMARK H PARENT
REMARK Flexibility Score: inf
ROOT
ATOM      1  C   UNL     1     116.439  52.372  54.443  1.00  0.00     0.000 C 
ENDROOT
BRANCH   1   2
ATOM      2  C   UNL     1     117.744  51.816  53.847  1.00  0.00     0.000 C 
BRANCH   2   3
ATOM      3  C   UNL     1     119.037  52.444  54.403  1.00  0.00     0.000 C 
BRANCH   3   4
ATOM      4  C   UNL     1     118.871  53.851  55.005  1.00  0.00     0.000 C 
BRANCH   4   5
ATOM      5  C   UNL     1     119.944  54.180  56.056  1.00  0.00     0.000 C 
BRANCH   5   6
ATOM      6  C   UNL     1     121.063  53.128  56.043  1.00  0.00     0.000 C 
BRANCH   6   7
ATOM      7  C   UNL     1     122.411  53.688  55.552  1.00  0.00     0.006 C 
BRANCH   7   8
ATOM      8  C   UNL     1     122.411  54.111  54.073  1.00  0.00     0.053 C 
BRANCH   8   9
ATOM      9  C   UNL     1     123.157  53.151  53.197  1.00  0.00     0.041 C 
ATOM     10  O   UNL     1     122.556  52.192  52.647  1.00  0.00    -0.550 OA
ATOM     11  O   UNL     1     124.515  53.337  52.961  1.00  0.00    -0.550 OA
ENDBRANCH   8   9
ENDBRANCH   7   8
ENDBRANCH   6   7
ENDBRANCH   5   6
ENDBRANCH   4   5
ENDBRANCH   3   4
ENDBRANCH   2   3
ENDBRANCH   1   2
BRANCH   1  12
ATOM     12  C   UNL     1     115.405  52.744  53.370  1.00  0.00     0.000 C 
BRANCH  12  13
ATOM     13  C   UNL     1     116.048  53.578  52.250  1.00  0.00    -0.000 C 
BRANCH  13  14
ATOM     14  C   UNL     1     115.392  53.320  50.877  1.00  0.00    -0.000 C 
BRANCH  14  15
ATOM     15  C   UNL     1     116.397  52.974  49.761  1.00  0.00    -0.000 C 
BRANCH  15  16
ATOM     16  C   UNL     1     117.469  51.940  50.145  1.00  0.00    -0.000 C 
BRANCH  16  17
ATOM     17  C   UNL     1     117.027  50.491  49.872  1.00  0.00    -0.000 C 
BRANCH  17  18
ATOM     18  C   UNL     1     116.621  49.748  51.154  1.00  0.00    -0.000 C 
BRANCH  18  19
ATOM     19  C   UNL     1     115.127  49.391  51.185  1.00  0.00    -0.003 C 
ATOM     20  C   UNL     1     114.475  49.643  49.828  1.00  0.00     0.004 C 
ENDBRANCH  18  19
ENDBRANCH  17  18
ENDBRANCH  16  17
ENDBRANCH  15  16
ENDBRANCH  14  15
ENDBRANCH  13  14
ENDBRANCH  12  13
ENDBRANCH   1  12
TORSDOF 16
ENDMDL
MODEL 7
REMARK VINA RESULT:    -3.474      3.671      7.083
REMARK INTER + INTRA:          -9.086
REMARK INTER:                  -6.205
REMARK INTRA:                  -2.881
REMARK UNBOUND:                -2.363
REMARK SMILES CCCCCCCCCCCCCCCCCC(=O)[O-]
REMARK SMILES IDX 10 1 11 2 12 3 13 4 14 5 15 6 16 7 17 8 18 9 19 10 20 11
REMARK SMILES IDX 9 12 8 13 7 14 6 15 5 16 4 17 3 18 2 19 1 20
REMARK H PARENT
REMARK Flexibility Score: inf
ROOT
ATOM      1  C   UNL     1     119.341  53.153  52.363  1.00  0.00     0.000 C 
ENDROOT
BRANCH   1   2
ATOM      2  C   UNL     1     118.776  54.027  53.496  1.00  0.00     0.000 C 
BRANCH   2   3
ATOM      3  C   UNL     1     118.146  53.251  54.669  1.00  0.00     0.000 C 
BRANCH   3   4
ATOM      4  C   UNL     1     117.300  52.030  54.263  1.00  0.00     0.000 C 
BRANCH   4   5
ATOM      5  C   UNL     1     115.856  52.404  53.890  1.00  0.00     0.000 C 
BRANCH   5   6
ATOM      6  C   UNL     1     115.390  51.621  52.654  1.00  0.00     0.000 C 
BRANCH   6   7
ATOM      7  C   UNL     1     115.739  52.323  51.329  1.00  0.00     0.006 C 
BRANCH   7   8
ATOM      8  C   UNL     1     115.509  53.845  51.348  1.00  0.00     0.053 C 
BRANCH   8   9
ATOM      9  C   UNL     1     115.026  54.373  50.031  1.00  0.00     0.041 C 
ATOM     10  O   UNL     1     115.142  55.596  49.755  1.00  0.00    -0.550 OA
ATOM     11  O   UNL     1     114.475  53.507  49.094  1.00  0.00    -0.550 OA
ENDBRANCH   8   9
ENDBRANCH   7   8
ENDBRANCH   6   7
ENDBRANCH   5   6
ENDBRANCH   4   5
ENDBRANCH   3   4
ENDBRANCH   2   3
ENDBRANCH   1   2
BRANCH   1  12
ATOM     12  C   UNL     1     120.407  53.876  51.527  1.00  0.00     0.000 C 
BRANCH  12  13
ATOM     13  C   UNL     1     121.823  53.476  51.973  1.00  0.00    -0.000 C 
BRANCH  13  14
ATOM     14  C   UNL     1     122.469  54.536  52.891  1.00  0.00    -0.000 C 
BRANCH  14  15
ATOM     15  C   UNL     1     122.959  53.977  54.241  1.00  0.00    -0.000 C 
BRANCH  15  16
ATOM     16  C   UNL     1     122.018  54.228  55.432  1.00  0.00    -0.000 C 
BRANCH  16  17
ATOM     17  C   UNL     1     121.460  52.928  56.037  1.00  0.00    -0.000 C 
BRANCH  17  18
ATOM     18  C   UNL     1     121.983  51.674  55.320  1.00  0.00    -0.000 C 
BRANCH  18  19
ATOM     19  C   UNL     1     120.857  50.718  54.899  1.00  0.00    -0.003 C 
ATOM     20  C   UNL     1     121.102  50.165  53.497  1.00  0.00     0.004 C 
ENDBRANCH  18  19
ENDBRANCH  17  18
ENDBRANCH  16  17
ENDBRANCH  15  16
ENDBRANCH  14  15
ENDBRANCH  13  14
ENDBRANCH  12  13
ENDBRANCH   1  12
TORSDOF 16
ENDMDL
MODEL 8
REMARK VINA RESULT:    -3.455      2.173      4.694
REMARK INTER + INTRA:          -9.050
REMARK INTER:                  -7.630
REMARK INTRA:                  -1.419
REMARK UNBOUND:                -2.363
REMARK SMILES CCCCCCCCCCCCCCCCCC(=O)[O-]
REMARK SMILES IDX 10 1 11 2 12 3 13 4 14 5 15 6 16 7 17 8 18 9 19 10 20 11
REMARK SMILES IDX 9 12 8 13 7 14 6 15 5 16 4 17 3 18 2 19 1 20
REMARK H PARENT
REMARK Flexibility Score: inf
ROOT
ATOM      1  C   UNL     1     117.257  54.458  50.567  1.00  0.00     0.000 C 
ENDROOT
BRANCH   1   2
ATOM      2  C   UNL     1     117.876  55.817  50.942  1.00  0.00     0.000 C 
BRANCH   2   3
ATOM      3  C   UNL     1     117.998  56.823  49.781  1.00  0.00     0.000 C 
BRANCH   3   4
ATOM      4  C   UNL     1     119.427  57.322  49.498  1.00  0.00     0.000 C 
BRANCH   4   5
ATOM      5  C   UNL     1     120.249  57.531  50.779  1.00  0.00     0.000 C 
BRANCH   5   6
ATOM      6  C   UNL     1     120.762  58.975  50.872  1.00  0.00     0.000 C 
BRANCH   6   7
ATOM      7  C   UNL     1     122.290  59.064  51.034  1.00  0.00     0.006 C 
BRANCH   7   8
ATOM      8  C   UNL     1     122.997  57.697  51.057  1.00  0.00     0.053 C 
BRANCH   8   9
ATOM      9  C   UNL     1     124.141  57.654  52.025  1.00  0.00     0.041 C 
ATOM     10  O   UNL     1     124.281  56.672  52.801  1.00  0.00    -0.550 OA
ATOM     11  O   UNL     1     125.072  58.685  52.047  1.00  0.00    -0.550 OA
ENDBRANCH   8   9
ENDBRANCH   7   8
ENDBRANCH   6   7
ENDBRANCH   5   6
ENDBRANCH   4   5
ENDBRANCH   3   4
ENDBRANCH   2   3
ENDBRANCH   1   2
BRANCH   1  12
ATOM     12  C   UNL     1     115.887  54.226  51.222  1.00  0.00     0.000 C 
BRANCH  12  13
ATOM     13  C   UNL     1     115.785  52.804  51.795  1.00  0.00    -0.000 C 
BRANCH  13  14
ATOM     14  C   UNL     1     115.308  52.797  53.263  1.00  0.00    -0.000 C 
BRANCH  14  15
ATOM     15  C   UNL     1     116.435  52.544  54.283  1.00  0.00    -0.000 C 
BRANCH  15  16
ATOM     16  C   UNL     1     117.615  51.706  53.760  1.00  0.00    -0.000 C 
BRANCH  16  17
ATOM     17  C   UNL     1     118.981  52.249  54.214  1.00  0.00    -0.000 C 
BRANCH  17  18
ATOM     18  C   UNL     1     119.090  53.774  54.057  1.00  0.00    -0.000 C 
BRANCH  18  19
ATOM     19  C   UNL     1     119.363  54.489  55.389  1.00  0.00    -0.003 C 
ATOM     20  C   UNL     1     120.538  53.849  56.124  1.00  0.00     0.004 C 
ENDBRANCH  18  19
ENDBRANCH  17  18
ENDBRANCH  16  17
ENDBRANCH  15  16
ENDBRANCH  14  15
ENDBRANCH  13  14
ENDBRANCH  12  13
ENDBRANCH   1  12
TORSDOF 16
ENDMDL
MODEL 9
REMARK VINA RESULT:    -3.418      7.100     10.162
REMARK INTER + INTRA:          -8.978
REMARK INTER:                  -6.732
REMARK INTRA:                  -2.246
REMARK UNBOUND:                -2.363
REMARK SMILES CCCCCCCCCCCCCCCCCC(=O)[O-]
REMARK SMILES IDX 10 1 11 2 12 3 13 4 14 5 15 6 16 7 17 8 18 9 19 10 20 11
REMARK SMILES IDX 9 12 8 13 7 14 6 15 5 16 4 17 3 18 2 19 1 20
REMARK H PARENT
REMARK Flexibility Score: inf
ROOT
ATOM      1  C   UNL     1     124.681  55.725  43.425  1.00  0.00     0.000 C 
ENDROOT
BRANCH   1   2
ATOM      2  C   UNL     1     124.765  57.021  44.251  1.00  0.00     0.000 C 
BRANCH   2   3
ATOM      3  C   UNL     1     124.339  56.887  45.726  1.00  0.00     0.000 C 
BRANCH   3   4
ATOM      4  C   UNL     1     123.612  55.576  46.077  1.00  0.00     0.000 C 
BRANCH   4   5
ATOM      5  C   UNL     1     123.745  55.201  47.562  1.00  0.00     0.000 C 
BRANCH   5   6
ATOM      6  C   UNL     1     125.221  55.046  47.958  1.00  0.00     0.000 C 
BRANCH   6   7
ATOM      7  C   UNL     1     125.425  54.123  49.173  1.00  0.00     0.006 C 
BRANCH   7   8
ATOM      8  C   UNL     1     124.470  54.410  50.344  1.00  0.00     0.053 C 
BRANCH   8   9
ATOM      9  C   UNL     1     125.189  54.600  51.645  1.00  0.00     0.041 C 
ATOM     10  O   UNL     1     124.873  55.545  52.415  1.00  0.00    -0.550 OA
ATOM     11  O   UNL     1     126.191  53.713  52.022  1.00  0.00    -0.550 OA
ENDBRANCH   8   9
ENDBRANCH   7   8
ENDBRANCH   6   7
ENDBRANCH   5   6
ENDBRANCH   4   5
ENDBRANCH   3   4
ENDBRANCH   2   3
ENDBRANCH   1   2
BRANCH   1  12
ATOM     12  C   UNL     1     126.060  55.186  43.020  1.00  0.00     0.000 C 
BRANCH  12  13
ATOM     13  C   UNL     1     126.200  53.699  43.381  1.00  0.00    -0.000 C 
BRANCH  13  14
ATOM     14  C   UNL     1     126.471  53.486  44.886  1.00  0.00    -0.000 C 
BRANCH  14  15
ATOM     15  C   UNL     1     125.674  52.320  45.504  1.00  0.00    -0.000 C 
BRANCH  15  16
ATOM     16  C   UNL     1     124.287  52.075  44.884  1.00  0.00    -0.000 C 
BRANCH  16  17
ATOM     17  C   UNL     1     124.160  50.687  44.233  1.00  0.00    -0.000 C 
BRANCH  17  18
ATOM     18  C   UNL     1     124.079  50.761  42.701  1.00  0.00    -0.000 C 
BRANCH  18  19
ATOM     19  C   UNL     1     123.149  51.881  42.209  1.00  0.00    -0.003 C 
ATOM     20  C   UNL     1     122.181  51.363  41.148  1.00  0.00     0.004 C 
ENDBRANCH  18  19
ENDBRANCH  17  18
ENDBRANCH  16  17
ENDBRANCH  15  16
ENDBRANCH  14  15
ENDBRANCH  13  14
ENDBRANCH  12  13
ENDBRANCH   1  12
TORSDOF 16
ENDMDL
