MODEL 1
REMARK VINA RESULT:    -3.948      0.000      0.000
REMARK INTER + INTRA:          -9.283
REMARK INTER:                  -7.178
REMARK INTRA:                  -2.105
REMARK UNBOUND:                -2.105
REMARK SMILES CCCCCCCCCCCCCCCC(=O)[O-]
REMARK SMILES IDX 9 1 10 2 11 3 12 4 13 5 14 6 15 7 16 8 17 9 18 10 8 11 7 12
REMARK SMILES IDX 6 13 5 14 4 15 3 16 2 17 1 18
REMARK H PARENT
REMARK Flexibility Score: inf
ROOT
ATOM      1  C   UNL     1     -22.105   2.023  -2.955  1.00  0.00     0.000 C 
ENDROOT
BRANCH   1   2
ATOM      2  C   UNL     1     -21.394   1.457  -4.197  1.00  0.00     0.000 C 
BRANCH   2   3
ATOM      3  C   UNL     1     -20.920   0.009  -3.996  1.00  0.00     0.000 C 
BRANCH   3   4
ATOM      4  C   UNL     1     -21.476  -0.950  -5.060  1.00  0.00     0.000 C 
BRANCH   4   5
ATOM      5  C   UNL     1     -22.720  -1.681  -4.541  1.00  0.00     0.000 C 
BRANCH   5   6
ATOM      6  C   UNL     1     -24.006  -0.985  -5.014  1.00  0.00     0.006 C 
BRANCH   6   7
ATOM      7  C   UNL     1     -25.266  -1.632  -4.427  1.00  0.00     0.053 C 
BRANCH   7   8
ATOM      8  C   UNL     1     -25.418  -3.056  -4.867  1.00  0.00     0.041 C 
ATOM      9  O   UNL     1     -25.512  -3.334  -6.091  1.00  0.00    -0.550 OA
ATOM     10  O   UNL     1     -25.420  -4.079  -3.927  1.00  0.00    -0.550 OA
ENDBRANCH   7   8
ENDBRANCH   6   7
ENDBRANCH   5   6
ENDBRANCH   4   5
ENDBRANCH   3   4
ENDBRANCH   2   3
ENDBRANCH   1   2
BRANCH   1  11
ATOM     11  C   UNL     1     -22.053   1.067  -1.750  1.00  0.00     0.000 C 
BRANCH  11  12
ATOM     12  C   UNL     1     -23.422   0.544  -1.263  1.00  0.00    -0.000 C 
BRANCH  12  13
ATOM     13  C   UNL     1     -23.474  -0.959  -0.930  1.00  0.00    -0.000 C 
BRANCH  13  14
ATOM     14  C   UNL     1     -22.085  -1.620  -0.932  1.00  0.00    -0.000 C 
BRANCH  14  15
ATOM     15  C   UNL     1     -21.714  -2.238   0.428  1.00  0.00    -0.000 C 
BRANCH  15  16
ATOM     16  C   UNL     1     -21.626  -1.240   1.598  1.00  0.00    -0.000 C 
BRANCH  16  17
ATOM     17  C   UNL     1     -20.289  -0.487   1.646  1.00  0.00    -0.003 C 
ATOM     18  C   UNL     1     -19.111  -1.450   1.533  1.00  0.00     0.004 C 
ENDBRANCH  16  17
ENDBRANCH  15  16
ENDBRANCH  14  15
ENDBRANCH  13  14
ENDBRANCH  12  13
ENDBRANCH  11  12
ENDBRANCH   1  11
TORSDOF 14
ENDMDL
MODEL 2
REMARK VINA RESULT:    -3.922      3.366      6.326
REMARK INTER + INTRA:          -9.237
REMARK INTER:                  -7.146
REMARK INTRA:                  -2.092
REMARK UNBOUND:                -2.105
REMARK SMILES CCCCCCCCCCCCCCCC(=O)[O-]
REMARK SMILES IDX 9 1 10 2 11 3 12 4 13 5 14 6 15 7 16 8 17 9 18 10 8 11 7 12
REMARK SMILES IDX 6 13 5 14 4 15 3 16 2 17 1 18
REMARK H PARENT
REMARK Flexibility Score: inf
ROOT
ATOM      1  C   UNL     1     -22.253   1.815  -2.754  1.00  0.00     0.000 C 
ENDROOT
BRANCH   1   2
ATOM      2  C   UNL     1     -22.959   0.901  -1.738  1.00  0.00     0.000 C 
BRANCH   2   3
ATOM      3  C   UNL     1     -21.971   0.168  -0.817  1.00  0.00     0.000 C 
BRANCH   3   4
ATOM      4  C   UNL     1     -22.052  -1.360  -0.956  1.00  0.00     0.000 C 
BRANCH   4   5
ATOM      5  C   UNL     1     -22.801  -1.979   0.230  1.00  0.00     0.000 C 
BRANCH   5   6
ATOM      6  C   UNL     1     -21.974  -1.874   1.520  1.00  0.00     0.006 C 
BRANCH   6   7
ATOM      7  C   UNL     1     -20.536  -2.372   1.330  1.00  0.00     0.053 C 
BRANCH   7   8
ATOM      8  C   UNL     1     -19.530  -1.342   1.744  1.00  0.00     0.041 C 
ATOM      9  O   UNL     1     -18.312  -1.647   1.838  1.00  0.00    -0.550 OA
ATOM     10  O   UNL     1     -19.934  -0.036   1.994  1.00  0.00    -0.550 OA
ENDBRANCH   7   8
ENDBRANCH   6   7
ENDBRANCH   5   6
ENDBRANCH   4   5
ENDBRANCH   3   4
ENDBRANCH   2   3
ENDBRANCH   1   2
BRANCH   1  11
ATOM     11  C   UNL     1     -22.288   1.255  -4.188  1.00  0.00     0.000 C 
BRANCH  11  12
ATOM     12  C   UNL     1     -21.228   0.178  -4.502  1.00  0.00    -0.000 C 
BRANCH  12  13
ATOM     13  C   UNL     1     -21.779  -1.239  -4.747  1.00  0.00    -0.000 C 
BRANCH  13  14
ATOM     14  C   UNL     1     -23.309  -1.268  -4.892  1.00  0.00    -0.000 C 
BRANCH  14  15
ATOM     15  C   UNL     1     -23.976  -2.328  -3.995  1.00  0.00    -0.000 C 
BRANCH  15  16
ATOM     16  C   UNL     1     -25.101  -1.802  -3.085  1.00  0.00    -0.000 C 
BRANCH  16  17
ATOM     17  C   UNL     1     -25.909  -0.665  -3.726  1.00  0.00    -0.003 C 
ATOM     18  C   UNL     1     -27.163  -1.200  -4.412  1.00  0.00     0.004 C 
ENDBRANCH  16  17
ENDBRANCH  15  16
ENDBRANCH  14  15
ENDBRANCH  13  14
ENDBRANCH  12  13
ENDBRANCH  11  12
ENDBRANCH   1  11
TORSDOF 14
ENDMDL
MODEL 3
REMARK VINA RESULT:    -3.918      4.487      7.648
REMARK INTER + INTRA:          -9.230
REMARK INTER:                  -7.151
REMARK INTRA:                  -2.078
REMARK UNBOUND:                -2.105
REMARK SMILES CCCCCCCCCCCCCCCC(=O)[O-]
REMARK SMILES IDX 9 1 10 2 11 3 12 4 13 5 14 6 15 7 16 8 17 9 18 10 8 11 7 12
REMARK SMILES IDX 6 13 5 14 4 15 3 16 2 17 1 18
REMARK H PARENT
REMARK Flexibility Score: inf
ROOT
ATOM      1  C   UNL     1     -26.531   2.260   1.124  1.00  0.00     0.000 C 
ENDROOT
BRANCH   1   2
ATOM      2  C   UNL     1     -27.971   1.734   1.255  1.00  0.00     0.000 C 
BRANCH   2   3
ATOM      3  C   UNL     1     -28.070   0.511   2.181  1.00  0.00     0.000 C 
BRANCH   3   4
ATOM      4  C   UNL     1     -28.477  -0.768   1.434  1.00  0.00     0.000 C 
BRANCH   4   5
ATOM      5  C   UNL     1     -27.274  -1.702   1.252  1.00  0.00     0.000 C 
BRANCH   5   6
ATOM      6  C   UNL     1     -26.129  -1.317   2.201  1.00  0.00     0.006 C 
BRANCH   6   7
ATOM      7  C   UNL     1     -24.777  -1.244   1.480  1.00  0.00     0.053 C 
BRANCH   7   8
ATOM      8  C   UNL     1     -23.770  -2.170   2.090  1.00  0.00     0.041 C 
ATOM      9  O   UNL     1     -22.554  -1.846   2.129  1.00  0.00    -0.550 OA
ATOM     10  O   UNL     1     -24.179  -3.376   2.645  1.00  0.00    -0.550 OA
ENDBRANCH   7   8
ENDBRANCH   6   7
ENDBRANCH   5   6
ENDBRANCH   4   5
ENDBRANCH   3   4
ENDBRANCH   2   3
ENDBRANCH   1   2
BRANCH   1  11
ATOM     11  C   UNL     1     -26.001   2.198  -0.320  1.00  0.00     0.000 C 
BRANCH  11  12
ATOM     12  C   UNL     1     -26.775   1.257  -1.267  1.00  0.00    -0.000 C 
BRANCH  12  13
ATOM     13  C   UNL     1     -25.909   0.463  -2.262  1.00  0.00    -0.000 C 
BRANCH  13  14
ATOM     14  C   UNL     1     -26.063  -1.059  -2.108  1.00  0.00    -0.000 C 
BRANCH  14  15
ATOM     15  C   UNL     1     -27.478  -1.557  -2.453  1.00  0.00    -0.000 C 
BRANCH  15  16
ATOM     16  C   UNL     1     -27.879  -1.415  -3.933  1.00  0.00    -0.000 C 
BRANCH  16  17
ATOM     17  C   UNL     1     -29.052  -0.448  -4.147  1.00  0.00    -0.003 C 
ATOM     18  C   UNL     1     -30.368  -1.205  -4.300  1.00  0.00     0.004 C 
ENDBRANCH  16  17
ENDBRANCH  15  16
ENDBRANCH  14  15
ENDBRANCH  13  14
ENDBRANCH  12  13
ENDBRANCH  11  12
ENDBRANCH   1  11
TORSDOF 14
ENDMDL
MODEL 4
REMARK VINA RESULT:    -3.866      1.799      2.528
REMARK INTER + INTRA:          -9.134
REMARK INTER:                  -7.700
REMARK INTRA:                  -1.434
REMARK UNBOUND:                -2.105
REMARK SMILES CCCCCCCCCCCCCCCC(=O)[O-]
REMARK SMILES IDX 9 1 10 2 11 3 12 4 13 5 14 6 15 7 16 8 17 9 18 10 8 11 7 12
REMARK SMILES IDX 6 13 5 14 4 15 3 16 2 17 1 18
REMARK H PARENT
REMARK Flexibility Score: inf
ROOT
ATOM      1  C   UNL     1     -20.923  -0.673  -3.961  1.00  0.00     0.000 C 
ENDROOT
BRANCH   1   2
ATOM      2  C   UNL     1     -22.055  -1.056  -4.929  1.00  0.00     0.000 C 
BRANCH   2   3
ATOM      3  C   UNL     1     -23.273  -0.125  -4.810  1.00  0.00     0.000 C 
BRANCH   3   4
ATOM      4  C   UNL     1     -24.603  -0.893  -4.752  1.00  0.00     0.000 C 
BRANCH   4   5
ATOM      5  C   UNL     1     -24.392  -2.379  -5.070  1.00  0.00     0.000 C 
BRANCH   5   6
ATOM      6  C   UNL     1     -25.628  -3.206  -4.686  1.00  0.00     0.006 C 
BRANCH   6   7
ATOM      7  C   UNL     1     -26.928  -2.402  -4.813  1.00  0.00     0.053 C 
BRANCH   7   8
ATOM      8  C   UNL     1     -28.061  -3.057  -4.084  1.00  0.00     0.041 C 
ATOM      9  O   UNL     1     -28.770  -2.390  -3.285  1.00  0.00    -0.550 OA
ATOM     10  O   UNL     1     -28.355  -4.395  -4.313  1.00  0.00    -0.550 OA
ENDBRANCH   7   8
ENDBRANCH   6   7
ENDBRANCH   5   6
ENDBRANCH   4   5
ENDBRANCH   3   4
ENDBRANCH   2   3
ENDBRANCH   1   2
BRANCH   1  11
ATOM     11  C   UNL     1     -21.251  -1.010  -2.495  1.00  0.00     0.000 C 
BRANCH  11  12
ATOM     12  C   UNL     1     -21.988  -2.348  -2.275  1.00  0.00    -0.000 C 
BRANCH  12  13
ATOM     13  C   UNL     1     -23.071  -2.333  -1.180  1.00  0.00    -0.000 C 
BRANCH  13  14
ATOM     14  C   UNL     1     -22.626  -3.041   0.111  1.00  0.00    -0.000 C 
BRANCH  14  15
ATOM     15  C   UNL     1     -21.725  -2.161   0.996  1.00  0.00    -0.000 C 
BRANCH  15  16
ATOM     16  C   UNL     1     -20.232  -2.536   0.990  1.00  0.00    -0.000 C 
BRANCH  16  17
ATOM     17  C   UNL     1     -19.324  -1.396   1.473  1.00  0.00    -0.003 C 
ATOM     18  C   UNL     1     -20.143  -0.173   1.874  1.00  0.00     0.004 C 
ENDBRANCH  16  17
ENDBRANCH  15  16
ENDBRANCH  14  15
ENDBRANCH  13  14
ENDBRANCH  12  13
ENDBRANCH  11  12
ENDBRANCH   1  11
TORSDOF 14
ENDMDL
MODEL 5
REMARK VINA RESULT:    -3.860      2.438      3.953
REMARK INTER + INTRA:          -9.125
REMARK INTER:                  -6.915
REMARK INTRA:                  -2.209
REMARK UNBOUND:                -2.105
REMARK SMILES CCCCCCCCCCCCCCCC(=O)[O-]
REMARK SMILES IDX 9 1 10 2 11 3 12 4 13 5 14 6 15 7 16 8 17 9 18 10 8 11 7 12
REMARK SMILES IDX 6 13 5 14 4 15 3 16 2 17 1 18
REMARK H PARENT
REMARK Flexibility Score: inf
ROOT
ATOM      1  C   UNL     1     -22.313  -1.339  -4.655  1.00  0.00     0.000 C 
ENDROOT
BRANCH   1   2
ATOM      2  C   UNL     1     -23.621  -0.616  -5.023  1.00  0.00     0.000 C 
BRANCH   2   3
ATOM      3  C   UNL     1     -24.855  -1.522  -4.882  1.00  0.00     0.000 C 
BRANCH   3   4
ATOM      4  C   UNL     1     -25.485  -1.453  -3.483  1.00  0.00     0.000 C 
BRANCH   4   5
ATOM      5  C   UNL     1     -25.870  -0.012  -3.126  1.00  0.00     0.000 C 
BRANCH   5   6
ATOM      6  C   UNL     1     -27.313   0.059  -2.604  1.00  0.00     0.006 C 
BRANCH   6   7
ATOM      7  C   UNL     1     -28.161  -1.128  -3.075  1.00  0.00     0.053 C 
BRANCH   7   8
ATOM      8  C   UNL     1     -29.213  -0.708  -4.055  1.00  0.00     0.041 C 
ATOM      9  O   UNL     1     -30.289  -1.356  -4.147  1.00  0.00    -0.550 OA
ATOM     10  O   UNL     1     -29.019   0.420  -4.843  1.00  0.00    -0.550 OA
ENDBRANCH   7   8
ENDBRANCH   6   7
ENDBRANCH   5   6
ENDBRANCH   4   5
ENDBRANCH   3   4
ENDBRANCH   2   3
ENDBRANCH   1   2
BRANCH   1  11
ATOM     11  C   UNL     1     -21.183  -0.368  -4.267  1.00  0.00     0.000 C 
BRANCH  11  12
ATOM     12  C   UNL     1     -21.540   1.131  -4.359  1.00  0.00    -0.000 C 
BRANCH  12  13
ATOM     13  C   UNL     1     -21.463   1.911  -3.033  1.00  0.00    -0.000 C 
BRANCH  13  14
ATOM     14  C   UNL     1     -22.653   1.626  -2.102  1.00  0.00    -0.000 C 
BRANCH  14  15
ATOM     15  C   UNL     1     -22.277   0.732  -0.906  1.00  0.00    -0.000 C 
BRANCH  15  16
ATOM     16  C   UNL     1     -23.161  -0.515  -0.716  1.00  0.00    -0.000 C 
BRANCH  16  17
ATOM     17  C   UNL     1     -22.412  -1.828  -0.983  1.00  0.00    -0.003 C 
ATOM     18  C   UNL     1     -20.964  -1.742  -0.510  1.00  0.00     0.004 C 
ENDBRANCH  16  17
ENDBRANCH  15  16
ENDBRANCH  14  15
ENDBRANCH  13  14
ENDBRANCH  12  13
ENDBRANCH  11  12
ENDBRANCH   1  11
TORSDOF 14
ENDMDL
MODEL 6
REMARK VINA RESULT:    -3.850      3.784      5.114
REMARK INTER + INTRA:          -9.107
REMARK INTER:                  -7.181
REMARK INTRA:                  -1.926
REMARK UNBOUND:                -2.105
REMARK SMILES CCCCCCCCCCCCCCCC(=O)[O-]
REMARK SMILES IDX 9 1 10 2 11 3 12 4 13 5 14 6 15 7 16 8 17 9 18 10 8 11 7 12
REMARK SMILES IDX 6 13 5 14 4 15 3 16 2 17 1 18
REMARK H PARENT
REMARK Flexibility Score: inf
ROOT
ATOM      1  C   UNL     1     -24.362  -1.514  -3.278  1.00  0.00     0.000 C 
ENDROOT
BRANCH   1   2
ATOM      2  C   UNL     1     -25.122  -1.437  -4.613  1.00  0.00     0.000 C 
BRANCH   2   3
ATOM      3  C   UNL     1     -25.052  -2.752  -5.407  1.00  0.00     0.000 C 
BRANCH   3   4
ATOM      4  C   UNL     1     -26.148  -3.749  -5.001  1.00  0.00     0.000 C 
BRANCH   4   5
ATOM      5  C   UNL     1     -27.540  -3.123  -5.150  1.00  0.00     0.000 C 
BRANCH   5   6
ATOM      6  C   UNL     1     -28.367  -3.304  -3.868  1.00  0.00     0.006 C 
BRANCH   6   7
ATOM      7  C   UNL     1     -28.642  -1.971  -3.161  1.00  0.00     0.053 C 
BRANCH   7   8
ATOM      8  C   UNL     1     -29.418  -1.030  -4.030  1.00  0.00     0.041 C 
ATOM      9  O   UNL     1     -28.889   0.037  -4.439  1.00  0.00    -0.550 OA
ATOM     10  O   UNL     1     -30.714  -1.347  -4.417  1.00  0.00    -0.550 OA
ENDBRANCH   7   8
ENDBRANCH   6   7
ENDBRANCH   5   6
ENDBRANCH   4   5
ENDBRANCH   3   4
ENDBRANCH   2   3
ENDBRANCH   1   2
BRANCH   1  11
ATOM     11  C   UNL     1     -25.280  -1.326  -2.056  1.00  0.00     0.000 C 
BRANCH  11  12
ATOM     12  C   UNL     1     -25.367   0.116  -1.512  1.00  0.00    -0.000 C 
BRANCH  12  13
ATOM     13  C   UNL     1     -26.791   0.685  -1.374  1.00  0.00    -0.000 C 
BRANCH  13  14
ATOM     14  C   UNL     1     -27.322   0.622   0.068  1.00  0.00    -0.000 C 
BRANCH  14  15
ATOM     15  C   UNL     1     -28.084  -0.682   0.369  1.00  0.00    -0.000 C 
BRANCH  15  16
ATOM     16  C   UNL     1     -27.805  -1.298   1.753  1.00  0.00    -0.000 C 
BRANCH  16  17
ATOM     17  C   UNL     1     -26.337  -1.169   2.183  1.00  0.00    -0.003 C 
ATOM     18  C   UNL     1     -25.497  -2.312   1.622  1.00  0.00     0.004 C 
ENDBRANCH  16  17
ENDBRANCH  15  16
ENDBRANCH  14  15
ENDBRANCH  13  14
ENDBRANCH  12  13
ENDBRANCH  11  12
ENDBRANCH   1  11
TORSDOF 14
ENDMDL
MODEL 7
REMARK VINA RESULT:    -3.815      3.888      6.811
REMARK INTER + INTRA:          -9.043
REMARK INTER:                  -6.968
REMARK INTRA:                  -2.075
REMARK UNBOUND:                -2.105
REMARK SMILES CCCCCCCCCCCCCCCC(=O)[O-]
REMARK SMILES IDX 9 1 10 2 11 3 12 4 13 5 14 6 15 7 16 8 17 9 18 10 8 11 7 12
REMARK SMILES IDX 6 13 5 14 4 15 3 16 2 17 1 18
REMARK H PARENT
REMARK Flexibility Score: inf
ROOT
ATOM      1  C   UNL     1     -23.899   0.169  -4.695  1.00  0.00     0.000 C 
ENDROOT
BRANCH   1   2
ATOM      2  C   UNL     1     -23.670   0.724  -3.279  1.00  0.00     0.000 C 
BRANCH   2   3
ATOM      3  C   UNL     1     -23.849  -0.346  -2.190  1.00  0.00     0.000 C 
BRANCH   3   4
ATOM      4  C   UNL     1     -25.224  -0.275  -1.509  1.00  0.00     0.000 C 
BRANCH   4   5
ATOM      5  C   UNL     1     -25.466  -1.510  -0.632  1.00  0.00     0.000 C 
BRANCH   5   6
ATOM      6  C   UNL     1     -26.965  -1.714  -0.367  1.00  0.00     0.006 C 
BRANCH   6   7
ATOM      7  C   UNL     1     -27.685  -0.396  -0.055  1.00  0.00     0.053 C 
BRANCH   7   8
ATOM      8  C   UNL     1     -28.048  -0.289   1.394  1.00  0.00     0.041 C 
ATOM      9  O   UNL     1     -28.048   0.833   1.966  1.00  0.00    -0.550 OA
ATOM     10  O   UNL     1     -28.420  -1.423   2.104  1.00  0.00    -0.550 OA
ENDBRANCH   7   8
ENDBRANCH   6   7
ENDBRANCH   5   6
ENDBRANCH   4   5
ENDBRANCH   3   4
ENDBRANCH   2   3
ENDBRANCH   1   2
BRANCH   1  11
ATOM     11  C   UNL     1     -23.271  -1.221  -4.901  1.00  0.00     0.000 C 
BRANCH  11  12
ATOM     12  C   UNL     1     -24.276  -2.377  -5.097  1.00  0.00    -0.000 C 
BRANCH  12  13
ATOM     13  C   UNL     1     -25.760  -1.967  -5.101  1.00  0.00    -0.000 C 
BRANCH  13  14
ATOM     14  C   UNL     1     -26.614  -2.807  -4.137  1.00  0.00    -0.000 C 
BRANCH  14  15
ATOM     15  C   UNL     1     -27.920  -2.103  -3.724  1.00  0.00    -0.000 C 
BRANCH  15  16
ATOM     16  C   UNL     1     -27.964  -0.590  -4.006  1.00  0.00    -0.000 C 
BRANCH  16  17
ATOM     17  C   UNL     1     -29.362  -0.095  -4.405  1.00  0.00    -0.003 C 
ATOM     18  C   UNL     1     -30.396  -1.209  -4.282  1.00  0.00     0.004 C 
ENDBRANCH  16  17
ENDBRANCH  15  16
ENDBRANCH  14  15
ENDBRANCH  13  14
ENDBRANCH  12  13
ENDBRANCH  11  12
ENDBRANCH   1  11
TORSDOF 14
ENDMDL
MODEL 8
REMARK VINA RESULT:    -3.793      2.488      5.882
REMARK INTER + INTRA:          -9.003
REMARK INTER:                  -6.716
REMARK INTRA:                  -2.287
REMARK UNBOUND:                -2.105
REMARK SMILES CCCCCCCCCCCCCCCC(=O)[O-]
REMARK SMILES IDX 9 1 10 2 11 3 12 4 13 5 14 6 15 7 16 8 17 9 18 10 8 11 7 12
REMARK SMILES IDX 6 13 5 14 4 15 3 16 2 17 1 18
REMARK H PARENT
REMARK Flexibility Score: inf
ROOT
ATOM      1  C   UNL     1     -22.153  -1.085  -4.779  1.00  0.00     0.000 C 
ENDROOT
BRANCH   1   2
ATOM      2  C   UNL     1     -21.152  -0.798  -3.647  1.00  0.00     0.000 C 
BRANCH   2   3
ATOM      3  C   UNL     1     -21.838  -0.625  -2.282  1.00  0.00     0.000 C 
BRANCH   3   4
ATOM      4  C   UNL     1     -22.033  -1.959  -1.544  1.00  0.00     0.000 C 
BRANCH   4   5
ATOM      5  C   UNL     1     -23.520  -2.327  -1.462  1.00  0.00     0.000 C 
BRANCH   5   6
ATOM      6  C   UNL     1     -24.378  -1.091  -1.154  1.00  0.00     0.006 C 
BRANCH   6   7
ATOM      7  C   UNL     1     -25.873  -1.351  -1.377  1.00  0.00     0.053 C 
BRANCH   7   8
ATOM      8  C   UNL     1     -26.375  -2.478  -0.528  1.00  0.00     0.041 C 
ATOM      9  O   UNL     1     -26.444  -2.346   0.723  1.00  0.00    -0.550 OA
ATOM     10  O   UNL     1     -26.799  -3.661  -1.119  1.00  0.00    -0.550 OA
ENDBRANCH   7   8
ENDBRANCH   6   7
ENDBRANCH   5   6
ENDBRANCH   4   5
ENDBRANCH   3   4
ENDBRANCH   2   3
ENDBRANCH   1   2
BRANCH   1  11
ATOM     11  C   UNL     1     -23.428  -0.229  -4.680  1.00  0.00     0.000 C 
BRANCH  11  12
ATOM     12  C   UNL     1     -24.752  -0.987  -4.918  1.00  0.00    -0.000 C 
BRANCH  12  13
ATOM     13  C   UNL     1     -24.643  -2.523  -4.913  1.00  0.00    -0.000 C 
BRANCH  13  14
ATOM     14  C   UNL     1     -26.005  -3.219  -4.757  1.00  0.00    -0.000 C 
BRANCH  14  15
ATOM     15  C   UNL     1     -27.192  -2.245  -4.869  1.00  0.00    -0.000 C 
BRANCH  15  16
ATOM     16  C   UNL     1     -28.398  -2.576  -3.971  1.00  0.00    -0.000 C 
BRANCH  16  17
ATOM     17  C   UNL     1     -29.536  -1.553  -4.093  1.00  0.00    -0.003 C 
ATOM     18  C   UNL     1     -28.994  -0.161  -4.404  1.00  0.00     0.004 C 
ENDBRANCH  16  17
ENDBRANCH  15  16
ENDBRANCH  14  15
ENDBRANCH  13  14
ENDBRANCH  12  13
ENDBRANCH  11  12
ENDBRANCH   1  11
TORSDOF 14
ENDMDL
MODEL 9
REMARK VINA RESULT:    -3.775      2.922      5.914
REMARK INTER + INTRA:          -8.970
REMARK INTER:                  -6.922
REMARK INTRA:                  -2.048
REMARK UNBOUND:                -2.105
REMARK SMILES CCCCCCCCCCCCCCCC(=O)[O-]
REMARK SMILES IDX 9 1 10 2 11 3 12 4 13 5 14 6 15 7 16 8 17 9 18 10 8 11 7 12
REMARK SMILES IDX 6 13 5 14 4 15 3 16 2 17 1 18
REMARK H PARENT
REMARK Flexibility Score: inf
ROOT
ATOM      1  C   UNL     1     -21.309  -1.755  -0.627  1.00  0.00     0.000 C 
ENDROOT
BRANCH   1   2
ATOM      2  C   UNL     1     -21.195  -1.996   0.888  1.00  0.00     0.000 C 
BRANCH   2   3
ATOM      3  C   UNL     1     -21.462  -3.459   1.275  1.00  0.00     0.000 C 
BRANCH   3   4
ATOM      4  C   UNL     1     -22.606  -3.605   2.290  1.00  0.00     0.000 C 
BRANCH   4   5
ATOM      5  C   UNL     1     -23.475  -2.341   2.320  1.00  0.00     0.000 C 
BRANCH   5   6
ATOM      6  C   UNL     1     -24.889  -2.632   1.794  1.00  0.00     0.006 C 
BRANCH   6   7
ATOM      7  C   UNL     1     -25.854  -1.467   2.047  1.00  0.00     0.053 C 
BRANCH   7   8
ATOM      8  C   UNL     1     -27.193  -1.707   1.420  1.00  0.00     0.041 C 
ATOM      9  O   UNL     1     -28.244  -1.357   2.019  1.00  0.00    -0.550 OA
ATOM     10  O   UNL     1     -27.279  -2.284   0.160  1.00  0.00    -0.550 OA
ENDBRANCH   7   8
ENDBRANCH   6   7
ENDBRANCH   5   6
ENDBRANCH   4   5
ENDBRANCH   3   4
ENDBRANCH   2   3
ENDBRANCH   1   2
BRANCH   1  11
ATOM     11  C   UNL     1     -22.085  -2.870  -1.352  1.00  0.00     0.000 C 
BRANCH  11  12
ATOM     12  C   UNL     1     -23.405  -2.429  -2.019  1.00  0.00    -0.000 C 
BRANCH  12  13
ATOM     13  C   UNL     1     -23.994  -1.103  -1.503  1.00  0.00    -0.000 C 
BRANCH  13  14
ATOM     14  C   UNL     1     -24.734  -0.312  -2.596  1.00  0.00    -0.000 C 
BRANCH  14  15
ATOM     15  C   UNL     1     -23.842   0.737  -3.284  1.00  0.00    -0.000 C 
BRANCH  15  16
ATOM     16  C   UNL     1     -23.039   0.223  -4.493  1.00  0.00    -0.000 C 
BRANCH  16  17
ATOM     17  C   UNL     1     -21.522   0.239  -4.257  1.00  0.00    -0.003 C 
ATOM     18  C   UNL     1     -20.894  -1.103  -4.623  1.00  0.00     0.004 C 
ENDBRANCH  16  17
ENDBRANCH  15  16
ENDBRANCH  14  15
ENDBRANCH  13  14
ENDBRANCH  12  13
ENDBRANCH  11  12
ENDBRANCH   1  11
TORSDOF 14
ENDMDL
