MODEL 1
REMARK VINA RESULT:    -7.444      0.000      0.000
REMARK INTER + INTRA:         -11.183
REMARK INTER:                  -9.837
REMARK INTRA:                  -1.345
REMARK UNBOUND:                -1.345
REMARK SMILES CC[C@@H](C=C[C@@H](C)[C@H]1CC[C@H]2C3=CC[C@@H]4C[C@@H](O)CC[C@@]4(C)[C@H]3CC[C@]12C)C(C)C
REMARK SMILES IDX 6 1 7 2 5 3 4 4 3 5 2 6 1 7 28 8 29 9 30 10 8 11 9 12 26 13
REMARK SMILES IDX 10 14 11 15 25 16 27 17 12 18 24 19 23 20 13 21 21 22 14 23
REMARK SMILES IDX 15 24 20 25 22 26 16 27 19 28 17 29 18 30
REMARK H PARENT 18 31
REMARK Flexibility Score: inf
ROOT
ATOM      1  C   UNL     1      -2.336  20.051  48.994  1.00  0.00     0.012 C 
ATOM      2  C   UNL     1      -3.546  19.812  48.069  1.00  0.00     0.012 C 
ENDROOT
BRANCH   1   3
ATOM      3  C   UNL     1      -1.689  21.396  48.711  1.00  0.00    -0.028 C 
ATOM      4  C   UNL     1      -1.177  22.244  49.626  1.00  0.00    -0.027 C 
BRANCH   4   5
ATOM      5  C   UNL     1      -1.125  22.029  51.133  1.00  0.00     0.014 C 
BRANCH   5   6
ATOM      6  C   UNL     1      -1.903  23.130  51.920  1.00  0.00     0.004 C 
ATOM      7  C   UNL     1      -3.359  23.345  51.492  1.00  0.00     0.004 C 
ENDBRANCH   5   6
BRANCH   5   8
ATOM      8  C   UNL     1       0.353  21.824  51.598  1.00  0.00    -0.011 C 
ATOM      9  C   UNL     1       1.389  22.606  50.773  1.00  0.00     0.008 C 
ATOM     10  C   UNL     1       0.536  22.129  53.094  1.00  0.00     0.008 C 
ENDBRANCH   5   8
ENDBRANCH   4   5
ENDBRANCH   1   3
BRANCH   1  11
ATOM     11  C   UNL     1      -1.271  18.898  49.048  1.00  0.00     0.002 C 
ATOM     12  C   UNL     1      -1.905  17.481  49.007  1.00  0.00     0.005 C 
ATOM     13  C   UNL     1      -0.050  18.817  48.071  1.00  0.00    -0.023 C 
ATOM     14  C   UNL     1      -0.860  16.543  48.381  1.00  0.00     0.009 C 
ATOM     15  C   UNL     1       0.413  17.382  48.370  1.00  0.00     0.021 C 
ATOM     16  C   UNL     1       1.140  19.768  48.392  1.00  0.00     0.008 C 
ATOM     17  C   UNL     1      -0.455  18.986  46.578  1.00  0.00     0.012 C 
ATOM     18  C   UNL     1       1.611  17.011  47.525  1.00  0.00    -0.067 C 
ATOM     19  C   UNL     1       2.442  19.379  47.638  1.00  0.00     0.009 C 
ATOM     20  C   UNL     1       2.838  17.879  47.811  1.00  0.00     0.021 C 
ATOM     21  C   UNL     1       1.521  16.187  46.456  1.00  0.00    -0.027 C 
ATOM     22  C   UNL     1       4.119  17.409  47.018  1.00  0.00    -0.023 C 
ATOM     23  C   UNL     1       2.663  15.939  45.511  1.00  0.00     0.031 C 
ATOM     24  C   UNL     1       3.707  17.068  45.550  1.00  0.00     0.002 C 
ATOM     25  C   UNL     1       5.222  18.513  46.985  1.00  0.00     0.010 C 
ATOM     26  C   UNL     1       4.690  16.162  47.760  1.00  0.00     0.012 C 
ATOM     27  C   UNL     1       4.913  16.717  44.648  1.00  0.00     0.036 C 
ATOM     28  C   UNL     1       6.425  18.133  46.106  1.00  0.00     0.032 C 
ATOM     29  C   UNL     1       5.990  17.816  44.669  1.00  0.00     0.114 C 
BRANCH  29  30
ATOM     30  O   UNL     1       5.511  18.986  44.052  1.00  0.00    -0.393 OA
ATOM     31  H   UNL     1       6.148  19.207  43.325  1.00  0.00     0.210 HD
ENDBRANCH  29  30
ENDBRANCH   1  11
TORSDOF 6
ENDMDL
MODEL 2
REMARK VINA RESULT:    -7.348      3.106      5.915
REMARK INTER + INTRA:         -11.056
REMARK INTER:                  -9.583
REMARK INTRA:                  -1.473
REMARK UNBOUND:                -1.345
REMARK SMILES CC[C@@H](C=C[C@@H](C)[C@H]1CC[C@H]2C3=CC[C@@H]4C[C@@H](O)CC[C@@]4(C)[C@H]3CC[C@]12C)C(C)C
REMARK SMILES IDX 6 1 7 2 5 3 4 4 3 5 2 6 1 7 28 8 29 9 30 10 8 11 9 12 26 13
REMARK SMILES IDX 10 14 11 15 25 16 27 17 12 18 24 19 23 20 13 21 21 22 14 23
REMARK SMILES IDX 15 24 20 25 22 26 16 27 19 28 17 29 18 30
REMARK H PARENT 18 31
REMARK Flexibility Score: inf
ROOT
ATOM      1  C   UNL     1      -0.369  25.112  49.558  1.00  0.00     0.012 C 
ATOM      2  C   UNL     1       1.142  25.415  49.536  1.00  0.00     0.012 C 
ENDROOT
BRANCH   1   3
ATOM      3  C   UNL     1      -1.132  26.197  50.300  1.00  0.00    -0.028 C 
ATOM      4  C   UNL     1      -2.150  26.933  49.809  1.00  0.00    -0.027 C 
BRANCH   4   5
ATOM      5  C   UNL     1      -2.761  26.825  48.418  1.00  0.00     0.014 C 
BRANCH   5   6
ATOM      6  C   UNL     1      -1.860  27.469  47.320  1.00  0.00     0.004 C 
ATOM      7  C   UNL     1      -1.356  26.514  46.231  1.00  0.00     0.004 C 
ENDBRANCH   5   6
BRANCH   5   8
ATOM      8  C   UNL     1      -4.235  27.345  48.434  1.00  0.00    -0.011 C 
ATOM      9  C   UNL     1      -4.996  27.125  47.116  1.00  0.00     0.008 C 
ATOM     10  C   UNL     1      -5.040  26.763  49.608  1.00  0.00     0.008 C 
ENDBRANCH   5   8
ENDBRANCH   4   5
ENDBRANCH   1   3
BRANCH   1  11
ATOM     11  C   UNL     1      -0.777  23.679  50.053  1.00  0.00     0.002 C 
ATOM     12  C   UNL     1      -2.139  23.657  50.800  1.00  0.00     0.005 C 
ATOM     13  C   UNL     1      -0.820  22.429  49.109  1.00  0.00    -0.023 C 
ATOM     14  C   UNL     1      -2.731  22.252  50.606  1.00  0.00     0.009 C 
ATOM     15  C   UNL     1      -1.571  21.450  50.027  1.00  0.00     0.021 C 
ATOM     16  C   UNL     1       0.557  21.788  48.770  1.00  0.00     0.008 C 
ATOM     17  C   UNL     1      -1.605  22.691  47.792  1.00  0.00     0.012 C 
ATOM     18  C   UNL     1      -1.778  20.117  49.345  1.00  0.00    -0.067 C 
ATOM     19  C   UNL     1       0.425  20.364  48.162  1.00  0.00     0.009 C 
ATOM     20  C   UNL     1      -0.466  19.404  49.012  1.00  0.00     0.021 C 
ATOM     21  C   UNL     1      -2.976  19.732  48.849  1.00  0.00    -0.027 C 
ATOM     22  C   UNL     1      -0.688  17.960  48.413  1.00  0.00    -0.023 C 
ATOM     23  C   UNL     1      -3.163  18.487  48.025  1.00  0.00     0.031 C 
ATOM     24  C   UNL     1      -1.851  18.019  47.372  1.00  0.00     0.002 C 
ATOM     25  C   UNL     1       0.593  17.420  47.704  1.00  0.00     0.010 C 
ATOM     26  C   UNL     1      -1.030  17.014  49.605  1.00  0.00     0.012 C 
ATOM     27  C   UNL     1      -2.068  16.680  46.629  1.00  0.00     0.036 C 
ATOM     28  C   UNL     1       0.364  16.074  46.997  1.00  0.00     0.032 C 
ATOM     29  C   UNL     1      -0.775  16.167  45.972  1.00  0.00     0.114 C 
BRANCH  29  30
ATOM     30  O   UNL     1      -0.391  17.013  44.916  1.00  0.00    -0.393 OA
ATOM     31  H   UNL     1      -1.210  17.201  44.388  1.00  0.00     0.210 HD
ENDBRANCH  29  30
ENDBRANCH   1  11
TORSDOF 6
ENDMDL
MODEL 3
REMARK VINA RESULT:    -7.135      3.010      5.304
REMARK INTER + INTRA:         -10.775
REMARK INTER:                  -9.780
REMARK INTRA:                  -0.995
REMARK UNBOUND:                -1.345
REMARK SMILES CC[C@@H](C=C[C@@H](C)[C@H]1CC[C@H]2C3=CC[C@@H]4C[C@@H](O)CC[C@@]4(C)[C@H]3CC[C@]12C)C(C)C
REMARK SMILES IDX 6 1 7 2 5 3 4 4 3 5 2 6 1 7 28 8 29 9 30 10 8 11 9 12 26 13
REMARK SMILES IDX 10 14 11 15 25 16 27 17 12 18 24 19 23 20 13 21 21 22 14 23
REMARK SMILES IDX 15 24 20 25 22 26 16 27 19 28 17 29 18 30
REMARK H PARENT 18 31
REMARK Flexibility Score: inf
ROOT
ATOM      1  C   UNL     1      -0.448  24.999  49.599  1.00  0.00     0.012 C 
ATOM      2  C   UNL     1       1.059  25.323  49.638  1.00  0.00     0.012 C 
ENDROOT
BRANCH   1   3
ATOM      3  C   UNL     1      -1.254  26.068  50.319  1.00  0.00    -0.028 C 
ATOM      4  C   UNL     1      -1.133  26.418  51.616  1.00  0.00    -0.027 C 
BRANCH   4   5
ATOM      5  C   UNL     1      -0.157  25.833  52.628  1.00  0.00     0.014 C 
BRANCH   5   6
ATOM      6  C   UNL     1      -0.881  25.214  53.865  1.00  0.00     0.004 C 
ATOM      7  C   UNL     1      -2.341  25.638  54.059  1.00  0.00     0.004 C 
ENDBRANCH   5   6
BRANCH   5   8
ATOM      8  C   UNL     1       0.948  26.880  52.981  1.00  0.00    -0.011 C 
ATOM      9  C   UNL     1       0.408  28.284  53.299  1.00  0.00     0.008 C 
ATOM     10  C   UNL     1       1.858  26.397  54.123  1.00  0.00     0.008 C 
ENDBRANCH   5   8
ENDBRANCH   4   5
ENDBRANCH   1   3
BRANCH   1  11
ATOM     11  C   UNL     1      -0.856  23.557  50.064  1.00  0.00     0.002 C 
ATOM     12  C   UNL     1      -2.230  23.516  50.787  1.00  0.00     0.005 C 
ATOM     13  C   UNL     1      -0.874  22.321  49.101  1.00  0.00    -0.023 C 
ATOM     14  C   UNL     1      -2.810  22.110  50.562  1.00  0.00     0.009 C 
ATOM     15  C   UNL     1      -1.635  21.324  49.991  1.00  0.00     0.021 C 
ATOM     16  C   UNL     1       0.512  21.694  48.777  1.00  0.00     0.008 C 
ATOM     17  C   UNL     1      -1.638  22.599  47.774  1.00  0.00     0.012 C 
ATOM     18  C   UNL     1      -1.822  20.000  49.286  1.00  0.00    -0.067 C 
ATOM     19  C   UNL     1       0.399  20.278  48.145  1.00  0.00     0.009 C 
ATOM     20  C   UNL     1      -0.500  19.300  48.964  1.00  0.00     0.021 C 
ATOM     21  C   UNL     1      -3.009  19.615  48.762  1.00  0.00    -0.027 C 
ATOM     22  C   UNL     1      -0.703  17.865  48.340  1.00  0.00    -0.023 C 
ATOM     23  C   UNL     1      -3.174  18.383  47.917  1.00  0.00     0.031 C 
ATOM     24  C   UNL     1      -1.848  17.932  47.280  1.00  0.00     0.002 C 
ATOM     25  C   UNL     1       0.594  17.343  47.645  1.00  0.00     0.010 C 
ATOM     26  C   UNL     1      -1.059  16.898  49.511  1.00  0.00     0.012 C 
ATOM     27  C   UNL     1      -2.044  16.604  46.513  1.00  0.00     0.036 C 
ATOM     28  C   UNL     1       0.386  16.007  46.914  1.00  0.00     0.032 C 
ATOM     29  C   UNL     1      -0.736  16.108  45.871  1.00  0.00     0.114 C 
BRANCH  29  30
ATOM     30  O   UNL     1      -0.340  16.972  44.835  1.00  0.00    -0.393 OA
ATOM     31  H   UNL     1      -0.297  17.884  45.222  1.00  0.00     0.210 HD
ENDBRANCH  29  30
ENDBRANCH   1  11
TORSDOF 6
ENDMDL
MODEL 4
REMARK VINA RESULT:    -7.131      6.926      9.242
REMARK INTER + INTRA:         -10.769
REMARK INTER:                 -10.245
REMARK INTRA:                  -0.524
REMARK UNBOUND:                -1.345
REMARK SMILES CC[C@@H](C=C[C@@H](C)[C@H]1CC[C@H]2C3=CC[C@@H]4C[C@@H](O)CC[C@@]4(C)[C@H]3CC[C@]12C)C(C)C
REMARK SMILES IDX 6 1 7 2 5 3 4 4 3 5 2 6 1 7 28 8 29 9 30 10 8 11 9 12 26 13
REMARK SMILES IDX 10 14 11 15 25 16 27 17 12 18 24 19 23 20 13 21 21 22 14 23
REMARK SMILES IDX 15 24 20 25 22 26 16 27 19 28 17 29 18 30
REMARK H PARENT 18 31
REMARK Flexibility Score: inf
ROOT
ATOM      1  C   UNL     1       3.181  22.607  39.598  1.00  0.00     0.012 C 
ATOM      2  C   UNL     1       3.312  23.405  38.287  1.00  0.00     0.012 C 
ENDROOT
BRANCH   1   3
ATOM      3  C   UNL     1       2.978  23.535  40.784  1.00  0.00    -0.028 C 
ATOM      4  C   UNL     1       1.890  24.296  41.025  1.00  0.00    -0.027 C 
BRANCH   4   5
ATOM      5  C   UNL     1       0.631  24.375  40.172  1.00  0.00     0.014 C 
BRANCH   5   6
ATOM      6  C   UNL     1       0.534  25.712  39.375  1.00  0.00     0.004 C 
ATOM      7  C   UNL     1       0.115  25.581  37.906  1.00  0.00     0.004 C 
ENDBRANCH   5   6
BRANCH   5   8
ATOM      8  C   UNL     1      -0.629  24.042  41.036  1.00  0.00    -0.011 C 
ATOM      9  C   UNL     1      -1.219  22.646  40.779  1.00  0.00     0.008 C 
ATOM     10  C   UNL     1      -0.364  24.232  42.539  1.00  0.00     0.008 C 
ENDBRANCH   5   8
ENDBRANCH   4   5
ENDBRANCH   1   3
BRANCH   1  11
ATOM     11  C   UNL     1       4.309  21.551  39.879  1.00  0.00     0.002 C 
ATOM     12  C   UNL     1       5.355  21.459  38.735  1.00  0.00     0.005 C 
ATOM     13  C   UNL     1       5.156  21.535  41.196  1.00  0.00    -0.023 C 
ATOM     14  C   UNL     1       6.673  20.990  39.372  1.00  0.00     0.009 C 
ATOM     15  C   UNL     1       6.257  20.550  40.771  1.00  0.00     0.021 C 
ATOM     16  C   UNL     1       4.451  20.937  42.448  1.00  0.00     0.008 C 
ATOM     17  C   UNL     1       5.745  22.930  41.554  1.00  0.00     0.012 C 
ATOM     18  C   UNL     1       7.264  20.350  41.881  1.00  0.00    -0.067 C 
ATOM     19  C   UNL     1       5.445  20.603  43.596  1.00  0.00     0.009 C 
ATOM     20  C   UNL     1       6.654  19.728  43.139  1.00  0.00     0.021 C 
ATOM     21  C   UNL     1       8.497  20.906  41.855  1.00  0.00    -0.027 C 
ATOM     22  C   UNL     1       7.730  19.407  44.248  1.00  0.00    -0.023 C 
ATOM     23  C   UNL     1       9.447  20.854  43.019  1.00  0.00     0.031 C 
ATOM     24  C   UNL     1       8.720  20.610  44.353  1.00  0.00     0.002 C 
ATOM     25  C   UNL     1       7.075  19.173  45.645  1.00  0.00     0.010 C 
ATOM     26  C   UNL     1       8.460  18.097  43.818  1.00  0.00     0.012 C 
ATOM     27  C   UNL     1       9.743  20.455  45.502  1.00  0.00     0.036 C 
ATOM     28  C   UNL     1       8.109  18.991  46.769  1.00  0.00     0.032 C 
ATOM     29  C   UNL     1       9.058  20.194  46.856  1.00  0.00     0.114 C 
BRANCH  29  30
ATOM     30  O   UNL     1       8.343  21.331  47.271  1.00  0.00    -0.393 OA
ATOM     31  H   UNL     1       7.713  21.557  46.539  1.00  0.00     0.210 HD
ENDBRANCH  29  30
ENDBRANCH   1  11
TORSDOF 6
ENDMDL
MODEL 5
REMARK VINA RESULT:    -7.112      3.626      6.840
REMARK INTER + INTRA:         -10.745
REMARK INTER:                  -9.311
REMARK INTRA:                  -1.434
REMARK UNBOUND:                -1.345
REMARK SMILES CC[C@@H](C=C[C@@H](C)[C@H]1CC[C@H]2C3=CC[C@@H]4C[C@@H](O)CC[C@@]4(C)[C@H]3CC[C@]12C)C(C)C
REMARK SMILES IDX 6 1 7 2 5 3 4 4 3 5 2 6 1 7 28 8 29 9 30 10 8 11 9 12 26 13
REMARK SMILES IDX 10 14 11 15 25 16 27 17 12 18 24 19 23 20 13 21 21 22 14 23
REMARK SMILES IDX 15 24 20 25 22 26 16 27 19 28 17 29 18 30
REMARK H PARENT 18 31
REMARK Flexibility Score: inf
ROOT
ATOM      1  C   UNL     1      -0.305  25.239  53.067  1.00  0.00     0.012 C 
ATOM      2  C   UNL     1       0.295  24.293  54.125  1.00  0.00     0.012 C 
ENDROOT
BRANCH   1   3
ATOM      3  C   UNL     1      -1.709  25.673  53.457  1.00  0.00    -0.028 C 
ATOM      4  C   UNL     1      -2.512  26.499  52.755  1.00  0.00    -0.027 C 
BRANCH   4   5
ATOM      5  C   UNL     1      -2.193  27.159  51.420  1.00  0.00     0.014 C 
BRANCH   5   6
ATOM      6  C   UNL     1      -2.010  28.703  51.548  1.00  0.00     0.004 C 
ATOM      7  C   UNL     1      -0.819  29.162  52.396  1.00  0.00     0.004 C 
ENDBRANCH   5   6
BRANCH   5   8
ATOM      8  C   UNL     1      -3.229  26.716  50.338  1.00  0.00    -0.011 C 
ATOM      9  C   UNL     1      -2.604  26.048  49.102  1.00  0.00     0.008 C 
ATOM     10  C   UNL     1      -4.326  25.812  50.924  1.00  0.00     0.008 C 
ENDBRANCH   5   8
ENDBRANCH   4   5
ENDBRANCH   1   3
BRANCH   1  11
ATOM     11  C   UNL     1      -0.249  24.737  51.581  1.00  0.00     0.002 C 
ATOM     12  C   UNL     1       1.094  25.069  50.876  1.00  0.00     0.005 C 
ATOM     13  C   UNL     1      -0.562  23.259  51.165  1.00  0.00    -0.023 C 
ATOM     14  C   UNL     1       1.306  23.999  49.792  1.00  0.00     0.009 C 
ATOM     15  C   UNL     1      -0.043  23.292  49.719  1.00  0.00     0.021 C 
ATOM     16  C   UNL     1      -2.069  22.875  51.111  1.00  0.00     0.008 C 
ATOM     17  C   UNL     1       0.205  22.213  52.024  1.00  0.00     0.012 C 
ATOM     18  C   UNL     1      -0.206  21.945  49.052  1.00  0.00    -0.067 C 
ATOM     19  C   UNL     1      -2.326  21.549  50.343  1.00  0.00     0.009 C 
ATOM     20  C   UNL     1      -1.669  21.512  48.927  1.00  0.00     0.021 C 
ATOM     21  C   UNL     1       0.833  21.106  48.840  1.00  0.00    -0.027 C 
ATOM     22  C   UNL     1      -1.842  20.166  48.122  1.00  0.00    -0.023 C 
ATOM     23  C   UNL     1       0.666  19.701  48.331  1.00  0.00     0.031 C 
ATOM     24  C   UNL     1      -0.748  19.154  48.589  1.00  0.00     0.002 C 
ATOM     25  C   UNL     1      -3.247  19.526  48.352  1.00  0.00     0.010 C 
ATOM     26  C   UNL     1      -1.698  20.511  46.608  1.00  0.00     0.012 C 
ATOM     27  C   UNL     1      -0.907  17.753  47.953  1.00  0.00     0.036 C 
ATOM     28  C   UNL     1      -3.395  18.148  47.687  1.00  0.00     0.032 C 
ATOM     29  C   UNL     1      -2.314  17.172  48.176  1.00  0.00     0.114 C 
BRANCH  29  30
ATOM     30  O   UNL     1      -2.518  16.885  49.537  1.00  0.00    -0.393 OA
ATOM     31  H   UNL     1      -1.621  16.817  49.953  1.00  0.00     0.210 HD
ENDBRANCH  29  30
ENDBRANCH   1  11
TORSDOF 6
ENDMDL
MODEL 6
REMARK VINA RESULT:    -7.083      2.521      6.030
REMARK INTER + INTRA:         -10.706
REMARK INTER:                 -10.214
REMARK INTRA:                  -0.492
REMARK UNBOUND:                -1.345
REMARK SMILES CC[C@@H](C=C[C@@H](C)[C@H]1CC[C@H]2C3=CC[C@@H]4C[C@@H](O)CC[C@@]4(C)[C@H]3CC[C@]12C)C(C)C
REMARK SMILES IDX 6 1 7 2 5 3 4 4 3 5 2 6 1 7 28 8 29 9 30 10 8 11 9 12 26 13
REMARK SMILES IDX 10 14 11 15 25 16 27 17 12 18 24 19 23 20 13 21 21 22 14 23
REMARK SMILES IDX 15 24 20 25 22 26 16 27 19 28 17 29 18 30
REMARK H PARENT 18 31
REMARK Flexibility Score: inf
ROOT
ATOM      1  C   UNL     1       2.253  17.032  47.025  1.00  0.00     0.012 C 
ATOM      2  C   UNL     1       2.115  15.969  45.918  1.00  0.00     0.012 C 
ENDROOT
BRANCH   1   3
ATOM      3  C   UNL     1       1.227  18.140  46.848  1.00  0.00    -0.028 C 
ATOM      4  C   UNL     1      -0.023  18.157  47.352  1.00  0.00    -0.027 C 
BRANCH   4   5
ATOM      5  C   UNL     1      -0.668  17.082  48.217  1.00  0.00     0.014 C 
BRANCH   5   6
ATOM      6  C   UNL     1      -1.317  15.945  47.369  1.00  0.00     0.004 C 
ATOM      7  C   UNL     1      -1.623  16.298  45.909  1.00  0.00     0.004 C 
ENDBRANCH   5   6
BRANCH   5   8
ATOM      8  C   UNL     1      -1.626  17.736  49.266  1.00  0.00    -0.011 C 
ATOM      9  C   UNL     1      -1.272  19.189  49.624  1.00  0.00     0.008 C 
ATOM     10  C   UNL     1      -3.100  17.645  48.838  1.00  0.00     0.008 C 
ENDBRANCH   5   8
ENDBRANCH   4   5
ENDBRANCH   1   3
BRANCH   1  11
ATOM     11  C   UNL     1       3.695  17.612  47.249  1.00  0.00     0.002 C 
ATOM     12  C   UNL     1       4.422  16.983  48.469  1.00  0.00     0.005 C 
ATOM     13  C   UNL     1       4.780  17.663  46.121  1.00  0.00    -0.023 C 
ATOM     14  C   UNL     1       5.930  17.069  48.182  1.00  0.00     0.009 C 
ATOM     15  C   UNL     1       6.013  17.998  46.976  1.00  0.00     0.021 C 
ATOM     16  C   UNL     1       4.616  18.802  45.073  1.00  0.00     0.008 C 
ATOM     17  C   UNL     1       4.951  16.304  45.382  1.00  0.00     0.012 C 
ATOM     18  C   UNL     1       7.257  18.094  46.123  1.00  0.00    -0.067 C 
ATOM     19  C   UNL     1       5.899  19.032  44.227  1.00  0.00     0.009 C 
ATOM     20  C   UNL     1       7.187  19.220  45.088  1.00  0.00     0.021 C 
ATOM     21  C   UNL     1       8.201  17.127  46.100  1.00  0.00    -0.027 C 
ATOM     22  C   UNL     1       8.534  19.396  44.284  1.00  0.00    -0.023 C 
ATOM     23  C   UNL     1       9.357  17.128  45.138  1.00  0.00     0.031 C 
ATOM     24  C   UNL     1       9.076  17.985  43.892  1.00  0.00     0.002 C 
ATOM     25  C   UNL     1       8.330  20.234  42.983  1.00  0.00     0.010 C 
ATOM     26  C   UNL     1       9.530  20.158  45.211  1.00  0.00     0.012 C 
ATOM     27  C   UNL     1      10.329  18.046  42.988  1.00  0.00     0.036 C 
ATOM     28  C   UNL     1       9.596  20.308  42.113  1.00  0.00     0.032 C 
ATOM     29  C   UNL     1      10.096  18.907  41.733  1.00  0.00     0.114 C 
BRANCH  29  30
ATOM     30  O   UNL     1       9.166  18.289  40.879  1.00  0.00    -0.393 OA
ATOM     31  H   UNL     1       9.657  18.039  40.054  1.00  0.00     0.210 HD
ENDBRANCH  29  30
ENDBRANCH   1  11
TORSDOF 6
ENDMDL
MODEL 7
REMARK VINA RESULT:    -7.056      2.502      8.431
REMARK INTER + INTRA:         -10.671
REMARK INTER:                  -9.270
REMARK INTRA:                  -1.400
REMARK UNBOUND:                -1.345
REMARK SMILES CC[C@@H](C=C[C@@H](C)[C@H]1CC[C@H]2C3=CC[C@@H]4C[C@@H](O)CC[C@@]4(C)[C@H]3CC[C@]12C)C(C)C
REMARK SMILES IDX 6 1 7 2 5 3 4 4 3 5 2 6 1 7 28 8 29 9 30 10 8 11 9 12 26 13
REMARK SMILES IDX 10 14 11 15 25 16 27 17 12 18 24 19 23 20 13 21 21 22 14 23
REMARK SMILES IDX 15 24 20 25 22 26 16 27 19 28 17 29 18 30
REMARK H PARENT 18 31
REMARK Flexibility Score: inf
ROOT
ATOM      1  C   UNL     1       6.672  16.937  46.797  1.00  0.00     0.012 C 
ATOM      2  C   UNL     1       7.391  18.190  47.335  1.00  0.00     0.012 C 
ENDROOT
BRANCH   1   3
ATOM      3  C   UNL     1       7.543  16.195  45.796  1.00  0.00    -0.028 C 
ATOM      4  C   UNL     1       8.056  16.702  44.656  1.00  0.00    -0.027 C 
BRANCH   4   5
ATOM      5  C   UNL     1       7.886  18.124  44.137  1.00  0.00     0.014 C 
BRANCH   5   6
ATOM      6  C   UNL     1       6.628  18.279  43.227  1.00  0.00     0.004 C 
ATOM      7  C   UNL     1       5.732  19.483  43.534  1.00  0.00     0.004 C 
ENDBRANCH   5   6
BRANCH   5   8
ATOM      8  C   UNL     1       9.218  18.626  43.494  1.00  0.00    -0.011 C 
ATOM      9  C   UNL     1       9.253  18.533  41.959  1.00  0.00     0.008 C 
ATOM     10  C   UNL     1       9.572  20.055  43.940  1.00  0.00     0.008 C 
ENDBRANCH   5   8
ENDBRANCH   4   5
ENDBRANCH   1   3
BRANCH   1  11
ATOM     11  C   UNL     1       5.220  17.159  46.245  1.00  0.00     0.002 C 
ATOM     12  C   UNL     1       4.600  15.876  45.627  1.00  0.00     0.005 C 
ATOM     13  C   UNL     1       4.067  17.787  47.099  1.00  0.00    -0.023 C 
ATOM     14  C   UNL     1       3.075  16.000  45.776  1.00  0.00     0.009 C 
ATOM     15  C   UNL     1       2.873  17.454  46.188  1.00  0.00     0.021 C 
ATOM     16  C   UNL     1       4.111  19.334  47.264  1.00  0.00     0.008 C 
ATOM     17  C   UNL     1       3.919  17.123  48.498  1.00  0.00     0.012 C 
ATOM     18  C   UNL     1       1.577  17.944  46.792  1.00  0.00    -0.067 C 
ATOM     19  C   UNL     1       2.768  19.922  47.781  1.00  0.00     0.009 C 
ATOM     20  C   UNL     1       1.527  19.465  46.953  1.00  0.00     0.021 C 
ATOM     21  C   UNL     1       0.681  17.110  47.369  1.00  0.00    -0.027 C 
ATOM     22  C   UNL     1       0.127  19.981  47.468  1.00  0.00    -0.023 C 
ATOM     23  C   UNL     1      -0.529  17.594  48.118  1.00  0.00     0.031 C 
ATOM     24  C   UNL     1      -0.367  19.041  48.613  1.00  0.00     0.002 C 
ATOM     25  C   UNL     1       0.210  21.440  48.016  1.00  0.00     0.010 C 
ATOM     26  C   UNL     1      -0.847  19.966  46.250  1.00  0.00     0.012 C 
ATOM     27  C   UNL     1      -1.675  19.532  49.278  1.00  0.00     0.036 C 
ATOM     28  C   UNL     1      -1.108  21.919  48.647  1.00  0.00     0.032 C 
ATOM     29  C   UNL     1      -1.561  20.984  49.776  1.00  0.00     0.114 C 
BRANCH  29  30
ATOM     30  O   UNL     1      -0.655  21.066  50.848  1.00  0.00    -0.393 OA
ATOM     31  H   UNL     1      -1.187  20.977  51.681  1.00  0.00     0.210 HD
ENDBRANCH  29  30
ENDBRANCH   1  11
TORSDOF 6
ENDMDL
MODEL 8
REMARK VINA RESULT:    -7.002      7.123     10.007
REMARK INTER + INTRA:         -10.599
REMARK INTER:                  -9.627
REMARK INTRA:                  -0.972
REMARK UNBOUND:                -1.345
REMARK SMILES CC[C@@H](C=C[C@@H](C)[C@H]1CC[C@H]2C3=CC[C@@H]4C[C@@H](O)CC[C@@]4(C)[C@H]3CC[C@]12C)C(C)C
REMARK SMILES IDX 6 1 7 2 5 3 4 4 3 5 2 6 1 7 28 8 29 9 30 10 8 11 9 12 26 13
REMARK SMILES IDX 10 14 11 15 25 16 27 17 12 18 24 19 23 20 13 21 21 22 14 23
REMARK SMILES IDX 15 24 20 25 22 26 16 27 19 28 17 29 18 30
REMARK H PARENT 18 31
REMARK Flexibility Score: inf
ROOT
ATOM      1  C   UNL     1       3.691  23.265  39.765  1.00  0.00     0.012 C 
ATOM      2  C   UNL     1       2.508  23.525  40.718  1.00  0.00     0.012 C 
ENDROOT
BRANCH   1   3
ATOM      3  C   UNL     1       3.299  23.531  38.321  1.00  0.00    -0.028 C 
ATOM      4  C   UNL     1       2.909  24.715  37.806  1.00  0.00    -0.027 C 
BRANCH   4   5
ATOM      5  C   UNL     1       2.794  26.037  38.554  1.00  0.00     0.014 C 
BRANCH   5   6
ATOM      6  C   UNL     1       1.312  26.444  38.819  1.00  0.00     0.004 C 
ATOM      7  C   UNL     1       0.276  25.839  37.865  1.00  0.00     0.004 C 
ENDBRANCH   5   6
BRANCH   5   8
ATOM      8  C   UNL     1       3.651  27.134  37.844  1.00  0.00    -0.011 C 
ATOM      9  C   UNL     1       3.739  26.977  36.317  1.00  0.00     0.008 C 
ATOM     10  C   UNL     1       3.178  28.555  38.198  1.00  0.00     0.008 C 
ENDBRANCH   5   8
ENDBRANCH   4   5
ENDBRANCH   1   3
BRANCH   1  11
ATOM     11  C   UNL     1       4.410  21.878  39.922  1.00  0.00     0.002 C 
ATOM     12  C   UNL     1       5.374  21.555  38.747  1.00  0.00     0.005 C 
ATOM     13  C   UNL     1       5.199  21.464  41.210  1.00  0.00    -0.023 C 
ATOM     14  C   UNL     1       6.463  20.625  39.306  1.00  0.00     0.009 C 
ATOM     15  C   UNL     1       5.919  20.217  40.671  1.00  0.00     0.021 C 
ATOM     16  C   UNL     1       4.332  21.015  42.421  1.00  0.00     0.008 C 
ATOM     17  C   UNL     1       6.211  22.551  41.675  1.00  0.00     0.012 C 
ATOM     18  C   UNL     1       6.800  19.598  41.732  1.00  0.00    -0.067 C 
ATOM     19  C   UNL     1       5.156  20.271  43.509  1.00  0.00     0.009 C 
ATOM     20  C   UNL     1       6.013  19.095  42.945  1.00  0.00     0.021 C 
ATOM     21  C   UNL     1       8.147  19.721  41.724  1.00  0.00    -0.027 C 
ATOM     22  C   UNL     1       6.920  18.339  43.993  1.00  0.00    -0.023 C 
ATOM     23  C   UNL     1       9.022  19.255  42.854  1.00  0.00     0.031 C 
ATOM     24  C   UNL     1       8.249  19.138  44.179  1.00  0.00     0.002 C 
ATOM     25  C   UNL     1       6.218  18.204  45.380  1.00  0.00     0.010 C 
ATOM     26  C   UNL     1       7.183  16.909  43.430  1.00  0.00     0.012 C 
ATOM     27  C   UNL     1       9.159  18.552  45.283  1.00  0.00     0.036 C 
ATOM     28  C   UNL     1       7.130  17.592  46.456  1.00  0.00     0.032 C 
ATOM     29  C   UNL     1       8.421  18.405  46.625  1.00  0.00     0.114 C 
BRANCH  29  30
ATOM     30  O   UNL     1       8.115  19.670  47.158  1.00  0.00    -0.393 OA
ATOM     31  H   UNL     1       8.253  20.329  46.430  1.00  0.00     0.210 HD
ENDBRANCH  29  30
ENDBRANCH   1  11
TORSDOF 6
ENDMDL
MODEL 9
REMARK VINA RESULT:    -6.837      3.544      8.993
REMARK INTER + INTRA:         -10.380
REMARK INTER:                  -9.364
REMARK INTRA:                  -1.016
REMARK UNBOUND:                -1.345
REMARK SMILES CC[C@@H](C=C[C@@H](C)[C@H]1CC[C@H]2C3=CC[C@@H]4C[C@@H](O)CC[C@@]4(C)[C@H]3CC[C@]12C)C(C)C
REMARK SMILES IDX 6 1 7 2 5 3 4 4 3 5 2 6 1 7 28 8 29 9 30 10 8 11 9 12 26 13
REMARK SMILES IDX 10 14 11 15 25 16 27 17 12 18 24 19 23 20 13 21 21 22 14 23
REMARK SMILES IDX 15 24 20 25 22 26 16 27 19 28 17 29 18 30
REMARK H PARENT 18 31
REMARK Flexibility Score: inf
ROOT
ATOM      1  C   UNL     1       0.004  20.051  47.975  1.00  0.00     0.012 C 
ATOM      2  C   UNL     1       1.493  20.451  47.954  1.00  0.00     0.012 C 
ENDROOT
BRANCH   1   3
ATOM      3  C   UNL     1      -0.435  19.516  46.622  1.00  0.00    -0.028 C 
ATOM      4  C   UNL     1      -0.483  18.219  46.255  1.00  0.00    -0.027 C 
BRANCH   4   5
ATOM      5  C   UNL     1      -0.124  17.016  47.117  1.00  0.00     0.014 C 
BRANCH   5   6
ATOM      6  C   UNL     1       0.571  15.883  46.301  1.00  0.00     0.004 C 
ATOM      7  C   UNL     1       0.279  15.875  44.796  1.00  0.00     0.004 C 
ENDBRANCH   5   6
BRANCH   5   8
ATOM      8  C   UNL     1      -1.368  16.552  47.941  1.00  0.00    -0.011 C 
ATOM      9  C   UNL     1      -1.249  16.796  49.455  1.00  0.00     0.008 C 
ATOM     10  C   UNL     1      -2.674  17.167  47.412  1.00  0.00     0.008 C 
ENDBRANCH   5   8
ENDBRANCH   4   5
ENDBRANCH   1   3
BRANCH   1  11
ATOM     11  C   UNL     1      -0.993  21.133  48.519  1.00  0.00     0.002 C 
ATOM     12  C   UNL     1      -2.256  20.519  49.184  1.00  0.00     0.005 C 
ATOM     13  C   UNL     1      -0.559  22.290  49.482  1.00  0.00    -0.023 C 
ATOM     14  C   UNL     1      -2.749  21.535  50.227  1.00  0.00     0.009 C 
ATOM     15  C   UNL     1      -1.947  22.792  49.911  1.00  0.00     0.021 C 
ATOM     16  C   UNL     1       0.185  23.483  48.815  1.00  0.00     0.008 C 
ATOM     17  C   UNL     1       0.267  21.785  50.701  1.00  0.00     0.012 C 
ATOM     18  C   UNL     1      -1.831  23.937  50.891  1.00  0.00    -0.067 C 
ATOM     19  C   UNL     1       0.247  24.739  49.729  1.00  0.00     0.009 C 
ATOM     20  C   UNL     1      -1.142  25.168  50.296  1.00  0.00     0.021 C 
ATOM     21  C   UNL     1      -2.067  23.790  52.214  1.00  0.00    -0.027 C 
ATOM     22  C   UNL     1      -1.134  26.401  51.281  1.00  0.00    -0.023 C 
ATOM     23  C   UNL     1      -1.798  24.872  53.223  1.00  0.00     0.031 C 
ATOM     24  C   UNL     1      -0.773  25.899  52.715  1.00  0.00     0.002 C 
ATOM     25  C   UNL     1      -0.095  27.483  50.851  1.00  0.00     0.010 C 
ATOM     26  C   UNL     1      -2.557  27.037  51.236  1.00  0.00     0.012 C 
ATOM     27  C   UNL     1      -0.611  27.049  53.737  1.00  0.00     0.036 C 
ATOM     28  C   UNL     1       0.029  28.632  51.865  1.00  0.00     0.032 C 
ATOM     29  C   UNL     1       0.398  28.109  53.261  1.00  0.00     0.114 C 
BRANCH  29  30
ATOM     30  O   UNL     1       1.697  27.574  53.236  1.00  0.00    -0.393 OA
ATOM     31  H   UNL     1       1.816  27.069  54.081  1.00  0.00     0.210 HD
ENDBRANCH  29  30
ENDBRANCH   1  11
TORSDOF 6
ENDMDL
