MODEL 1
REMARK VINA RESULT:    24.744      0.000      0.000
REMARK INTER + INTRA:          27.137
REMARK INTER:                  26.914
REMARK INTRA:                   0.223
REMARK UNBOUND:                 0.223
REMARK SMILES C[C@H]1[C@H]2C3=CC[C@@H]4[C@]5(C)CC[C@@H](O)C(C)(C)[C@@H]5CC[C@@]4(C)[C@]3(C)CC[C@@]2(C(=O)[O-])CC[C@@H]1C
REMARK SMILES IDX 26 1 30 2 25 3 3 4 31 5 24 6 4 7 2 8 32 9 22 10 5 11 1 12
REMARK SMILES IDX 33 13 23 14 20 15 6 16 7 17 19 18 21 19 8 20 18 21 17 22
REMARK SMILES IDX 10 23 9 24 14 25 11 26 12 27 15 28 16 29 27 30 28 31 29 32
REMARK SMILES IDX 13 33
REMARK H PARENT 13 34
REMARK Flexibility Score: inf
ROOT
ATOM      1  C   UNL     1      16.891  -1.438  18.945  1.00  0.00     0.017 C 
ATOM      2  C   UNL     1      18.307  -1.718  19.546  1.00  0.00     0.014 C 
ATOM      3  C   UNL     1      15.956  -1.094  20.124  1.00  0.00     0.014 C 
ATOM      4  C   UNL     1      16.366  -2.686  18.128  1.00  0.00     0.030 C 
ATOM      5  C   UNL     1      19.174  -2.502  18.570  1.00  0.00     0.004 C 
ATOM      6  C   UNL     1      14.505  -0.873  19.691  1.00  0.00     0.013 C 
ATOM      7  C   UNL     1      14.829  -2.822  18.045  1.00  0.00    -0.063 C 
ATOM      8  C   UNL     1      17.081  -4.044  18.463  1.00  0.00    -0.003 C 
ATOM      9  C   UNL     1      18.648  -3.943  18.429  1.00  0.00    -0.011 C 
ATOM     10  C   UNL     1      13.847  -2.107  18.991  1.00  0.00    -0.006 C 
ATOM     11  C   UNL     1      14.328  -3.629  17.076  1.00  0.00    -0.027 C 
ATOM     12  C   UNL     1      16.592  -4.702  19.764  1.00  0.00     0.008 C 
ATOM     13  C   UNL     1      19.231  -4.582  17.161  1.00  0.00     0.008 C 
ATOM     14  C   UNL     1      13.510  -3.134  20.125  1.00  0.00     0.017 C 
ATOM     15  C   UNL     1      12.545  -1.667  18.141  1.00  0.00    -0.020 C 
ATOM     16  C   UNL     1      12.857  -3.878  16.816  1.00  0.00     0.032 C 
ATOM     17  C   UNL     1      11.853  -2.966  17.593  1.00  0.00     0.006 C 
ATOM     18  C   UNL     1      11.517  -0.911  19.024  1.00  0.00     0.008 C 
ATOM     19  C   UNL     1      12.961  -0.722  16.960  1.00  0.00     0.012 C 
ATOM     20  C   UNL     1      10.418  -2.822  16.907  1.00  0.00    -0.025 C 
ATOM     21  C   UNL     1      10.202  -0.613  18.303  1.00  0.00     0.005 C 
ATOM     22  C   UNL     1       9.467  -1.886  17.781  1.00  0.00     0.003 C 
ATOM     23  C   UNL     1      10.507  -2.353  15.407  1.00  0.00     0.010 C 
ATOM     24  C   UNL     1       9.812  -4.264  16.900  1.00  0.00     0.012 C 
ATOM     25  C   UNL     1       8.041  -1.553  17.110  1.00  0.00    -0.006 C 
ATOM     26  C   UNL     1       9.500  -1.269  15.008  1.00  0.00     0.033 C 
ATOM     27  C   UNL     1       8.094  -1.573  15.533  1.00  0.00     0.120 C 
ATOM     28  C   UNL     1       6.965  -2.547  17.634  1.00  0.00     0.014 C 
ATOM     29  C   UNL     1       7.497  -0.153  17.529  1.00  0.00     0.014 C 
ENDROOT
BRANCH   1  30
ATOM     30  C   UNL     1      16.976  -0.222  18.015  1.00  0.00     0.048 C 
ATOM     31  O   UNL     1      16.439   0.875  18.323  1.00  0.00    -0.550 OA
ATOM     32  O   UNL     1      17.591  -0.328  16.775  1.00  0.00    -0.550 OA
ENDBRANCH   1  30
BRANCH  27  33
ATOM     33  O   UNL     1       7.640  -2.796  15.005  1.00  0.00    -0.393 OA
ATOM     34  H   UNL     1       8.410  -3.223  14.547  1.00  0.00     0.210 HD
ENDBRANCH  27  33
TORSDOF 2
ENDMDL
