MODEL 1
REMARK VINA RESULT:    -3.677      0.000      0.000
REMARK INTER + INTRA:          -6.234
REMARK INTER:                  -5.826
REMARK INTRA:                  -0.407
REMARK UNBOUND:                -0.407
REMARK SMILES CCCCCCCCCCCC(=O)[O-]
REMARK SMILES IDX 7 1 8 2 9 3 10 4 11 5 12 6 13 7 14 8 6 9 5 10 4 11 3 12 2 13
REMARK SMILES IDX 1 14
REMARK H PARENT
REMARK Flexibility Score: inf
ROOT
ATOM      1  C   UNL     1     -13.683  -2.772 -16.017  1.00  0.00     0.000 C 
ENDROOT
BRANCH   1   2
ATOM      2  C   UNL     1     -13.295  -2.563 -14.545  1.00  0.00     0.000 C 
BRANCH   2   3
ATOM      3  C   UNL     1     -13.735  -3.728 -13.643  1.00  0.00     0.000 C 
BRANCH   3   4
ATOM      4  C   UNL     1     -12.878  -3.848 -12.372  1.00  0.00     0.006 C 
BRANCH   4   5
ATOM      5  C   UNL     1     -13.736  -3.934 -11.101  1.00  0.00     0.053 C 
BRANCH   5   6
ATOM      6  C   UNL     1     -12.950  -4.440  -9.931  1.00  0.00     0.041 C 
ATOM      7  O   UNL     1     -13.158  -5.598  -9.481  1.00  0.00    -0.550 OA
ATOM      8  O   UNL     1     -12.008  -3.623  -9.318  1.00  0.00    -0.550 OA
ENDBRANCH   5   6
ENDBRANCH   4   5
ENDBRANCH   3   4
ENDBRANCH   2   3
ENDBRANCH   1   2
BRANCH   1   9
ATOM      9  C   UNL     1     -14.065  -4.235 -16.280  1.00  0.00     0.000 C 
BRANCH   9  10
ATOM     10  C   UNL     1     -14.076  -4.592 -17.778  1.00  0.00    -0.000 C 
BRANCH  10  11
ATOM     11  C   UNL     1     -13.698  -6.050 -18.103  1.00  0.00    -0.000 C 
BRANCH  11  12
ATOM     12  C   UNL     1     -14.175  -6.557 -19.478  1.00  0.00    -0.000 C 
BRANCH  12  13
ATOM     13  C   UNL     1     -15.124  -5.582 -20.205  1.00  0.00    -0.003 C 
ATOM     14  C   UNL     1     -16.575  -6.062 -20.207  1.00  0.00     0.004 C 
ENDBRANCH  12  13
ENDBRANCH  11  12
ENDBRANCH  10  11
ENDBRANCH   9  10
ENDBRANCH   1   9
TORSDOF 10
ENDMDL
MODEL 2
REMARK VINA RESULT:    -3.676      0.797      1.622
REMARK INTER + INTRA:          -6.232
REMARK INTER:                  -5.835
REMARK INTRA:                  -0.398
REMARK UNBOUND:                -0.407
REMARK SMILES CCCCCCCCCCCC(=O)[O-]
REMARK SMILES IDX 7 1 8 2 9 3 10 4 11 5 12 6 13 7 14 8 6 9 5 10 4 11 3 12 2 13
REMARK SMILES IDX 1 14
REMARK H PARENT
REMARK Flexibility Score: inf
ROOT
ATOM      1  C   UNL     1     -14.139  -2.752 -14.276  1.00  0.00     0.000 C 
ENDROOT
BRANCH   1   2
ATOM      2  C   UNL     1     -13.515  -3.825 -13.371  1.00  0.00     0.000 C 
BRANCH   2   3
ATOM      3  C   UNL     1     -12.266  -3.323 -12.628  1.00  0.00     0.000 C 
BRANCH   3   4
ATOM      4  C   UNL     1     -12.337  -3.579 -11.113  1.00  0.00     0.006 C 
BRANCH   4   5
ATOM      5  C   UNL     1     -13.672  -4.214 -10.695  1.00  0.00     0.053 C 
BRANCH   5   6
ATOM      6  C   UNL     1     -13.486  -5.256  -9.637  1.00  0.00     0.041 C 
ATOM      7  O   UNL     1     -12.367  -5.400  -9.078  1.00  0.00    -0.550 OA
ATOM      8  O   UNL     1     -14.541  -6.091  -9.287  1.00  0.00    -0.550 OA
ENDBRANCH   5   6
ENDBRANCH   4   5
ENDBRANCH   3   4
ENDBRANCH   2   3
ENDBRANCH   1   2
BRANCH   1   9
ATOM      9  C   UNL     1     -13.727  -2.963 -15.740  1.00  0.00     0.000 C 
BRANCH   9  10
ATOM     10  C   UNL     1     -14.007  -4.391 -16.243  1.00  0.00    -0.000 C 
BRANCH  10  11
ATOM     11  C   UNL     1     -14.057  -4.544 -17.775  1.00  0.00    -0.000 C 
BRANCH  11  12
ATOM     12  C   UNL     1     -13.926  -5.990 -18.291  1.00  0.00    -0.000 C 
BRANCH  12  13
ATOM     13  C   UNL     1     -14.310  -6.157 -19.777  1.00  0.00    -0.003 C 
ATOM     14  C   UNL     1     -15.761  -5.768 -20.058  1.00  0.00     0.004 C 
ENDBRANCH  12  13
ENDBRANCH  11  12
ENDBRANCH  10  11
ENDBRANCH   9  10
ENDBRANCH   1   9
TORSDOF 10
ENDMDL
MODEL 3
REMARK VINA RESULT:    -3.416      4.193      7.709
REMARK INTER + INTRA:          -5.820
REMARK INTER:                  -5.440
REMARK INTRA:                  -0.380
REMARK UNBOUND:                -0.407
REMARK SMILES CCCCCCCCCCCC(=O)[O-]
REMARK SMILES IDX 7 1 8 2 9 3 10 4 11 5 12 6 13 7 14 8 6 9 5 10 4 11 3 12 2 13
REMARK SMILES IDX 1 14
REMARK H PARENT
REMARK Flexibility Score: inf
ROOT
ATOM      1  C   UNL     1     -12.995  -1.989 -14.504  1.00  0.00     0.000 C 
ENDROOT
BRANCH   1   2
ATOM      2  C   UNL     1     -13.218  -2.483 -15.941  1.00  0.00     0.000 C 
BRANCH   2   3
ATOM      3  C   UNL     1     -13.935  -3.841 -15.999  1.00  0.00     0.000 C 
BRANCH   3   4
ATOM      4  C   UNL     1     -14.293  -4.260 -17.435  1.00  0.00     0.006 C 
BRANCH   4   5
ATOM      5  C   UNL     1     -13.798  -5.676 -17.765  1.00  0.00     0.053 C 
BRANCH   5   6
ATOM      6  C   UNL     1     -13.785  -5.932 -19.241  1.00  0.00     0.041 C 
ATOM      7  O   UNL     1     -14.811  -6.383 -19.814  1.00  0.00    -0.550 OA
ATOM      8  O   UNL     1     -12.631  -5.700 -19.979  1.00  0.00    -0.550 OA
ENDBRANCH   5   6
ENDBRANCH   4   5
ENDBRANCH   3   4
ENDBRANCH   2   3
ENDBRANCH   1   2
BRANCH   1   9
ATOM      9  C   UNL     1     -12.988  -3.164 -13.516  1.00  0.00     0.000 C 
BRANCH   9  10
ATOM     10  C   UNL     1     -11.907  -3.028 -12.428  1.00  0.00    -0.000 C 
BRANCH  10  11
ATOM     11  C   UNL     1     -12.217  -3.756 -11.106  1.00  0.00    -0.000 C 
BRANCH  11  12
ATOM     12  C   UNL     1     -13.710  -4.052 -10.859  1.00  0.00    -0.000 C 
BRANCH  12  13
ATOM     13  C   UNL     1     -14.024  -4.498  -9.416  1.00  0.00    -0.003 C 
ATOM     14  C   UNL     1     -14.056  -6.018  -9.261  1.00  0.00     0.004 C 
ENDBRANCH  12  13
ENDBRANCH  11  12
ENDBRANCH  10  11
ENDBRANCH   9  10
ENDBRANCH   1   9
TORSDOF 10
ENDMDL
MODEL 4
REMARK VINA RESULT:    -3.415      0.862      1.318
REMARK INTER + INTRA:          -5.819
REMARK INTER:                  -5.399
REMARK INTRA:                  -0.420
REMARK UNBOUND:                -0.407
REMARK SMILES CCCCCCCCCCCC(=O)[O-]
REMARK SMILES IDX 7 1 8 2 9 3 10 4 11 5 12 6 13 7 14 8 6 9 5 10 4 11 3 12 2 13
REMARK SMILES IDX 1 14
REMARK H PARENT
REMARK Flexibility Score: inf
ROOT
ATOM      1  C   UNL     1     -14.027  -3.319 -15.545  1.00  0.00     0.000 C 
ENDROOT
BRANCH   1   2
ATOM      2  C   UNL     1     -13.164  -2.150 -15.046  1.00  0.00     0.000 C 
BRANCH   2   3
ATOM      3  C   UNL     1     -12.374  -2.495 -13.774  1.00  0.00     0.000 C 
BRANCH   3   4
ATOM      4  C   UNL     1     -13.064  -3.576 -12.925  1.00  0.00     0.006 C 
BRANCH   4   5
ATOM      5  C   UNL     1     -12.258  -3.924 -11.665  1.00  0.00     0.053 C 
BRANCH   5   6
ATOM      6  C   UNL     1     -13.102  -3.863 -10.429  1.00  0.00     0.041 C 
ATOM      7  O   UNL     1     -13.032  -2.867  -9.662  1.00  0.00    -0.550 OA
ATOM      8  O   UNL     1     -13.945  -4.920 -10.108  1.00  0.00    -0.550 OA
ENDBRANCH   5   6
ENDBRANCH   4   5
ENDBRANCH   3   4
ENDBRANCH   2   3
ENDBRANCH   1   2
BRANCH   1   9
ATOM      9  C   UNL     1     -13.677  -3.677 -16.997  1.00  0.00     0.000 C 
BRANCH   9  10
ATOM     10  C   UNL     1     -14.097  -5.109 -17.379  1.00  0.00    -0.000 C 
BRANCH  10  11
ATOM     11  C   UNL     1     -13.456  -5.652 -18.670  1.00  0.00    -0.000 C 
BRANCH  11  12
ATOM     12  C   UNL     1     -14.419  -6.398 -19.614  1.00  0.00    -0.000 C 
BRANCH  12  13
ATOM     13  C   UNL     1     -15.507  -5.494 -20.232  1.00  0.00    -0.003 C 
ATOM     14  C   UNL     1     -16.885  -5.721 -19.612  1.00  0.00     0.004 C 
ENDBRANCH  12  13
ENDBRANCH  11  12
ENDBRANCH  10  11
ENDBRANCH   9  10
ENDBRANCH   1   9
TORSDOF 10
ENDMDL
MODEL 5
REMARK VINA RESULT:    -3.296      4.342      7.948
REMARK INTER + INTRA:          -5.629
REMARK INTER:                  -5.155
REMARK INTRA:                  -0.475
REMARK UNBOUND:                -0.407
REMARK SMILES CCCCCCCCCCCC(=O)[O-]
REMARK SMILES IDX 7 1 8 2 9 3 10 4 11 5 12 6 13 7 14 8 6 9 5 10 4 11 3 12 2 13
REMARK SMILES IDX 1 14
REMARK H PARENT
REMARK Flexibility Score: inf
ROOT
ATOM      1  C   UNL     1     -13.734  -2.761 -16.298  1.00  0.00     0.000 C 
ENDROOT
BRANCH   1   2
ATOM      2  C   UNL     1     -14.125  -4.226 -16.548  1.00  0.00     0.000 C 
BRANCH   2   3
ATOM      3  C   UNL     1     -13.593  -4.763 -17.887  1.00  0.00     0.000 C 
BRANCH   3   4
ATOM      4  C   UNL     1     -14.298  -6.057 -18.326  1.00  0.00     0.006 C 
BRANCH   4   5
ATOM      5  C   UNL     1     -14.575  -6.081 -19.836  1.00  0.00     0.053 C 
BRANCH   5   6
ATOM      6  C   UNL     1     -16.016  -5.816 -20.143  1.00  0.00     0.041 C 
ATOM      7  O   UNL     1     -16.513  -6.199 -21.234  1.00  0.00    -0.550 OA
ATOM      8  O   UNL     1     -16.805  -5.118 -19.236  1.00  0.00    -0.550 OA
ENDBRANCH   5   6
ENDBRANCH   4   5
ENDBRANCH   3   4
ENDBRANCH   2   3
ENDBRANCH   1   2
BRANCH   1   9
ATOM      9  C   UNL     1     -13.229  -2.567 -14.861  1.00  0.00     0.000 C 
BRANCH   9  10
ATOM     10  C   UNL     1     -14.095  -3.295 -13.817  1.00  0.00    -0.000 C 
BRANCH  10  11
ATOM     11  C   UNL     1     -13.318  -4.215 -12.855  1.00  0.00    -0.000 C 
BRANCH  11  12
ATOM     12  C   UNL     1     -12.223  -3.516 -12.026  1.00  0.00    -0.000 C 
BRANCH  12  13
ATOM     13  C   UNL     1     -12.301  -3.815 -10.514  1.00  0.00    -0.003 C 
ATOM     14  C   UNL     1     -13.737  -3.838  -9.991  1.00  0.00     0.004 C 
ENDBRANCH  12  13
ENDBRANCH  11  12
ENDBRANCH  10  11
ENDBRANCH   9  10
ENDBRANCH   1   9
TORSDOF 10
ENDMDL
MODEL 6
REMARK VINA RESULT:    -2.215     21.116     22.651
REMARK INTER + INTRA:          -3.917
REMARK INTER:                  -3.330
REMARK INTRA:                  -0.587
REMARK UNBOUND:                -0.407
REMARK SMILES CCCCCCCCCCCC(=O)[O-]
REMARK SMILES IDX 7 1 8 2 9 3 10 4 11 5 12 6 13 7 14 8 6 9 5 10 4 11 3 12 2 13
REMARK SMILES IDX 1 14
REMARK H PARENT
REMARK Flexibility Score: inf
ROOT
ATOM      1  C   UNL     1     -31.549   1.529 -25.049  1.00  0.00     0.000 C 
ENDROOT
BRANCH   1   2
ATOM      2  C   UNL     1     -31.273   0.358 -26.004  1.00  0.00     0.000 C 
BRANCH   2   3
ATOM      3  C   UNL     1     -31.136  -0.987 -25.273  1.00  0.00     0.000 C 
BRANCH   3   4
ATOM      4  C   UNL     1     -31.020  -2.177 -26.241  1.00  0.00     0.006 C 
BRANCH   4   5
ATOM      5  C   UNL     1     -31.454  -1.807 -27.666  1.00  0.00     0.053 C 
BRANCH   5   6
ATOM      6  C   UNL     1     -30.932  -2.780 -28.678  1.00  0.00     0.041 C 
ATOM      7  O   UNL     1     -31.670  -3.705 -29.108  1.00  0.00    -0.550 OA
ATOM      8  O   UNL     1     -29.619  -2.685 -29.125  1.00  0.00    -0.550 OA
ENDBRANCH   5   6
ENDBRANCH   4   5
ENDBRANCH   3   4
ENDBRANCH   2   3
ENDBRANCH   1   2
BRANCH   1   9
ATOM      9  C   UNL     1     -30.337   2.468 -24.967  1.00  0.00     0.000 C 
BRANCH   9  10
ATOM     10  C   UNL     1     -30.552   3.793 -25.721  1.00  0.00    -0.000 C 
BRANCH  10  11
ATOM     11  C   UNL     1     -31.997   4.047 -26.192  1.00  0.00    -0.000 C 
BRANCH  11  12
ATOM     12  C   UNL     1     -32.125   4.844 -27.505  1.00  0.00    -0.000 C 
BRANCH  12  13
ATOM     13  C   UNL     1     -31.347   4.226 -28.685  1.00  0.00    -0.003 C 
ATOM     14  C   UNL     1     -30.121   5.050 -29.079  1.00  0.00     0.004 C 
ENDBRANCH  12  13
ENDBRANCH  11  12
ENDBRANCH  10  11
ENDBRANCH   9  10
ENDBRANCH   1   9
TORSDOF 10
ENDMDL
MODEL 7
REMARK VINA RESULT:    -1.760     20.925     22.508
REMARK INTER + INTRA:          -3.197
REMARK INTER:                  -2.639
REMARK INTRA:                  -0.558
REMARK UNBOUND:                -0.407
REMARK SMILES CCCCCCCCCCCC(=O)[O-]
REMARK SMILES IDX 7 1 8 2 9 3 10 4 11 5 12 6 13 7 14 8 6 9 5 10 4 11 3 12 2 13
REMARK SMILES IDX 1 14
REMARK H PARENT
REMARK Flexibility Score: inf
ROOT
ATOM      1  C   UNL     1     -30.669   0.583 -24.556  1.00  0.00     0.000 C 
ENDROOT
BRANCH   1   2
ATOM      2  C   UNL     1     -31.642   1.407 -25.414  1.00  0.00     0.000 C 
BRANCH   2   3
ATOM      3  C   UNL     1     -32.121   2.685 -24.707  1.00  0.00     0.000 C 
BRANCH   3   4
ATOM      4  C   UNL     1     -32.125   3.909 -25.639  1.00  0.00     0.006 C 
BRANCH   4   5
ATOM      5  C   UNL     1     -32.057   3.509 -27.120  1.00  0.00     0.053 C 
BRANCH   5   6
ATOM      6  C   UNL     1     -31.154   4.412 -27.901  1.00  0.00     0.041 C 
ATOM      7  O   UNL     1     -31.554   4.933 -28.975  1.00  0.00    -0.550 OA
ATOM      8  O   UNL     1     -29.860   4.656 -27.458  1.00  0.00    -0.550 OA
ENDBRANCH   5   6
ENDBRANCH   4   5
ENDBRANCH   3   4
ENDBRANCH   2   3
ENDBRANCH   1   2
BRANCH   1   9
ATOM      9  C   UNL     1     -30.995  -0.915 -24.643  1.00  0.00     0.000 C 
BRANCH   9  10
ATOM     10  C   UNL     1     -31.721  -1.296 -25.946  1.00  0.00    -0.000 C 
BRANCH  10  11
ATOM     11  C   UNL     1     -30.803  -1.780 -27.085  1.00  0.00    -0.000 C 
BRANCH  11  12
ATOM     12  C   UNL     1     -31.419  -1.706 -28.496  1.00  0.00    -0.000 C 
BRANCH  12  13
ATOM     13  C   UNL     1     -32.125  -3.006 -28.935  1.00  0.00    -0.003 C 
ATOM     14  C   UNL     1     -31.194  -4.218 -28.918  1.00  0.00     0.004 C 
ENDBRANCH  12  13
ENDBRANCH  11  12
ENDBRANCH  10  11
ENDBRANCH   9  10
ENDBRANCH   1   9
TORSDOF 10
ENDMDL
MODEL 8
REMARK VINA RESULT:    -1.255      1.713      2.420
REMARK INTER + INTRA:          -2.396
REMARK INTER:                  -1.926
REMARK INTRA:                  -0.470
REMARK UNBOUND:                -0.407
REMARK SMILES CCCCCCCCCCCC(=O)[O-]
REMARK SMILES IDX 7 1 8 2 9 3 10 4 11 5 12 6 13 7 14 8 6 9 5 10 4 11 3 12 2 13
REMARK SMILES IDX 1 14
REMARK H PARENT
REMARK Flexibility Score: inf
ROOT
ATOM      1  C   UNL     1     -14.081  -4.459 -16.176  1.00  0.00     0.000 C 
ENDROOT
BRANCH   1   2
ATOM      2  C   UNL     1     -13.777  -3.038 -16.675  1.00  0.00     0.000 C 
BRANCH   2   3
ATOM      3  C   UNL     1     -13.612  -2.028 -15.529  1.00  0.00     0.000 C 
BRANCH   3   4
ATOM      4  C   UNL     1     -12.315  -2.245 -14.731  1.00  0.00     0.006 C 
BRANCH   4   5
ATOM      5  C   UNL     1     -12.572  -2.313 -13.218  1.00  0.00     0.053 C 
BRANCH   5   6
ATOM      6  C   UNL     1     -13.420  -3.491 -12.849  1.00  0.00     0.041 C 
ATOM      7  O   UNL     1     -12.892  -4.527 -12.366  1.00  0.00    -0.550 OA
ATOM      8  O   UNL     1     -14.792  -3.457 -13.067  1.00  0.00    -0.550 OA
ENDBRANCH   5   6
ENDBRANCH   4   5
ENDBRANCH   3   4
ENDBRANCH   2   3
ENDBRANCH   1   2
BRANCH   1   9
ATOM      9  C   UNL     1     -14.066  -5.463 -17.337  1.00  0.00     0.000 C 
BRANCH   9  10
ATOM     10  C   UNL     1     -13.124  -5.044 -18.481  1.00  0.00    -0.000 C 
BRANCH  10  11
ATOM     11  C   UNL     1     -13.388  -5.739 -19.830  1.00  0.00    -0.000 C 
BRANCH  11  12
ATOM     12  C   UNL     1     -14.699  -6.547 -19.902  1.00  0.00    -0.000 C 
BRANCH  12  13
ATOM     13  C   UNL     1     -15.877  -5.766 -20.521  1.00  0.00    -0.003 C 
ATOM     14  C   UNL     1     -16.980  -5.461 -19.508  1.00  0.00     0.004 C 
ENDBRANCH  12  13
ENDBRANCH  11  12
ENDBRANCH  10  11
ENDBRANCH   9  10
ENDBRANCH   1   9
TORSDOF 10
ENDMDL
MODEL 9
REMARK VINA RESULT:    -1.165      2.957      5.016
REMARK INTER + INTRA:          -2.254
REMARK INTER:                  -1.956
REMARK INTRA:                  -0.298
REMARK UNBOUND:                -0.407
REMARK SMILES CCCCCCCCCCCC(=O)[O-]
REMARK SMILES IDX 7 1 8 2 9 3 10 4 11 5 12 6 13 7 14 8 6 9 5 10 4 11 3 12 2 13
REMARK SMILES IDX 1 14
REMARK H PARENT
REMARK Flexibility Score: inf
ROOT
ATOM      1  C   UNL     1     -14.734  -6.047 -19.897  1.00  0.00     0.000 C 
ENDROOT
BRANCH   1   2
ATOM      2  C   UNL     1     -14.143  -6.090 -18.479  1.00  0.00     0.000 C 
BRANCH   2   3
ATOM      3  C   UNL     1     -13.691  -4.707 -17.982  1.00  0.00     0.000 C 
BRANCH   3   4
ATOM      4  C   UNL     1     -14.093  -4.445 -16.520  1.00  0.00     0.006 C 
BRANCH   4   5
ATOM      5  C   UNL     1     -13.762  -3.012 -16.078  1.00  0.00     0.053 C 
BRANCH   5   6
ATOM      6  C   UNL     1     -13.479  -2.933 -14.610  1.00  0.00     0.041 C 
ATOM      7  O   UNL     1     -12.422  -2.387 -14.196  1.00  0.00    -0.550 OA
ATOM      8  O   UNL     1     -14.367  -3.489 -13.697  1.00  0.00    -0.550 OA
ENDBRANCH   5   6
ENDBRANCH   4   5
ENDBRANCH   3   4
ENDBRANCH   2   3
ENDBRANCH   1   2
BRANCH   1   9
ATOM      9  C   UNL     1     -16.200  -5.595 -19.866  1.00  0.00     0.000 C 
BRANCH   9  10
ATOM     10  C   UNL     1     -17.058  -6.263 -20.957  1.00  0.00    -0.000 C 
BRANCH  10  11
ATOM     11  C   UNL     1     -16.645  -5.931 -22.404  1.00  0.00    -0.000 C 
BRANCH  11  12
ATOM     12  C   UNL     1     -17.133  -6.933 -23.468  1.00  0.00    -0.000 C 
BRANCH  12  13
ATOM     13  C   UNL     1     -16.564  -6.668 -24.878  1.00  0.00    -0.003 C 
ATOM     14  C   UNL     1     -15.914  -7.906 -25.495  1.00  0.00     0.004 C 
ENDBRANCH  12  13
ENDBRANCH  11  12
ENDBRANCH  10  11
ENDBRANCH   9  10
ENDBRANCH   1   9
TORSDOF 10
ENDMDL
