MODEL 1
REMARK VINA RESULT:    -6.133      0.000      0.000
REMARK INTER + INTRA:          -7.771
REMARK INTER:                  -7.567
REMARK INTRA:                  -0.203
REMARK UNBOUND:                -0.203
REMARK SMILES Oc1cc(O)c2cc(O)c(-c3cc(O)c(O)c(O)c3)[o+]c2c1
REMARK SMILES IDX 10 1 20 2 21 3 22 4 2 5 3 6 4 7 6 8 7 9 8 10 11 11 12 12
REMARK SMILES IDX 13 13 19 14 15 15 17 16 14 17 16 19 18 21 9 23 1 25 5 27
REMARK H PARENT 14 18 16 20 18 22 9 24 1 26 5 28
REMARK Flexibility Score: inf
ROOT
ATOM      1  C   UNL     1      12.762  20.915  38.601  1.00  0.00     0.402 A 
ATOM      2  O   UNL     1      11.802  21.765  38.957  1.00  0.00    -0.202 OA
ATOM      3  C   UNL     1      12.015  23.062  39.157  1.00  0.00     0.368 A 
ATOM      4  C   UNL     1      10.943  23.876  39.531  1.00  0.00     0.162 A 
ATOM      5  C   UNL     1      11.137  25.241  39.752  1.00  0.00     0.128 A 
ATOM      6  C   UNL     1      12.412  25.797  39.597  1.00  0.00     0.093 A 
ATOM      7  C   UNL     1      13.502  25.002  39.222  1.00  0.00     0.136 A 
ATOM      8  C   UNL     1      13.308  23.615  38.995  1.00  0.00     0.125 A 
ATOM      9  C   UNL     1      14.339  22.745  38.604  1.00  0.00     0.078 A 
ATOM     10  C   UNL     1      14.070  21.388  38.394  1.00  0.00     0.223 A 
ENDROOT
BRANCH   1  11
ATOM     11  C   UNL     1      12.402  19.489  38.417  1.00  0.00     0.091 A 
ATOM     12  C   UNL     1      11.387  19.147  37.511  1.00  0.00     0.068 A 
ATOM     13  C   UNL     1      11.012  17.811  37.331  1.00  0.00     0.162 A 
ATOM     14  C   UNL     1      13.014  18.476  39.173  1.00  0.00     0.068 A 
ATOM     15  C   UNL     1      11.642  16.798  38.074  1.00  0.00     0.200 A 
ATOM     16  C   UNL     1      12.644  17.136  39.001  1.00  0.00     0.162 A 
BRANCH  13  17
ATOM     17  O   UNL     1      10.009  17.509  36.410  1.00  0.00    -0.504 OA
ATOM     18  H   UNL     1       9.147  18.037  36.358  1.00  0.00     0.293 HD
ENDBRANCH  13  17
BRANCH  15  19
ATOM     19  O   UNL     1      11.265  15.468  37.887  1.00  0.00    -0.502 OA
ATOM     20  H   UNL     1      11.206  14.810  38.654  1.00  0.00     0.293 HD
ENDBRANCH  15  19
BRANCH  16  21
ATOM     21  O   UNL     1      13.264  16.138  39.752  1.00  0.00    -0.504 OA
ATOM     22  H   UNL     1      12.975  15.930  40.701  1.00  0.00     0.293 HD
ENDBRANCH  16  21
ENDBRANCH   1  11
BRANCH  10  23
ATOM     23  O   UNL     1      15.082  20.534  37.957  1.00  0.00    -0.500 OA
ATOM     24  H   UNL     1      15.047  20.087  37.049  1.00  0.00     0.294 HD
ENDBRANCH  10  23
BRANCH   5  25
ATOM     25  O   UNL     1      10.056  26.036  40.125  1.00  0.00    -0.507 OA
ATOM     26  H   UNL     1       9.504  25.827  40.948  1.00  0.00     0.293 HD
ENDBRANCH   5  25
BRANCH   7  27
ATOM     27  O   UNL     1      14.743  25.632  39.091  1.00  0.00    -0.507 OA
ATOM     28  H   UNL     1      15.231  26.092  39.846  1.00  0.00     0.293 HD
ENDBRANCH   7  27
TORSDOF 7
ENDMDL
MODEL 2
REMARK VINA RESULT:    -5.800     13.892     15.780
REMARK INTER + INTRA:          -7.359
REMARK INTER:                  -7.609
REMARK INTRA:                   0.250
REMARK UNBOUND:                -0.203
REMARK SMILES Oc1cc(O)c2cc(O)c(-c3cc(O)c(O)c(O)c3)[o+]c2c1
REMARK SMILES IDX 10 1 20 2 21 3 22 4 2 5 3 6 4 7 6 8 7 9 8 10 11 11 12 12
REMARK SMILES IDX 13 13 19 14 15 15 17 16 14 17 16 19 18 21 9 23 1 25 5 27
REMARK H PARENT 14 18 16 20 18 22 9 24 1 26 5 28
REMARK Flexibility Score: inf
ROOT
ATOM      1  C   UNL     1      24.718  14.986  31.834  1.00  0.00     0.402 A 
ATOM      2  O   UNL     1      24.761  14.800  33.151  1.00  0.00    -0.202 OA
ATOM      3  C   UNL     1      25.852  15.005  33.881  1.00  0.00     0.368 A 
ATOM      4  C   UNL     1      25.798  14.780  35.259  1.00  0.00     0.162 A 
ATOM      5  C   UNL     1      26.929  14.984  36.051  1.00  0.00     0.128 A 
ATOM      6  C   UNL     1      28.123  15.416  35.463  1.00  0.00     0.093 A 
ATOM      7  C   UNL     1      28.202  15.648  34.084  1.00  0.00     0.136 A 
ATOM      8  C   UNL     1      27.053  15.444  33.276  1.00  0.00     0.125 A 
ATOM      9  C   UNL     1      27.036  15.664  31.889  1.00  0.00     0.078 A 
ATOM     10  C   UNL     1      25.863  15.446  31.159  1.00  0.00     0.223 A 
ENDROOT
BRANCH   1  11
ATOM     11  C   UNL     1      23.444  14.713  31.128  1.00  0.00     0.091 A 
ATOM     12  C   UNL     1      22.246  14.682  31.857  1.00  0.00     0.068 A 
ATOM     13  C   UNL     1      21.031  14.408  31.221  1.00  0.00     0.162 A 
ATOM     14  C   UNL     1      23.416  14.429  29.753  1.00  0.00     0.068 A 
ATOM     15  C   UNL     1      21.004  14.145  29.841  1.00  0.00     0.200 A 
ATOM     16  C   UNL     1      22.203  14.151  29.108  1.00  0.00     0.162 A 
BRANCH  13  17
ATOM     17  O   UNL     1      19.859  14.401  31.978  1.00  0.00    -0.504 OA
ATOM     18  H   UNL     1      19.620  15.156  32.608  1.00  0.00     0.293 HD
ENDBRANCH  13  17
BRANCH  15  19
ATOM     19  O   UNL     1      19.787  13.875  29.213  1.00  0.00    -0.502 OA
ATOM     20  H   UNL     1      19.414  14.467  28.481  1.00  0.00     0.293 HD
ENDBRANCH  15  19
BRANCH  16  21
ATOM     21  O   UNL     1      22.187  13.876  27.741  1.00  0.00    -0.504 OA
ATOM     22  H   UNL     1      22.442  14.576  27.055  1.00  0.00     0.293 HD
ENDBRANCH  16  21
ENDBRANCH   1  11
BRANCH  10  23
ATOM     23  O   UNL     1      25.832  15.712  29.790  1.00  0.00    -0.500 OA
ATOM     24  H   UNL     1      25.559  15.006  29.116  1.00  0.00     0.294 HD
ENDBRANCH  10  23
BRANCH   5  25
ATOM     25  O   UNL     1      26.857  14.754  37.423  1.00  0.00    -0.507 OA
ATOM     26  H   UNL     1      27.081  13.851  37.822  1.00  0.00     0.293 HD
ENDBRANCH   5  25
BRANCH   7  27
ATOM     27  O   UNL     1      29.431  16.075  33.573  1.00  0.00    -0.507 OA
ATOM     28  H   UNL     1      30.132  15.460  33.186  1.00  0.00     0.293 HD
ENDBRANCH   7  27
TORSDOF 7
ENDMDL
MODEL 3
REMARK VINA RESULT:    -5.714     13.851     15.717
REMARK INTER + INTRA:          -7.253
REMARK INTER:                  -7.613
REMARK INTRA:                   0.360
REMARK UNBOUND:                -0.203
REMARK SMILES Oc1cc(O)c2cc(O)c(-c3cc(O)c(O)c(O)c3)[o+]c2c1
REMARK SMILES IDX 10 1 20 2 21 3 22 4 2 5 3 6 4 7 6 8 7 9 8 10 11 11 12 12
REMARK SMILES IDX 13 13 19 14 15 15 17 16 14 17 16 19 18 21 9 23 1 25 5 27
REMARK H PARENT 14 18 16 20 18 22 9 24 1 26 5 28
REMARK Flexibility Score: inf
ROOT
ATOM      1  C   UNL     1      24.702  14.909  31.968  1.00  0.00     0.402 A 
ATOM      2  O   UNL     1      24.726  14.764  33.291  1.00  0.00    -0.202 OA
ATOM      3  C   UNL     1      25.809  14.985  34.029  1.00  0.00     0.368 A 
ATOM      4  C   UNL     1      25.736  14.803  35.412  1.00  0.00     0.162 A 
ATOM      5  C   UNL     1      26.857  15.024  36.213  1.00  0.00     0.128 A 
ATOM      6  C   UNL     1      28.062  15.430  35.627  1.00  0.00     0.093 A 
ATOM      7  C   UNL     1      28.160  15.619  34.243  1.00  0.00     0.136 A 
ATOM      8  C   UNL     1      27.021  15.398  33.427  1.00  0.00     0.125 A 
ATOM      9  C   UNL     1      27.024  15.575  32.033  1.00  0.00     0.078 A 
ATOM     10  C   UNL     1      25.859  15.342  31.295  1.00  0.00     0.223 A 
ENDROOT
BRANCH   1  11
ATOM     11  C   UNL     1      23.436  14.623  31.254  1.00  0.00     0.091 A 
ATOM     12  C   UNL     1      23.462  14.383  29.873  1.00  0.00     0.068 A 
ATOM     13  C   UNL     1      22.280  14.130  29.169  1.00  0.00     0.162 A 
ATOM     14  C   UNL     1      22.199  14.644  31.921  1.00  0.00     0.068 A 
ATOM     15  C   UNL     1      21.047  14.131  29.843  1.00  0.00     0.200 A 
ATOM     16  C   UNL     1      21.009  14.394  31.224  1.00  0.00     0.162 A 
BRANCH  13  17
ATOM     17  O   UNL     1      22.350  13.882  27.799  1.00  0.00    -0.504 OA
ATOM     18  H   UNL     1      23.146  13.423  27.373  1.00  0.00     0.293 HD
ENDBRANCH  13  17
BRANCH  15  19
ATOM     19  O   UNL     1      19.873  13.875  29.136  1.00  0.00    -0.502 OA
ATOM     20  H   UNL     1      19.633  12.949  28.803  1.00  0.00     0.293 HD
ENDBRANCH  15  19
BRANCH  16  21
ATOM     21  O   UNL     1      19.789  14.411  31.898  1.00  0.00    -0.504 OA
ATOM     22  H   UNL     1      19.142  15.185  31.807  1.00  0.00     0.293 HD
ENDBRANCH  16  21
ENDBRANCH   1  11
BRANCH  10  23
ATOM     23  O   UNL     1      25.847  15.566  29.918  1.00  0.00    -0.500 OA
ATOM     24  H   UNL     1      24.994  15.801  29.424  1.00  0.00     0.294 HD
ENDBRANCH  10  23
BRANCH   5  25
ATOM     25  O   UNL     1      26.766  14.837  37.590  1.00  0.00    -0.507 OA
ATOM     26  H   UNL     1      27.234  14.067  38.053  1.00  0.00     0.293 HD
ENDBRANCH   5  25
BRANCH   7  27
ATOM     27  O   UNL     1      29.399  16.023  33.735  1.00  0.00    -0.507 OA
ATOM     28  H   UNL     1      30.173  15.399  33.557  1.00  0.00     0.293 HD
ENDBRANCH   7  27
TORSDOF 7
ENDMDL
MODEL 4
REMARK VINA RESULT:    -5.619     14.454     16.803
REMARK INTER + INTRA:          -7.136
REMARK INTER:                  -7.514
REMARK INTRA:                   0.378
REMARK UNBOUND:                -0.203
REMARK SMILES Oc1cc(O)c2cc(O)c(-c3cc(O)c(O)c(O)c3)[o+]c2c1
REMARK SMILES IDX 10 1 20 2 21 3 22 4 2 5 3 6 4 7 6 8 7 9 8 10 11 11 12 12
REMARK SMILES IDX 13 13 19 14 15 15 17 16 14 17 16 19 18 21 9 23 1 25 5 27
REMARK H PARENT 14 18 16 20 18 22 9 24 1 26 5 28
REMARK Flexibility Score: inf
ROOT
ATOM      1  C   UNL     1      25.251  14.715  31.372  1.00  0.00     0.402 A 
ATOM      2  O   UNL     1      24.047  14.581  31.923  1.00  0.00    -0.202 OA
ATOM      3  C   UNL     1      22.944  14.353  31.217  1.00  0.00     0.368 A 
ATOM      4  C   UNL     1      21.724  14.231  31.886  1.00  0.00     0.162 A 
ATOM      5  C   UNL     1      20.548  13.994  31.172  1.00  0.00     0.128 A 
ATOM      6  C   UNL     1      20.592  13.879  29.777  1.00  0.00     0.093 A 
ATOM      7  C   UNL     1      21.803  13.999  29.085  1.00  0.00     0.136 A 
ATOM      8  C   UNL     1      23.000  14.237  29.808  1.00  0.00     0.125 A 
ATOM      9  C   UNL     1      24.260  14.357  29.199  1.00  0.00     0.078 A 
ATOM     10  C   UNL     1      25.397  14.587  29.979  1.00  0.00     0.223 A 
ENDROOT
BRANCH   1  11
ATOM     11  C   UNL     1      26.405  14.977  32.265  1.00  0.00     0.091 A 
ATOM     12  C   UNL     1      27.703  14.703  31.810  1.00  0.00     0.068 A 
ATOM     13  C   UNL     1      28.809  14.922  32.638  1.00  0.00     0.162 A 
ATOM     14  C   UNL     1      26.223  15.440  33.578  1.00  0.00     0.068 A 
ATOM     15  C   UNL     1      28.625  15.406  33.944  1.00  0.00     0.200 A 
ATOM     16  C   UNL     1      27.325  15.661  34.415  1.00  0.00     0.162 A 
BRANCH  13  17
ATOM     17  O   UNL     1      30.086  14.652  32.145  1.00  0.00    -0.504 OA
ATOM     18  H   UNL     1      30.918  14.766  32.709  1.00  0.00     0.293 HD
ENDBRANCH  13  17
BRANCH  15  19
ATOM     19  O   UNL     1      29.734  15.624  34.763  1.00  0.00    -0.502 OA
ATOM     20  H   UNL     1      29.643  15.893  35.735  1.00  0.00     0.293 HD
ENDBRANCH  15  19
BRANCH  16  21
ATOM     21  O   UNL     1      27.133  16.127  35.715  1.00  0.00    -0.504 OA
ATOM     22  H   UNL     1      27.319  15.543  36.522  1.00  0.00     0.293 HD
ENDBRANCH  16  21
ENDBRANCH   1  11
BRANCH  10  23
ATOM     23  O   UNL     1      26.655  14.656  29.379  1.00  0.00    -0.500 OA
ATOM     24  H   UNL     1      27.480  14.276  29.828  1.00  0.00     0.294 HD
ENDBRANCH  10  23
BRANCH   5  25
ATOM     25  O   UNL     1      19.341  13.875  31.856  1.00  0.00    -0.507 OA
ATOM     26  H   UNL     1      19.086  14.517  32.597  1.00  0.00     0.293 HD
ENDBRANCH   5  25
BRANCH   7  27
ATOM     27  O   UNL     1      21.762  13.875  27.692  1.00  0.00    -0.507 OA
ATOM     28  H   UNL     1      21.044  13.380  27.184  1.00  0.00     0.293 HD
ENDBRANCH   7  27
TORSDOF 7
ENDMDL
MODEL 5
REMARK VINA RESULT:    -5.479     14.430     16.786
REMARK INTER + INTRA:          -6.964
REMARK INTER:                  -7.263
REMARK INTRA:                   0.299
REMARK UNBOUND:                -0.203
REMARK SMILES Oc1cc(O)c2cc(O)c(-c3cc(O)c(O)c(O)c3)[o+]c2c1
REMARK SMILES IDX 10 1 20 2 21 3 22 4 2 5 3 6 4 7 6 8 7 9 8 10 11 11 12 12
REMARK SMILES IDX 13 13 19 14 15 15 17 16 14 17 16 19 18 21 9 23 1 25 5 27
REMARK H PARENT 14 18 16 20 18 22 9 24 1 26 5 28
REMARK Flexibility Score: inf
ROOT
ATOM      1  C   UNL     1      25.182  14.681  31.263  1.00  0.00     0.402 A 
ATOM      2  O   UNL     1      24.005  14.553  31.870  1.00  0.00    -0.202 OA
ATOM      3  C   UNL     1      22.868  14.334  31.217  1.00  0.00     0.368 A 
ATOM      4  C   UNL     1      21.681  14.216  31.943  1.00  0.00     0.162 A 
ATOM      5  C   UNL     1      20.471  13.989  31.285  1.00  0.00     0.128 A 
ATOM      6  C   UNL     1      20.447  13.879  29.890  1.00  0.00     0.093 A 
ATOM      7  C   UNL     1      21.624  13.994  29.140  1.00  0.00     0.136 A 
ATOM      8  C   UNL     1      22.856  14.222  29.807  1.00  0.00     0.125 A 
ATOM      9  C   UNL     1      24.086  14.337  29.138  1.00  0.00     0.078 A 
ATOM     10  C   UNL     1      25.261  14.557  29.864  1.00  0.00     0.223 A 
ENDROOT
BRANCH   1  11
ATOM     11  C   UNL     1      26.378  14.933  32.100  1.00  0.00     0.091 A 
ATOM     12  C   UNL     1      26.223  15.520  33.365  1.00  0.00     0.068 A 
ATOM     13  C   UNL     1      27.336  15.788  34.168  1.00  0.00     0.162 A 
ATOM     14  C   UNL     1      27.672  14.650  31.632  1.00  0.00     0.068 A 
ATOM     15  C   UNL     1      28.628  15.484  33.705  1.00  0.00     0.200 A 
ATOM     16  C   UNL     1      28.793  14.917  32.429  1.00  0.00     0.162 A 
BRANCH  13  17
ATOM     17  O   UNL     1      27.139  16.358  35.426  1.00  0.00    -0.504 OA
ATOM     18  H   UNL     1      27.146  15.808  36.275  1.00  0.00     0.293 HD
ENDBRANCH  13  17
BRANCH  15  19
ATOM     19  O   UNL     1      29.732  15.751  34.514  1.00  0.00    -0.502 OA
ATOM     20  H   UNL     1      30.197  16.651  34.515  1.00  0.00     0.293 HD
ENDBRANCH  15  19
BRANCH  16  21
ATOM     21  O   UNL     1      30.072  14.625  31.956  1.00  0.00    -0.504 OA
ATOM     22  H   UNL     1      30.441  15.060  31.119  1.00  0.00     0.293 HD
ENDBRANCH  16  21
ENDBRANCH   1  11
BRANCH  10  23
ATOM     23  O   UNL     1      26.489  14.621  29.205  1.00  0.00    -0.500 OA
ATOM     24  H   UNL     1      27.037  15.473  29.182  1.00  0.00     0.294 HD
ENDBRANCH  10  23
BRANCH   5  25
ATOM     25  O   UNL     1      19.297  13.875  32.026  1.00  0.00    -0.507 OA
ATOM     26  H   UNL     1      19.186  14.341  32.918  1.00  0.00     0.293 HD
ENDBRANCH   5  25
BRANCH   7  27
ATOM     27  O   UNL     1      21.517  13.875  27.751  1.00  0.00    -0.507 OA
ATOM     28  H   UNL     1      21.866  14.556  27.092  1.00  0.00     0.293 HD
ENDBRANCH   7  27
TORSDOF 7
ENDMDL
MODEL 6
REMARK VINA RESULT:    -5.474     14.219     16.716
REMARK INTER + INTRA:          -6.958
REMARK INTER:                  -7.419
REMARK INTRA:                   0.461
REMARK UNBOUND:                -0.203
REMARK SMILES Oc1cc(O)c2cc(O)c(-c3cc(O)c(O)c(O)c3)[o+]c2c1
REMARK SMILES IDX 10 1 20 2 21 3 22 4 2 5 3 6 4 7 6 8 7 9 8 10 11 11 12 12
REMARK SMILES IDX 13 13 19 14 15 15 17 16 14 17 16 19 18 21 9 23 1 25 5 27
REMARK H PARENT 14 18 16 20 18 22 9 24 1 26 5 28
REMARK Flexibility Score: inf
ROOT
ATOM      1  C   UNL     1      24.887  14.558  32.584  1.00  0.00     0.402 A 
ATOM      2  O   UNL     1      24.723  14.451  31.268  1.00  0.00    -0.202 OA
ATOM      3  C   UNL     1      23.539  14.271  30.692  1.00  0.00     0.368 A 
ATOM      4  C   UNL     1      23.469  14.168  29.301  1.00  0.00     0.162 A 
ATOM      5  C   UNL     1      22.240  13.975  28.669  1.00  0.00     0.128 A 
ATOM      6  C   UNL     1      21.070  13.884  29.433  1.00  0.00     0.093 A 
ATOM      7  C   UNL     1      21.115  13.984  30.829  1.00  0.00     0.136 A 
ATOM      8  C   UNL     1      22.363  14.182  31.474  1.00  0.00     0.125 A 
ATOM      9  C   UNL     1      22.501  14.306  32.866  1.00  0.00     0.078 A 
ATOM     10  C   UNL     1      23.765  14.506  33.431  1.00  0.00     0.223 A 
ENDROOT
BRANCH   1  11
ATOM     11  C   UNL     1      26.260  14.747  33.107  1.00  0.00     0.091 A 
ATOM     12  C   UNL     1      26.447  15.022  34.470  1.00  0.00     0.068 A 
ATOM     13  C   UNL     1      27.730  15.226  34.987  1.00  0.00     0.162 A 
ATOM     14  C   UNL     1      27.378  14.715  32.256  1.00  0.00     0.068 A 
ATOM     15  C   UNL     1      28.848  15.172  34.137  1.00  0.00     0.200 A 
ATOM     16  C   UNL     1      28.667  14.919  32.766  1.00  0.00     0.162 A 
BRANCH  13  17
ATOM     17  O   UNL     1      27.876  15.483  36.350  1.00  0.00    -0.504 OA
ATOM     18  H   UNL     1      27.087  15.703  36.945  1.00  0.00     0.293 HD
ENDBRANCH  13  17
BRANCH  15  19
ATOM     19  O   UNL     1      30.125  15.372  34.661  1.00  0.00    -0.502 OA
ATOM     20  H   UNL     1      30.293  15.464  35.655  1.00  0.00     0.293 HD
ENDBRANCH  15  19
BRANCH  16  21
ATOM     21  O   UNL     1      29.769  14.878  31.913  1.00  0.00    -0.504 OA
ATOM     22  H   UNL     1      30.703  15.095  32.240  1.00  0.00     0.293 HD
ENDBRANCH  16  21
ENDBRANCH   1  11
BRANCH  10  23
ATOM     23  O   UNL     1      23.896  14.680  34.809  1.00  0.00    -0.500 OA
ATOM     24  H   UNL     1      24.780  14.939  35.231  1.00  0.00     0.294 HD
ENDBRANCH  10  23
BRANCH   5  25
ATOM     25  O   UNL     1      22.190  13.875  27.281  1.00  0.00    -0.507 OA
ATOM     26  H   UNL     1      22.572  14.598  26.683  1.00  0.00     0.293 HD
ENDBRANCH   5  25
BRANCH   7  27
ATOM     27  O   UNL     1      19.904  13.879  31.520  1.00  0.00    -0.507 OA
ATOM     28  H   UNL     1      19.767  13.317  32.348  1.00  0.00     0.293 HD
ENDBRANCH   7  27
TORSDOF 7
ENDMDL
MODEL 7
REMARK VINA RESULT:    -5.459     13.606     15.946
REMARK INTER + INTRA:          -6.939
REMARK INTER:                  -7.298
REMARK INTRA:                   0.359
REMARK UNBOUND:                -0.203
REMARK SMILES Oc1cc(O)c2cc(O)c(-c3cc(O)c(O)c(O)c3)[o+]c2c1
REMARK SMILES IDX 10 1 20 2 21 3 22 4 2 5 3 6 4 7 6 8 7 9 8 10 11 11 12 12
REMARK SMILES IDX 13 13 19 14 15 15 17 16 14 17 16 19 18 21 9 23 1 25 5 27
REMARK H PARENT 14 18 16 20 18 22 9 24 1 26 5 28
REMARK Flexibility Score: inf
ROOT
ATOM      1  C   UNL     1      24.826  14.513  32.741  1.00  0.00     0.402 A 
ATOM      2  O   UNL     1      23.503  14.412  32.842  1.00  0.00    -0.202 OA
ATOM      3  C   UNL     1      22.703  14.239  31.794  1.00  0.00     0.368 A 
ATOM      4  C   UNL     1      21.325  14.147  32.001  1.00  0.00     0.162 A 
ATOM      5  C   UNL     1      20.459  13.968  30.921  1.00  0.00     0.128 A 
ATOM      6  C   UNL     1      20.976  13.880  29.623  1.00  0.00     0.093 A 
ATOM      7  C   UNL     1      22.353  13.969  29.390  1.00  0.00     0.136 A 
ATOM      8  C   UNL     1      23.236  14.149  30.486  1.00  0.00     0.125 A 
ATOM      9  C   UNL     1      24.631  14.236  30.349  1.00  0.00     0.078 A 
ATOM     10  C   UNL     1      25.438  14.408  31.478  1.00  0.00     0.223 A 
ENDROOT
BRANCH   1  11
ATOM     11  C   UNL     1      25.610  14.715  33.981  1.00  0.00     0.091 A 
ATOM     12  C   UNL     1      24.956  15.134  35.149  1.00  0.00     0.068 A 
ATOM     13  C   UNL     1      25.674  15.352  36.330  1.00  0.00     0.162 A 
ATOM     14  C   UNL     1      27.005  14.550  34.000  1.00  0.00     0.068 A 
ATOM     15  C   UNL     1      27.066  15.166  36.351  1.00  0.00     0.200 A 
ATOM     16  C   UNL     1      27.733  14.768  35.178  1.00  0.00     0.162 A 
BRANCH  13  17
ATOM     17  O   UNL     1      24.985  15.754  37.474  1.00  0.00    -0.504 OA
ATOM     18  H   UNL     1      25.096  16.678  37.874  1.00  0.00     0.293 HD
ENDBRANCH  13  17
BRANCH  15  19
ATOM     19  O   UNL     1      27.775  15.382  37.533  1.00  0.00    -0.502 OA
ATOM     20  H   UNL     1      27.910  16.308  37.920  1.00  0.00     0.293 HD
ENDBRANCH  15  19
BRANCH  16  21
ATOM     21  O   UNL     1      29.116  14.596  35.186  1.00  0.00    -0.504 OA
ATOM     22  H   UNL     1      29.717  15.145  35.790  1.00  0.00     0.293 HD
ENDBRANCH  16  21
ENDBRANCH   1  11
BRANCH  10  23
ATOM     23  O   UNL     1      26.826  14.444  31.347  1.00  0.00    -0.500 OA
ATOM     24  H   UNL     1      27.272  14.654  30.462  1.00  0.00     0.294 HD
ENDBRANCH  10  23
BRANCH   5  25
ATOM     25  O   UNL     1      19.088  13.879  31.147  1.00  0.00    -0.507 OA
ATOM     26  H   UNL     1      18.516  14.706  31.267  1.00  0.00     0.293 HD
ENDBRANCH   5  25
BRANCH   7  27
ATOM     27  O   UNL     1      22.789  13.876  28.064  1.00  0.00    -0.507 OA
ATOM     28  H   UNL     1      23.685  14.204  27.734  1.00  0.00     0.293 HD
ENDBRANCH   7  27
TORSDOF 7
ENDMDL
MODEL 8
REMARK VINA RESULT:    -5.426     14.498     16.323
REMARK INTER + INTRA:          -6.898
REMARK INTER:                  -6.881
REMARK INTRA:                  -0.017
REMARK UNBOUND:                -0.203
REMARK SMILES Oc1cc(O)c2cc(O)c(-c3cc(O)c(O)c(O)c3)[o+]c2c1
REMARK SMILES IDX 10 1 20 2 21 3 22 4 2 5 3 6 4 7 6 8 7 9 8 10 11 11 12 12
REMARK SMILES IDX 13 13 19 14 15 15 17 16 14 17 16 19 18 21 9 23 1 25 5 27
REMARK H PARENT 14 18 16 20 18 22 9 24 1 26 5 28
REMARK Flexibility Score: inf
ROOT
ATOM      1  C   UNL     1      24.747  15.365  31.028  1.00  0.00     0.402 A 
ATOM      2  O   UNL     1      25.453  16.146  30.215  1.00  0.00    -0.202 OA
ATOM      3  C   UNL     1      26.680  16.573  30.498  1.00  0.00     0.368 A 
ATOM      4  C   UNL     1      27.341  17.393  29.580  1.00  0.00     0.162 A 
ATOM      5  C   UNL     1      28.629  17.860  29.852  1.00  0.00     0.128 A 
ATOM      6  C   UNL     1      29.260  17.505  31.050  1.00  0.00     0.093 A 
ATOM      7  C   UNL     1      28.617  16.684  31.984  1.00  0.00     0.136 A 
ATOM      8  C   UNL     1      27.310  16.206  31.711  1.00  0.00     0.125 A 
ATOM      9  C   UNL     1      26.595  15.369  32.583  1.00  0.00     0.078 A 
ATOM     10  C   UNL     1      25.311  14.933  32.242  1.00  0.00     0.223 A 
ENDROOT
BRANCH   1  11
ATOM     11  C   UNL     1      23.385  14.962  30.605  1.00  0.00     0.091 A 
ATOM     12  C   UNL     1      23.157  14.604  29.267  1.00  0.00     0.068 A 
ATOM     13  C   UNL     1      21.878  14.239  28.835  1.00  0.00     0.162 A 
ATOM     14  C   UNL     1      22.303  14.985  31.501  1.00  0.00     0.068 A 
ATOM     15  C   UNL     1      20.802  14.244  29.739  1.00  0.00     0.200 A 
ATOM     16  C   UNL     1      21.018  14.623  31.075  1.00  0.00     0.162 A 
BRANCH  13  17
ATOM     17  O   UNL     1      21.694  13.876  27.501  1.00  0.00    -0.504 OA
ATOM     18  H   UNL     1      22.069  13.016  27.119  1.00  0.00     0.293 HD
ENDBRANCH  13  17
BRANCH  15  19
ATOM     19  O   UNL     1      19.530  13.875  29.301  1.00  0.00    -0.502 OA
ATOM     20  H   UNL     1      18.686  14.263  29.704  1.00  0.00     0.293 HD
ENDBRANCH  15  19
BRANCH  16  21
ATOM     21  O   UNL     1      19.953  14.644  31.976  1.00  0.00    -0.504 OA
ATOM     22  H   UNL     1      19.216  15.335  31.910  1.00  0.00     0.293 HD
ENDBRANCH  16  21
ENDBRANCH   1  11
BRANCH  10  23
ATOM     23  O   UNL     1      24.621  14.062  33.085  1.00  0.00    -0.500 OA
ATOM     24  H   UNL     1      23.985  14.402  33.797  1.00  0.00     0.294 HD
ENDBRANCH  10  23
BRANCH   5  25
ATOM     25  O   UNL     1      29.272  18.677  28.925  1.00  0.00    -0.507 OA
ATOM     26  H   UNL     1      28.781  19.420  28.442  1.00  0.00     0.293 HD
ENDBRANCH   5  25
BRANCH   7  27
ATOM     27  O   UNL     1      29.314  16.378  33.158  1.00  0.00    -0.507 OA
ATOM     28  H   UNL     1      29.053  15.645  33.801  1.00  0.00     0.293 HD
ENDBRANCH   7  27
TORSDOF 7
ENDMDL
MODEL 9
REMARK VINA RESULT:    -5.312     14.452     16.832
REMARK INTER + INTRA:          -6.758
REMARK INTER:                  -6.470
REMARK INTRA:                  -0.288
REMARK UNBOUND:                -0.203
REMARK SMILES Oc1cc(O)c2cc(O)c(-c3cc(O)c(O)c(O)c3)[o+]c2c1
REMARK SMILES IDX 10 1 20 2 21 3 22 4 2 5 3 6 4 7 6 8 7 9 8 10 11 11 12 12
REMARK SMILES IDX 13 13 19 14 15 15 17 16 14 17 16 19 18 21 9 23 1 25 5 27
REMARK H PARENT 14 18 16 20 18 22 9 24 1 26 5 28
REMARK Flexibility Score: inf
ROOT
ATOM      1  C   UNL     1      24.988  15.131  31.285  1.00  0.00     0.402 A 
ATOM      2  O   UNL     1      24.022  14.936  30.391  1.00  0.00    -0.202 OA
ATOM      3  C   UNL     1      22.779  14.600  30.723  1.00  0.00     0.368 A 
ATOM      4  C   UNL     1      21.834  14.414  29.711  1.00  0.00     0.162 A 
ATOM      5  C   UNL     1      20.522  14.058  30.029  1.00  0.00     0.128 A 
ATOM      6  C   UNL     1      20.152  13.887  31.367  1.00  0.00     0.093 A 
ATOM      7  C   UNL     1      21.081  14.068  32.399  1.00  0.00     0.136 A 
ATOM      8  C   UNL     1      22.415  14.432  32.080  1.00  0.00     0.125 A 
ATOM      9  C   UNL     1      23.409  14.647  33.048  1.00  0.00     0.078 A 
ATOM     10  C   UNL     1      24.702  15.009  32.657  1.00  0.00     0.223 A 
ENDROOT
BRANCH   1  11
ATOM     11  C   UNL     1      26.337  15.493  30.790  1.00  0.00     0.091 A 
ATOM     12  C   UNL     1      26.523  16.715  30.128  1.00  0.00     0.068 A 
ATOM     13  C   UNL     1      27.782  17.074  29.633  1.00  0.00     0.162 A 
ATOM     14  C   UNL     1      27.425  14.613  30.920  1.00  0.00     0.068 A 
ATOM     15  C   UNL     1      28.872  16.200  29.783  1.00  0.00     0.200 A 
ATOM     16  C   UNL     1      28.688  14.963  30.425  1.00  0.00     0.162 A 
BRANCH  13  17
ATOM     17  O   UNL     1      27.929  18.305  28.992  1.00  0.00    -0.504 OA
ATOM     18  H   UNL     1      28.155  19.152  29.498  1.00  0.00     0.293 HD
ENDBRANCH  13  17
BRANCH  15  19
ATOM     19  O   UNL     1      30.124  16.566  29.289  1.00  0.00    -0.502 OA
ATOM     20  H   UNL     1      30.529  17.477  29.465  1.00  0.00     0.293 HD
ENDBRANCH  15  19
BRANCH  16  21
ATOM     21  O   UNL     1      29.761  14.084  30.565  1.00  0.00    -0.504 OA
ATOM     22  H   UNL     1      30.506  14.040  29.880  1.00  0.00     0.293 HD
ENDBRANCH  16  21
ENDBRANCH   1  11
BRANCH  10  23
ATOM     23  O   UNL     1      25.677  15.272  33.620  1.00  0.00    -0.500 OA
ATOM     24  H   UNL     1      25.559  14.992  34.587  1.00  0.00     0.294 HD
ENDBRANCH  10  23
BRANCH   5  25
ATOM     25  O   UNL     1      19.594  13.876  29.006  1.00  0.00    -0.507 OA
ATOM     26  H   UNL     1      19.799  13.298  28.200  1.00  0.00     0.293 HD
ENDBRANCH   5  25
BRANCH   7  27
ATOM     27  O   UNL     1      20.634  13.875  33.709  1.00  0.00    -0.507 OA
ATOM     28  H   UNL     1      20.071  13.093  34.010  1.00  0.00     0.293 HD
ENDBRANCH   7  27
TORSDOF 7
ENDMDL
