MODEL 1
REMARK VINA RESULT:    -4.796      0.000      0.000
REMARK INTER + INTRA:          -5.077
REMARK INTER:                  -5.077
REMARK INTRA:                   0.000
REMARK UNBOUND:                 0.000
REMARK SMILES O=c1ccc2cc(O)c(O)cc2o1
REMARK SMILES IDX 4 1 3 2 2 3 1 4 13 5 12 6 11 7 9 8 7 9 6 10 5 11 8 12 10 14
REMARK H PARENT 8 13 10 15
REMARK Flexibility Score: inf
ROOT
ATOM      1  C   UNL     1       8.882 -17.529   6.627  1.00  0.00     0.019 A 
ATOM      2  C   UNL     1       7.876 -18.436   6.956  1.00  0.00     0.094 A 
ATOM      3  C   UNL     1       8.064 -19.294   8.044  1.00  0.00     0.336 A 
ATOM      4  O   UNL     1       7.168 -20.120   8.357  1.00  0.00    -0.246 OA
ATOM      5  O   UNL     1       9.190 -19.245   8.753  1.00  0.00    -0.423 OA
ATOM      6  C   UNL     1      10.175 -18.395   8.472  1.00  0.00     0.142 A 
ATOM      7  C   UNL     1      11.336 -18.387   9.253  1.00  0.00     0.098 A 
ATOM      8  C   UNL     1      12.378 -17.494   8.963  1.00  0.00     0.161 A 
ATOM      9  C   UNL     1      12.257 -16.602   7.882  1.00  0.00     0.158 A 
ATOM     10  C   UNL     1      11.095 -16.607   7.099  1.00  0.00     0.062 A 
ATOM     11  C   UNL     1      10.054 -17.499   7.389  1.00  0.00     0.022 A 
ENDROOT
BRANCH   9  12
ATOM     12  O   UNL     1      13.277 -15.704   7.572  1.00  0.00    -0.504 OA
ATOM     13  H   UNL     1      14.104 -15.610   8.148  1.00  0.00     0.293 HD
ENDBRANCH   9  12
BRANCH   8  14
ATOM     14  O   UNL     1      13.533 -17.491   9.744  1.00  0.00    -0.504 OA
ATOM     15  H   UNL     1      14.423 -17.178   9.374  1.00  0.00     0.293 HD
ENDBRANCH   8  14
TORSDOF 2
ENDMDL
MODEL 2
REMARK VINA RESULT:    -4.550      1.950      2.776
REMARK INTER + INTRA:          -4.816
REMARK INTER:                  -4.816
REMARK INTRA:                   0.000
REMARK UNBOUND:                 0.000
REMARK SMILES O=c1ccc2cc(O)c(O)cc2o1
REMARK SMILES IDX 4 1 3 2 2 3 1 4 13 5 12 6 11 7 9 8 7 9 6 10 5 11 8 12 10 14
REMARK H PARENT 8 13 10 15
REMARK Flexibility Score: inf
ROOT
ATOM      1  C   UNL     1       7.263 -17.554   8.626  1.00  0.00     0.019 A 
ATOM      2  C   UNL     1       6.048 -18.237   8.635  1.00  0.00     0.094 A 
ATOM      3  C   UNL     1       5.970 -19.493   8.022  1.00  0.00     0.336 A 
ATOM      4  O   UNL     1       4.883 -20.125   8.019  1.00  0.00    -0.246 OA
ATOM      5  O   UNL     1       7.042 -20.023   7.437  1.00  0.00    -0.423 OA
ATOM      6  C   UNL     1       8.220 -19.404   7.406  1.00  0.00     0.142 A 
ATOM      7  C   UNL     1       9.312 -20.011   6.778  1.00  0.00     0.098 A 
ATOM      8  C   UNL     1      10.556 -19.365   6.741  1.00  0.00     0.161 A 
ATOM      9  C   UNL     1      10.708 -18.099   7.338  1.00  0.00     0.158 A 
ATOM     10  C   UNL     1       9.615 -17.489   7.968  1.00  0.00     0.062 A 
ATOM     11  C   UNL     1       8.372 -18.136   8.005  1.00  0.00     0.022 A 
ENDROOT
BRANCH   9  12
ATOM     12  O   UNL     1      11.933 -17.435   7.316  1.00  0.00    -0.504 OA
ATOM     13  H   UNL     1      12.794 -17.884   7.603  1.00  0.00     0.293 HD
ENDBRANCH   9  12
BRANCH   8  14
ATOM     14  O   UNL     1      11.642 -19.974   6.114  1.00  0.00    -0.504 OA
ATOM     15  H   UNL     1      11.709 -20.031   5.104  1.00  0.00     0.293 HD
ENDBRANCH   8  14
TORSDOF 2
ENDMDL
MODEL 3
REMARK VINA RESULT:    -4.289      1.025      2.235
REMARK INTER + INTRA:          -4.540
REMARK INTER:                  -4.540
REMARK INTRA:                   0.000
REMARK UNBOUND:                 0.000
REMARK SMILES O=c1ccc2cc(O)c(O)cc2o1
REMARK SMILES IDX 4 1 3 2 2 3 1 4 13 5 12 6 11 7 9 8 7 9 6 10 5 11 8 12 10 14
REMARK H PARENT 8 13 10 15
REMARK Flexibility Score: inf
ROOT
ATOM      1  C   UNL     1       9.935 -19.904   8.873  1.00  0.00     0.019 A 
ATOM      2  C   UNL     1       8.704 -20.125   8.256  1.00  0.00     0.094 A 
ATOM      3  C   UNL     1       8.243 -19.201   7.312  1.00  0.00     0.336 A 
ATOM      4  O   UNL     1       7.134 -19.383   6.744  1.00  0.00    -0.246 OA
ATOM      5  O   UNL     1       8.969 -18.128   7.009  1.00  0.00    -0.423 OA
ATOM      6  C   UNL     1      10.149 -17.880   7.575  1.00  0.00     0.142 A 
ATOM      7  C   UNL     1      10.869 -16.736   7.217  1.00  0.00     0.098 A 
ATOM      8  C   UNL     1      12.112 -16.468   7.808  1.00  0.00     0.161 A 
ATOM      9  C   UNL     1      12.638 -17.354   8.767  1.00  0.00     0.158 A 
ATOM     10  C   UNL     1      11.919 -18.501   9.127  1.00  0.00     0.062 A 
ATOM     11  C   UNL     1      10.677 -18.768   8.535  1.00  0.00     0.022 A 
ENDROOT
BRANCH   9  12
ATOM     12  O   UNL     1      13.871 -17.112   9.370  1.00  0.00    -0.504 OA
ATOM     13  H   UNL     1      14.205 -16.174   9.555  1.00  0.00     0.293 HD
ENDBRANCH   9  12
BRANCH   8  14
ATOM     14  O   UNL     1      12.826 -15.326   7.448  1.00  0.00    -0.504 OA
ATOM     15  H   UNL     1      13.719 -15.103   7.872  1.00  0.00     0.293 HD
ENDBRANCH   8  14
TORSDOF 2
ENDMDL
MODEL 4
REMARK VINA RESULT:    -4.207      1.278      5.069
REMARK INTER + INTRA:          -4.453
REMARK INTER:                  -4.453
REMARK INTRA:                   0.000
REMARK UNBOUND:                 0.000
REMARK SMILES O=c1ccc2cc(O)c(O)cc2o1
REMARK SMILES IDX 4 1 3 2 2 3 1 4 13 5 12 6 11 7 9 8 7 9 6 10 5 11 8 12 10 14
REMARK H PARENT 8 13 10 15
REMARK Flexibility Score: inf
ROOT
ATOM      1  C   UNL     1      12.590 -17.812   9.350  1.00  0.00     0.019 A 
ATOM      2  C   UNL     1      13.513 -16.829   8.996  1.00  0.00     0.094 A 
ATOM      3  C   UNL     1      13.226 -15.986   7.916  1.00  0.00     0.336 A 
ATOM      4  O   UNL     1      14.046 -15.092   7.581  1.00  0.00    -0.246 OA
ATOM      5  O   UNL     1      12.088 -16.124   7.238  1.00  0.00    -0.423 OA
ATOM      6  C   UNL     1      11.182 -17.049   7.544  1.00  0.00     0.142 A 
ATOM      7  C   UNL     1      10.004 -17.147   6.796  1.00  0.00     0.098 A 
ATOM      8  C   UNL     1       9.044 -18.119   7.112  1.00  0.00     0.161 A 
ATOM      9  C   UNL     1       9.266 -19.002   8.185  1.00  0.00     0.158 A 
ATOM     10  C   UNL     1      10.445 -18.906   8.935  1.00  0.00     0.062 A 
ATOM     11  C   UNL     1      11.404 -17.934   8.620  1.00  0.00     0.022 A 
ENDROOT
BRANCH   9  12
ATOM     12  O   UNL     1       8.329 -19.978   8.520  1.00  0.00    -0.504 OA
ATOM     13  H   UNL     1       7.578 -20.241   7.893  1.00  0.00     0.293 HD
ENDBRANCH   9  12
BRANCH   8  14
ATOM     14  O   UNL     1       7.871 -18.213   6.363  1.00  0.00    -0.504 OA
ATOM     15  H   UNL     1       7.695 -17.603   5.573  1.00  0.00     0.293 HD
ENDBRANCH   8  14
TORSDOF 2
ENDMDL
MODEL 5
REMARK VINA RESULT:    -3.991      1.781      5.009
REMARK INTER + INTRA:          -4.225
REMARK INTER:                  -4.225
REMARK INTRA:                   0.000
REMARK UNBOUND:                 0.000
REMARK SMILES O=c1ccc2cc(O)c(O)cc2o1
REMARK SMILES IDX 4 1 3 2 2 3 1 4 13 5 12 6 11 7 9 8 7 9 6 10 5 11 8 12 10 14
REMARK H PARENT 8 13 10 15
REMARK Flexibility Score: inf
ROOT
ATOM      1  C   UNL     1      10.462 -19.516   6.986  1.00  0.00     0.019 A 
ATOM      2  C   UNL     1      11.600 -18.725   7.137  1.00  0.00     0.094 A 
ATOM      3  C   UNL     1      11.489 -17.495   7.796  1.00  0.00     0.336 A 
ATOM      4  O   UNL     1      12.505 -16.767   7.942  1.00  0.00    -0.246 OA
ATOM      5  O   UNL     1      10.314 -17.090   8.271  1.00  0.00    -0.423 OA
ATOM      6  C   UNL     1       9.204 -17.814   8.148  1.00  0.00     0.142 A 
ATOM      7  C   UNL     1       7.997 -17.337   8.668  1.00  0.00     0.098 A 
ATOM      8  C   UNL     1       6.824 -18.095   8.543  1.00  0.00     0.161 A 
ATOM      9  C   UNL     1       6.860 -19.342   7.891  1.00  0.00     0.158 A 
ATOM     10  C   UNL     1       8.068 -19.822   7.369  1.00  0.00     0.062 A 
ATOM     11  C   UNL     1       9.240 -19.065   7.495  1.00  0.00     0.022 A 
ENDROOT
BRANCH   9  12
ATOM     12  O   UNL     1       5.709 -20.115   7.752  1.00  0.00    -0.504 OA
ATOM     13  H   UNL     1       5.179 -20.143   6.889  1.00  0.00     0.293 HD
ENDBRANCH   9  12
BRANCH   8  14
ATOM     14  O   UNL     1       5.622 -17.615   9.062  1.00  0.00    -0.504 OA
ATOM     15  H   UNL     1       5.027 -18.192   9.645  1.00  0.00     0.293 HD
ENDBRANCH   8  14
TORSDOF 2
ENDMDL
MODEL 6
REMARK VINA RESULT:    -3.968      1.913      2.594
REMARK INTER + INTRA:          -4.200
REMARK INTER:                  -4.200
REMARK INTRA:                   0.000
REMARK UNBOUND:                 0.000
REMARK SMILES O=c1ccc2cc(O)c(O)cc2o1
REMARK SMILES IDX 4 1 3 2 2 3 1 4 13 5 12 6 11 7 9 8 7 9 6 10 5 11 8 12 10 14
REMARK H PARENT 8 13 10 15
REMARK Flexibility Score: inf
ROOT
ATOM      1  C   UNL     1       7.536 -20.125   7.100  1.00  0.00     0.019 A 
ATOM      2  C   UNL     1       6.290 -19.899   7.684  1.00  0.00     0.094 A 
ATOM      3  C   UNL     1       6.103 -18.751   8.462  1.00  0.00     0.336 A 
ATOM      4  O   UNL     1       4.987 -18.530   8.998  1.00  0.00    -0.246 OA
ATOM      5  O   UNL     1       7.102 -17.889   8.640  1.00  0.00    -0.423 OA
ATOM      6  C   UNL     1       8.306 -18.068   8.100  1.00  0.00     0.142 A 
ATOM      7  C   UNL     1       9.317 -17.127   8.321  1.00  0.00     0.098 A 
ATOM      8  C   UNL     1      10.588 -17.308   7.756  1.00  0.00     0.161 A 
ATOM      9  C   UNL     1      10.847 -18.441   6.962  1.00  0.00     0.158 A 
ATOM     10  C   UNL     1       9.836 -19.384   6.739  1.00  0.00     0.062 A 
ATOM     11  C   UNL     1       8.566 -19.203   7.304  1.00  0.00     0.022 A 
ENDROOT
BRANCH   9  12
ATOM     12  O   UNL     1      12.101 -18.645   6.388  1.00  0.00    -0.504 OA
ATOM     13  H   UNL     1      12.675 -17.878   6.062  1.00  0.00     0.293 HD
ENDBRANCH   9  12
BRANCH   8  14
ATOM     14  O   UNL     1      11.593 -16.368   7.979  1.00  0.00    -0.504 OA
ATOM     15  H   UNL     1      12.201 -16.054   7.233  1.00  0.00     0.293 HD
ENDBRANCH   8  14
TORSDOF 2
ENDMDL
MODEL 7
REMARK VINA RESULT:    -3.821      1.231      4.515
REMARK INTER + INTRA:          -4.045
REMARK INTER:                  -4.045
REMARK INTRA:                   0.000
REMARK UNBOUND:                 0.000
REMARK SMILES O=c1ccc2cc(O)c(O)cc2o1
REMARK SMILES IDX 4 1 3 2 2 3 1 4 13 5 12 6 11 7 9 8 7 9 6 10 5 11 8 12 10 14
REMARK H PARENT 8 13 10 15
REMARK Flexibility Score: inf
ROOT
ATOM      1  C   UNL     1      12.077 -16.154   7.405  1.00  0.00     0.019 A 
ATOM      2  C   UNL     1      13.196 -16.161   8.236  1.00  0.00     0.094 A 
ATOM      3  C   UNL     1      13.308 -17.153   9.217  1.00  0.00     0.336 A 
ATOM      4  O   UNL     1      14.310 -17.176   9.977  1.00  0.00    -0.246 OA
ATOM      5  O   UNL     1      12.357 -18.075   9.353  1.00  0.00    -0.423 OA
ATOM      6  C   UNL     1      11.273 -18.103   8.581  1.00  0.00     0.142 A 
ATOM      7  C   UNL     1      10.306 -19.096   8.769  1.00  0.00     0.098 A 
ATOM      8  C   UNL     1       9.162 -19.133   7.959  1.00  0.00     0.161 A 
ATOM      9  C   UNL     1       8.984 -18.166   6.952  1.00  0.00     0.158 A 
ATOM     10  C   UNL     1       9.950 -17.170   6.761  1.00  0.00     0.062 A 
ATOM     11  C   UNL     1      11.094 -17.135   7.570  1.00  0.00     0.022 A 
ENDROOT
BRANCH   9  12
ATOM     12  O   UNL     1       7.856 -18.179   6.134  1.00  0.00    -0.504 OA
ATOM     13  H   UNL     1       6.985 -17.741   6.409  1.00  0.00     0.293 HD
ENDBRANCH   9  12
BRANCH   8  14
ATOM     14  O   UNL     1       8.201 -20.125   8.151  1.00  0.00    -0.504 OA
ATOM     15  H   UNL     1       7.823 -20.656   7.375  1.00  0.00     0.293 HD
ENDBRANCH   8  14
TORSDOF 2
ENDMDL
MODEL 8
REMARK VINA RESULT:    -3.263      2.403      4.985
REMARK INTER + INTRA:          -3.453
REMARK INTER:                  -3.453
REMARK INTRA:                   0.000
REMARK UNBOUND:                 0.000
REMARK SMILES O=c1ccc2cc(O)c(O)cc2o1
REMARK SMILES IDX 4 1 3 2 2 3 1 4 13 5 12 6 11 7 9 8 7 9 6 10 5 11 8 12 10 14
REMARK H PARENT 8 13 10 15
REMARK Flexibility Score: inf
ROOT
ATOM      1  C   UNL     1      10.150 -17.561   7.861  1.00  0.00     0.019 A 
ATOM      2  C   UNL     1      11.233 -18.230   7.292  1.00  0.00     0.094 A 
ATOM      3  C   UNL     1      11.034 -19.505   6.750  1.00  0.00     0.336 A 
ATOM      4  O   UNL     1      11.999 -20.125   6.233  1.00  0.00    -0.246 OA
ATOM      5  O   UNL     1       9.829 -20.069   6.779  1.00  0.00    -0.423 OA
ATOM      6  C   UNL     1       8.770 -19.464   7.313  1.00  0.00     0.142 A 
ATOM      7  C   UNL     1       7.526 -20.105   7.315  1.00  0.00     0.098 A 
ATOM      8  C   UNL     1       6.406 -19.475   7.875  1.00  0.00     0.161 A 
ATOM      9  C   UNL     1       6.532 -18.192   8.439  1.00  0.00     0.158 A 
ATOM     10  C   UNL     1       7.775 -17.548   8.438  1.00  0.00     0.062 A 
ATOM     11  C   UNL     1       8.895 -18.178   7.878  1.00  0.00     0.022 A 
ENDROOT
BRANCH   9  12
ATOM     12  O   UNL     1       5.434 -17.543   9.002  1.00  0.00    -0.504 OA
ATOM     13  H   UNL     1       4.531 -17.992   9.090  1.00  0.00     0.293 HD
ENDBRANCH   9  12
BRANCH   8  14
ATOM     14  O   UNL     1       5.169 -20.118   7.874  1.00  0.00    -0.504 OA
ATOM     15  H   UNL     1       4.571 -20.120   7.056  1.00  0.00     0.293 HD
ENDBRANCH   8  14
TORSDOF 2
ENDMDL
MODEL 9
REMARK VINA RESULT:    -2.828      3.203      5.496
REMARK INTER + INTRA:          -2.993
REMARK INTER:                  -2.993
REMARK INTRA:                   0.000
REMARK UNBOUND:                 0.000
REMARK SMILES O=c1ccc2cc(O)c(O)cc2o1
REMARK SMILES IDX 4 1 3 2 2 3 1 4 13 5 12 6 11 7 9 8 7 9 6 10 5 11 8 12 10 14
REMARK H PARENT 8 13 10 15
REMARK Flexibility Score: inf
ROOT
ATOM      1  C   UNL     1       7.873 -20.124   5.930  1.00  0.00     0.019 A 
ATOM      2  C   UNL     1       9.255 -20.115   5.746  1.00  0.00     0.094 A 
ATOM      3  C   UNL     1      10.089 -20.100   6.870  1.00  0.00     0.336 A 
ATOM      4  O   UNL     1      11.338 -20.092   6.726  1.00  0.00    -0.246 OA
ATOM      5  O   UNL     1       9.567 -20.093   8.095  1.00  0.00    -0.423 OA
ATOM      6  C   UNL     1       8.254 -20.101   8.313  1.00  0.00     0.142 A 
ATOM      7  C   UNL     1       7.763 -20.094   9.623  1.00  0.00     0.098 A 
ATOM      8  C   UNL     1       6.381 -20.102   9.861  1.00  0.00     0.161 A 
ATOM      9  C   UNL     1       5.483 -20.117   8.777  1.00  0.00     0.158 A 
ATOM     10  C   UNL     1       5.972 -20.124   7.465  1.00  0.00     0.062 A 
ATOM     11  C   UNL     1       7.353 -20.117   7.227  1.00  0.00     0.022 A 
ENDROOT
BRANCH   9  12
ATOM     12  O   UNL     1       4.105 -20.125   8.986  1.00  0.00    -0.504 OA
ATOM     13  H   UNL     1       3.451 -19.832   8.270  1.00  0.00     0.293 HD
ENDBRANCH   9  12
BRANCH   8  14
ATOM     14  O   UNL     1       5.897 -20.095  11.168  1.00  0.00    -0.504 OA
ATOM     15  H   UNL     1       4.905 -20.159  11.367  1.00  0.00     0.293 HD
ENDBRANCH   8  14
TORSDOF 2
ENDMDL
