MODEL 1
REMARK VINA RESULT:   120.953      0.000      0.000
REMARK INTER + INTRA:         131.430
REMARK INTER:                 131.560
REMARK INTRA:                  -0.130
REMARK UNBOUND:                -0.130
REMARK SMILES C[C@H]1[C@H](C)CC[C@]2(C(=O)[O-])CC[C@]3(C)C(=CC[C@@H]4[C@]5(C)CC[C@H](O)C(C)(C)[C@@H]5CC[C@@]43C)[C@H]12
REMARK SMILES IDX 7 1 6 2 11 3 33 4 5 5 12 6 15 7 2 8 3 9 13 10 16 11 1 12
REMARK SMILES IDX 4 13 14 14 31 15 17 16 18 17 30 18 32 19 19 20 29 21 28 22
REMARK SMILES IDX 21 23 20 24 25 25 22 26 23 27 26 28 27 29 8 30 9 31 10 32
REMARK SMILES IDX 24 33
REMARK H PARENT 24 34
REMARK Flexibility Score: inf
ROOT
ATOM      1  C   UNL     1      10.951  70.316   5.240  1.00  0.00     0.017 C 
ATOM      2  C   UNL     1      10.271  69.210   6.126  1.00  0.00     0.014 C 
ATOM      3  C   UNL     1      11.606  71.368   6.159  1.00  0.00     0.014 C 
ATOM      4  C   UNL     1      10.009  71.073   4.208  1.00  0.00     0.030 C 
ATOM      5  C   UNL     1       8.773  69.069   5.932  1.00  0.00     0.004 C 
ATOM      6  C   UNL     1      10.565  72.220   6.909  1.00  0.00     0.013 C 
ATOM      7  C   UNL     1       9.630  72.536   4.570  1.00  0.00    -0.063 C 
ATOM      8  C   UNL     1       8.739  70.273   3.699  1.00  0.00    -0.003 C 
ATOM      9  C   UNL     1       8.443  68.943   4.448  1.00  0.00    -0.011 C 
ATOM     10  C   UNL     1       9.636  73.104   5.992  1.00  0.00    -0.006 C 
ATOM     11  C   UNL     1       9.215  73.322   3.568  1.00  0.00    -0.027 C 
ATOM     12  C   UNL     1       8.825  70.005   2.180  1.00  0.00     0.008 C 
ATOM     13  C   UNL     1       6.970  68.517   4.295  1.00  0.00     0.008 C 
ATOM     14  C   UNL     1       8.172  72.962   6.515  1.00  0.00     0.017 C 
ATOM     15  C   UNL     1      10.054  74.675   6.012  1.00  0.00    -0.020 C 
ATOM     16  C   UNL     1       8.654  74.690   3.756  1.00  0.00     0.032 C 
ATOM     17  C   UNL     1       9.201  75.535   4.957  1.00  0.00     0.006 C 
ATOM     18  C   UNL     1      11.588  74.894   5.727  1.00  0.00     0.008 C 
ATOM     19  C   UNL     1       9.755  75.229   7.456  1.00  0.00     0.012 C 
ATOM     20  C   UNL     1       9.899  76.882   4.457  1.00  0.00    -0.025 C 
ATOM     21  C   UNL     1      11.910  75.197   4.259  1.00  0.00     0.005 C 
ATOM     22  C   UNL     1      11.298  76.546   3.757  1.00  0.00     0.003 C 
ATOM     23  C   UNL     1       8.910  77.720   3.561  1.00  0.00     0.010 C 
ATOM     24  C   UNL     1      10.158  77.841   5.671  1.00  0.00     0.012 C 
ATOM     25  C   UNL     1      11.466  76.774   2.170  1.00  0.00    -0.006 C 
ATOM     26  C   UNL     1       9.638  78.549   2.512  1.00  0.00     0.033 C 
ATOM     27  C   UNL     1      10.314  77.620   1.509  1.00  0.00     0.120 C 
ATOM     28  C   UNL     1      12.797  77.550   1.938  1.00  0.00     0.014 C 
ATOM     29  C   UNL     1      11.624  75.447   1.371  1.00  0.00     0.014 C 
ENDROOT
BRANCH   1  30
ATOM     30  C   UNL     1      12.069  69.612   4.466  1.00  0.00     0.048 C 
ATOM     31  O   UNL     1      11.848  69.142   3.318  1.00  0.00    -0.550 OA
ATOM     32  O   UNL     1      13.314  69.389   5.048  1.00  0.00    -0.550 OA
ENDBRANCH   1  30
BRANCH  27  33
ATOM     33  O   UNL     1       9.347  76.793   0.904  1.00  0.00    -0.393 OA
ATOM     34  H   UNL     1       9.441  75.888   1.301  1.00  0.00     0.210 HD
ENDBRANCH  27  33
TORSDOF 2
ENDMDL
MODEL 2
REMARK VINA RESULT:   121.974      1.599      2.432
REMARK INTER + INTRA:         132.540
REMARK INTER:                 132.786
REMARK INTRA:                  -0.246
REMARK UNBOUND:                -0.130
REMARK SMILES C[C@H]1[C@H](C)CC[C@]2(C(=O)[O-])CC[C@]3(C)C(=CC[C@@H]4[C@]5(C)CC[C@H](O)C(C)(C)[C@@H]5CC[C@@]43C)[C@H]12
REMARK SMILES IDX 7 1 6 2 11 3 33 4 5 5 12 6 15 7 2 8 3 9 13 10 16 11 1 12
REMARK SMILES IDX 4 13 14 14 31 15 17 16 18 17 30 18 32 19 19 20 29 21 28 22
REMARK SMILES IDX 21 23 20 24 25 25 22 26 23 27 26 28 27 29 8 30 9 31 10 32
REMARK SMILES IDX 24 33
REMARK H PARENT 24 34
REMARK Flexibility Score: inf
ROOT
ATOM      1  C   UNL     1      10.289  69.354   3.485  1.00  0.00     0.017 C 
ATOM      2  C   UNL     1      10.019  67.977   4.193  1.00  0.00     0.014 C 
ATOM      3  C   UNL     1      11.707  69.840   3.849  1.00  0.00     0.014 C 
ATOM      4  C   UNL     1       9.264  70.525   3.800  1.00  0.00     0.030 C 
ATOM      5  C   UNL     1       8.849  67.975   5.158  1.00  0.00     0.004 C 
ATOM      6  C   UNL     1      11.819  70.266   5.325  1.00  0.00     0.013 C 
ATOM      7  C   UNL     1       9.781  71.657   4.731  1.00  0.00    -0.063 C 
ATOM      8  C   UNL     1       7.799  70.083   4.213  1.00  0.00    -0.003 C 
ATOM      9  C   UNL     1       7.612  68.564   4.488  1.00  0.00    -0.011 C 
ATOM     10  C   UNL     1      10.923  71.496   5.738  1.00  0.00    -0.006 C 
ATOM     11  C   UNL     1       9.134  72.829   4.680  1.00  0.00    -0.027 C 
ATOM     12  C   UNL     1       6.762  70.554   3.169  1.00  0.00     0.008 C 
ATOM     13  C   UNL     1       6.381  68.291   5.374  1.00  0.00     0.008 C 
ATOM     14  C   UNL     1      10.244  71.157   7.103  1.00  0.00     0.017 C 
ATOM     15  C   UNL     1      11.782  72.866   5.900  1.00  0.00    -0.020 C 
ATOM     16  C   UNL     1       9.381  73.963   5.615  1.00  0.00     0.032 C 
ATOM     17  C   UNL     1      10.837  74.137   6.167  1.00  0.00     0.006 C 
ATOM     18  C   UNL     1      12.691  73.160   4.647  1.00  0.00     0.008 C 
ATOM     19  C   UNL     1      12.732  72.688   7.145  1.00  0.00     0.012 C 
ATOM     20  C   UNL     1      11.460  75.546   5.744  1.00  0.00    -0.025 C 
ATOM     21  C   UNL     1      12.051  74.106   3.624  1.00  0.00     0.005 C 
ATOM     22  C   UNL     1      11.806  75.546   4.183  1.00  0.00     0.003 C 
ATOM     23  C   UNL     1      10.522  76.727   6.201  1.00  0.00     0.010 C 
ATOM     24  C   UNL     1      12.776  75.822   6.554  1.00  0.00     0.012 C 
ATOM     25  C   UNL     1      10.960  76.485   3.182  1.00  0.00    -0.006 C 
ATOM     26  C   UNL     1      10.617  77.934   5.278  1.00  0.00     0.033 C 
ATOM     27  C   UNL     1      10.070  77.566   3.902  1.00  0.00     0.120 C 
ATOM     28  C   UNL     1      11.970  77.250   2.276  1.00  0.00     0.014 C 
ATOM     29  C   UNL     1      10.059  75.681   2.198  1.00  0.00     0.014 C 
ENDROOT
BRANCH   1  30
ATOM     30  C   UNL     1      10.267  69.068   1.980  1.00  0.00     0.048 C 
ATOM     31  O   UNL     1      10.777  68.008   1.527  1.00  0.00    -0.550 OA
ATOM     32  O   UNL     1       9.778  70.010   1.078  1.00  0.00    -0.550 OA
ENDBRANCH   1  30
BRANCH  27  33
ATOM     33  O   UNL     1       8.733  77.139   4.024  1.00  0.00    -0.393 OA
ATOM     34  H   UNL     1       8.628  76.748   4.931  1.00  0.00     0.210 HD
ENDBRANCH  27  33
TORSDOF 2
ENDMDL
