MODEL 1
REMARK VINA RESULT:    -5.899      0.000      0.000
REMARK INTER + INTRA:         -18.128
REMARK INTER:                 -14.866
REMARK INTRA:                  -3.262
REMARK UNBOUND:                -3.262
REMARK SMILES CCCCCCCCCCCCCCCCCCCCCCCCCCCC(=O)[O-]
REMARK SMILES IDX 15 1 16 2 17 3 18 4 19 5 20 6 21 7 22 8 23 9 24 10 25 11
REMARK SMILES IDX 26 12 27 13 28 14 29 15 30 16 14 17 13 18 12 19 11 20 10 21
REMARK SMILES IDX 9 22 8 23 7 24 6 25 5 26 4 27 3 28 2 29 1 30
REMARK H PARENT
REMARK Flexibility Score: inf
ROOT
ATOM      1  C   UNL     1      12.836 -13.700  28.875  1.00  0.00     0.000 C 
ENDROOT
BRANCH   1   2
ATOM      2  C   UNL     1      14.311 -13.313  29.096  1.00  0.00     0.000 C 
BRANCH   2   3
ATOM      3  C   UNL     1      15.100 -12.977  27.817  1.00  0.00     0.000 C 
BRANCH   3   4
ATOM      4  C   UNL     1      15.824 -14.196  27.221  1.00  0.00     0.000 C 
BRANCH   4   5
ATOM      5  C   UNL     1      15.228 -14.633  25.872  1.00  0.00     0.000 C 
BRANCH   5   6
ATOM      6  C   UNL     1      16.130 -15.625  25.121  1.00  0.00     0.000 C 
BRANCH   6   7
ATOM      7  C   UNL     1      17.233 -14.884  24.350  1.00  0.00     0.000 C 
BRANCH   7   8
ATOM      8  C   UNL     1      18.513 -15.721  24.192  1.00  0.00     0.000 C 
BRANCH   8   9
ATOM      9  C   UNL     1      19.791 -14.873  24.284  1.00  0.00     0.000 C 
BRANCH   9  10
ATOM     10  C   UNL     1      19.748 -13.709  23.287  1.00  0.00     0.000 C 
BRANCH  10  11
ATOM     11  C   UNL     1      20.271 -12.415  23.928  1.00  0.00     0.000 C 
BRANCH  11  12
ATOM     12  C   UNL     1      21.401 -12.666  24.943  1.00  0.00     0.006 C 
BRANCH  12  13
ATOM     13  C   UNL     1      21.236 -11.917  26.275  1.00  0.00     0.053 C 
BRANCH  13  14
ATOM     14  C   UNL     1      22.556 -11.574  26.896  1.00  0.00     0.041 C 
ATOM     15  O   UNL     1      22.694 -11.610  28.147  1.00  0.00    -0.550 OA
ATOM     16  O   UNL     1      23.633 -11.221  26.094  1.00  0.00    -0.550 OA
ENDBRANCH  13  14
ENDBRANCH  12  13
ENDBRANCH  11  12
ENDBRANCH  10  11
ENDBRANCH   9  10
ENDBRANCH   8   9
ENDBRANCH   7   8
ENDBRANCH   6   7
ENDBRANCH   5   6
ENDBRANCH   4   5
ENDBRANCH   3   4
ENDBRANCH   2   3
ENDBRANCH   1   2
BRANCH   1  17
ATOM     17  C   UNL     1      12.014 -13.686  30.175  1.00  0.00     0.000 C 
BRANCH  17  18
ATOM     18  C   UNL     1      10.534 -13.336  29.941  1.00  0.00     0.000 C 
BRANCH  18  19
ATOM     19  C   UNL     1      10.187 -12.873  28.513  1.00  0.00     0.000 C 
BRANCH  19  20
ATOM     20  C   UNL     1       8.724 -12.412  28.343  1.00  0.00     0.000 C 
BRANCH  20  21
ATOM     21  C   UNL     1       7.966 -13.249  27.296  1.00  0.00     0.000 C 
BRANCH  21  22
ATOM     22  C   UNL     1       8.568 -13.122  25.887  1.00  0.00    -0.000 C 
BRANCH  22  23
ATOM     23  C   UNL     1       8.711 -11.659  25.436  1.00  0.00    -0.000 C 
BRANCH  23  24
ATOM     24  C   UNL     1      10.025 -11.392  24.680  1.00  0.00    -0.000 C 
BRANCH  24  25
ATOM     25  C   UNL     1      10.911 -12.646  24.516  1.00  0.00    -0.000 C 
BRANCH  25  26
ATOM     26  C   UNL     1      12.153 -12.599  25.426  1.00  0.00    -0.000 C 
BRANCH  26  27
ATOM     27  C   UNL     1      13.318 -11.818  24.799  1.00  0.00    -0.000 C 
BRANCH  27  28
ATOM     28  C   UNL     1      13.636 -12.277  23.366  1.00  0.00    -0.000 C 
BRANCH  28  29
ATOM     29  C   UNL     1      14.956 -11.693  22.840  1.00  0.00    -0.003 C 
ATOM     30  C   UNL     1      16.020 -11.554  23.930  1.00  0.00     0.004 C 
ENDBRANCH  28  29
ENDBRANCH  27  28
ENDBRANCH  26  27
ENDBRANCH  25  26
ENDBRANCH  24  25
ENDBRANCH  23  24
ENDBRANCH  22  23
ENDBRANCH  21  22
ENDBRANCH  20  21
ENDBRANCH  19  20
ENDBRANCH  18  19
ENDBRANCH  17  18
ENDBRANCH   1  17
TORSDOF 26
ENDMDL
MODEL 2
REMARK VINA RESULT:    -5.835      2.126      5.750
REMARK INTER + INTRA:         -17.965
REMARK INTER:                 -14.743
REMARK INTRA:                  -3.222
REMARK UNBOUND:                -3.262
REMARK SMILES CCCCCCCCCCCCCCCCCCCCCCCCCCCC(=O)[O-]
REMARK SMILES IDX 15 1 16 2 17 3 18 4 19 5 20 6 21 7 22 8 23 9 24 10 25 11
REMARK SMILES IDX 26 12 27 13 28 14 29 15 30 16 14 17 13 18 12 19 11 20 10 21
REMARK SMILES IDX 9 22 8 23 7 24 6 25 5 26 4 27 3 28 2 29 1 30
REMARK H PARENT
REMARK Flexibility Score: inf
ROOT
ATOM      1  C   UNL     1      18.109 -13.222  24.483  1.00  0.00     0.000 C 
ENDROOT
BRANCH   1   2
ATOM      2  C   UNL     1      18.684 -12.564  25.751  1.00  0.00     0.000 C 
BRANCH   2   3
ATOM      3  C   UNL     1      17.678 -11.741  26.578  1.00  0.00     0.000 C 
BRANCH   3   4
ATOM      4  C   UNL     1      18.357 -10.828  27.613  1.00  0.00     0.000 C 
BRANCH   4   5
ATOM      5  C   UNL     1      19.830 -10.550  27.275  1.00  0.00     0.000 C 
BRANCH   5   6
ATOM      6  C   UNL     1      20.781 -10.931  28.421  1.00  0.00     0.000 C 
BRANCH   6   7
ATOM      7  C   UNL     1      22.238 -10.962  27.935  1.00  0.00     0.000 C 
BRANCH   7   8
ATOM      8  C   UNL     1      22.770 -12.392  27.742  1.00  0.00     0.000 C 
BRANCH   8   9
ATOM      9  C   UNL     1      22.568 -12.912  26.310  1.00  0.00     0.000 C 
BRANCH   9  10
ATOM     10  C   UNL     1      23.246 -11.986  25.292  1.00  0.00     0.000 C 
BRANCH  10  11
ATOM     11  C   UNL     1      23.045 -12.503  23.859  1.00  0.00     0.000 C 
BRANCH  11  12
ATOM     12  C   UNL     1      21.587 -12.901  23.567  1.00  0.00     0.006 C 
BRANCH  12  13
ATOM     13  C   UNL     1      21.120 -12.594  22.135  1.00  0.00     0.053 C 
BRANCH  13  14
ATOM     14  C   UNL     1      20.524 -11.225  22.018  1.00  0.00     0.041 C 
ATOM     15  O   UNL     1      20.060 -10.649  23.038  1.00  0.00    -0.550 OA
ATOM     16  O   UNL     1      20.485 -10.582  20.788  1.00  0.00    -0.550 OA
ENDBRANCH  13  14
ENDBRANCH  12  13
ENDBRANCH  11  12
ENDBRANCH  10  11
ENDBRANCH   9  10
ENDBRANCH   8   9
ENDBRANCH   7   8
ENDBRANCH   6   7
ENDBRANCH   5   6
ENDBRANCH   4   5
ENDBRANCH   3   4
ENDBRANCH   2   3
ENDBRANCH   1   2
BRANCH   1  17
ATOM     17  C   UNL     1      18.137 -14.759  24.542  1.00  0.00     0.000 C 
BRANCH  17  18
ATOM     18  C   UNL     1      17.293 -15.327  25.696  1.00  0.00     0.000 C 
BRANCH  18  19
ATOM     19  C   UNL     1      15.768 -15.170  25.533  1.00  0.00     0.000 C 
BRANCH  19  20
ATOM     20  C   UNL     1      15.073 -14.524  26.749  1.00  0.00     0.000 C 
BRANCH  20  21
ATOM     21  C   UNL     1      13.830 -13.709  26.346  1.00  0.00     0.000 C 
BRANCH  21  22
ATOM     22  C   UNL     1      14.172 -12.521  25.431  1.00  0.00    -0.000 C 
BRANCH  22  23
ATOM     23  C   UNL     1      12.918 -11.824  24.876  1.00  0.00    -0.000 C 
BRANCH  23  24
ATOM     24  C   UNL     1      11.616 -12.341  25.511  1.00  0.00    -0.000 C 
BRANCH  24  25
ATOM     25  C   UNL     1      10.346 -11.961  24.719  1.00  0.00    -0.000 C 
BRANCH  25  26
ATOM     26  C   UNL     1       9.145 -11.692  25.645  1.00  0.00    -0.000 C 
BRANCH  26  27
ATOM     27  C   UNL     1       8.284 -12.943  25.879  1.00  0.00    -0.000 C 
BRANCH  27  28
ATOM     28  C   UNL     1       8.217 -13.347  27.361  1.00  0.00    -0.000 C 
BRANCH  28  29
ATOM     29  C   UNL     1       8.977 -12.369  28.272  1.00  0.00    -0.003 C 
ATOM     30  C   UNL     1      10.126 -13.035  29.031  1.00  0.00     0.004 C 
ENDBRANCH  28  29
ENDBRANCH  27  28
ENDBRANCH  26  27
ENDBRANCH  25  26
ENDBRANCH  24  25
ENDBRANCH  23  24
ENDBRANCH  22  23
ENDBRANCH  21  22
ENDBRANCH  20  21
ENDBRANCH  19  20
ENDBRANCH  18  19
ENDBRANCH  17  18
ENDBRANCH   1  17
TORSDOF 26
ENDMDL
MODEL 3
REMARK VINA RESULT:    -5.808      1.991      6.535
REMARK INTER + INTRA:         -17.897
REMARK INTER:                 -14.231
REMARK INTRA:                  -3.666
REMARK UNBOUND:                -3.262
REMARK SMILES CCCCCCCCCCCCCCCCCCCCCCCCCCCC(=O)[O-]
REMARK SMILES IDX 15 1 16 2 17 3 18 4 19 5 20 6 21 7 22 8 23 9 24 10 25 11
REMARK SMILES IDX 26 12 27 13 28 14 29 15 30 16 14 17 13 18 12 19 11 20 10 21
REMARK SMILES IDX 9 22 8 23 7 24 6 25 5 26 4 27 3 28 2 29 1 30
REMARK H PARENT
REMARK Flexibility Score: inf
ROOT
ATOM      1  C   UNL     1       9.733 -11.769  25.551  1.00  0.00     0.000 C 
ENDROOT
BRANCH   1   2
ATOM      2  C   UNL     1       8.463 -12.473  26.062  1.00  0.00     0.000 C 
BRANCH   2   3
ATOM      3  C   UNL     1       8.629 -13.251  27.381  1.00  0.00     0.000 C 
BRANCH   3   4
ATOM      4  C   UNL     1       8.917 -12.337  28.584  1.00  0.00     0.000 C 
BRANCH   4   5
ATOM      5  C   UNL     1      10.028 -12.891  29.491  1.00  0.00     0.000 C 
BRANCH   5   6
ATOM      6  C   UNL     1      11.106 -13.654  28.704  1.00  0.00     0.000 C 
BRANCH   6   7
ATOM      7  C   UNL     1      12.460 -13.588  29.428  1.00  0.00     0.000 C 
BRANCH   7   8
ATOM      8  C   UNL     1      13.653 -13.748  28.472  1.00  0.00     0.000 C 
BRANCH   8   9
ATOM      9  C   UNL     1      14.859 -12.887  28.880  1.00  0.00     0.000 C 
BRANCH   9  10
ATOM     10  C   UNL     1      16.149 -13.418  28.243  1.00  0.00     0.000 C 
BRANCH  10  11
ATOM     11  C   UNL     1      17.100 -12.266  27.883  1.00  0.00     0.000 C 
BRANCH  11  12
ATOM     12  C   UNL     1      16.531 -11.342  26.791  1.00  0.00     0.006 C 
BRANCH  12  13
ATOM     13  C   UNL     1      17.563 -10.885  25.747  1.00  0.00     0.053 C 
BRANCH  13  14
ATOM     14  C   UNL     1      18.970 -11.144  26.195  1.00  0.00     0.041 C 
ATOM     15  O   UNL     1      19.598 -12.144  25.759  1.00  0.00    -0.550 OA
ATOM     16  O   UNL     1      19.588 -10.278  27.088  1.00  0.00    -0.550 OA
ENDBRANCH  13  14
ENDBRANCH  12  13
ENDBRANCH  11  12
ENDBRANCH  10  11
ENDBRANCH   9  10
ENDBRANCH   8   9
ENDBRANCH   7   8
ENDBRANCH   6   7
ENDBRANCH   5   6
ENDBRANCH   4   5
ENDBRANCH   3   4
ENDBRANCH   2   3
ENDBRANCH   1   2
BRANCH   1  17
ATOM     17  C   UNL     1      10.765 -12.749  24.966  1.00  0.00     0.000 C 
BRANCH  17  18
ATOM     18  C   UNL     1      12.214 -12.376  25.328  1.00  0.00     0.000 C 
BRANCH  18  19
ATOM     19  C   UNL     1      13.184 -12.279  24.134  1.00  0.00     0.000 C 
BRANCH  19  20
ATOM     20  C   UNL     1      14.559 -12.929  24.393  1.00  0.00     0.000 C 
BRANCH  20  21
ATOM     21  C   UNL     1      14.433 -14.360  24.947  1.00  0.00     0.000 C 
BRANCH  21  22
ATOM     22  C   UNL     1      15.556 -15.288  24.455  1.00  0.00    -0.000 C 
BRANCH  22  23
ATOM     23  C   UNL     1      16.926 -14.927  25.054  1.00  0.00    -0.000 C 
BRANCH  23  24
ATOM     24  C   UNL     1      17.979 -14.598  23.981  1.00  0.00    -0.000 C 
BRANCH  24  25
ATOM     25  C   UNL     1      19.254 -15.463  24.080  1.00  0.00    -0.000 C 
BRANCH  25  26
ATOM     26  C   UNL     1      19.039 -16.878  23.512  1.00  0.00    -0.000 C 
BRANCH  26  27
ATOM     27  C   UNL     1      19.430 -16.989  22.030  1.00  0.00    -0.000 C 
BRANCH  27  28
ATOM     28  C   UNL     1      18.341 -17.667  21.181  1.00  0.00    -0.000 C 
BRANCH  28  29
ATOM     29  C   UNL     1      17.646 -16.686  20.224  1.00  0.00    -0.003 C 
ATOM     30  C   UNL     1      16.460 -15.968  20.868  1.00  0.00     0.004 C 
ENDBRANCH  28  29
ENDBRANCH  27  28
ENDBRANCH  26  27
ENDBRANCH  25  26
ENDBRANCH  24  25
ENDBRANCH  23  24
ENDBRANCH  22  23
ENDBRANCH  21  22
ENDBRANCH  20  21
ENDBRANCH  19  20
ENDBRANCH  18  19
ENDBRANCH  17  18
ENDBRANCH   1  17
TORSDOF 26
ENDMDL
MODEL 4
REMARK VINA RESULT:    -5.745      4.525      9.739
REMARK INTER + INTRA:         -17.738
REMARK INTER:                 -14.116
REMARK INTRA:                  -3.622
REMARK UNBOUND:                -3.262
REMARK SMILES CCCCCCCCCCCCCCCCCCCCCCCCCCCC(=O)[O-]
REMARK SMILES IDX 15 1 16 2 17 3 18 4 19 5 20 6 21 7 22 8 23 9 24 10 25 11
REMARK SMILES IDX 26 12 27 13 28 14 29 15 30 16 14 17 13 18 12 19 11 20 10 21
REMARK SMILES IDX 9 22 8 23 7 24 6 25 5 26 4 27 3 28 2 29 1 30
REMARK H PARENT
REMARK Flexibility Score: inf
ROOT
ATOM      1  C   UNL     1      19.132 -16.465  24.261  1.00  0.00     0.000 C 
ENDROOT
BRANCH   1   2
ATOM      2  C   UNL     1      18.880 -15.063  23.675  1.00  0.00     0.000 C 
BRANCH   2   3
ATOM      3  C   UNL     1      17.610 -14.357  24.186  1.00  0.00     0.000 C 
BRANCH   3   4
ATOM      4  C   UNL     1      16.447 -15.329  24.447  1.00  0.00     0.000 C 
BRANCH   4   5
ATOM      5  C   UNL     1      15.087 -14.615  24.513  1.00  0.00     0.000 C 
BRANCH   5   6
ATOM      6  C   UNL     1      15.156 -13.166  24.004  1.00  0.00     0.000 C 
BRANCH   6   7
ATOM      7  C   UNL     1      14.434 -12.213  24.969  1.00  0.00     0.000 C 
BRANCH   7   8
ATOM      8  C   UNL     1      13.049 -12.730  25.389  1.00  0.00     0.000 C 
BRANCH   8   9
ATOM      9  C   UNL     1      11.903 -11.847  24.868  1.00  0.00     0.000 C 
BRANCH   9  10
ATOM     10  C   UNL     1      10.723 -12.705  24.398  1.00  0.00     0.000 C 
BRANCH  10  11
ATOM     11  C   UNL     1       9.401 -11.929  24.506  1.00  0.00     0.000 C 
BRANCH  11  12
ATOM     12  C   UNL     1       9.024 -11.592  25.960  1.00  0.00     0.006 C 
BRANCH  12  13
ATOM     13  C   UNL     1       8.889 -12.816  26.880  1.00  0.00     0.053 C 
BRANCH  13  14
ATOM     14  C   UNL     1       9.196 -12.483  28.308  1.00  0.00     0.041 C 
ATOM     15  O   UNL     1       8.373 -11.821  28.994  1.00  0.00    -0.550 OA
ATOM     16  O   UNL     1      10.387 -12.909  28.883  1.00  0.00    -0.550 OA
ENDBRANCH  13  14
ENDBRANCH  12  13
ENDBRANCH  11  12
ENDBRANCH  10  11
ENDBRANCH   9  10
ENDBRANCH   8   9
ENDBRANCH   7   8
ENDBRANCH   6   7
ENDBRANCH   5   6
ENDBRANCH   4   5
ENDBRANCH   3   4
ENDBRANCH   2   3
ENDBRANCH   1   2
BRANCH   1  17
ATOM     17  C   UNL     1      19.339 -17.537  23.177  1.00  0.00     0.000 C 
BRANCH  17  18
ATOM     18  C   UNL     1      19.261 -16.965  21.750  1.00  0.00     0.000 C 
BRANCH  18  19
ATOM     19  C   UNL     1      18.660 -17.915  20.694  1.00  0.00     0.000 C 
BRANCH  19  20
ATOM     20  C   UNL     1      17.421 -17.345  19.974  1.00  0.00     0.000 C 
BRANCH  20  21
ATOM     21  C   UNL     1      16.592 -16.420  20.884  1.00  0.00     0.000 C 
BRANCH  21  22
ATOM     22  C   UNL     1      16.093 -15.162  20.153  1.00  0.00    -0.000 C 
BRANCH  22  23
ATOM     23  C   UNL     1      16.729 -13.872  20.698  1.00  0.00    -0.000 C 
BRANCH  23  24
ATOM     24  C   UNL     1      17.536 -13.108  19.635  1.00  0.00    -0.000 C 
BRANCH  24  25
ATOM     25  C   UNL     1      18.116 -14.015  18.528  1.00  0.00    -0.000 C 
BRANCH  25  26
ATOM     26  C   UNL     1      19.656 -13.986  18.503  1.00  0.00    -0.000 C 
BRANCH  26  27
ATOM     27  C   UNL     1      20.274 -14.088  19.906  1.00  0.00    -0.000 C 
BRANCH  27  28
ATOM     28  C   UNL     1      21.012 -12.804  20.322  1.00  0.00    -0.000 C 
BRANCH  28  29
ATOM     29  C   UNL     1      21.859 -12.217  19.182  1.00  0.00    -0.003 C 
ATOM     30  C   UNL     1      23.360 -12.269  19.470  1.00  0.00     0.004 C 
ENDBRANCH  28  29
ENDBRANCH  27  28
ENDBRANCH  26  27
ENDBRANCH  25  26
ENDBRANCH  24  25
ENDBRANCH  23  24
ENDBRANCH  22  23
ENDBRANCH  21  22
ENDBRANCH  20  21
ENDBRANCH  19  20
ENDBRANCH  18  19
ENDBRANCH  17  18
ENDBRANCH   1  17
TORSDOF 26
ENDMDL
MODEL 5
REMARK VINA RESULT:    -5.737      4.694      9.921
REMARK INTER + INTRA:         -17.718
REMARK INTER:                 -13.804
REMARK INTRA:                  -3.914
REMARK UNBOUND:                -3.262
REMARK SMILES CCCCCCCCCCCCCCCCCCCCCCCCCCCC(=O)[O-]
REMARK SMILES IDX 15 1 16 2 17 3 18 4 19 5 20 6 21 7 22 8 23 9 24 10 25 11
REMARK SMILES IDX 26 12 27 13 28 14 29 15 30 16 14 17 13 18 12 19 11 20 10 21
REMARK SMILES IDX 9 22 8 23 7 24 6 25 5 26 4 27 3 28 2 29 1 30
REMARK H PARENT
REMARK Flexibility Score: inf
ROOT
ATOM      1  C   UNL     1      15.330 -14.813  19.350  1.00  0.00     0.000 C 
ENDROOT
BRANCH   1   2
ATOM      2  C   UNL     1      14.151 -13.841  19.542  1.00  0.00     0.000 C 
BRANCH   2   3
ATOM      3  C   UNL     1      14.529 -12.348  19.575  1.00  0.00     0.000 C 
BRANCH   3   4
ATOM      4  C   UNL     1      13.934 -11.606  20.784  1.00  0.00     0.000 C 
BRANCH   4   5
ATOM      5  C   UNL     1      14.989 -11.285  21.855  1.00  0.00     0.000 C 
BRANCH   5   6
ATOM      6  C   UNL     1      14.993 -12.306  23.005  1.00  0.00     0.000 C 
BRANCH   6   7
ATOM      7  C   UNL     1      13.558 -12.646  23.437  1.00  0.00     0.000 C 
BRANCH   7   8
ATOM      8  C   UNL     1      13.117 -11.875  24.691  1.00  0.00     0.000 C 
BRANCH   8   9
ATOM      9  C   UNL     1      11.745 -12.328  25.215  1.00  0.00     0.000 C 
BRANCH   9  10
ATOM     10  C   UNL     1      10.883 -12.884  24.075  1.00  0.00     0.000 C 
BRANCH  10  11
ATOM     11  C   UNL     1       9.832 -11.857  23.628  1.00  0.00     0.000 C 
BRANCH  11  12
ATOM     12  C   UNL     1       9.303 -12.123  22.207  1.00  0.00     0.006 C 
BRANCH  12  13
ATOM     13  C   UNL     1      10.382 -12.549  21.199  1.00  0.00     0.053 C 
BRANCH  13  14
ATOM     14  C   UNL     1      10.036 -12.143  19.798  1.00  0.00     0.041 C 
ATOM     15  O   UNL     1       8.896 -12.400  19.329  1.00  0.00    -0.550 OA
ATOM     16  O   UNL     1      10.969 -11.476  19.014  1.00  0.00    -0.550 OA
ENDBRANCH  13  14
ENDBRANCH  12  13
ENDBRANCH  11  12
ENDBRANCH  10  11
ENDBRANCH   9  10
ENDBRANCH   8   9
ENDBRANCH   7   8
ENDBRANCH   6   7
ENDBRANCH   5   6
ENDBRANCH   4   5
ENDBRANCH   3   4
ENDBRANCH   2   3
ENDBRANCH   1   2
BRANCH   1  17
ATOM     17  C   UNL     1      16.324 -14.786  20.524  1.00  0.00     0.000 C 
BRANCH  17  18
ATOM     18  C   UNL     1      16.574 -16.180  21.126  1.00  0.00     0.000 C 
BRANCH  18  19
ATOM     19  C   UNL     1      17.270 -17.185  20.187  1.00  0.00     0.000 C 
BRANCH  19  20
ATOM     20  C   UNL     1      18.510 -17.863  20.807  1.00  0.00     0.000 C 
BRANCH  20  21
ATOM     21  C   UNL     1      19.234 -16.947  21.811  1.00  0.00     0.000 C 
BRANCH  21  22
ATOM     22  C   UNL     1      19.245 -17.522  23.237  1.00  0.00    -0.000 C 
BRANCH  22  23
ATOM     23  C   UNL     1      19.048 -16.439  24.312  1.00  0.00    -0.000 C 
BRANCH  23  24
ATOM     24  C   UNL     1      19.589 -15.064  23.881  1.00  0.00    -0.000 C 
BRANCH  24  25
ATOM     25  C   UNL     1      18.764 -13.877  24.422  1.00  0.00    -0.000 C 
BRANCH  25  26
ATOM     26  C   UNL     1      17.361 -14.311  24.884  1.00  0.00    -0.000 C 
BRANCH  26  27
ATOM     27  C   UNL     1      16.840 -13.477  26.066  1.00  0.00    -0.000 C 
BRANCH  27  28
ATOM     28  C   UNL     1      16.121 -14.333  27.122  1.00  0.00    -0.000 C 
BRANCH  28  29
ATOM     29  C   UNL     1      14.596 -14.344  26.931  1.00  0.00    -0.003 C 
ATOM     30  C   UNL     1      13.845 -13.729  28.113  1.00  0.00     0.004 C 
ENDBRANCH  28  29
ENDBRANCH  27  28
ENDBRANCH  26  27
ENDBRANCH  25  26
ENDBRANCH  24  25
ENDBRANCH  23  24
ENDBRANCH  22  23
ENDBRANCH  21  22
ENDBRANCH  20  21
ENDBRANCH  19  20
ENDBRANCH  18  19
ENDBRANCH  17  18
ENDBRANCH   1  17
TORSDOF 26
ENDMDL
MODEL 6
REMARK VINA RESULT:    -5.729      3.908      7.423
REMARK INTER + INTRA:         -17.699
REMARK INTER:                 -12.759
REMARK INTRA:                  -4.940
REMARK UNBOUND:                -3.262
REMARK SMILES CCCCCCCCCCCCCCCCCCCCCCCCCCCC(=O)[O-]
REMARK SMILES IDX 15 1 16 2 17 3 18 4 19 5 20 6 21 7 22 8 23 9 24 10 25 11
REMARK SMILES IDX 26 12 27 13 28 14 29 15 30 16 14 17 13 18 12 19 11 20 10 21
REMARK SMILES IDX 9 22 8 23 7 24 6 25 5 26 4 27 3 28 2 29 1 30
REMARK H PARENT
REMARK Flexibility Score: inf
ROOT
ATOM      1  C   UNL     1      18.269 -15.329  23.581  1.00  0.00     0.000 C 
ENDROOT
BRANCH   1   2
ATOM      2  C   UNL     1      18.829 -16.697  23.148  1.00  0.00     0.000 C 
BRANCH   2   3
ATOM      3  C   UNL     1      19.341 -16.768  21.698  1.00  0.00     0.000 C 
BRANCH   3   4
ATOM      4  C   UNL     1      18.564 -17.776  20.835  1.00  0.00     0.000 C 
BRANCH   4   5
ATOM      5  C   UNL     1      17.083 -17.395  20.675  1.00  0.00     0.000 C 
BRANCH   5   6
ATOM      6  C   UNL     1      16.760 -16.857  19.272  1.00  0.00     0.000 C 
BRANCH   6   7
ATOM      7  C   UNL     1      15.922 -15.572  19.360  1.00  0.00     0.000 C 
BRANCH   7   8
ATOM      8  C   UNL     1      16.253 -14.731  20.603  1.00  0.00     0.000 C 
BRANCH   8   9
ATOM      9  C   UNL     1      15.298 -13.541  20.786  1.00  0.00     0.000 C 
BRANCH   9  10
ATOM     10  C   UNL     1      15.896 -12.502  21.742  1.00  0.00     0.000 C 
BRANCH  10  11
ATOM     11  C   UNL     1      14.796 -11.624  22.359  1.00  0.00     0.000 C 
BRANCH  11  12
ATOM     12  C   UNL     1      13.604 -12.443  22.885  1.00  0.00     0.006 C 
BRANCH  12  13
ATOM     13  C   UNL     1      13.154 -12.067  24.307  1.00  0.00     0.053 C 
BRANCH  13  14
ATOM     14  C   UNL     1      11.909 -12.794  24.715  1.00  0.00     0.041 C 
ATOM     15  O   UNL     1      11.206 -12.359  25.664  1.00  0.00    -0.550 OA
ATOM     16  O   UNL     1      11.523 -13.947  24.044  1.00  0.00    -0.550 OA
ENDBRANCH  13  14
ENDBRANCH  12  13
ENDBRANCH  11  12
ENDBRANCH  10  11
ENDBRANCH   9  10
ENDBRANCH   8   9
ENDBRANCH   7   8
ENDBRANCH   6   7
ENDBRANCH   5   6
ENDBRANCH   4   5
ENDBRANCH   3   4
ENDBRANCH   2   3
ENDBRANCH   1   2
BRANCH   1  17
ATOM     17  C   UNL     1      17.232 -15.439  24.712  1.00  0.00     0.000 C 
BRANCH  17  18
ATOM     18  C   UNL     1      15.789 -15.227  24.221  1.00  0.00     0.000 C 
BRANCH  18  19
ATOM     19  C   UNL     1      14.708 -15.280  25.318  1.00  0.00     0.000 C 
BRANCH  19  20
ATOM     20  C   UNL     1      15.250 -15.037  26.742  1.00  0.00     0.000 C 
BRANCH  20  21
ATOM     21  C   UNL     1      14.489 -13.915  27.472  1.00  0.00     0.000 C 
BRANCH  21  22
ATOM     22  C   UNL     1      15.357 -13.193  28.516  1.00  0.00    -0.000 C 
BRANCH  22  23
ATOM     23  C   UNL     1      16.475 -12.353  27.876  1.00  0.00    -0.000 C 
BRANCH  23  24
ATOM     24  C   UNL     1      15.984 -11.513  26.684  1.00  0.00    -0.000 C 
BRANCH  24  25
ATOM     25  C   UNL     1      16.735 -11.807  25.368  1.00  0.00    -0.000 C 
BRANCH  25  26
ATOM     26  C   UNL     1      17.856 -10.784  25.102  1.00  0.00    -0.000 C 
BRANCH  26  27
ATOM     27  C   UNL     1      19.096 -11.417  24.451  1.00  0.00    -0.000 C 
BRANCH  27  28
ATOM     28  C   UNL     1      20.079 -11.990  25.486  1.00  0.00    -0.000 C 
BRANCH  28  29
ATOM     29  C   UNL     1      20.854 -13.205  24.951  1.00  0.00    -0.003 C 
ATOM     30  C   UNL     1      21.268 -13.049  23.488  1.00  0.00     0.004 C 
ENDBRANCH  28  29
ENDBRANCH  27  28
ENDBRANCH  26  27
ENDBRANCH  25  26
ENDBRANCH  24  25
ENDBRANCH  23  24
ENDBRANCH  22  23
ENDBRANCH  21  22
ENDBRANCH  20  21
ENDBRANCH  19  20
ENDBRANCH  18  19
ENDBRANCH  17  18
ENDBRANCH   1  17
TORSDOF 26
ENDMDL
MODEL 7
REMARK VINA RESULT:    -5.681      4.234      8.313
REMARK INTER + INTRA:         -17.577
REMARK INTER:                 -12.859
REMARK INTRA:                  -4.718
REMARK UNBOUND:                -3.262
REMARK SMILES CCCCCCCCCCCCCCCCCCCCCCCCCCCC(=O)[O-]
REMARK SMILES IDX 15 1 16 2 17 3 18 4 19 5 20 6 21 7 22 8 23 9 24 10 25 11
REMARK SMILES IDX 26 12 27 13 28 14 29 15 30 16 14 17 13 18 12 19 11 20 10 21
REMARK SMILES IDX 9 22 8 23 7 24 6 25 5 26 4 27 3 28 2 29 1 30
REMARK H PARENT
REMARK Flexibility Score: inf
ROOT
ATOM      1  C   UNL     1      17.488 -11.862  25.599  1.00  0.00     0.000 C 
ENDROOT
BRANCH   1   2
ATOM      2  C   UNL     1      16.168 -11.654  26.364  1.00  0.00     0.000 C 
BRANCH   2   3
ATOM      3  C   UNL     1      16.234 -11.932  27.877  1.00  0.00     0.000 C 
BRANCH   3   4
ATOM      4  C   UNL     1      15.739 -13.340  28.251  1.00  0.00     0.000 C 
BRANCH   4   5
ATOM      5  C   UNL     1      14.532 -13.782  27.407  1.00  0.00     0.000 C 
BRANCH   5   6
ATOM      6  C   UNL     1      14.729 -15.172  26.779  1.00  0.00     0.000 C 
BRANCH   6   7
ATOM      7  C   UNL     1      14.597 -15.103  25.250  1.00  0.00     0.000 C 
BRANCH   7   8
ATOM      8  C   UNL     1      15.958 -15.119  24.535  1.00  0.00     0.000 C 
BRANCH   8   9
ATOM      9  C   UNL     1      17.098 -15.613  25.441  1.00  0.00     0.000 C 
BRANCH   9  10
ATOM     10  C   UNL     1      18.285 -16.106  24.605  1.00  0.00     0.000 C 
BRANCH  10  11
ATOM     11  C   UNL     1      19.041 -14.927  23.974  1.00  0.00     0.000 C 
BRANCH  11  12
ATOM     12  C   UNL     1      19.314 -15.127  22.472  1.00  0.00     0.006 C 
BRANCH  12  13
ATOM     13  C   UNL     1      18.506 -14.197  21.551  1.00  0.00     0.053 C 
BRANCH  13  14
ATOM     14  C   UNL     1      17.256 -14.852  21.047  1.00  0.00     0.041 C 
ATOM     15  O   UNL     1      16.163 -14.226  21.065  1.00  0.00    -0.550 OA
ATOM     16  O   UNL     1      17.298 -16.149  20.552  1.00  0.00    -0.550 OA
ENDBRANCH  13  14
ENDBRANCH  12  13
ENDBRANCH  11  12
ENDBRANCH  10  11
ENDBRANCH   9  10
ENDBRANCH   8   9
ENDBRANCH   7   8
ENDBRANCH   6   7
ENDBRANCH   5   6
ENDBRANCH   4   5
ENDBRANCH   3   4
ENDBRANCH   2   3
ENDBRANCH   1   2
BRANCH   1  17
ATOM     17  C   UNL     1      18.716 -11.892  26.525  1.00  0.00     0.000 C 
BRANCH  17  18
ATOM     18  C   UNL     1      19.418 -10.526  26.631  1.00  0.00     0.000 C 
BRANCH  18  19
ATOM     19  C   UNL     1      19.727 -10.057  28.067  1.00  0.00     0.000 C 
BRANCH  19  20
ATOM     20  C   UNL     1      20.903 -10.805  28.728  1.00  0.00     0.000 C 
BRANCH  20  21
ATOM     21  C   UNL     1      22.140 -10.873  27.813  1.00  0.00     0.000 C 
BRANCH  21  22
ATOM     22  C   UNL     1      22.790 -12.266  27.798  1.00  0.00    -0.000 C 
BRANCH  22  23
ATOM     23  C   UNL     1      22.449 -13.064  26.528  1.00  0.00    -0.000 C 
BRANCH  23  24
ATOM     24  C   UNL     1      22.678 -12.259  25.237  1.00  0.00    -0.000 C 
BRANCH  24  25
ATOM     25  C   UNL     1      21.813 -12.732  24.049  1.00  0.00    -0.000 C 
BRANCH  25  26
ATOM     26  C   UNL     1      20.833 -11.641  23.577  1.00  0.00    -0.000 C 
BRANCH  26  27
ATOM     27  C   UNL     1      20.903 -11.395  22.062  1.00  0.00    -0.000 C 
BRANCH  27  28
ATOM     28  C   UNL     1      22.106 -12.092  21.405  1.00  0.00    -0.000 C 
BRANCH  28  29
ATOM     29  C   UNL     1      21.997 -12.132  19.873  1.00  0.00    -0.003 C 
ATOM     30  C   UNL     1      23.346 -11.950  19.176  1.00  0.00     0.004 C 
ENDBRANCH  28  29
ENDBRANCH  27  28
ENDBRANCH  26  27
ENDBRANCH  25  26
ENDBRANCH  24  25
ENDBRANCH  23  24
ENDBRANCH  22  23
ENDBRANCH  21  22
ENDBRANCH  20  21
ENDBRANCH  19  20
ENDBRANCH  18  19
ENDBRANCH  17  18
ENDBRANCH   1  17
TORSDOF 26
ENDMDL
MODEL 8
REMARK VINA RESULT:    -5.670      3.917      8.815
REMARK INTER + INTRA:         -17.551
REMARK INTER:                 -12.572
REMARK INTRA:                  -4.979
REMARK UNBOUND:                -3.262
REMARK SMILES CCCCCCCCCCCCCCCCCCCCCCCCCCCC(=O)[O-]
REMARK SMILES IDX 15 1 16 2 17 3 18 4 19 5 20 6 21 7 22 8 23 9 24 10 25 11
REMARK SMILES IDX 26 12 27 13 28 14 29 15 30 16 14 17 13 18 12 19 11 20 10 21
REMARK SMILES IDX 9 22 8 23 7 24 6 25 5 26 4 27 3 28 2 29 1 30
REMARK H PARENT
REMARK Flexibility Score: inf
ROOT
ATOM      1  C   UNL     1      17.086 -15.568  25.417  1.00  0.00     0.000 C 
ENDROOT
BRANCH   1   2
ATOM      2  C   UNL     1      15.818 -15.309  24.582  1.00  0.00     0.000 C 
BRANCH   2   3
ATOM      3  C   UNL     1      14.505 -15.245  25.384  1.00  0.00     0.000 C 
BRANCH   3   4
ATOM      4  C   UNL     1      14.732 -15.223  26.906  1.00  0.00     0.000 C 
BRANCH   4   5
ATOM      5  C   UNL     1      13.907 -14.133  27.608  1.00  0.00     0.000 C 
BRANCH   5   6
ATOM      6  C   UNL     1      14.751 -13.280  28.569  1.00  0.00     0.000 C 
BRANCH   6   7
ATOM      7  C   UNL     1      16.144 -13.010  27.978  1.00  0.00     0.000 C 
BRANCH   7   8
ATOM      8  C   UNL     1      16.201 -11.707  27.164  1.00  0.00     0.000 C 
BRANCH   8   9
ATOM      9  C   UNL     1      16.839 -11.901  25.779  1.00  0.00     0.000 C 
BRANCH   9  10
ATOM     10  C   UNL     1      15.795 -11.732  24.668  1.00  0.00     0.000 C 
BRANCH  10  11
ATOM     11  C   UNL     1      14.389 -11.543  25.258  1.00  0.00     0.000 C 
BRANCH  11  12
ATOM     12  C   UNL     1      13.276 -12.036  24.317  1.00  0.00     0.006 C 
BRANCH  12  13
ATOM     13  C   UNL     1      11.900 -12.187  24.986  1.00  0.00     0.053 C 
BRANCH  13  14
ATOM     14  C   UNL     1      10.865 -12.707  24.036  1.00  0.00     0.041 C 
ATOM     15  O   UNL     1       9.644 -12.649  24.338  1.00  0.00    -0.550 OA
ATOM     16  O   UNL     1      11.247 -13.248  22.815  1.00  0.00    -0.550 OA
ENDBRANCH  13  14
ENDBRANCH  12  13
ENDBRANCH  11  12
ENDBRANCH  10  11
ENDBRANCH   9  10
ENDBRANCH   8   9
ENDBRANCH   7   8
ENDBRANCH   6   7
ENDBRANCH   5   6
ENDBRANCH   4   5
ENDBRANCH   3   4
ENDBRANCH   2   3
ENDBRANCH   1   2
BRANCH   1  17
ATOM     17  C   UNL     1      18.382 -15.373  24.611  1.00  0.00     0.000 C 
BRANCH  17  18
ATOM     18  C   UNL     1      19.035 -16.704  24.200  1.00  0.00     0.000 C 
BRANCH  18  19
ATOM     19  C   UNL     1      19.244 -16.892  22.685  1.00  0.00     0.000 C 
BRANCH  19  20
ATOM     20  C   UNL     1      18.748 -15.705  21.833  1.00  0.00     0.000 C 
BRANCH  20  21
ATOM     21  C   UNL     1      19.800 -15.241  20.810  1.00  0.00     0.000 C 
BRANCH  21  22
ATOM     22  C   UNL     1      20.142 -13.748  20.946  1.00  0.00    -0.000 C 
BRANCH  22  23
ATOM     23  C   UNL     1      19.427 -13.085  22.136  1.00  0.00    -0.000 C 
BRANCH  23  24
ATOM     24  C   UNL     1      20.398 -12.372  23.094  1.00  0.00    -0.000 C 
BRANCH  24  25
ATOM     25  C   UNL     1      21.310 -13.337  23.882  1.00  0.00    -0.000 C 
BRANCH  25  26
ATOM     26  C   UNL     1      21.644 -12.799  25.286  1.00  0.00    -0.000 C 
BRANCH  26  27
ATOM     27  C   UNL     1      20.424 -12.191  25.995  1.00  0.00    -0.000 C 
BRANCH  27  28
ATOM     28  C   UNL     1      20.767 -10.902  26.761  1.00  0.00    -0.000 C 
BRANCH  28  29
ATOM     29  C   UNL     1      19.680 -10.513  27.775  1.00  0.00    -0.003 C 
ATOM     30  C   UNL     1      18.979  -9.201  27.421  1.00  0.00     0.004 C 
ENDBRANCH  28  29
ENDBRANCH  27  28
ENDBRANCH  26  27
ENDBRANCH  25  26
ENDBRANCH  24  25
ENDBRANCH  23  24
ENDBRANCH  22  23
ENDBRANCH  21  22
ENDBRANCH  20  21
ENDBRANCH  19  20
ENDBRANCH  18  19
ENDBRANCH  17  18
ENDBRANCH   1  17
TORSDOF 26
ENDMDL
MODEL 9
REMARK VINA RESULT:    -5.649      3.102      5.848
REMARK INTER + INTRA:         -17.497
REMARK INTER:                 -12.008
REMARK INTRA:                  -5.489
REMARK UNBOUND:                -3.262
REMARK SMILES CCCCCCCCCCCCCCCCCCCCCCCCCCCC(=O)[O-]
REMARK SMILES IDX 15 1 16 2 17 3 18 4 19 5 20 6 21 7 22 8 23 9 24 10 25 11
REMARK SMILES IDX 26 12 27 13 28 14 29 15 30 16 14 17 13 18 12 19 11 20 10 21
REMARK SMILES IDX 9 22 8 23 7 24 6 25 5 26 4 27 3 28 2 29 1 30
REMARK H PARENT
REMARK Flexibility Score: inf
ROOT
ATOM      1  C   UNL     1      18.591 -16.413  24.115  1.00  0.00     0.000 C 
ENDROOT
BRANCH   1   2
ATOM      2  C   UNL     1      19.244 -17.404  23.133  1.00  0.00     0.000 C 
BRANCH   2   3
ATOM      3  C   UNL     1      19.338 -16.918  21.675  1.00  0.00     0.000 C 
BRANCH   3   4
ATOM      4  C   UNL     1      18.666 -17.878  20.678  1.00  0.00     0.000 C 
BRANCH   4   5
ATOM      5  C   UNL     1      17.184 -17.542  20.446  1.00  0.00     0.000 C 
BRANCH   5   6
ATOM      6  C   UNL     1      16.828 -17.445  18.953  1.00  0.00     0.000 C 
BRANCH   6   7
ATOM      7  C   UNL     1      16.161 -16.098  18.637  1.00  0.00     0.000 C 
BRANCH   7   8
ATOM      8  C   UNL     1      16.036 -15.193  19.874  1.00  0.00     0.000 C 
BRANCH   8   9
ATOM      9  C   UNL     1      16.791 -13.863  19.715  1.00  0.00     0.000 C 
BRANCH   9  10
ATOM     10  C   UNL     1      18.192 -13.955  20.330  1.00  0.00     0.000 C 
BRANCH  10  11
ATOM     11  C   UNL     1      19.071 -12.779  19.875  1.00  0.00     0.000 C 
BRANCH  11  12
ATOM     12  C   UNL     1      20.235 -12.495  20.841  1.00  0.00     0.006 C 
BRANCH  12  13
ATOM     13  C   UNL     1      20.173 -13.283  22.159  1.00  0.00     0.053 C 
BRANCH  13  14
ATOM     14  C   UNL     1      21.219 -12.835  23.134  1.00  0.00     0.041 C 
ATOM     15  O   UNL     1      21.996 -11.889  22.836  1.00  0.00    -0.550 OA
ATOM     16  O   UNL     1      21.333 -13.456  24.371  1.00  0.00    -0.550 OA
ENDBRANCH  13  14
ENDBRANCH  12  13
ENDBRANCH  11  12
ENDBRANCH  10  11
ENDBRANCH   9  10
ENDBRANCH   8   9
ENDBRANCH   7   8
ENDBRANCH   6   7
ENDBRANCH   5   6
ENDBRANCH   4   5
ENDBRANCH   3   4
ENDBRANCH   2   3
ENDBRANCH   1   2
BRANCH   1  17
ATOM     17  C   UNL     1      17.488 -15.562  23.461  1.00  0.00     0.000 C 
BRANCH  17  18
ATOM     18  C   UNL     1      16.355 -15.202  24.437  1.00  0.00     0.000 C 
BRANCH  18  19
ATOM     19  C   UNL     1      16.809 -14.841  25.866  1.00  0.00     0.000 C 
BRANCH  19  20
ATOM     20  C   UNL     1      15.656 -14.771  26.889  1.00  0.00     0.000 C 
BRANCH  20  21
ATOM     21  C   UNL     1      15.625 -13.429  27.642  1.00  0.00     0.000 C 
BRANCH  21  22
ATOM     22  C   UNL     1      15.037 -12.287  26.796  1.00  0.00    -0.000 C 
BRANCH  22  23
ATOM     23  C   UNL     1      13.682 -12.656  26.168  1.00  0.00    -0.000 C 
BRANCH  23  24
ATOM     24  C   UNL     1      13.480 -12.034  24.775  1.00  0.00    -0.000 C 
BRANCH  24  25
ATOM     25  C   UNL     1      13.373 -13.076  23.641  1.00  0.00    -0.000 C 
BRANCH  25  26
ATOM     26  C   UNL     1      14.316 -12.751  22.467  1.00  0.00    -0.000 C 
BRANCH  26  27
ATOM     27  C   UNL     1      15.197 -11.521  22.735  1.00  0.00    -0.000 C 
BRANCH  27  28
ATOM     28  C   UNL     1      16.685 -11.881  22.889  1.00  0.00    -0.000 C 
BRANCH  28  29
ATOM     29  C   UNL     1      17.435 -10.899  23.803  1.00  0.00    -0.003 C 
ATOM     30  C   UNL     1      18.204 -11.601  24.924  1.00  0.00     0.004 C 
ENDBRANCH  28  29
ENDBRANCH  27  28
ENDBRANCH  26  27
ENDBRANCH  25  26
ENDBRANCH  24  25
ENDBRANCH  23  24
ENDBRANCH  22  23
ENDBRANCH  21  22
ENDBRANCH  20  21
ENDBRANCH  19  20
ENDBRANCH  18  19
ENDBRANCH  17  18
ENDBRANCH   1  17
TORSDOF 26
ENDMDL
