MODEL 1
REMARK VINA RESULT:    -6.838      0.000      0.000
REMARK INTER + INTRA:          -8.308
REMARK INTER:                  -8.037
REMARK INTRA:                  -0.271
REMARK UNBOUND:                -0.271
REMARK SMILES O=c1cc(-c2ccc(O)c(O)c2)oc2cc(O)cc(O)c12
REMARK SMILES IDX 4 1 3 2 2 3 1 4 21 5 19 6 18 7 16 8 15 9 14 10 13 11 5 12
REMARK SMILES IDX 6 13 7 14 8 15 12 16 10 17 9 18 11 20 20 22 17 24
REMARK H PARENT 9 19 11 21 20 23 17 25
REMARK Flexibility Score: inf
ROOT
ATOM      1  C   UNL     1       8.060  16.107 -18.499  1.00  0.00     0.138 A 
ATOM      2  C   UNL     1       8.121  15.838 -19.877  1.00  0.00     0.100 A 
ATOM      3  C   UNL     1       8.463  14.559 -20.314  1.00  0.00     0.197 A 
ATOM      4  O   UNL     1       8.514  14.328 -21.553  1.00  0.00    -0.289 OA
ATOM      5  C   UNL     1       8.740  13.552 -19.367  1.00  0.00     0.107 A 
ATOM      6  C   UNL     1       9.096  12.229 -19.724  1.00  0.00     0.134 A 
ATOM      7  C   UNL     1       9.349  11.283 -18.721  1.00  0.00     0.093 A 
ATOM      8  C   UNL     1       9.255  11.635 -17.369  1.00  0.00     0.123 A 
ATOM      9  C   UNL     1       8.904  12.938 -17.012  1.00  0.00     0.094 A 
ATOM     10  C   UNL     1       8.647  13.896 -17.998  1.00  0.00     0.146 A 
ATOM     11  O   UNL     1       8.317  15.130 -17.631  1.00  0.00    -0.456 OA
ENDROOT
BRANCH   1  12
ATOM     12  C   UNL     1       7.700  17.450 -17.978  1.00  0.00     0.021 A 
ATOM     13  C   UNL     1       6.626  17.576 -17.080  1.00  0.00     0.016 A 
ATOM     14  C   UNL     1       6.272  18.828 -16.569  1.00  0.00     0.051 A 
ATOM     15  C   UNL     1       6.987  19.970 -16.936  1.00  0.00     0.157 A 
ATOM     16  C   UNL     1       8.427  18.602 -18.335  1.00  0.00     0.062 A 
ATOM     17  C   UNL     1       8.072  19.858 -17.820  1.00  0.00     0.158 A 
BRANCH  15  18
ATOM     18  O   UNL     1       6.607  21.204 -16.411  1.00  0.00    -0.504 OA
ATOM     19  H   UNL     1       6.182  21.292 -15.495  1.00  0.00     0.293 HD
ENDBRANCH  15  18
BRANCH  17  20
ATOM     20  O   UNL     1       8.797  20.993 -18.181  1.00  0.00    -0.504 OA
ATOM     21  H   UNL     1       8.969  21.228 -19.152  1.00  0.00     0.293 HD
ENDBRANCH  17  20
ENDBRANCH   1  12
BRANCH   6  22
ATOM     22  O   UNL     1       9.197  11.851 -21.064  1.00  0.00    -0.507 OA
ATOM     23  H   UNL     1       8.893  12.460 -21.814  1.00  0.00     0.293 HD
ENDBRANCH   6  22
BRANCH   8  24
ATOM     24  O   UNL     1       9.506  10.695 -16.371  1.00  0.00    -0.508 OA
ATOM     25  H   UNL     1       8.830   9.977 -16.138  1.00  0.00     0.293 HD
ENDBRANCH   8  24
TORSDOF 5
ENDMDL
MODEL 2
REMARK VINA RESULT:    -6.803      2.656      4.509
REMARK INTER + INTRA:          -8.267
REMARK INTER:                  -7.950
REMARK INTRA:                  -0.317
REMARK UNBOUND:                -0.271
REMARK SMILES O=c1cc(-c2ccc(O)c(O)c2)oc2cc(O)cc(O)c12
REMARK SMILES IDX 4 1 3 2 2 3 1 4 21 5 19 6 18 7 16 8 15 9 14 10 13 11 5 12
REMARK SMILES IDX 6 13 7 14 8 15 12 16 10 17 9 18 11 20 20 22 17 24
REMARK H PARENT 9 19 11 21 20 23 17 25
REMARK Flexibility Score: inf
ROOT
ATOM      1  C   UNL     1       8.590  13.325 -18.508  1.00  0.00     0.138 A 
ATOM      2  C   UNL     1       8.954  12.013 -18.858  1.00  0.00     0.100 A 
ATOM      3  C   UNL     1       9.095  11.050 -17.860  1.00  0.00     0.197 A 
ATOM      4  O   UNL     1       9.421   9.875 -18.184  1.00  0.00    -0.289 OA
ATOM      5  C   UNL     1       8.867  11.403 -16.515  1.00  0.00     0.107 A 
ATOM      6  C   UNL     1       8.990  10.489 -15.441  1.00  0.00     0.134 A 
ATOM      7  C   UNL     1       8.739  10.919 -14.130  1.00  0.00     0.093 A 
ATOM      8  C   UNL     1       8.370  12.244 -13.873  1.00  0.00     0.123 A 
ATOM      9  C   UNL     1       8.248  13.150 -14.929  1.00  0.00     0.094 A 
ATOM     10  C   UNL     1       8.493  12.741 -16.243  1.00  0.00     0.146 A 
ATOM     11  O   UNL     1       8.372  13.623 -17.229  1.00  0.00    -0.456 OA
ENDROOT
BRANCH   1  12
ATOM     12  C   UNL     1       8.425  14.391 -19.529  1.00  0.00     0.021 A 
ATOM     13  C   UNL     1       8.424  14.047 -20.891  1.00  0.00     0.016 A 
ATOM     14  C   UNL     1       8.263  15.030 -21.872  1.00  0.00     0.051 A 
ATOM     15  C   UNL     1       8.092  16.368 -21.510  1.00  0.00     0.157 A 
ATOM     16  C   UNL     1       8.238  15.739 -19.168  1.00  0.00     0.062 A 
ATOM     17  C   UNL     1       8.076  16.725 -20.152  1.00  0.00     0.158 A 
BRANCH  15  18
ATOM     18  O   UNL     1       7.936  17.326 -22.511  1.00  0.00    -0.504 OA
ATOM     19  H   UNL     1       8.725  17.704 -23.021  1.00  0.00     0.293 HD
ENDBRANCH  15  18
BRANCH  17  20
ATOM     20  O   UNL     1       7.892  18.058 -19.784  1.00  0.00    -0.504 OA
ATOM     21  H   UNL     1       7.337  18.315 -18.976  1.00  0.00     0.293 HD
ENDBRANCH  17  20
ENDBRANCH   1  12
BRANCH   6  22
ATOM     22  O   UNL     1       9.355   9.161 -15.668  1.00  0.00    -0.507 OA
ATOM     23  H   UNL     1      10.324   8.887 -15.781  1.00  0.00     0.293 HD
ENDBRANCH   6  22
BRANCH   8  24
ATOM     24  O   UNL     1       8.120  12.672 -12.570  1.00  0.00    -0.508 OA
ATOM     25  H   UNL     1       7.440  13.397 -12.372  1.00  0.00     0.293 HD
ENDBRANCH   8  24
TORSDOF 5
ENDMDL
MODEL 3
REMARK VINA RESULT:    -6.696      3.583      6.316
REMARK INTER + INTRA:          -8.141
REMARK INTER:                  -7.877
REMARK INTRA:                  -0.264
REMARK UNBOUND:                -0.271
REMARK SMILES O=c1cc(-c2ccc(O)c(O)c2)oc2cc(O)cc(O)c12
REMARK SMILES IDX 4 1 3 2 2 3 1 4 21 5 19 6 18 7 16 8 15 9 14 10 13 11 5 12
REMARK SMILES IDX 6 13 7 14 8 15 12 16 10 17 9 18 11 20 20 22 17 24
REMARK H PARENT 9 19 11 21 20 23 17 25
REMARK Flexibility Score: inf
ROOT
ATOM      1  C   UNL     1       9.266  11.540 -15.814  1.00  0.00     0.138 A 
ATOM      2  C   UNL     1       9.884  10.351 -16.237  1.00  0.00     0.100 A 
ATOM      3  C   UNL     1       9.592   9.155 -15.582  1.00  0.00     0.197 A 
ATOM      4  O   UNL     1      10.150   8.092 -15.970  1.00  0.00    -0.289 OA
ATOM      5  C   UNL     1       8.679   9.154 -14.508  1.00  0.00     0.107 A 
ATOM      6  C   UNL     1       8.328   7.987 -13.789  1.00  0.00     0.134 A 
ATOM      7  C   UNL     1       7.406   8.070 -12.736  1.00  0.00     0.093 A 
ATOM      8  C   UNL     1       6.830   9.298 -12.389  1.00  0.00     0.123 A 
ATOM      9  C   UNL     1       7.173  10.452 -13.095  1.00  0.00     0.094 A 
ATOM     10  C   UNL     1       8.090  10.390 -14.148  1.00  0.00     0.146 A 
ATOM     11  O   UNL     1       8.401  11.504 -14.803  1.00  0.00    -0.456 OA
ENDROOT
BRANCH   1  12
ATOM     12  C   UNL     1       9.539  12.842 -16.475  1.00  0.00     0.021 A 
ATOM     13  C   UNL     1      10.407  13.759 -15.860  1.00  0.00     0.016 A 
ATOM     14  C   UNL     1      10.686  14.988 -16.464  1.00  0.00     0.051 A 
ATOM     15  C   UNL     1      10.112  15.318 -17.694  1.00  0.00     0.157 A 
ATOM     16  C   UNL     1       8.972  13.172 -17.721  1.00  0.00     0.062 A 
ATOM     17  C   UNL     1       9.254  14.406 -18.328  1.00  0.00     0.158 A 
BRANCH  15  18
ATOM     18  O   UNL     1      10.408  16.552 -18.270  1.00  0.00    -0.504 OA
ATOM     19  H   UNL     1      11.310  16.748 -18.690  1.00  0.00     0.293 HD
ENDBRANCH  15  18
BRANCH  17  20
ATOM     20  O   UNL     1       8.687  14.724 -19.562  1.00  0.00    -0.504 OA
ATOM     21  H   UNL     1       9.116  15.398 -20.187  1.00  0.00     0.293 HD
ENDBRANCH  17  20
ENDBRANCH   1  12
BRANCH   6  22
ATOM     22  O   UNL     1       8.886   6.750 -14.114  1.00  0.00    -0.507 OA
ATOM     23  H   UNL     1       8.622   5.902 -13.627  1.00  0.00     0.293 HD
ENDBRANCH   6  22
BRANCH   8  24
ATOM     24  O   UNL     1       5.913   9.381 -11.342  1.00  0.00    -0.508 OA
ATOM     25  H   UNL     1       6.145   9.064 -10.408  1.00  0.00     0.293 HD
ENDBRANCH   8  24
TORSDOF 5
ENDMDL
MODEL 4
REMARK VINA RESULT:    -6.656      5.208     10.478
REMARK INTER + INTRA:          -8.094
REMARK INTER:                  -7.818
REMARK INTRA:                  -0.277
REMARK UNBOUND:                -0.271
REMARK SMILES O=c1cc(-c2ccc(O)c(O)c2)oc2cc(O)cc(O)c12
REMARK SMILES IDX 4 1 3 2 2 3 1 4 21 5 19 6 18 7 16 8 15 9 14 10 13 11 5 12
REMARK SMILES IDX 6 13 7 14 8 15 12 16 10 17 9 18 11 20 20 22 17 24
REMARK H PARENT 9 19 11 21 20 23 17 25
REMARK Flexibility Score: inf
ROOT
ATOM      1  C   UNL     1       7.292   8.323 -14.982  1.00  0.00     0.138 A 
ATOM      2  C   UNL     1       7.017   8.625 -13.637  1.00  0.00     0.100 A 
ATOM      3  C   UNL     1       7.340   9.885 -13.135  1.00  0.00     0.197 A 
ATOM      4  O   UNL     1       7.088  10.146 -11.927  1.00  0.00    -0.289 OA
ATOM      5  C   UNL     1       7.934  10.840 -13.985  1.00  0.00     0.107 A 
ATOM      6  C   UNL     1       8.294  12.141 -13.557  1.00  0.00     0.134 A 
ATOM      7  C   UNL     1       8.876  13.035 -14.467  1.00  0.00     0.093 A 
ATOM      8  C   UNL     1       9.104  12.654 -15.794  1.00  0.00     0.123 A 
ATOM      9  C   UNL     1       8.750  11.373 -16.221  1.00  0.00     0.094 A 
ATOM     10  C   UNL     1       8.169  10.466 -15.329  1.00  0.00     0.146 A 
ATOM     11  O   UNL     1       7.844   9.252 -15.760  1.00  0.00    -0.456 OA
ENDROOT
BRANCH   1  12
ATOM     12  C   UNL     1       6.969   6.998 -15.570  1.00  0.00     0.021 A 
ATOM     13  C   UNL     1       6.309   6.936 -16.809  1.00  0.00     0.016 A 
ATOM     14  C   UNL     1       6.000   5.702 -17.387  1.00  0.00     0.051 A 
ATOM     15  C   UNL     1       6.351   4.512 -16.745  1.00  0.00     0.157 A 
ATOM     16  C   UNL     1       7.333   5.797 -14.932  1.00  0.00     0.062 A 
ATOM     17  C   UNL     1       7.024   4.558 -15.513  1.00  0.00     0.158 A 
BRANCH  15  18
ATOM     18  O   UNL     1       6.028   3.297 -17.347  1.00  0.00    -0.504 OA
ATOM     19  H   UNL     1       6.260   3.095 -18.312  1.00  0.00     0.293 HD
ENDBRANCH  15  18
BRANCH  17  20
ATOM     20  O   UNL     1       7.388   3.374 -14.873  1.00  0.00    -0.504 OA
ATOM     21  H   UNL     1       7.541   2.515 -15.390  1.00  0.00     0.293 HD
ENDBRANCH  17  20
ENDBRANCH   1  12
BRANCH   6  22
ATOM     22  O   UNL     1       8.077  12.548 -12.240  1.00  0.00    -0.507 OA
ATOM     23  H   UNL     1       7.146  12.598 -11.844  1.00  0.00     0.293 HD
ENDBRANCH   6  22
BRANCH   8  24
ATOM     24  O   UNL     1       9.682  13.543 -16.699  1.00  0.00    -0.508 OA
ATOM     25  H   UNL     1      10.519  14.065 -16.467  1.00  0.00     0.293 HD
ENDBRANCH   8  24
TORSDOF 5
ENDMDL
MODEL 5
REMARK VINA RESULT:    -6.602      3.101      7.580
REMARK INTER + INTRA:          -8.031
REMARK INTER:                  -7.767
REMARK INTRA:                  -0.264
REMARK UNBOUND:                -0.271
REMARK SMILES O=c1cc(-c2ccc(O)c(O)c2)oc2cc(O)cc(O)c12
REMARK SMILES IDX 4 1 3 2 2 3 1 4 21 5 19 6 18 7 16 8 15 9 14 10 13 11 5 12
REMARK SMILES IDX 6 13 7 14 8 15 12 16 10 17 9 18 11 20 20 22 17 24
REMARK H PARENT 9 19 11 21 20 23 17 25
REMARK Flexibility Score: inf
ROOT
ATOM      1  C   UNL     1       9.521  12.209 -16.778  1.00  0.00     0.138 A 
ATOM      2  C   UNL     1      10.245  13.294 -16.255  1.00  0.00     0.100 A 
ATOM      3  C   UNL     1      10.291  14.494 -16.963  1.00  0.00     0.197 A 
ATOM      4  O   UNL     1      10.943  15.463 -16.484  1.00  0.00    -0.289 OA
ATOM      5  C   UNL     1       9.608  14.604 -18.191  1.00  0.00     0.107 A 
ATOM      6  C   UNL     1       9.605  15.785 -18.972  1.00  0.00     0.134 A 
ATOM      7  C   UNL     1       8.894  15.815 -20.181  1.00  0.00     0.093 A 
ATOM      8  C   UNL     1       8.190  14.688 -20.623  1.00  0.00     0.123 A 
ATOM      9  C   UNL     1       8.191  13.522 -19.855  1.00  0.00     0.094 A 
ATOM     10  C   UNL     1       8.892  13.472 -18.646  1.00  0.00     0.146 A 
ATOM     11  O   UNL     1       8.879  12.349 -17.936  1.00  0.00    -0.456 OA
ENDROOT
BRANCH   1  12
ATOM     12  C   UNL     1       9.437  10.908 -16.068  1.00  0.00     0.021 A 
ATOM     13  C   UNL     1      10.322   9.873 -16.416  1.00  0.00     0.016 A 
ATOM     14  C   UNL     1      10.268   8.641 -15.758  1.00  0.00     0.051 A 
ATOM     15  C   UNL     1       9.340   8.425 -14.738  1.00  0.00     0.157 A 
ATOM     16  C   UNL     1       8.511  10.689 -15.029  1.00  0.00     0.062 A 
ATOM     17  C   UNL     1       8.458   9.453 -14.368  1.00  0.00     0.158 A 
BRANCH  15  18
ATOM     18  O   UNL     1       9.309   7.184 -14.101  1.00  0.00    -0.504 OA
ATOM     19  H   UNL     1       9.346   7.096 -13.092  1.00  0.00     0.293 HD
ENDBRANCH  15  18
BRANCH  17  20
ATOM     20  O   UNL     1       7.537   9.247 -13.342  1.00  0.00    -0.504 OA
ATOM     21  H   UNL     1       7.344   9.961 -12.648  1.00  0.00     0.293 HD
ENDBRANCH  17  20
ENDBRANCH   1  12
BRANCH   6  22
ATOM     22  O   UNL     1      10.298  16.922 -18.557  1.00  0.00    -0.507 OA
ATOM     23  H   UNL     1      11.093  17.280 -19.073  1.00  0.00     0.293 HD
ENDBRANCH   6  22
BRANCH   8  24
ATOM     24  O   UNL     1       7.484  14.718 -21.824  1.00  0.00    -0.508 OA
ATOM     25  H   UNL     1       7.402  15.569 -22.369  1.00  0.00     0.293 HD
ENDBRANCH   8  24
TORSDOF 5
ENDMDL
MODEL 6
REMARK VINA RESULT:    -6.481      2.427      6.333
REMARK INTER + INTRA:          -7.889
REMARK INTER:                  -7.581
REMARK INTRA:                  -0.308
REMARK UNBOUND:                -0.271
REMARK SMILES O=c1cc(-c2ccc(O)c(O)c2)oc2cc(O)cc(O)c12
REMARK SMILES IDX 4 1 3 2 2 3 1 4 21 5 19 6 18 7 16 8 15 9 14 10 13 11 5 12
REMARK SMILES IDX 6 13 7 14 8 15 12 16 10 17 9 18 11 20 20 22 17 24
REMARK H PARENT 9 19 11 21 20 23 17 25
REMARK Flexibility Score: inf
ROOT
ATOM      1  C   UNL     1       8.061  12.914 -17.188  1.00  0.00     0.138 A 
ATOM      2  C   UNL     1       8.410  12.245 -18.374  1.00  0.00     0.100 A 
ATOM      3  C   UNL     1       8.552  12.972 -19.556  1.00  0.00     0.197 A 
ATOM      4  O   UNL     1       8.867  12.363 -20.615  1.00  0.00    -0.289 OA
ATOM      5  C   UNL     1       8.347  14.366 -19.544  1.00  0.00     0.107 A 
ATOM      6  C   UNL     1       8.469  15.177 -20.698  1.00  0.00     0.134 A 
ATOM      7  C   UNL     1       8.255  16.560 -20.600  1.00  0.00     0.093 A 
ATOM      8  C   UNL     1       7.920  17.145 -19.374  1.00  0.00     0.123 A 
ATOM      9  C   UNL     1       7.799  16.349 -18.233  1.00  0.00     0.094 A 
ATOM     10  C   UNL     1       8.009  14.968 -18.309  1.00  0.00     0.146 A 
ATOM     11  O   UNL     1       7.884  14.233 -17.209  1.00  0.00    -0.456 OA
ENDROOT
BRANCH   1  12
ATOM     12  C   UNL     1       7.897  12.191 -15.901  1.00  0.00     0.021 A 
ATOM     13  C   UNL     1       7.532  10.834 -15.913  1.00  0.00     0.016 A 
ATOM     14  C   UNL     1       7.379  10.130 -14.716  1.00  0.00     0.051 A 
ATOM     15  C   UNL     1       7.595  10.763 -13.490  1.00  0.00     0.157 A 
ATOM     16  C   UNL     1       8.127  12.823 -14.663  1.00  0.00     0.062 A 
ATOM     17  C   UNL     1       7.974  12.114 -13.462  1.00  0.00     0.158 A 
BRANCH  15  18
ATOM     18  O   UNL     1       7.432  10.034 -12.313  1.00  0.00    -0.504 OA
ATOM     19  H   UNL     1       6.533   9.953 -11.850  1.00  0.00     0.293 HD
ENDBRANCH  15  18
BRANCH  17  20
ATOM     20  O   UNL     1       8.203  12.749 -12.241  1.00  0.00    -0.504 OA
ATOM     21  H   UNL     1       7.755  13.627 -12.006  1.00  0.00     0.293 HD
ENDBRANCH  17  20
ENDBRANCH   1  12
BRANCH   6  22
ATOM     22  O   UNL     1       8.802  14.621 -21.933  1.00  0.00    -0.507 OA
ATOM     23  H   UNL     1       9.302  15.150 -22.638  1.00  0.00     0.293 HD
ENDBRANCH   6  22
BRANCH   8  24
ATOM     24  O   UNL     1       7.707  18.519 -19.277  1.00  0.00    -0.508 OA
ATOM     25  H   UNL     1       7.617  18.979 -18.378  1.00  0.00     0.293 HD
ENDBRANCH   8  24
TORSDOF 5
ENDMDL
MODEL 7
REMARK VINA RESULT:    -6.453      2.477      7.149
REMARK INTER + INTRA:          -7.855
REMARK INTER:                  -7.583
REMARK INTRA:                  -0.272
REMARK UNBOUND:                -0.271
REMARK SMILES O=c1cc(-c2ccc(O)c(O)c2)oc2cc(O)cc(O)c12
REMARK SMILES IDX 4 1 3 2 2 3 1 4 21 5 19 6 18 7 16 8 15 9 14 10 13 11 5 12
REMARK SMILES IDX 6 13 7 14 8 15 12 16 10 17 9 18 11 20 20 22 17 24
REMARK H PARENT 9 19 11 21 20 23 17 25
REMARK Flexibility Score: inf
ROOT
ATOM      1  C   UNL     1       9.074  12.002 -17.837  1.00  0.00     0.138 A 
ATOM      2  C   UNL     1       8.614  11.697 -19.130  1.00  0.00     0.100 A 
ATOM      3  C   UNL     1       8.435  12.725 -20.055  1.00  0.00     0.197 A 
ATOM      4  O   UNL     1       8.022  12.441 -21.213  1.00  0.00    -0.289 OA
ATOM      5  C   UNL     1       8.721  14.054 -19.682  1.00  0.00     0.107 A 
ATOM      6  C   UNL     1       8.566  15.155 -20.558  1.00  0.00     0.134 A 
ATOM      7  C   UNL     1       8.879  16.447 -20.112  1.00  0.00     0.093 A 
ATOM      8  C   UNL     1       9.343  16.658 -18.808  1.00  0.00     0.123 A 
ATOM      9  C   UNL     1       9.498  15.575 -17.941  1.00  0.00     0.094 A 
ATOM     10  C   UNL     1       9.191  14.279 -18.367  1.00  0.00     0.146 A 
ATOM     11  O   UNL     1       9.345  13.266 -17.520  1.00  0.00    -0.456 OA
ENDROOT
BRANCH   1  12
ATOM     12  C   UNL     1       9.284  10.948 -16.812  1.00  0.00     0.021 A 
ATOM     13  C   UNL     1      10.299   9.994 -17.001  1.00  0.00     0.016 A 
ATOM     14  C   UNL     1      10.522   8.997 -16.048  1.00  0.00     0.051 A 
ATOM     15  C   UNL     1       9.744   8.939 -14.889  1.00  0.00     0.157 A 
ATOM     16  C   UNL     1       8.511  10.895 -15.636  1.00  0.00     0.062 A 
ATOM     17  C   UNL     1       8.736   9.894 -14.679  1.00  0.00     0.158 A 
BRANCH  15  18
ATOM     18  O   UNL     1       9.989   7.931 -13.958  1.00  0.00    -0.504 OA
ATOM     19  H   UNL     1      10.908   7.520 -13.839  1.00  0.00     0.293 HD
ENDBRANCH  15  18
BRANCH  17  20
ATOM     20  O   UNL     1       7.965   9.849 -13.518  1.00  0.00    -0.504 OA
ATOM     21  H   UNL     1       8.386   9.902 -12.597  1.00  0.00     0.293 HD
ENDBRANCH  17  20
ENDBRANCH   1  12
BRANCH   6  22
ATOM     22  O   UNL     1       8.106  14.974 -21.863  1.00  0.00    -0.507 OA
ATOM     23  H   UNL     1       7.977  15.755 -22.496  1.00  0.00     0.293 HD
ENDBRANCH   6  22
BRANCH   8  24
ATOM     24  O   UNL     1       9.654  17.942 -18.365  1.00  0.00    -0.508 OA
ATOM     25  H   UNL     1       9.845  18.695 -19.016  1.00  0.00     0.293 HD
ENDBRANCH   8  24
TORSDOF 5
ENDMDL
MODEL 8
REMARK VINA RESULT:    -6.427      2.477      7.247
REMARK INTER + INTRA:          -7.825
REMARK INTER:                  -7.531
REMARK INTRA:                  -0.294
REMARK UNBOUND:                -0.271
REMARK SMILES O=c1cc(-c2ccc(O)c(O)c2)oc2cc(O)cc(O)c12
REMARK SMILES IDX 4 1 3 2 2 3 1 4 21 5 19 6 18 7 16 8 15 9 14 10 13 11 5 12
REMARK SMILES IDX 6 13 7 14 8 15 12 16 10 17 9 18 11 20 20 22 17 24
REMARK H PARENT 9 19 11 21 20 23 17 25
REMARK Flexibility Score: inf
ROOT
ATOM      1  C   UNL     1       8.890  13.322 -18.339  1.00  0.00     0.138 A 
ATOM      2  C   UNL     1       8.642  14.457 -17.548  1.00  0.00     0.100 A 
ATOM      3  C   UNL     1       8.392  15.683 -18.165  1.00  0.00     0.197 A 
ATOM      4  O   UNL     1       8.170  16.695 -17.446  1.00  0.00    -0.289 OA
ATOM      5  C   UNL     1       8.388  15.766 -19.572  1.00  0.00     0.107 A 
ATOM      6  C   UNL     1       8.146  16.969 -20.276  1.00  0.00     0.134 A 
ATOM      7  C   UNL     1       8.153  16.966 -21.679  1.00  0.00     0.093 A 
ATOM      8  C   UNL     1       8.399  15.784 -22.388  1.00  0.00     0.123 A 
ATOM      9  C   UNL     1       8.639  14.595 -21.697  1.00  0.00     0.094 A 
ATOM     10  C   UNL     1       8.636  14.577 -20.299  1.00  0.00     0.146 A 
ATOM     11  O   UNL     1       8.869  13.432 -19.666  1.00  0.00    -0.456 OA
ENDROOT
BRANCH   1  12
ATOM     12  C   UNL     1       9.161  11.992 -17.737  1.00  0.00     0.021 A 
ATOM     13  C   UNL     1      10.031  11.896 -16.638  1.00  0.00     0.016 A 
ATOM     14  C   UNL     1      10.297  10.657 -16.048  1.00  0.00     0.051 A 
ATOM     15  C   UNL     1       9.694   9.497 -16.539  1.00  0.00     0.157 A 
ATOM     16  C   UNL     1       8.544  10.821 -18.220  1.00  0.00     0.062 A 
ATOM     17  C   UNL     1       8.811   9.578 -17.627  1.00  0.00     0.158 A 
BRANCH  15  18
ATOM     18  O   UNL     1       9.981   8.276 -15.930  1.00  0.00    -0.504 OA
ATOM     19  H   UNL     1       9.943   7.399 -16.439  1.00  0.00     0.293 HD
ENDBRANCH  15  18
BRANCH  17  20
ATOM     20  O   UNL     1       8.196   8.424 -18.113  1.00  0.00    -0.504 OA
ATOM     21  H   UNL     1       7.830   7.713 -17.489  1.00  0.00     0.293 HD
ENDBRANCH  17  20
ENDBRANCH   1  12
BRANCH   6  22
ATOM     22  O   UNL     1       7.897  18.161 -19.595  1.00  0.00    -0.507 OA
ATOM     23  H   UNL     1       6.962  18.425 -19.306  1.00  0.00     0.293 HD
ENDBRANCH   6  22
BRANCH   8  24
ATOM     24  O   UNL     1       8.406  15.781 -23.782  1.00  0.00    -0.508 OA
ATOM     25  H   UNL     1       7.653  15.360 -24.314  1.00  0.00     0.293 HD
ENDBRANCH   8  24
TORSDOF 5
ENDMDL
MODEL 9
REMARK VINA RESULT:    -6.324      3.831      7.152
REMARK INTER + INTRA:          -7.704
REMARK INTER:                  -7.396
REMARK INTRA:                  -0.308
REMARK UNBOUND:                -0.271
REMARK SMILES O=c1cc(-c2ccc(O)c(O)c2)oc2cc(O)cc(O)c12
REMARK SMILES IDX 4 1 3 2 2 3 1 4 21 5 19 6 18 7 16 8 15 9 14 10 13 11 5 12
REMARK SMILES IDX 6 13 7 14 8 15 12 16 10 17 9 18 11 20 20 22 17 24
REMARK H PARENT 9 19 11 21 20 23 17 25
REMARK Flexibility Score: inf
ROOT
ATOM      1  C   UNL     1       7.831  11.281 -15.988  1.00  0.00     0.138 A 
ATOM      2  C   UNL     1       7.918  11.846 -14.705  1.00  0.00     0.100 A 
ATOM      3  C   UNL     1       7.616  11.067 -13.589  1.00  0.00     0.197 A 
ATOM      4  O   UNL     1       7.698  11.584 -12.441  1.00  0.00    -0.289 OA
ATOM      5  C   UNL     1       7.233   9.722 -13.763  1.00  0.00     0.107 A 
ATOM      6  C   UNL     1       6.909   8.863 -12.685  1.00  0.00     0.134 A 
ATOM      7  C   UNL     1       6.542   7.533 -12.943  1.00  0.00     0.093 A 
ATOM      8  C   UNL     1       6.492   7.049 -14.255  1.00  0.00     0.123 A 
ATOM      9  C   UNL     1       6.811   7.893 -15.321  1.00  0.00     0.094 A 
ATOM     10  C   UNL     1       7.179   9.221 -15.085  1.00  0.00     0.146 A 
ATOM     11  O   UNL     1       7.475  10.004 -16.118  1.00  0.00    -0.456 OA
ENDROOT
BRANCH   1  12
ATOM     12  C   UNL     1       8.141  12.063 -17.212  1.00  0.00     0.021 A 
ATOM     13  C   UNL     1       7.975  13.459 -17.199  1.00  0.00     0.016 A 
ATOM     14  C   UNL     1       8.267  14.219 -18.335  1.00  0.00     0.051 A 
ATOM     15  C   UNL     1       8.736  13.602 -19.497  1.00  0.00     0.157 A 
ATOM     16  C   UNL     1       8.627  11.447 -18.381  1.00  0.00     0.062 A 
ATOM     17  C   UNL     1       8.921  12.211 -19.521  1.00  0.00     0.158 A 
BRANCH  15  18
ATOM     18  O   UNL     1       9.016  14.388 -20.614  1.00  0.00    -0.504 OA
ATOM     19  H   UNL     1       8.425  15.165 -20.888  1.00  0.00     0.293 HD
ENDBRANCH  15  18
BRANCH  17  20
ATOM     20  O   UNL     1       9.400  11.591 -20.674  1.00  0.00    -0.504 OA
ATOM     21  H   UNL     1      10.250  11.037 -20.667  1.00  0.00     0.293 HD
ENDBRANCH  17  20
ENDBRANCH   1  12
BRANCH   6  22
ATOM     22  O   UNL     1       6.950   9.318 -11.367  1.00  0.00    -0.507 OA
ATOM     23  H   UNL     1       7.586  10.052 -11.077  1.00  0.00     0.293 HD
ENDBRANCH   6  22
BRANCH   8  24
ATOM     24  O   UNL     1       6.128   5.728 -14.512  1.00  0.00    -0.508 OA
ATOM     25  H   UNL     1       6.010   5.386 -15.458  1.00  0.00     0.293 HD
ENDBRANCH   8  24
TORSDOF 5
ENDMDL
