MODEL 1
REMARK VINA RESULT:    -4.378      0.000      0.000
REMARK INTER + INTRA:          -8.089
REMARK INTER:                  -6.937
REMARK INTRA:                  -1.152
REMARK UNBOUND:                -1.152
REMARK SMILES CCCCCCCCCCCC(=O)[O-]
REMARK SMILES IDX 7 1 8 2 9 3 10 4 11 5 12 6 13 7 14 8 6 9 5 10 4 11 3 12 2 13
REMARK SMILES IDX 1 14
REMARK H PARENT
REMARK Flexibility Score: inf
ROOT
ATOM      1  C   UNL     1     -12.982  -2.615 -23.103  1.00  0.00     0.000 C 
ENDROOT
BRANCH   1   2
ATOM      2  C   UNL     1     -12.655  -1.312 -22.352  1.00  0.00     0.000 C 
BRANCH   2   3
ATOM      3  C   UNL     1     -11.151  -1.000 -22.333  1.00  0.00     0.000 C 
BRANCH   3   4
ATOM      4  C   UNL     1     -10.718  -0.475 -20.958  1.00  0.00     0.006 C 
BRANCH   4   5
ATOM      5  C   UNL     1     -11.932  -0.228 -20.057  1.00  0.00     0.053 C 
BRANCH   5   6
ATOM      6  C   UNL     1     -11.554   0.636 -18.895  1.00  0.00     0.041 C 
ATOM      7  O   UNL     1     -11.675   1.887 -18.970  1.00  0.00    -0.550 OA
ATOM      8  O   UNL     1     -11.116   0.056 -17.711  1.00  0.00    -0.550 OA
ENDBRANCH   5   6
ENDBRANCH   4   5
ENDBRANCH   3   4
ENDBRANCH   2   3
ENDBRANCH   1   2
BRANCH   1   9
ATOM      9  C   UNL     1     -11.996  -2.900 -24.248  1.00  0.00     0.000 C 
BRANCH   9  10
ATOM     10  C   UNL     1     -12.663  -2.833 -25.632  1.00  0.00    -0.000 C 
BRANCH  10  11
ATOM     11  C   UNL     1     -11.909  -1.910 -26.606  1.00  0.00    -0.000 C 
BRANCH  11  12
ATOM     12  C   UNL     1     -11.765  -0.477 -26.067  1.00  0.00    -0.000 C 
BRANCH  12  13
ATOM     13  C   UNL     1     -13.110   0.257 -25.963  1.00  0.00    -0.003 C 
ATOM     14  C   UNL     1     -13.041   1.387 -24.940  1.00  0.00     0.004 C 
ENDBRANCH  12  13
ENDBRANCH  11  12
ENDBRANCH  10  11
ENDBRANCH   9  10
ENDBRANCH   1   9
TORSDOF 10
ENDMDL
MODEL 2
REMARK VINA RESULT:    -4.236      2.910      5.636
REMARK INTER + INTRA:          -7.865
REMARK INTER:                  -6.957
REMARK INTRA:                  -0.908
REMARK UNBOUND:                -1.152
REMARK SMILES CCCCCCCCCCCC(=O)[O-]
REMARK SMILES IDX 7 1 8 2 9 3 10 4 11 5 12 6 13 7 14 8 6 9 5 10 4 11 3 12 2 13
REMARK SMILES IDX 1 14
REMARK H PARENT
REMARK Flexibility Score: inf
ROOT
ATOM      1  C   UNL     1     -13.117  -2.626 -23.334  1.00  0.00     0.000 C 
ENDROOT
BRANCH   1   2
ATOM      2  C   UNL     1     -11.990  -2.892 -24.347  1.00  0.00     0.000 C 
BRANCH   2   3
ATOM      3  C   UNL     1     -12.508  -3.038 -25.786  1.00  0.00     0.000 C 
BRANCH   3   4
ATOM      4  C   UNL     1     -11.973  -1.911 -26.678  1.00  0.00     0.006 C 
BRANCH   4   5
ATOM      5  C   UNL     1     -11.066  -0.966 -25.884  1.00  0.00     0.053 C 
BRANCH   5   6
ATOM      6  C   UNL     1     -11.705   0.380 -25.747  1.00  0.00     0.041 C 
ATOM      7  O   UNL     1     -12.934   0.475 -25.493  1.00  0.00    -0.550 OA
ATOM      8  O   UNL     1     -10.932   1.530 -25.849  1.00  0.00    -0.550 OA
ENDBRANCH   5   6
ENDBRANCH   4   5
ENDBRANCH   3   4
ENDBRANCH   2   3
ENDBRANCH   1   2
BRANCH   1   9
ATOM      9  C   UNL     1     -12.821  -1.420 -22.426  1.00  0.00     0.000 C 
BRANCH   9  10
ATOM     10  C   UNL     1     -11.325  -1.286 -22.091  1.00  0.00    -0.000 C 
BRANCH  10  11
ATOM     11  C   UNL     1     -11.071  -0.355 -20.892  1.00  0.00    -0.000 C 
BRANCH  11  12
ATOM     12  C   UNL     1     -12.270   0.558 -20.590  1.00  0.00    -0.000 C 
BRANCH  12  13
ATOM     13  C   UNL     1     -12.391   0.905 -19.099  1.00  0.00    -0.003 C 
ATOM     14  C   UNL     1     -11.227   0.324 -18.303  1.00  0.00     0.004 C 
ENDBRANCH  12  13
ENDBRANCH  11  12
ENDBRANCH  10  11
ENDBRANCH   9  10
ENDBRANCH   1   9
TORSDOF 10
ENDMDL
MODEL 3
REMARK VINA RESULT:    -4.214     18.258     19.961
REMARK INTER + INTRA:          -7.831
REMARK INTER:                  -7.282
REMARK INTRA:                  -0.549
REMARK UNBOUND:                -1.152
REMARK SMILES CCCCCCCCCCCC(=O)[O-]
REMARK SMILES IDX 7 1 8 2 9 3 10 4 11 5 12 6 13 7 14 8 6 9 5 10 4 11 3 12 2 13
REMARK SMILES IDX 1 14
REMARK H PARENT
REMARK Flexibility Score: inf
ROOT
ATOM      1  C   UNL     1       6.208   6.736 -23.152  1.00  0.00     0.000 C 
ENDROOT
BRANCH   1   2
ATOM      2  C   UNL     1       6.917   7.543 -24.253  1.00  0.00     0.000 C 
BRANCH   2   3
ATOM      3  C   UNL     1       5.981   7.917 -25.412  1.00  0.00     0.000 C 
BRANCH   3   4
ATOM      4  C   UNL     1       6.541   7.422 -26.751  1.00  0.00     0.006 C 
BRANCH   4   5
ATOM      5  C   UNL     1       5.630   6.356 -27.366  1.00  0.00     0.053 C 
BRANCH   5   6
ATOM      6  C   UNL     1       5.600   5.133 -26.504  1.00  0.00     0.041 C 
ATOM      7  O   UNL     1       6.661   4.500 -26.264  1.00  0.00    -0.550 OA
ATOM      8  O   UNL     1       4.406   4.720 -25.925  1.00  0.00    -0.550 OA
ENDBRANCH   5   6
ENDBRANCH   4   5
ENDBRANCH   3   4
ENDBRANCH   2   3
ENDBRANCH   1   2
BRANCH   1   9
ATOM      9  C   UNL     1       7.118   5.668 -22.523  1.00  0.00     0.000 C 
BRANCH   9  10
ATOM     10  C   UNL     1       6.440   4.926 -21.358  1.00  0.00    -0.000 C 
BRANCH  10  11
ATOM     11  C   UNL     1       5.362   5.777 -20.665  1.00  0.00    -0.000 C 
BRANCH  11  12
ATOM     12  C   UNL     1       5.289   5.518 -19.151  1.00  0.00    -0.000 C 
BRANCH  12  13
ATOM     13  C   UNL     1       3.860   5.233 -18.665  1.00  0.00    -0.003 C 
ATOM     14  C   UNL     1       3.761   5.359 -17.147  1.00  0.00     0.004 C 
ENDBRANCH  12  13
ENDBRANCH  11  12
ENDBRANCH  10  11
ENDBRANCH   9  10
ENDBRANCH   1   9
TORSDOF 10
ENDMDL
MODEL 4
REMARK VINA RESULT:    -4.206      2.947      5.414
REMARK INTER + INTRA:          -7.817
REMARK INTER:                  -6.683
REMARK INTRA:                  -1.135
REMARK UNBOUND:                -1.152
REMARK SMILES CCCCCCCCCCCC(=O)[O-]
REMARK SMILES IDX 7 1 8 2 9 3 10 4 11 5 12 6 13 7 14 8 6 9 5 10 4 11 3 12 2 13
REMARK SMILES IDX 1 14
REMARK H PARENT
REMARK Flexibility Score: inf
ROOT
ATOM      1  C   UNL     1     -13.110  -2.329 -23.877  1.00  0.00     0.000 C 
ENDROOT
BRANCH   1   2
ATOM      2  C   UNL     1     -11.994  -2.936 -24.743  1.00  0.00     0.000 C 
BRANCH   2   3
ATOM      3  C   UNL     1     -12.332  -2.924 -26.242  1.00  0.00     0.000 C 
BRANCH   3   4
ATOM      4  C   UNL     1     -11.907  -1.600 -26.889  1.00  0.00     0.006 C 
BRANCH   4   5
ATOM      5  C   UNL     1     -10.603  -1.082 -26.275  1.00  0.00     0.053 C 
BRANCH   5   6
ATOM      6  C   UNL     1     -10.750   0.350 -25.866  1.00  0.00     0.041 C 
ATOM      7  O   UNL     1      -9.855   1.187 -26.156  1.00  0.00    -0.550 OA
ATOM      8  O   UNL     1     -11.899   0.771 -25.208  1.00  0.00    -0.550 OA
ENDBRANCH   5   6
ENDBRANCH   4   5
ENDBRANCH   3   4
ENDBRANCH   2   3
ENDBRANCH   1   2
BRANCH   1   9
ATOM      9  C   UNL     1     -12.704  -2.193 -22.400  1.00  0.00     0.000 C 
BRANCH   9  10
ATOM     10  C   UNL     1     -12.524  -0.727 -21.969  1.00  0.00    -0.000 C 
BRANCH  10  11
ATOM     11  C   UNL     1     -11.766  -0.593 -20.637  1.00  0.00    -0.000 C 
BRANCH  11  12
ATOM     12  C   UNL     1     -10.257  -0.372 -20.837  1.00  0.00    -0.000 C 
BRANCH  12  13
ATOM     13  C   UNL     1      -9.911   0.118 -22.251  1.00  0.00    -0.003 C 
ATOM     14  C   UNL     1      -8.899  -0.807 -22.920  1.00  0.00     0.004 C 
ENDBRANCH  12  13
ENDBRANCH  11  12
ENDBRANCH  10  11
ENDBRANCH   9  10
ENDBRANCH   1   9
TORSDOF 10
ENDMDL
MODEL 5
REMARK VINA RESULT:    -4.202      1.305      2.181
REMARK INTER + INTRA:          -7.812
REMARK INTER:                  -6.663
REMARK INTRA:                  -1.149
REMARK UNBOUND:                -1.152
REMARK SMILES CCCCCCCCCCCC(=O)[O-]
REMARK SMILES IDX 7 1 8 2 9 3 10 4 11 5 12 6 13 7 14 8 6 9 5 10 4 11 3 12 2 13
REMARK SMILES IDX 1 14
REMARK H PARENT
REMARK Flexibility Score: inf
ROOT
ATOM      1  C   UNL     1     -12.231  -3.267 -24.396  1.00  0.00     0.000 C 
ENDROOT
BRANCH   1   2
ATOM      2  C   UNL     1     -12.841  -2.263 -23.404  1.00  0.00     0.000 C 
BRANCH   2   3
ATOM      3  C   UNL     1     -11.972  -2.060 -22.153  1.00  0.00     0.000 C 
BRANCH   3   4
ATOM      4  C   UNL     1     -12.383  -0.789 -21.400  1.00  0.00     0.006 C 
BRANCH   4   5
ATOM      5  C   UNL     1     -11.212  -0.228 -20.588  1.00  0.00     0.053 C 
BRANCH   5   6
ATOM      6  C   UNL     1     -11.705   0.402 -19.324  1.00  0.00     0.041 C 
ATOM      7  O   UNL     1     -11.156   0.129 -18.224  1.00  0.00    -0.550 OA
ATOM      8  O   UNL     1     -12.738   1.330 -19.367  1.00  0.00    -0.550 OA
ENDBRANCH   5   6
ENDBRANCH   4   5
ENDBRANCH   3   4
ENDBRANCH   2   3
ENDBRANCH   1   2
BRANCH   1   9
ATOM      9  C   UNL     1     -12.497  -2.885 -25.862  1.00  0.00     0.000 C 
BRANCH   9  10
ATOM     10  C   UNL     1     -12.206  -1.402 -26.148  1.00  0.00    -0.000 C 
BRANCH  10  11
ATOM     11  C   UNL     1     -11.000  -1.207 -27.083  1.00  0.00    -0.000 C 
BRANCH  11  12
ATOM     12  C   UNL     1      -9.723  -0.811 -26.324  1.00  0.00    -0.000 C 
BRANCH  12  13
ATOM     13  C   UNL     1     -10.008  -0.319 -24.898  1.00  0.00    -0.003 C 
ATOM     14  C   UNL     1      -8.933  -0.797 -23.926  1.00  0.00     0.004 C 
ENDBRANCH  12  13
ENDBRANCH  11  12
ENDBRANCH  10  11
ENDBRANCH   9  10
ENDBRANCH   1   9
TORSDOF 10
ENDMDL
MODEL 6
REMARK VINA RESULT:    -4.184      2.426      5.152
REMARK INTER + INTRA:          -7.783
REMARK INTER:                  -6.937
REMARK INTRA:                  -0.846
REMARK UNBOUND:                -1.152
REMARK SMILES CCCCCCCCCCCC(=O)[O-]
REMARK SMILES IDX 7 1 8 2 9 3 10 4 11 5 12 6 13 7 14 8 6 9 5 10 4 11 3 12 2 13
REMARK SMILES IDX 1 14
REMARK H PARENT
REMARK Flexibility Score: inf
ROOT
ATOM      1  C   UNL     1     -12.001  -2.942 -24.903  1.00  0.00     0.000 C 
ENDROOT
BRANCH   1   2
ATOM      2  C   UNL     1     -12.426  -2.736 -26.367  1.00  0.00     0.000 C 
BRANCH   2   3
ATOM      3  C   UNL     1     -11.785  -1.492 -27.002  1.00  0.00     0.000 C 
BRANCH   3   4
ATOM      4  C   UNL     1     -10.445  -1.163 -26.331  1.00  0.00     0.006 C 
BRANCH   4   5
ATOM      5  C   UNL     1     -10.322   0.339 -26.060  1.00  0.00     0.053 C 
BRANCH   5   6
ATOM      6  C   UNL     1     -10.835   0.668 -24.693  1.00  0.00     0.041 C 
ATOM      7  O   UNL     1     -12.017   1.072 -24.540  1.00  0.00    -0.550 OA
ATOM      8  O   UNL     1     -10.022   0.480 -23.582  1.00  0.00    -0.550 OA
ENDBRANCH   5   6
ENDBRANCH   4   5
ENDBRANCH   3   4
ENDBRANCH   2   3
ENDBRANCH   1   2
BRANCH   1   9
ATOM      9  C   UNL     1     -12.969  -2.280 -23.908  1.00  0.00     0.000 C 
BRANCH   9  10
ATOM     10  C   UNL     1     -12.442  -2.308 -22.463  1.00  0.00    -0.000 C 
BRANCH  10  11
ATOM     11  C   UNL     1     -12.636  -0.965 -21.739  1.00  0.00    -0.000 C 
BRANCH  11  12
ATOM     12  C   UNL     1     -11.638  -0.767 -20.586  1.00  0.00    -0.000 C 
BRANCH  12  13
ATOM     13  C   UNL     1     -12.078   0.325 -19.600  1.00  0.00    -0.003 C 
ATOM     14  C   UNL     1     -11.195   0.331 -18.356  1.00  0.00     0.004 C 
ENDBRANCH  12  13
ENDBRANCH  11  12
ENDBRANCH  10  11
ENDBRANCH   9  10
ENDBRANCH   1   9
TORSDOF 10
ENDMDL
MODEL 7
REMARK VINA RESULT:    -4.158      3.133      5.181
REMARK INTER + INTRA:          -7.741
REMARK INTER:                  -6.555
REMARK INTRA:                  -1.186
REMARK UNBOUND:                -1.152
REMARK SMILES CCCCCCCCCCCC(=O)[O-]
REMARK SMILES IDX 7 1 8 2 9 3 10 4 11 5 12 6 13 7 14 8 6 9 5 10 4 11 3 12 2 13
REMARK SMILES IDX 1 14
REMARK H PARENT
REMARK Flexibility Score: inf
ROOT
ATOM      1  C   UNL     1     -12.185  -1.871 -26.700  1.00  0.00     0.000 C 
ENDROOT
BRANCH   1   2
ATOM      2  C   UNL     1     -10.941  -1.127 -26.187  1.00  0.00     0.000 C 
BRANCH   2   3
ATOM      3  C   UNL     1     -11.283   0.213 -25.518  1.00  0.00     0.000 C 
BRANCH   3   4
ATOM      4  C   UNL     1     -12.737   0.612 -25.802  1.00  0.00     0.006 C 
BRANCH   4   5
ATOM      5  C   UNL     1     -13.125   1.868 -25.017  1.00  0.00     0.053 C 
BRANCH   5   6
ATOM      6  C   UNL     1     -12.764   3.099 -25.787  1.00  0.00     0.041 C 
ATOM      7  O   UNL     1     -12.719   3.069 -27.045  1.00  0.00    -0.550 OA
ATOM      8  O   UNL     1     -12.528   4.293 -25.118  1.00  0.00    -0.550 OA
ENDBRANCH   5   6
ENDBRANCH   4   5
ENDBRANCH   3   4
ENDBRANCH   2   3
ENDBRANCH   1   2
BRANCH   1   9
ATOM      9  C   UNL     1     -12.563  -3.070 -25.815  1.00  0.00     0.000 C 
BRANCH   9  10
ATOM     10  C   UNL     1     -12.019  -2.942 -24.382  1.00  0.00    -0.000 C 
BRANCH  10  11
ATOM     11  C   UNL     1     -13.116  -2.583 -23.364  1.00  0.00    -0.000 C 
BRANCH  11  12
ATOM     12  C   UNL     1     -12.793  -1.302 -22.577  1.00  0.00    -0.000 C 
BRANCH  12  13
ATOM     13  C   UNL     1     -11.667  -1.503 -21.552  1.00  0.00    -0.003 C 
ATOM     14  C   UNL     1     -10.523  -0.523 -21.795  1.00  0.00     0.004 C 
ENDBRANCH  12  13
ENDBRANCH  11  12
ENDBRANCH  10  11
ENDBRANCH   9  10
ENDBRANCH   1   9
TORSDOF 10
ENDMDL
MODEL 8
REMARK VINA RESULT:    -4.117      1.044      1.902
REMARK INTER + INTRA:          -7.677
REMARK INTER:                  -6.400
REMARK INTRA:                  -1.276
REMARK UNBOUND:                -1.152
REMARK SMILES CCCCCCCCCCCC(=O)[O-]
REMARK SMILES IDX 7 1 8 2 9 3 10 4 11 5 12 6 13 7 14 8 6 9 5 10 4 11 3 12 2 13
REMARK SMILES IDX 1 14
REMARK H PARENT
REMARK Flexibility Score: inf
ROOT
ATOM      1  C   UNL     1     -12.008  -2.938 -24.378  1.00  0.00     0.000 C 
ENDROOT
BRANCH   1   2
ATOM      2  C   UNL     1     -12.933  -2.377 -23.285  1.00  0.00     0.000 C 
BRANCH   2   3
ATOM      3  C   UNL     1     -12.159  -1.811 -22.084  1.00  0.00     0.000 C 
BRANCH   3   4
ATOM      4  C   UNL     1     -10.866  -1.124 -22.540  1.00  0.00     0.006 C 
BRANCH   4   5
ATOM      5  C   UNL     1     -10.162  -0.443 -21.363  1.00  0.00     0.053 C 
BRANCH   5   6
ATOM      6  C   UNL     1     -11.091   0.506 -20.674  1.00  0.00     0.041 C 
ATOM      7  O   UNL     1     -11.359   0.356 -19.453  1.00  0.00    -0.550 OA
ATOM      8  O   UNL     1     -11.624   1.585 -21.369  1.00  0.00    -0.550 OA
ENDBRANCH   5   6
ENDBRANCH   4   5
ENDBRANCH   3   4
ENDBRANCH   2   3
ENDBRANCH   1   2
BRANCH   1   9
ATOM      9  C   UNL     1     -12.709  -3.057 -25.741  1.00  0.00     0.000 C 
BRANCH   9  10
ATOM     10  C   UNL     1     -12.127  -2.095 -26.791  1.00  0.00    -0.000 C 
BRANCH  10  11
ATOM     11  C   UNL     1     -11.695  -0.750 -26.183  1.00  0.00    -0.000 C 
BRANCH  11  12
ATOM     12  C   UNL     1     -12.860   0.248 -26.071  1.00  0.00    -0.000 C 
BRANCH  12  13
ATOM     13  C   UNL     1     -12.615   1.330 -25.010  1.00  0.00    -0.003 C 
ATOM     14  C   UNL     1     -11.130   1.664 -24.898  1.00  0.00     0.004 C 
ENDBRANCH  12  13
ENDBRANCH  11  12
ENDBRANCH  10  11
ENDBRANCH   9  10
ENDBRANCH   1   9
TORSDOF 10
ENDMDL
MODEL 9
REMARK VINA RESULT:    -4.073     11.565     13.329
REMARK INTER + INTRA:          -7.607
REMARK INTER:                  -5.918
REMARK INTRA:                  -1.689
REMARK UNBOUND:                -1.152
REMARK SMILES CCCCCCCCCCCC(=O)[O-]
REMARK SMILES IDX 7 1 8 2 9 3 10 4 11 5 12 6 13 7 14 8 6 9 5 10 4 11 3 12 2 13
REMARK SMILES IDX 1 14
REMARK H PARENT
REMARK Flexibility Score: inf
ROOT
ATOM      1  C   UNL     1     -13.018   2.433  -9.168  1.00  0.00     0.000 C 
ENDROOT
BRANCH   1   2
ATOM      2  C   UNL     1     -13.125   3.937  -9.471  1.00  0.00     0.000 C 
BRANCH   2   3
ATOM      3  C   UNL     1     -11.940   4.742  -8.915  1.00  0.00     0.000 C 
BRANCH   3   4
ATOM      4  C   UNL     1     -10.986   3.837  -8.124  1.00  0.00     0.006 C 
BRANCH   4   5
ATOM      5  C   UNL     1      -9.603   3.792  -8.779  1.00  0.00     0.053 C 
BRANCH   5   6
ATOM      6  C   UNL     1      -9.262   2.393  -9.186  1.00  0.00     0.041 C 
ATOM      7  O   UNL     1      -9.720   1.416  -8.539  1.00  0.00    -0.550 OA
ATOM      8  O   UNL     1      -8.478   2.168 -10.310  1.00  0.00    -0.550 OA
ENDBRANCH   5   6
ENDBRANCH   4   5
ENDBRANCH   3   4
ENDBRANCH   2   3
ENDBRANCH   1   2
BRANCH   1   9
ATOM      9  C   UNL     1     -12.771   1.592 -10.431  1.00  0.00     0.000 C 
BRANCH   9  10
ATOM     10  C   UNL     1     -12.773   2.439 -11.715  1.00  0.00    -0.000 C 
BRANCH  10  11
ATOM     11  C   UNL     1     -11.378   2.542 -12.356  1.00  0.00    -0.000 C 
BRANCH  11  12
ATOM     12  C   UNL     1     -10.834   3.980 -12.358  1.00  0.00    -0.000 C 
BRANCH  12  13
ATOM     13  C   UNL     1     -11.834   4.992 -12.937  1.00  0.00    -0.003 C 
ATOM     14  C   UNL     1     -11.726   6.338 -12.227  1.00  0.00     0.004 C 
ENDBRANCH  12  13
ENDBRANCH  11  12
ENDBRANCH  10  11
ENDBRANCH   9  10
ENDBRANCH   1   9
TORSDOF 10
ENDMDL
