MODEL 1
REMARK VINA RESULT:    -2.716      0.000      0.000
REMARK INTER + INTRA:         -11.022
REMARK INTER:                  -7.161
REMARK INTRA:                  -3.860
REMARK UNBOUND:                -3.860
REMARK SMILES CCCCCCCCCCCCCCCCCCCCCCCCCCCCCC(=O)[O-]
REMARK SMILES IDX 16 1 17 2 18 3 19 4 20 5 21 6 22 7 23 8 24 9 25 10 26 11
REMARK SMILES IDX 27 12 28 13 29 14 30 15 31 16 32 17 15 18 14 19 13 20 12 21
REMARK SMILES IDX 11 22 10 23 9 24 8 25 7 26 6 27 5 28 4 29 3 30 2 31 1 32
REMARK H PARENT
REMARK Flexibility Score: inf
ROOT
ATOM      1  C   UNL     1      26.396  27.511  19.155  1.00  0.00     0.000 C 
ENDROOT
BRANCH   1   2
ATOM      2  C   UNL     1      25.775  28.837  19.623  1.00  0.00     0.000 C 
BRANCH   2   3
ATOM      3  C   UNL     1      25.033  28.720  20.968  1.00  0.00     0.000 C 
BRANCH   3   4
ATOM      4  C   UNL     1      23.530  29.064  20.936  1.00  0.00     0.000 C 
BRANCH   4   5
ATOM      5  C   UNL     1      22.898  29.140  19.533  1.00  0.00     0.000 C 
BRANCH   5   6
ATOM      6  C   UNL     1      22.152  27.851  19.145  1.00  0.00     0.000 C 
BRANCH   6   7
ATOM      7  C   UNL     1      21.863  26.942  20.353  1.00  0.00     0.000 C 
BRANCH   7   8
ATOM      8  C   UNL     1      21.887  25.444  19.997  1.00  0.00     0.000 C 
BRANCH   8   9
ATOM      9  C   UNL     1      20.901  25.086  18.869  1.00  0.00     0.000 C 
BRANCH   9  10
ATOM     10  C   UNL     1      21.445  24.115  17.801  1.00  0.00     0.000 C 
BRANCH  10  11
ATOM     11  C   UNL     1      21.492  22.635  18.223  1.00  0.00     0.000 C 
BRANCH  11  12
ATOM     12  C   UNL     1      21.331  21.672  17.037  1.00  0.00     0.000 C 
BRANCH  12  13
ATOM     13  C   UNL     1      22.208  22.102  15.853  1.00  0.00     0.006 C 
BRANCH  13  14
ATOM     14  C   UNL     1      21.360  22.353  14.602  1.00  0.00     0.053 C 
BRANCH  14  15
ATOM     15  C   UNL     1      22.198  22.889  13.481  1.00  0.00     0.041 C 
ATOM     16  O   UNL     1      21.667  23.554  12.553  1.00  0.00    -0.550 OA
ATOM     17  O   UNL     1      23.572  22.673  13.474  1.00  0.00    -0.550 OA
ENDBRANCH  14  15
ENDBRANCH  13  14
ENDBRANCH  12  13
ENDBRANCH  11  12
ENDBRANCH  10  11
ENDBRANCH   9  10
ENDBRANCH   8   9
ENDBRANCH   7   8
ENDBRANCH   6   7
ENDBRANCH   5   6
ENDBRANCH   4   5
ENDBRANCH   3   4
ENDBRANCH   2   3
ENDBRANCH   1   2
BRANCH   1  18
ATOM     18  C   UNL     1      25.659  26.277  19.708  1.00  0.00     0.000 C 
BRANCH  18  19
ATOM     19  C   UNL     1      24.926  25.446  18.633  1.00  0.00     0.000 C 
BRANCH  19  20
ATOM     20  C   UNL     1      25.721  25.324  17.319  1.00  0.00     0.000 C 
BRANCH  20  21
ATOM     21  C   UNL     1      25.147  24.258  16.365  1.00  0.00     0.000 C 
BRANCH  21  22
ATOM     22  C   UNL     1      26.046  23.028  16.141  1.00  0.00     0.000 C 
BRANCH  22  23
ATOM     23  C   UNL     1      25.395  21.713  16.608  1.00  0.00     0.000 C 
BRANCH  23  24
ATOM     24  C   UNL     1      25.459  21.531  18.134  1.00  0.00    -0.000 C 
BRANCH  24  25
ATOM     25  C   UNL     1      26.869  21.174  18.634  1.00  0.00    -0.000 C 
BRANCH  25  26
ATOM     26  C   UNL     1      27.329  19.780  18.168  1.00  0.00    -0.000 C 
BRANCH  26  27
ATOM     27  C   UNL     1      28.727  19.735  17.518  1.00  0.00    -0.000 C 
BRANCH  27  28
ATOM     28  C   UNL     1      28.815  20.368  16.115  1.00  0.00    -0.000 C 
BRANCH  28  29
ATOM     29  C   UNL     1      30.114  20.054  15.344  1.00  0.00    -0.000 C 
BRANCH  29  30
ATOM     30  C   UNL     1      30.371  18.557  15.074  1.00  0.00    -0.000 C 
BRANCH  30  31
ATOM     31  C   UNL     1      29.145  17.767  14.578  1.00  0.00    -0.003 C 
ATOM     32  C   UNL     1      28.600  16.792  15.621  1.00  0.00     0.004 C 
ENDBRANCH  30  31
ENDBRANCH  29  30
ENDBRANCH  28  29
ENDBRANCH  27  28
ENDBRANCH  26  27
ENDBRANCH  25  26
ENDBRANCH  24  25
ENDBRANCH  23  24
ENDBRANCH  22  23
ENDBRANCH  21  22
ENDBRANCH  20  21
ENDBRANCH  19  20
ENDBRANCH  18  19
ENDBRANCH   1  18
TORSDOF 28
ENDMDL
MODEL 2
REMARK VINA RESULT:    -2.325      2.511      7.357
REMARK INTER + INTRA:          -9.990
REMARK INTER:                  -7.207
REMARK INTRA:                  -2.783
REMARK UNBOUND:                -3.860
REMARK SMILES CCCCCCCCCCCCCCCCCCCCCCCCCCCCCC(=O)[O-]
REMARK SMILES IDX 16 1 17 2 18 3 19 4 20 5 21 6 22 7 23 8 24 9 25 10 26 11
REMARK SMILES IDX 27 12 28 13 29 14 30 15 31 16 32 17 15 18 14 19 13 20 12 21
REMARK SMILES IDX 11 22 10 23 9 24 8 25 7 26 6 27 5 28 4 29 3 30 2 31 1 32
REMARK H PARENT
REMARK Flexibility Score: inf
ROOT
ATOM      1  C   UNL     1      21.937  23.108  15.533  1.00  0.00     0.000 C 
ENDROOT
BRANCH   1   2
ATOM      2  C   UNL     1      21.135  21.813  15.749  1.00  0.00     0.000 C 
BRANCH   2   3
ATOM      3  C   UNL     1      21.636  20.980  16.944  1.00  0.00     0.000 C 
BRANCH   3   4
ATOM      4  C   UNL     1      23.168  20.843  17.069  1.00  0.00     0.000 C 
BRANCH   4   5
ATOM      5  C   UNL     1      23.709  20.757  18.508  1.00  0.00     0.000 C 
BRANCH   5   6
ATOM      6  C   UNL     1      24.324  22.082  18.993  1.00  0.00     0.000 C 
BRANCH   6   7
ATOM      7  C   UNL     1      25.826  21.963  19.306  1.00  0.00     0.000 C 
BRANCH   7   8
ATOM      8  C   UNL     1      26.554  20.965  18.387  1.00  0.00     0.000 C 
BRANCH   8   9
ATOM      9  C   UNL     1      27.321  21.658  17.244  1.00  0.00     0.000 C 
BRANCH   9  10
ATOM     10  C   UNL     1      27.981  20.709  16.223  1.00  0.00     0.000 C 
BRANCH  10  11
ATOM     11  C   UNL     1      29.519  20.651  16.282  1.00  0.00     0.000 C 
BRANCH  11  12
ATOM     12  C   UNL     1      30.060  19.213  16.311  1.00  0.00     0.000 C 
BRANCH  12  13
ATOM     13  C   UNL     1      29.137  18.293  17.120  1.00  0.00     0.006 C 
BRANCH  13  14
ATOM     14  C   UNL     1      28.964  16.937  16.426  1.00  0.00     0.053 C 
BRANCH  14  15
ATOM     15  C   UNL     1      28.798  17.106  14.947  1.00  0.00     0.041 C 
ATOM     16  O   UNL     1      28.066  16.314  14.296  1.00  0.00    -0.550 OA
ATOM     17  O   UNL     1      29.433  18.154  14.289  1.00  0.00    -0.550 OA
ENDBRANCH  14  15
ENDBRANCH  13  14
ENDBRANCH  12  13
ENDBRANCH  11  12
ENDBRANCH  10  11
ENDBRANCH   9  10
ENDBRANCH   8   9
ENDBRANCH   7   8
ENDBRANCH   6   7
ENDBRANCH   5   6
ENDBRANCH   4   5
ENDBRANCH   3   4
ENDBRANCH   2   3
ENDBRANCH   1   2
BRANCH   1  18
ATOM     18  C   UNL     1      21.206  24.358  16.056  1.00  0.00     0.000 C 
BRANCH  18  19
ATOM     19  C   UNL     1      21.652  24.807  17.465  1.00  0.00     0.000 C 
BRANCH  19  20
ATOM     20  C   UNL     1      21.230  26.251  17.799  1.00  0.00     0.000 C 
BRANCH  20  21
ATOM     21  C   UNL     1      21.459  26.617  19.278  1.00  0.00     0.000 C 
BRANCH  21  22
ATOM     22  C   UNL     1      21.937  28.059  19.529  1.00  0.00     0.000 C 
BRANCH  22  23
ATOM     23  C   UNL     1      23.443  28.149  19.836  1.00  0.00     0.000 C 
BRANCH  23  24
ATOM     24  C   UNL     1      23.954  26.949  20.651  1.00  0.00    -0.000 C 
BRANCH  24  25
ATOM     25  C   UNL     1      25.345  26.470  20.200  1.00  0.00    -0.000 C 
BRANCH  25  26
ATOM     26  C   UNL     1      25.516  26.499  18.670  1.00  0.00    -0.000 C 
BRANCH  26  27
ATOM     27  C   UNL     1      25.038  25.232  17.932  1.00  0.00    -0.000 C 
BRANCH  27  28
ATOM     28  C   UNL     1      25.890  24.826  16.712  1.00  0.00    -0.000 C 
BRANCH  28  29
ATOM     29  C   UNL     1      25.282  23.708  15.842  1.00  0.00    -0.000 C 
BRANCH  29  30
ATOM     30  C   UNL     1      25.569  23.824  14.330  1.00  0.00    -0.000 C 
BRANCH  30  31
ATOM     31  C   UNL     1      25.770  22.481  13.603  1.00  0.00    -0.003 C 
ATOM     32  C   UNL     1      24.542  22.044  12.804  1.00  0.00     0.004 C 
ENDBRANCH  30  31
ENDBRANCH  29  30
ENDBRANCH  28  29
ENDBRANCH  27  28
ENDBRANCH  26  27
ENDBRANCH  25  26
ENDBRANCH  24  25
ENDBRANCH  23  24
ENDBRANCH  22  23
ENDBRANCH  21  22
ENDBRANCH  20  21
ENDBRANCH  19  20
ENDBRANCH  18  19
ENDBRANCH   1  18
TORSDOF 28
ENDMDL
MODEL 3
REMARK VINA RESULT:    -2.022      1.376      2.014
REMARK INTER + INTRA:          -9.191
REMARK INTER:                  -5.595
REMARK INTRA:                  -3.596
REMARK UNBOUND:                -3.860
REMARK SMILES CCCCCCCCCCCCCCCCCCCCCCCCCCCCCC(=O)[O-]
REMARK SMILES IDX 16 1 17 2 18 3 19 4 20 5 21 6 22 7 23 8 24 9 25 10 26 11
REMARK SMILES IDX 27 12 28 13 29 14 30 15 31 16 32 17 15 18 14 19 13 20 12 21
REMARK SMILES IDX 11 22 10 23 9 24 8 25 7 26 6 27 5 28 4 29 3 30 2 31 1 32
REMARK H PARENT
REMARK Flexibility Score: inf
ROOT
ATOM      1  C   UNL     1      24.943  28.625  19.485  1.00  0.00     0.000 C 
ENDROOT
BRANCH   1   2
ATOM      2  C   UNL     1      24.291  29.692  20.380  1.00  0.00     0.000 C 
BRANCH   2   3
ATOM      3  C   UNL     1      22.771  29.820  20.163  1.00  0.00     0.000 C 
BRANCH   3   4
ATOM      4  C   UNL     1      21.905  28.733  20.834  1.00  0.00     0.000 C 
BRANCH   4   5
ATOM      5  C   UNL     1      20.875  28.048  19.917  1.00  0.00     0.000 C 
BRANCH   5   6
ATOM      6  C   UNL     1      21.462  27.657  18.550  1.00  0.00     0.000 C 
BRANCH   6   7
ATOM      7  C   UNL     1      21.504  26.134  18.332  1.00  0.00     0.000 C 
BRANCH   7   8
ATOM      8  C   UNL     1      22.034  25.366  19.557  1.00  0.00     0.000 C 
BRANCH   8   9
ATOM      9  C   UNL     1      22.074  23.843  19.332  1.00  0.00     0.000 C 
BRANCH   9  10
ATOM     10  C   UNL     1      20.877  23.260  18.552  1.00  0.00     0.000 C 
BRANCH  10  11
ATOM     11  C   UNL     1      21.242  22.512  17.256  1.00  0.00     0.000 C 
BRANCH  11  12
ATOM     12  C   UNL     1      22.141  23.338  16.324  1.00  0.00     0.000 C 
BRANCH  12  13
ATOM     13  C   UNL     1      22.976  22.429  15.413  1.00  0.00     0.006 C 
BRANCH  13  14
ATOM     14  C   UNL     1      23.546  23.212  14.225  1.00  0.00     0.053 C 
BRANCH  14  15
ATOM     15  C   UNL     1      24.903  22.703  13.845  1.00  0.00     0.041 C 
ATOM     16  O   UNL     1      25.016  21.694  13.098  1.00  0.00    -0.550 OA
ATOM     17  O   UNL     1      26.044  23.357  14.296  1.00  0.00    -0.550 OA
ENDBRANCH  14  15
ENDBRANCH  13  14
ENDBRANCH  12  13
ENDBRANCH  11  12
ENDBRANCH  10  11
ENDBRANCH   9  10
ENDBRANCH   8   9
ENDBRANCH   7   8
ENDBRANCH   6   7
ENDBRANCH   5   6
ENDBRANCH   4   5
ENDBRANCH   3   4
ENDBRANCH   2   3
ENDBRANCH   1   2
BRANCH   1  18
ATOM     18  C   UNL     1      24.724  27.192  20.007  1.00  0.00     0.000 C 
BRANCH  18  19
ATOM     19  C   UNL     1      25.815  26.189  19.574  1.00  0.00     0.000 C 
BRANCH  19  20
ATOM     20  C   UNL     1      26.232  26.351  18.099  1.00  0.00     0.000 C 
BRANCH  20  21
ATOM     21  C   UNL     1      26.165  25.031  17.307  1.00  0.00     0.000 C 
BRANCH  21  22
ATOM     22  C   UNL     1      25.121  24.017  17.811  1.00  0.00     0.000 C 
BRANCH  22  23
ATOM     23  C   UNL     1      25.653  23.115  18.939  1.00  0.00     0.000 C 
BRANCH  23  24
ATOM     24  C   UNL     1      25.493  21.618  18.624  1.00  0.00    -0.000 C 
BRANCH  24  25
ATOM     25  C   UNL     1      25.941  21.258  17.196  1.00  0.00    -0.000 C 
BRANCH  25  26
ATOM     26  C   UNL     1      27.472  21.273  17.033  1.00  0.00    -0.000 C 
BRANCH  26  27
ATOM     27  C   UNL     1      28.242  20.340  17.989  1.00  0.00    -0.000 C 
BRANCH  27  28
ATOM     28  C   UNL     1      28.028  18.832  17.742  1.00  0.00    -0.000 C 
BRANCH  28  29
ATOM     29  C   UNL     1      29.194  18.122  17.026  1.00  0.00    -0.000 C 
BRANCH  29  30
ATOM     30  C   UNL     1      28.838  17.483  15.667  1.00  0.00    -0.000 C 
BRANCH  30  31
ATOM     31  C   UNL     1      29.477  18.164  14.442  1.00  0.00    -0.003 C 
ATOM     32  C   UNL     1      30.019  19.560  14.750  1.00  0.00     0.004 C 
ENDBRANCH  30  31
ENDBRANCH  29  30
ENDBRANCH  28  29
ENDBRANCH  27  28
ENDBRANCH  26  27
ENDBRANCH  25  26
ENDBRANCH  24  25
ENDBRANCH  23  24
ENDBRANCH  22  23
ENDBRANCH  21  22
ENDBRANCH  20  21
ENDBRANCH  19  20
ENDBRANCH  18  19
ENDBRANCH   1  18
TORSDOF 28
ENDMDL
MODEL 4
REMARK VINA RESULT:    -1.851      2.065      8.714
REMARK INTER + INTRA:          -8.741
REMARK INTER:                  -5.014
REMARK INTRA:                  -3.727
REMARK UNBOUND:                -3.860
REMARK SMILES CCCCCCCCCCCCCCCCCCCCCCCCCCCCCC(=O)[O-]
REMARK SMILES IDX 16 1 17 2 18 3 19 4 20 5 21 6 22 7 23 8 24 9 25 10 26 11
REMARK SMILES IDX 27 12 28 13 29 14 30 15 31 16 32 17 15 18 14 19 13 20 12 21
REMARK SMILES IDX 11 22 10 23 9 24 8 25 7 26 6 27 5 28 4 29 3 30 2 31 1 32
REMARK H PARENT
REMARK Flexibility Score: inf
ROOT
ATOM      1  C   UNL     1      27.404  20.753  17.784  1.00  0.00     0.000 C 
ENDROOT
BRANCH   1   2
ATOM      2  C   UNL     1      27.762  19.269  17.971  1.00  0.00     0.000 C 
BRANCH   2   3
ATOM      3  C   UNL     1      29.143  18.901  17.396  1.00  0.00     0.000 C 
BRANCH   3   4
ATOM      4  C   UNL     1      29.133  17.910  16.213  1.00  0.00     0.000 C 
BRANCH   4   5
ATOM      5  C   UNL     1      29.581  18.491  14.859  1.00  0.00     0.000 C 
BRANCH   5   6
ATOM      6  C   UNL     1      29.531  20.028  14.825  1.00  0.00     0.000 C 
BRANCH   6   7
ATOM      7  C   UNL     1      28.556  20.570  13.765  1.00  0.00     0.000 C 
BRANCH   7   8
ATOM      8  C   UNL     1      27.404  21.391  14.374  1.00  0.00     0.000 C 
BRANCH   8   9
ATOM      9  C   UNL     1      26.393  21.873  13.315  1.00  0.00     0.000 C 
BRANCH   9  10
ATOM     10  C   UNL     1      25.396  22.947  13.797  1.00  0.00     0.000 C 
BRANCH  10  11
ATOM     11  C   UNL     1      24.496  22.526  14.974  1.00  0.00     0.000 C 
BRANCH  11  12
ATOM     12  C   UNL     1      23.097  23.156  14.909  1.00  0.00     0.000 C 
BRANCH  12  13
ATOM     13  C   UNL     1      22.039  22.214  15.498  1.00  0.00     0.006 C 
BRANCH  13  14
ATOM     14  C   UNL     1      22.643  21.316  16.583  1.00  0.00     0.053 C 
BRANCH  14  15
ATOM     15  C   UNL     1      21.586  20.819  17.522  1.00  0.00     0.041 C 
ATOM     16  O   UNL     1      21.023  21.613  18.322  1.00  0.00    -0.550 OA
ATOM     17  O   UNL     1      21.204  19.482  17.496  1.00  0.00    -0.550 OA
ENDBRANCH  14  15
ENDBRANCH  13  14
ENDBRANCH  12  13
ENDBRANCH  11  12
ENDBRANCH  10  11
ENDBRANCH   9  10
ENDBRANCH   8   9
ENDBRANCH   7   8
ENDBRANCH   6   7
ENDBRANCH   5   6
ENDBRANCH   4   5
ENDBRANCH   3   4
ENDBRANCH   2   3
ENDBRANCH   1   2
BRANCH   1  18
ATOM     18  C   UNL     1      25.987  21.093  18.283  1.00  0.00     0.000 C 
BRANCH  18  19
ATOM     19  C   UNL     1      25.921  22.333  19.201  1.00  0.00     0.000 C 
BRANCH  19  20
ATOM     20  C   UNL     1      25.351  23.577  18.494  1.00  0.00     0.000 C 
BRANCH  20  21
ATOM     21  C   UNL     1      23.866  23.828  18.824  1.00  0.00     0.000 C 
BRANCH  21  22
ATOM     22  C   UNL     1      23.476  25.307  18.999  1.00  0.00     0.000 C 
BRANCH  22  23
ATOM     23  C   UNL     1      22.152  25.495  19.762  1.00  0.00     0.000 C 
BRANCH  23  24
ATOM     24  C   UNL     1      21.309  26.655  19.205  1.00  0.00    -0.000 C 
BRANCH  24  25
ATOM     25  C   UNL     1      21.551  26.902  17.705  1.00  0.00    -0.000 C 
BRANCH  25  26
ATOM     26  C   UNL     1      21.226  28.346  17.281  1.00  0.00    -0.000 C 
BRANCH  26  27
ATOM     27  C   UNL     1      21.750  29.442  18.231  1.00  0.00    -0.000 C 
BRANCH  27  28
ATOM     28  C   UNL     1      23.220  29.851  18.008  1.00  0.00    -0.000 C 
BRANCH  28  29
ATOM     29  C   UNL     1      24.020  30.124  19.299  1.00  0.00    -0.000 C 
BRANCH  29  30
ATOM     30  C   UNL     1      24.002  28.982  20.335  1.00  0.00    -0.000 C 
BRANCH  30  31
ATOM     31  C   UNL     1      25.336  28.228  20.492  1.00  0.00    -0.003 C 
ATOM     32  C   UNL     1      26.006  27.914  19.154  1.00  0.00     0.004 C 
ENDBRANCH  30  31
ENDBRANCH  29  30
ENDBRANCH  28  29
ENDBRANCH  27  28
ENDBRANCH  26  27
ENDBRANCH  25  26
ENDBRANCH  24  25
ENDBRANCH  23  24
ENDBRANCH  22  23
ENDBRANCH  21  22
ENDBRANCH  20  21
ENDBRANCH  19  20
ENDBRANCH  18  19
ENDBRANCH   1  18
TORSDOF 28
ENDMDL
MODEL 5
REMARK VINA RESULT:    -1.764      2.402      5.567
REMARK INTER + INTRA:          -8.511
REMARK INTER:                  -5.876
REMARK INTRA:                  -2.635
REMARK UNBOUND:                -3.860
REMARK SMILES CCCCCCCCCCCCCCCCCCCCCCCCCCCCCC(=O)[O-]
REMARK SMILES IDX 16 1 17 2 18 3 19 4 20 5 21 6 22 7 23 8 24 9 25 10 26 11
REMARK SMILES IDX 27 12 28 13 29 14 30 15 31 16 32 17 15 18 14 19 13 20 12 21
REMARK SMILES IDX 11 22 10 23 9 24 8 25 7 26 6 27 5 28 4 29 3 30 2 31 1 32
REMARK H PARENT
REMARK Flexibility Score: inf
ROOT
ATOM      1  C   UNL     1      24.631  21.504  18.768  1.00  0.00     0.000 C 
ENDROOT
BRANCH   1   2
ATOM      2  C   UNL     1      24.438  22.924  19.325  1.00  0.00     0.000 C 
BRANCH   2   3
ATOM      3  C   UNL     1      24.236  23.986  18.227  1.00  0.00     0.000 C 
BRANCH   3   4
ATOM      4  C   UNL     1      23.065  24.964  18.448  1.00  0.00     0.000 C 
BRANCH   4   5
ATOM      5  C   UNL     1      21.948  24.910  17.390  1.00  0.00     0.000 C 
BRANCH   5   6
ATOM      6  C   UNL     1      21.043  26.154  17.414  1.00  0.00     0.000 C 
BRANCH   6   7
ATOM      7  C   UNL     1      21.726  27.376  18.052  1.00  0.00     0.000 C 
BRANCH   7   8
ATOM      8  C   UNL     1      20.950  27.938  19.258  1.00  0.00     0.000 C 
BRANCH   8   9
ATOM      9  C   UNL     1      21.082  29.467  19.390  1.00  0.00     0.000 C 
BRANCH   9  10
ATOM     10  C   UNL     1      22.492  29.977  19.753  1.00  0.00     0.000 C 
BRANCH  10  11
ATOM     11  C   UNL     1      23.021  29.521  21.125  1.00  0.00     0.000 C 
BRANCH  11  12
ATOM     12  C   UNL     1      23.938  28.291  21.030  1.00  0.00     0.000 C 
BRANCH  12  13
ATOM     13  C   UNL     1      25.411  28.707  20.932  1.00  0.00     0.006 C 
BRANCH  13  14
ATOM     14  C   UNL     1      25.849  28.845  19.470  1.00  0.00     0.053 C 
BRANCH  14  15
ATOM     15  C   UNL     1      26.634  27.648  19.026  1.00  0.00     0.041 C 
ATOM     16  O   UNL     1      26.125  26.497  19.088  1.00  0.00    -0.550 OA
ATOM     17  O   UNL     1      27.920  27.806  18.522  1.00  0.00    -0.550 OA
ENDBRANCH  14  15
ENDBRANCH  13  14
ENDBRANCH  12  13
ENDBRANCH  11  12
ENDBRANCH  10  11
ENDBRANCH   9  10
ENDBRANCH   8   9
ENDBRANCH   7   8
ENDBRANCH   6   7
ENDBRANCH   5   6
ENDBRANCH   4   5
ENDBRANCH   3   4
ENDBRANCH   2   3
ENDBRANCH   1   2
BRANCH   1  18
ATOM     18  C   UNL     1      23.865  21.269  17.453  1.00  0.00     0.000 C 
BRANCH  18  19
ATOM     19  C   UNL     1      22.549  20.478  17.620  1.00  0.00     0.000 C 
BRANCH  19  20
ATOM     20  C   UNL     1      21.300  21.380  17.621  1.00  0.00     0.000 C 
BRANCH  20  21
ATOM     21  C   UNL     1      20.956  21.930  16.223  1.00  0.00     0.000 C 
BRANCH  21  22
ATOM     22  C   UNL     1      22.005  21.647  15.131  1.00  0.00     0.000 C 
BRANCH  22  23
ATOM     23  C   UNL     1      22.509  22.924  14.435  1.00  0.00     0.000 C 
BRANCH  23  24
ATOM     24  C   UNL     1      24.003  23.187  14.693  1.00  0.00    -0.000 C 
BRANCH  24  25
ATOM     25  C   UNL     1      24.921  22.344  13.791  1.00  0.00    -0.000 C 
BRANCH  25  26
ATOM     26  C   UNL     1      26.346  22.205  14.358  1.00  0.00    -0.000 C 
BRANCH  26  27
ATOM     27  C   UNL     1      26.440  22.190  15.896  1.00  0.00    -0.000 C 
BRANCH  27  28
ATOM     28  C   UNL     1      27.718  21.539  16.466  1.00  0.00    -0.000 C 
BRANCH  28  29
ATOM     29  C   UNL     1      28.408  20.533  15.522  1.00  0.00    -0.000 C 
BRANCH  29  30
ATOM     30  C   UNL     1      29.807  20.065  15.972  1.00  0.00    -0.000 C 
BRANCH  30  31
ATOM     31  C   UNL     1      29.825  18.747  16.769  1.00  0.00    -0.003 C 
ATOM     32  C   UNL     1      28.994  17.642  16.115  1.00  0.00     0.004 C 
ENDBRANCH  30  31
ENDBRANCH  29  30
ENDBRANCH  28  29
ENDBRANCH  27  28
ENDBRANCH  26  27
ENDBRANCH  25  26
ENDBRANCH  24  25
ENDBRANCH  23  24
ENDBRANCH  22  23
ENDBRANCH  21  22
ENDBRANCH  20  21
ENDBRANCH  19  20
ENDBRANCH  18  19
ENDBRANCH   1  18
TORSDOF 28
ENDMDL
MODEL 6
REMARK VINA RESULT:    -1.752      2.467      7.505
REMARK INTER + INTRA:          -8.480
REMARK INTER:                  -3.929
REMARK INTRA:                  -4.551
REMARK UNBOUND:                -3.860
REMARK SMILES CCCCCCCCCCCCCCCCCCCCCCCCCCCCCC(=O)[O-]
REMARK SMILES IDX 16 1 17 2 18 3 19 4 20 5 21 6 22 7 23 8 24 9 25 10 26 11
REMARK SMILES IDX 27 12 28 13 29 14 30 15 31 16 32 17 15 18 14 19 13 20 12 21
REMARK SMILES IDX 11 22 10 23 9 24 8 25 7 26 6 27 5 28 4 29 3 30 2 31 1 32
REMARK H PARENT
REMARK Flexibility Score: inf
ROOT
ATOM      1  C   UNL     1      29.103  20.676  14.171  1.00  0.00     0.000 C 
ENDROOT
BRANCH   1   2
ATOM      2  C   UNL     1      27.647  21.060  14.482  1.00  0.00     0.000 C 
BRANCH   2   3
ATOM      3  C   UNL     1      26.895  21.626  13.262  1.00  0.00     0.000 C 
BRANCH   3   4
ATOM      4  C   UNL     1      25.543  22.304  13.565  1.00  0.00     0.000 C 
BRANCH   4   5
ATOM      5  C   UNL     1      25.296  22.657  15.044  1.00  0.00     0.000 C 
BRANCH   5   6
ATOM      6  C   UNL     1      25.515  24.149  15.345  1.00  0.00     0.000 C 
BRANCH   6   7
ATOM      7  C   UNL     1      25.905  24.411  16.811  1.00  0.00     0.000 C 
BRANCH   7   8
ATOM      8  C   UNL     1      24.838  25.209  17.583  1.00  0.00     0.000 C 
BRANCH   8   9
ATOM      9  C   UNL     1      25.392  25.850  18.870  1.00  0.00     0.000 C 
BRANCH   9  10
ATOM     10  C   UNL     1      24.327  26.358  19.864  1.00  0.00     0.000 C 
BRANCH  10  11
ATOM     11  C   UNL     1      22.903  25.817  19.632  1.00  0.00     0.000 C 
BRANCH  11  12
ATOM     12  C   UNL     1      21.822  26.896  19.799  1.00  0.00     0.000 C 
BRANCH  12  13
ATOM     13  C   UNL     1      22.383  28.135  20.508  1.00  0.00     0.006 C 
BRANCH  13  14
ATOM     14  C   UNL     1      21.985  29.419  19.771  1.00  0.00     0.053 C 
BRANCH  14  15
ATOM     15  C   UNL     1      22.784  29.591  18.516  1.00  0.00     0.041 C 
ATOM     16  O   UNL     1      24.043  29.621  18.564  1.00  0.00    -0.550 OA
ATOM     17  O   UNL     1      22.140  29.695  17.288  1.00  0.00    -0.550 OA
ENDBRANCH  14  15
ENDBRANCH  13  14
ENDBRANCH  12  13
ENDBRANCH  11  12
ENDBRANCH  10  11
ENDBRANCH   9  10
ENDBRANCH   8   9
ENDBRANCH   7   8
ENDBRANCH   6   7
ENDBRANCH   5   6
ENDBRANCH   4   5
ENDBRANCH   3   4
ENDBRANCH   2   3
ENDBRANCH   1   2
BRANCH   1  18
ATOM     18  C   UNL     1      29.400  19.189  14.441  1.00  0.00     0.000 C 
BRANCH  18  19
ATOM     19  C   UNL     1      30.166  18.926  15.755  1.00  0.00     0.000 C 
BRANCH  19  20
ATOM     20  C   UNL     1      29.244  18.510  16.917  1.00  0.00     0.000 C 
BRANCH  20  21
ATOM     21  C   UNL     1      28.761  19.707  17.759  1.00  0.00     0.000 C 
BRANCH  21  22
ATOM     22  C   UNL     1      27.263  19.694  18.115  1.00  0.00     0.000 C 
BRANCH  22  23
ATOM     23  C   UNL     1      26.695  21.099  18.385  1.00  0.00     0.000 C 
BRANCH  23  24
ATOM     24  C   UNL     1      25.164  21.155  18.243  1.00  0.00    -0.000 C 
BRANCH  24  25
ATOM     25  C   UNL     1      24.504  22.096  19.266  1.00  0.00    -0.000 C 
BRANCH  25  26
ATOM     26  C   UNL     1      23.000  22.296  19.005  1.00  0.00    -0.000 C 
BRANCH  26  27
ATOM     27  C   UNL     1      22.566  22.154  17.532  1.00  0.00    -0.000 C 
BRANCH  27  28
ATOM     28  C   UNL     1      21.360  23.022  17.120  1.00  0.00    -0.000 C 
BRANCH  28  29
ATOM     29  C   UNL     1      21.598  23.915  15.884  1.00  0.00    -0.000 C 
BRANCH  29  30
ATOM     30  C   UNL     1      20.900  23.444  14.591  1.00  0.00    -0.000 C 
BRANCH  30  31
ATOM     31  C   UNL     1      21.852  23.034  13.452  1.00  0.00    -0.003 C 
ATOM     32  C   UNL     1      21.712  23.916  12.210  1.00  0.00     0.004 C 
ENDBRANCH  30  31
ENDBRANCH  29  30
ENDBRANCH  28  29
ENDBRANCH  27  28
ENDBRANCH  26  27
ENDBRANCH  25  26
ENDBRANCH  24  25
ENDBRANCH  23  24
ENDBRANCH  22  23
ENDBRANCH  21  22
ENDBRANCH  20  21
ENDBRANCH  19  20
ENDBRANCH  18  19
ENDBRANCH   1  18
TORSDOF 28
ENDMDL
MODEL 7
REMARK VINA RESULT:    -1.739      1.571      8.627
REMARK INTER + INTRA:          -8.447
REMARK INTER:                  -4.317
REMARK INTRA:                  -4.130
REMARK UNBOUND:                -3.860
REMARK SMILES CCCCCCCCCCCCCCCCCCCCCCCCCCCCCC(=O)[O-]
REMARK SMILES IDX 16 1 17 2 18 3 19 4 20 5 21 6 22 7 23 8 24 9 25 10 26 11
REMARK SMILES IDX 27 12 28 13 29 14 30 15 31 16 32 17 15 18 14 19 13 20 12 21
REMARK SMILES IDX 11 22 10 23 9 24 8 25 7 26 6 27 5 28 4 29 3 30 2 31 1 32
REMARK H PARENT
REMARK Flexibility Score: inf
ROOT
ATOM      1  C   UNL     1      22.896  20.704  18.135  1.00  0.00     0.000 C 
ENDROOT
BRANCH   1   2
ATOM      2  C   UNL     1      23.994  21.420  17.330  1.00  0.00     0.000 C 
BRANCH   2   3
ATOM      3  C   UNL     1      24.926  22.279  18.204  1.00  0.00     0.000 C 
BRANCH   3   4
ATOM      4  C   UNL     1      26.109  21.533  18.856  1.00  0.00     0.000 C 
BRANCH   4   5
ATOM      5  C   UNL     1      27.175  21.003  17.879  1.00  0.00     0.000 C 
BRANCH   5   6
ATOM      6  C   UNL     1      27.463  19.503  18.069  1.00  0.00     0.000 C 
BRANCH   6   7
ATOM      7  C   UNL     1      28.911  19.124  17.713  1.00  0.00     0.000 C 
BRANCH   7   8
ATOM      8  C   UNL     1      28.999  17.945  16.726  1.00  0.00     0.000 C 
BRANCH   8   9
ATOM      9  C   UNL     1      29.587  18.354  15.362  1.00  0.00     0.000 C 
BRANCH   9  10
ATOM     10  C   UNL     1      29.886  19.859  15.198  1.00  0.00     0.000 C 
BRANCH  10  11
ATOM     11  C   UNL     1      29.211  20.533  13.988  1.00  0.00     0.000 C 
BRANCH  11  12
ATOM     12  C   UNL     1      27.718  20.815  14.220  1.00  0.00     0.000 C 
BRANCH  12  13
ATOM     13  C   UNL     1      27.206  21.898  13.263  1.00  0.00     0.006 C 
BRANCH  13  14
ATOM     14  C   UNL     1      25.680  21.842  13.133  1.00  0.00     0.053 C 
BRANCH  14  15
ATOM     15  C   UNL     1      25.031  22.945  13.912  1.00  0.00     0.041 C 
ATOM     16  O   UNL     1      23.805  22.886  14.195  1.00  0.00    -0.550 OA
ATOM     17  O   UNL     1      25.787  24.029  14.347  1.00  0.00    -0.550 OA
ENDBRANCH  14  15
ENDBRANCH  13  14
ENDBRANCH  12  13
ENDBRANCH  11  12
ENDBRANCH  10  11
ENDBRANCH   9  10
ENDBRANCH   8   9
ENDBRANCH   7   8
ENDBRANCH   6   7
ENDBRANCH   5   6
ENDBRANCH   4   5
ENDBRANCH   3   4
ENDBRANCH   2   3
ENDBRANCH   1   2
BRANCH   1  18
ATOM     18  C   UNL     1      21.476  21.089  17.683  1.00  0.00     0.000 C 
BRANCH  18  19
ATOM     19  C   UNL     1      21.436  22.035  16.463  1.00  0.00     0.000 C 
BRANCH  19  20
ATOM     20  C   UNL     1      20.885  23.433  16.802  1.00  0.00     0.000 C 
BRANCH  20  21
ATOM     21  C   UNL     1      21.960  24.380  17.371  1.00  0.00     0.000 C 
BRANCH  21  22
ATOM     22  C   UNL     1      21.700  24.881  18.804  1.00  0.00     0.000 C 
BRANCH  22  23
ATOM     23  C   UNL     1      22.991  25.074  19.619  1.00  0.00     0.000 C 
BRANCH  23  24
ATOM     24  C   UNL     1      24.028  25.943  18.886  1.00  0.00    -0.000 C 
BRANCH  24  25
ATOM     25  C   UNL     1      25.258  26.263  19.753  1.00  0.00    -0.000 C 
BRANCH  25  26
ATOM     26  C   UNL     1      25.373  27.760  20.091  1.00  0.00    -0.000 C 
BRANCH  26  27
ATOM     27  C   UNL     1      24.499  28.695  19.232  1.00  0.00    -0.000 C 
BRANCH  27  28
ATOM     28  C   UNL     1      23.458  29.520  20.017  1.00  0.00    -0.000 C 
BRANCH  28  29
ATOM     29  C   UNL     1      22.348  28.688  20.691  1.00  0.00    -0.000 C 
BRANCH  29  30
ATOM     30  C   UNL     1      21.156  28.324  19.781  1.00  0.00    -0.000 C 
BRANCH  30  31
ATOM     31  C   UNL     1      21.096  29.098  18.451  1.00  0.00    -0.003 C 
ATOM     32  C   UNL     1      21.293  28.202  17.228  1.00  0.00     0.004 C 
ENDBRANCH  30  31
ENDBRANCH  29  30
ENDBRANCH  28  29
ENDBRANCH  27  28
ENDBRANCH  26  27
ENDBRANCH  25  26
ENDBRANCH  24  25
ENDBRANCH  23  24
ENDBRANCH  22  23
ENDBRANCH  21  22
ENDBRANCH  20  21
ENDBRANCH  19  20
ENDBRANCH  18  19
ENDBRANCH   1  18
TORSDOF 28
ENDMDL
MODEL 8
REMARK VINA RESULT:    -0.801      2.183      8.143
REMARK INTER + INTRA:          -5.971
REMARK INTER:                  -2.258
REMARK INTRA:                  -3.713
REMARK UNBOUND:                -3.860
REMARK SMILES CCCCCCCCCCCCCCCCCCCCCCCCCCCCCC(=O)[O-]
REMARK SMILES IDX 16 1 17 2 18 3 19 4 20 5 21 6 22 7 23 8 24 9 25 10 26 11
REMARK SMILES IDX 27 12 28 13 29 14 30 15 31 16 32 17 15 18 14 19 13 20 12 21
REMARK SMILES IDX 11 22 10 23 9 24 8 25 7 26 6 27 5 28 4 29 3 30 2 31 1 32
REMARK H PARENT
REMARK Flexibility Score: inf
ROOT
ATOM      1  C   UNL     1      24.630  22.433  13.704  1.00  0.00     0.000 C 
ENDROOT
BRANCH   1   2
ATOM      2  C   UNL     1      25.250  23.749  14.204  1.00  0.00     0.000 C 
BRANCH   2   3
ATOM      3  C   UNL     1      26.158  23.564  15.435  1.00  0.00     0.000 C 
BRANCH   3   4
ATOM      4  C   UNL     1      26.131  24.713  16.465  1.00  0.00     0.000 C 
BRANCH   4   5
ATOM      5  C   UNL     1      24.866  24.790  17.338  1.00  0.00     0.000 C 
BRANCH   5   6
ATOM      6  C   UNL     1      25.177  24.739  18.844  1.00  0.00     0.000 C 
BRANCH   6   7
ATOM      7  C   UNL     1      25.093  23.316  19.423  1.00  0.00     0.000 C 
BRANCH   7   8
ATOM      8  C   UNL     1      24.281  22.354  18.538  1.00  0.00     0.000 C 
BRANCH   8   9
ATOM      9  C   UNL     1      25.142  21.225  17.941  1.00  0.00     0.000 C 
BRANCH   9  10
ATOM     10  C   UNL     1      26.566  21.105  18.522  1.00  0.00     0.000 C 
BRANCH  10  11
ATOM     11  C   UNL     1      27.611  20.487  17.574  1.00  0.00     0.000 C 
BRANCH  11  12
ATOM     12  C   UNL     1      28.114  19.117  18.054  1.00  0.00     0.000 C 
BRANCH  12  13
ATOM     13  C   UNL     1      28.920  18.408  16.957  1.00  0.00     0.006 C 
BRANCH  13  14
ATOM     14  C   UNL     1      30.105  19.267  16.503  1.00  0.00     0.053 C 
BRANCH  14  15
ATOM     15  C   UNL     1      30.025  19.564  15.037  1.00  0.00     0.041 C 
ATOM     16  O   UNL     1      31.045  19.439  14.307  1.00  0.00    -0.550 OA
ATOM     17  O   UNL     1      28.817  19.955  14.470  1.00  0.00    -0.550 OA
ENDBRANCH  14  15
ENDBRANCH  13  14
ENDBRANCH  12  13
ENDBRANCH  11  12
ENDBRANCH  10  11
ENDBRANCH   9  10
ENDBRANCH   8   9
ENDBRANCH   7   8
ENDBRANCH   6   7
ENDBRANCH   5   6
ENDBRANCH   4   5
ENDBRANCH   3   4
ENDBRANCH   2   3
ENDBRANCH   1   2
BRANCH   1  18
ATOM     18  C   UNL     1      23.166  22.595  13.255  1.00  0.00     0.000 C 
BRANCH  18  19
ATOM     19  C   UNL     1      22.245  23.227  14.321  1.00  0.00     0.000 C 
BRANCH  19  20
ATOM     20  C   UNL     1      22.074  22.341  15.570  1.00  0.00     0.000 C 
BRANCH  20  21
ATOM     21  C   UNL     1      21.357  23.065  16.726  1.00  0.00     0.000 C 
BRANCH  21  22
ATOM     22  C   UNL     1      21.156  24.579  16.527  1.00  0.00     0.000 C 
BRANCH  22  23
ATOM     23  C   UNL     1      21.798  25.425  17.642  1.00  0.00     0.000 C 
BRANCH  23  24
ATOM     24  C   UNL     1      20.875  26.553  18.132  1.00  0.00    -0.000 C 
BRANCH  24  25
ATOM     25  C   UNL     1      21.426  27.278  19.373  1.00  0.00    -0.000 C 
BRANCH  25  26
ATOM     26  C   UNL     1      21.533  28.801  19.172  1.00  0.00    -0.000 C 
BRANCH  26  27
ATOM     27  C   UNL     1      22.848  29.287  18.529  1.00  0.00    -0.000 C 
BRANCH  27  28
ATOM     28  C   UNL     1      23.756  30.125  19.452  1.00  0.00    -0.000 C 
BRANCH  28  29
ATOM     29  C   UNL     1      24.375  29.347  20.631  1.00  0.00    -0.000 C 
BRANCH  29  30
ATOM     30  C   UNL     1      25.138  28.063  20.242  1.00  0.00    -0.000 C 
BRANCH  30  31
ATOM     31  C   UNL     1      26.355  28.285  19.324  1.00  0.00    -0.003 C 
ATOM     32  C   UNL     1      27.440  29.147  19.970  1.00  0.00     0.004 C 
ENDBRANCH  30  31
ENDBRANCH  29  30
ENDBRANCH  28  29
ENDBRANCH  27  28
ENDBRANCH  26  27
ENDBRANCH  25  26
ENDBRANCH  24  25
ENDBRANCH  23  24
ENDBRANCH  22  23
ENDBRANCH  21  22
ENDBRANCH  20  21
ENDBRANCH  19  20
ENDBRANCH  18  19
ENDBRANCH   1  18
TORSDOF 28
ENDMDL
