MODEL 1
REMARK VINA RESULT:    -4.879      0.000      0.000
REMARK INTER + INTRA:          -5.847
REMARK INTER:                  -5.735
REMARK INTRA:                  -0.112
REMARK UNBOUND:                -0.112
REMARK SMILES O=C([O-])C=Cc1ccc(O)c(O)c1
REMARK SMILES IDX 6 1 13 2 7 3 11 4 8 5 9 6 5 7 4 8 2 9 1 10 3 11 12 12 10 14
REMARK H PARENT 12 13 10 15
REMARK Flexibility Score: inf
ROOT
ATOM      1  C   UNL     1       8.832  16.231 -21.343  1.00  0.00    -0.022 A 
ATOM      2  C   UNL     1       8.394  14.902 -21.479  1.00  0.00     0.058 A 
ATOM      3  C   UNL     1       9.614  16.587 -20.237  1.00  0.00     0.012 A 
ATOM      4  C   UNL     1       8.782  13.929 -20.546  1.00  0.00     0.157 A 
ATOM      5  C   UNL     1      10.002  15.619 -19.306  1.00  0.00     0.051 A 
ATOM      6  C   UNL     1       9.593  14.290 -19.456  1.00  0.00     0.157 A 
ENDROOT
BRANCH   1   7
ATOM      7  C   UNL     1       8.392  17.281 -22.286  1.00  0.00     0.010 C 
ATOM      8  C   UNL     1       8.641  17.295 -23.604  1.00  0.00     0.025 C 
BRANCH   8   9
ATOM      9  C   UNL     1       9.552  16.376 -24.313  1.00  0.00     0.064 C 
ATOM     10  O   UNL     1       9.089  15.615 -25.202  1.00  0.00    -0.545 OA
ATOM     11  O   UNL     1      10.921  16.381 -24.072  1.00  0.00    -0.545 OA
ENDBRANCH   8   9
ENDBRANCH   1   7
BRANCH   4  12
ATOM     12  O   UNL     1       8.359  12.609 -20.694  1.00  0.00    -0.504 OA
ATOM     13  H   UNL     1       8.614  11.892 -20.025  1.00  0.00     0.293 HD
ENDBRANCH   4  12
BRANCH   6  14
ATOM     14  O   UNL     1       9.997  13.345 -18.514  1.00  0.00    -0.504 OA
ATOM     15  H   UNL     1      10.952  13.293 -18.179  1.00  0.00     0.293 HD
ENDBRANCH   6  14
TORSDOF 4
ENDMDL
MODEL 2
REMARK VINA RESULT:    -4.720      2.776      4.357
REMARK INTER + INTRA:          -5.661
REMARK INTER:                  -5.530
REMARK INTRA:                  -0.131
REMARK UNBOUND:                -0.112
REMARK SMILES O=C([O-])C=Cc1ccc(O)c(O)c1
REMARK SMILES IDX 6 1 13 2 7 3 11 4 8 5 9 6 5 7 4 8 2 9 1 10 3 11 12 12 10 14
REMARK H PARENT 12 13 10 15
REMARK Flexibility Score: inf
ROOT
ATOM      1  C   UNL     1      10.122  15.878 -18.046  1.00  0.00    -0.022 A 
ATOM      2  C   UNL     1       8.957  15.812 -17.263  1.00  0.00     0.058 A 
ATOM      3  C   UNL     1      11.338  15.438 -17.507  1.00  0.00     0.012 A 
ATOM      4  C   UNL     1       8.999  15.260 -15.973  1.00  0.00     0.157 A 
ATOM      5  C   UNL     1      11.382  14.888 -16.222  1.00  0.00     0.051 A 
ATOM      6  C   UNL     1      10.218  14.793 -15.453  1.00  0.00     0.157 A 
ENDROOT
BRANCH   1   7
ATOM      7  C   UNL     1      10.108  16.502 -19.385  1.00  0.00     0.010 C 
ATOM      8  C   UNL     1       9.408  16.060 -20.441  1.00  0.00     0.025 C 
BRANCH   8   9
ATOM      9  C   UNL     1       8.682  14.778 -20.511  1.00  0.00     0.064 C 
ATOM     10  O   UNL     1       9.296  13.743 -20.878  1.00  0.00    -0.545 OA
ATOM     11  O   UNL     1       7.354  14.673 -20.114  1.00  0.00    -0.545 OA
ENDBRANCH   8   9
ENDBRANCH   1   7
BRANCH   4  12
ATOM     12  O   UNL     1       7.837  15.182 -15.207  1.00  0.00    -0.504 OA
ATOM     13  H   UNL     1       7.820  15.473 -14.237  1.00  0.00     0.293 HD
ENDBRANCH   4  12
BRANCH   6  14
ATOM     14  O   UNL     1      10.292  14.237 -14.177  1.00  0.00    -0.504 OA
ATOM     15  H   UNL     1       9.792  13.392 -13.928  1.00  0.00     0.293 HD
ENDBRANCH   6  14
TORSDOF 4
ENDMDL
MODEL 3
REMARK VINA RESULT:    -4.707      3.946      5.525
REMARK INTER + INTRA:          -5.645
REMARK INTER:                  -5.476
REMARK INTRA:                  -0.169
REMARK UNBOUND:                -0.112
REMARK SMILES O=C([O-])C=Cc1ccc(O)c(O)c1
REMARK SMILES IDX 6 1 13 2 7 3 11 4 8 5 9 6 5 7 4 8 2 9 1 10 3 11 12 12 10 14
REMARK H PARENT 12 13 10 15
REMARK Flexibility Score: inf
ROOT
ATOM      1  C   UNL     1      10.569  15.135 -17.358  1.00  0.00    -0.022 A 
ATOM      2  C   UNL     1      11.359  15.403 -16.227  1.00  0.00     0.058 A 
ATOM      3  C   UNL     1       9.515  14.217 -17.257  1.00  0.00     0.012 A 
ATOM      4  C   UNL     1      11.063  14.801 -14.995  1.00  0.00     0.157 A 
ATOM      5  C   UNL     1       9.218  13.615 -16.031  1.00  0.00     0.051 A 
ATOM      6  C   UNL     1       9.984  13.905 -14.897  1.00  0.00     0.157 A 
ENDROOT
BRANCH   1   7
ATOM      7  C   UNL     1      10.896  15.719 -18.675  1.00  0.00     0.010 C 
ATOM      8  C   UNL     1      10.201  16.689 -19.289  1.00  0.00     0.025 C 
BRANCH   8   9
ATOM      9  C   UNL     1       8.891  17.210 -18.855  1.00  0.00     0.064 C 
ATOM     10  O   UNL     1       8.839  18.303 -18.234  1.00  0.00    -0.545 OA
ATOM     11  O   UNL     1       7.707  16.556 -19.177  1.00  0.00    -0.545 OA
ENDBRANCH   8   9
ENDBRANCH   1   7
BRANCH   4  12
ATOM     12  O   UNL     1      11.839  15.084 -13.873  1.00  0.00    -0.504 OA
ATOM     13  H   UNL     1      11.514  15.712 -13.147  1.00  0.00     0.293 HD
ENDBRANCH   4  12
BRANCH   6  14
ATOM     14  O   UNL     1       9.663  13.293 -13.687  1.00  0.00    -0.504 OA
ATOM     15  H   UNL     1       8.707  13.210 -13.363  1.00  0.00     0.293 HD
ENDBRANCH   6  14
TORSDOF 4
ENDMDL
MODEL 4
REMARK VINA RESULT:    -4.614      2.780      3.708
REMARK INTER + INTRA:          -5.535
REMARK INTER:                  -5.342
REMARK INTRA:                  -0.193
REMARK UNBOUND:                -0.112
REMARK SMILES O=C([O-])C=Cc1ccc(O)c(O)c1
REMARK SMILES IDX 6 1 13 2 7 3 11 4 8 5 9 6 5 7 4 8 2 9 1 10 3 11 12 12 10 14
REMARK H PARENT 12 13 10 15
REMARK Flexibility Score: inf
ROOT
ATOM      1  C   UNL     1       8.361  14.122 -18.958  1.00  0.00    -0.022 A 
ATOM      2  C   UNL     1       8.769  13.477 -20.138  1.00  0.00     0.058 A 
ATOM      3  C   UNL     1       8.662  13.541 -17.719  1.00  0.00     0.012 A 
ATOM      4  C   UNL     1       9.516  12.292 -20.078  1.00  0.00     0.157 A 
ATOM      5  C   UNL     1       9.407  12.360 -17.656  1.00  0.00     0.051 A 
ATOM      6  C   UNL     1       9.839  11.733 -18.829  1.00  0.00     0.157 A 
ENDROOT
BRANCH   1   7
ATOM      7  C   UNL     1       7.530  15.343 -19.001  1.00  0.00     0.010 C 
ATOM      8  C   UNL     1       7.946  16.553 -19.405  1.00  0.00     0.025 C 
BRANCH   8   9
ATOM      9  C   UNL     1       9.344  16.924 -19.696  1.00  0.00     0.064 C 
ATOM     10  O   UNL     1      10.045  17.440 -18.788  1.00  0.00    -0.545 OA
ATOM     11  O   UNL     1       9.926  16.652 -20.928  1.00  0.00    -0.545 OA
ENDBRANCH   8   9
ENDBRANCH   1   7
BRANCH   4  12
ATOM     12  O   UNL     1       9.932  11.665 -21.251  1.00  0.00    -0.504 OA
ATOM     13  H   UNL     1      10.787  11.123 -21.289  1.00  0.00     0.293 HD
ENDBRANCH   4  12
BRANCH   6  14
ATOM     14  O   UNL     1      10.583  10.558 -18.736  1.00  0.00    -0.504 OA
ATOM     15  H   UNL     1      10.748  10.094 -17.851  1.00  0.00     0.293 HD
ENDBRANCH   6  14
TORSDOF 4
ENDMDL
MODEL 5
REMARK VINA RESULT:    -4.600      3.870      4.843
REMARK INTER + INTRA:          -5.520
REMARK INTER:                  -5.304
REMARK INTRA:                  -0.216
REMARK UNBOUND:                -0.112
REMARK SMILES O=C([O-])C=Cc1ccc(O)c(O)c1
REMARK SMILES IDX 6 1 13 2 7 3 11 4 8 5 9 6 5 7 4 8 2 9 1 10 3 11 12 12 10 14
REMARK H PARENT 12 13 10 15
REMARK Flexibility Score: inf
ROOT
ATOM      1  C   UNL     1       9.971  15.242 -18.037  1.00  0.00    -0.022 A 
ATOM      2  C   UNL     1       8.857  14.850 -17.275  1.00  0.00     0.058 A 
ATOM      3  C   UNL     1      11.222  15.353 -17.416  1.00  0.00     0.012 A 
ATOM      4  C   UNL     1       9.004  14.520 -15.920  1.00  0.00     0.157 A 
ATOM      5  C   UNL     1      11.372  15.024 -16.066  1.00  0.00     0.051 A 
ATOM      6  C   UNL     1      10.270  14.605 -15.315  1.00  0.00     0.157 A 
ENDROOT
BRANCH   1   7
ATOM      7  C   UNL     1       9.827  15.643 -19.452  1.00  0.00     0.010 C 
ATOM      8  C   UNL     1       9.389  16.837 -19.880  1.00  0.00     0.025 C 
BRANCH   8   9
ATOM      9  C   UNL     1       8.797  17.887 -19.030  1.00  0.00     0.064 C 
ATOM     10  O   UNL     1       9.505  18.865 -18.677  1.00  0.00    -0.545 OA
ATOM     11  O   UNL     1       7.455  17.857 -18.669  1.00  0.00    -0.545 OA
ENDBRANCH   8   9
ENDBRANCH   1   7
BRANCH   4  12
ATOM     12  O   UNL     1       7.899  14.116 -15.174  1.00  0.00    -0.504 OA
ATOM     13  H   UNL     1       7.059  13.762 -15.617  1.00  0.00     0.293 HD
ENDBRANCH   4  12
BRANCH   6  14
ATOM     14  O   UNL     1      10.449  14.280 -13.970  1.00  0.00    -0.504 OA
ATOM     15  H   UNL     1      10.305  13.341 -13.620  1.00  0.00     0.293 HD
ENDBRANCH   6  14
TORSDOF 4
ENDMDL
MODEL 6
REMARK VINA RESULT:    -4.432      4.171      5.871
REMARK INTER + INTRA:          -5.322
REMARK INTER:                  -5.034
REMARK INTRA:                  -0.288
REMARK UNBOUND:                -0.112
REMARK SMILES O=C([O-])C=Cc1ccc(O)c(O)c1
REMARK SMILES IDX 6 1 13 2 7 3 11 4 8 5 9 6 5 7 4 8 2 9 1 10 3 11 12 12 10 14
REMARK H PARENT 12 13 10 15
REMARK Flexibility Score: inf
ROOT
ATOM      1  C   UNL     1       8.001  17.589 -18.776  1.00  0.00    -0.022 A 
ATOM      2  C   UNL     1       8.691  18.769 -19.104  1.00  0.00     0.058 A 
ATOM      3  C   UNL     1       7.295  17.521 -17.567  1.00  0.00     0.012 A 
ATOM      4  C   UNL     1       8.629  19.887 -18.259  1.00  0.00     0.157 A 
ATOM      5  C   UNL     1       7.232  18.633 -16.723  1.00  0.00     0.051 A 
ATOM      6  C   UNL     1       7.892  19.818 -17.064  1.00  0.00     0.157 A 
ENDROOT
BRANCH   1   7
ATOM      7  C   UNL     1       8.096  16.386 -19.627  1.00  0.00     0.010 C 
ATOM      8  C   UNL     1       8.978  15.387 -19.466  1.00  0.00     0.025 C 
BRANCH   8   9
ATOM      9  C   UNL     1      10.123  15.399 -18.537  1.00  0.00     0.064 C 
ATOM     10  O   UNL     1      11.207  15.924 -18.903  1.00  0.00    -0.545 OA
ATOM     11  O   UNL     1      10.012  14.908 -17.241  1.00  0.00    -0.545 OA
ENDBRANCH   8   9
ENDBRANCH   1   7
BRANCH   4  12
ATOM     12  O   UNL     1       9.301  21.060 -18.598  1.00  0.00    -0.504 OA
ATOM     13  H   UNL     1      10.302  21.155 -18.469  1.00  0.00     0.293 HD
ENDBRANCH   4  12
BRANCH   6  14
ATOM     14  O   UNL     1       7.809  20.913 -16.204  1.00  0.00    -0.504 OA
ATOM     15  H   UNL     1       6.998  21.520 -16.182  1.00  0.00     0.293 HD
ENDBRANCH   6  14
TORSDOF 4
ENDMDL
MODEL 7
REMARK VINA RESULT:    -4.406      1.928      2.848
REMARK INTER + INTRA:          -5.291
REMARK INTER:                  -5.125
REMARK INTRA:                  -0.166
REMARK UNBOUND:                -0.112
REMARK SMILES O=C([O-])C=Cc1ccc(O)c(O)c1
REMARK SMILES IDX 6 1 13 2 7 3 11 4 8 5 9 6 5 7 4 8 2 9 1 10 3 11 12 12 10 14
REMARK H PARENT 12 13 10 15
REMARK Flexibility Score: inf
ROOT
ATOM      1  C   UNL     1       9.306  16.302 -18.879  1.00  0.00    -0.022 A 
ATOM      2  C   UNL     1       8.588  15.303 -18.198  1.00  0.00     0.058 A 
ATOM      3  C   UNL     1      10.675  16.457 -18.624  1.00  0.00     0.012 A 
ATOM      4  C   UNL     1       9.244  14.434 -17.314  1.00  0.00     0.157 A 
ATOM      5  C   UNL     1      11.331  15.592 -17.744  1.00  0.00     0.051 A 
ATOM      6  C   UNL     1      10.624  14.579 -17.090  1.00  0.00     0.157 A 
ENDROOT
BRANCH   1   7
ATOM      7  C   UNL     1       8.623  17.259 -19.774  1.00  0.00     0.010 C 
ATOM      8  C   UNL     1       8.463  17.107 -21.097  1.00  0.00     0.025 C 
BRANCH   8   9
ATOM      9  C   UNL     1       9.099  16.061 -21.922  1.00  0.00     0.064 C 
ATOM     10  O   UNL     1       9.920  16.396 -22.814  1.00  0.00    -0.545 OA
ATOM     11  O   UNL     1       8.864  14.711 -21.689  1.00  0.00    -0.545 OA
ENDBRANCH   8   9
ENDBRANCH   1   7
BRANCH   4  12
ATOM     12  O   UNL     1       8.530  13.435 -16.655  1.00  0.00    -0.504 OA
ATOM     13  H   UNL     1       7.530  13.505 -16.509  1.00  0.00     0.293 HD
ENDBRANCH   4  12
BRANCH   6  14
ATOM     14  O   UNL     1      11.306  13.729 -16.219  1.00  0.00    -0.504 OA
ATOM     15  H   UNL     1      11.007  12.776 -16.054  1.00  0.00     0.293 HD
ENDBRANCH   6  14
TORSDOF 4
ENDMDL
MODEL 8
REMARK VINA RESULT:    -4.362      2.715      3.544
REMARK INTER + INTRA:          -5.239
REMARK INTER:                  -4.992
REMARK INTRA:                  -0.247
REMARK UNBOUND:                -0.112
REMARK SMILES O=C([O-])C=Cc1ccc(O)c(O)c1
REMARK SMILES IDX 6 1 13 2 7 3 11 4 8 5 9 6 5 7 4 8 2 9 1 10 3 11 12 12 10 14
REMARK H PARENT 12 13 10 15
REMARK Flexibility Score: inf
ROOT
ATOM      1  C   UNL     1       8.475  13.998 -20.623  1.00  0.00    -0.022 A 
ATOM      2  C   UNL     1       9.461  13.031 -20.361  1.00  0.00     0.058 A 
ATOM      3  C   UNL     1       7.236  13.907 -19.976  1.00  0.00     0.012 A 
ATOM      4  C   UNL     1       9.229  12.016 -19.421  1.00  0.00     0.157 A 
ATOM      5  C   UNL     1       7.002  12.897 -19.038  1.00  0.00     0.051 A 
ATOM      6  C   UNL     1       7.994  11.952 -18.754  1.00  0.00     0.157 A 
ENDROOT
BRANCH   1   7
ATOM      7  C   UNL     1       8.682  15.043 -21.647  1.00  0.00     0.010 C 
ATOM      8  C   UNL     1       9.114  16.290 -21.408  1.00  0.00     0.025 C 
BRANCH   8   9
ATOM      9  C   UNL     1       9.278  16.898 -20.074  1.00  0.00     0.064 C 
ATOM     10  O   UNL     1       8.413  17.710 -19.657  1.00  0.00    -0.545 OA
ATOM     11  O   UNL     1      10.330  16.541 -19.238  1.00  0.00    -0.545 OA
ENDBRANCH   8   9
ENDBRANCH   1   7
BRANCH   4  12
ATOM     12  O   UNL     1      10.217  11.070 -19.153  1.00  0.00    -0.504 OA
ATOM     13  H   UNL     1      11.091  11.327 -18.708  1.00  0.00     0.293 HD
ENDBRANCH   4  12
BRANCH   6  14
ATOM     14  O   UNL     1       7.734  10.958 -17.812  1.00  0.00    -0.504 OA
ATOM     15  H   UNL     1       7.840  11.117 -16.818  1.00  0.00     0.293 HD
ENDBRANCH   6  14
TORSDOF 4
ENDMDL
MODEL 9
REMARK VINA RESULT:    -4.354      2.466      5.368
REMARK INTER + INTRA:          -5.230
REMARK INTER:                  -4.969
REMARK INTRA:                  -0.262
REMARK UNBOUND:                -0.112
REMARK SMILES O=C([O-])C=Cc1ccc(O)c(O)c1
REMARK SMILES IDX 6 1 13 2 7 3 11 4 8 5 9 6 5 7 4 8 2 9 1 10 3 11 12 12 10 14
REMARK H PARENT 12 13 10 15
REMARK Flexibility Score: inf
ROOT
ATOM      1  C   UNL     1       8.525  15.870 -17.828  1.00  0.00    -0.022 A 
ATOM      2  C   UNL     1       8.060  14.931 -18.765  1.00  0.00     0.058 A 
ATOM      3  C   UNL     1       8.987  17.115 -18.276  1.00  0.00     0.012 A 
ATOM      4  C   UNL     1       8.007  15.254 -20.129  1.00  0.00     0.157 A 
ATOM      5  C   UNL     1       8.935  17.440 -19.635  1.00  0.00     0.051 A 
ATOM      6  C   UNL     1       8.444  16.517 -20.564  1.00  0.00     0.157 A 
ENDROOT
BRANCH   1   7
ATOM      7  C   UNL     1       8.637  15.530 -16.395  1.00  0.00     0.010 C 
ATOM      8  C   UNL     1       9.726  15.020 -15.800  1.00  0.00     0.025 C 
BRANCH   8   9
ATOM      9  C   UNL     1      10.931  14.532 -16.495  1.00  0.00     0.064 C 
ATOM     10  O   UNL     1      11.087  13.295 -16.663  1.00  0.00    -0.545 OA
ATOM     11  O   UNL     1      11.865  15.411 -17.032  1.00  0.00    -0.545 OA
ENDBRANCH   8   9
ENDBRANCH   1   7
BRANCH   4  12
ATOM     12  O   UNL     1       7.530  14.324 -21.051  1.00  0.00    -0.504 OA
ATOM     13  H   UNL     1       7.351  14.577 -22.016  1.00  0.00     0.293 HD
ENDBRANCH   4  12
BRANCH   6  14
ATOM     14  O   UNL     1       8.401  16.869 -21.912  1.00  0.00    -0.504 OA
ATOM     15  H   UNL     1       7.527  16.985 -22.411  1.00  0.00     0.293 HD
ENDBRANCH   6  14
TORSDOF 4
ENDMDL
