MODEL 1
REMARK VINA RESULT:    -3.016      0.000      0.000
REMARK INTER + INTRA:          -8.733
REMARK INTER:                  -5.661
REMARK INTRA:                  -3.072
REMARK UNBOUND:                -3.072
REMARK SMILES CCCCCCCCC=CCCCCCCCC(=O)[O-]
REMARK SMILES IDX 10 1 9 2 11 3 12 4 13 5 14 6 15 7 16 8 17 9 18 10 19 11
REMARK SMILES IDX 20 12 8 13 7 14 6 15 5 16 4 17 3 18 2 19 1 20
REMARK H PARENT
REMARK Flexibility Score: inf
ROOT
ATOM      1  C   UNL     1     172.629 155.319 154.351  1.00  0.00    -0.031 C 
ATOM      2  C   UNL     1     173.106 154.379 155.179  1.00  0.00    -0.031 C 
ENDROOT
BRANCH   1   3
ATOM      3  C   UNL     1     172.926 155.295 152.875  1.00  0.00     0.027 C 
BRANCH   3   4
ATOM      4  C   UNL     1     172.929 153.869 152.296  1.00  0.00     0.004 C 
BRANCH   4   5
ATOM      5  C   UNL     1     171.871 153.630 151.202  1.00  0.00     0.000 C 
BRANCH   5   6
ATOM      6  C   UNL     1     171.073 154.882 150.789  1.00  0.00     0.000 C 
BRANCH   6   7
ATOM      7  C   UNL     1     169.550 154.747 151.010  1.00  0.00     0.000 C 
BRANCH   7   8
ATOM      8  C   UNL     1     168.901 156.076 151.432  1.00  0.00     0.006 C 
BRANCH   8   9
ATOM      9  C   UNL     1     169.942 157.138 151.809  1.00  0.00     0.053 C 
BRANCH   9  10
ATOM     10  C   UNL     1     169.484 157.984 152.959  1.00  0.00     0.041 C 
ATOM     11  O   UNL     1     168.515 158.774 152.816  1.00  0.00    -0.550 OA
ATOM     12  O   UNL     1     170.107 157.875 154.195  1.00  0.00    -0.550 OA
ENDBRANCH   9  10
ENDBRANCH   8   9
ENDBRANCH   7   8
ENDBRANCH   6   7
ENDBRANCH   5   6
ENDBRANCH   4   5
ENDBRANCH   3   4
ENDBRANCH   1   3
BRANCH   2  13
ATOM     13  C   UNL     1     172.805 154.400 156.654  1.00  0.00     0.027 C 
BRANCH  13  14
ATOM     14  C   UNL     1     172.041 153.148 157.122  1.00  0.00     0.004 C 
BRANCH  14  15
ATOM     15  C   UNL     1     172.371 151.870 156.328  1.00  0.00     0.000 C 
BRANCH  15  16
ATOM     16  C   UNL     1     171.120 151.198 155.738  1.00  0.00     0.000 C 
BRANCH  16  17
ATOM     17  C   UNL     1     170.922 151.508 154.243  1.00  0.00    -0.000 C 
BRANCH  17  18
ATOM     18  C   UNL     1     169.599 152.210 153.888  1.00  0.00    -0.000 C 
BRANCH  18  19
ATOM     19  C   UNL     1     169.492 153.622 154.483  1.00  0.00    -0.003 C 
ATOM     20  C   UNL     1     168.040 154.087 154.542  1.00  0.00     0.004 C 
ENDBRANCH  18  19
ENDBRANCH  17  18
ENDBRANCH  16  17
ENDBRANCH  15  16
ENDBRANCH  14  15
ENDBRANCH  13  14
ENDBRANCH   2  13
TORSDOF 15
ENDMDL
MODEL 2
REMARK VINA RESULT:    -2.926     12.227     15.786
REMARK INTER + INTRA:          -8.564
REMARK INTER:                  -5.886
REMARK INTRA:                  -2.678
REMARK UNBOUND:                -3.072
REMARK SMILES CCCCCCCCC=CCCCCCCCC(=O)[O-]
REMARK SMILES IDX 10 1 9 2 11 3 12 4 13 5 14 6 15 7 16 8 17 9 18 10 19 11
REMARK SMILES IDX 20 12 8 13 7 14 6 15 5 16 4 17 3 18 2 19 1 20
REMARK H PARENT
REMARK Flexibility Score: inf
ROOT
ATOM      1  C   UNL     1     167.885 169.988 153.259  1.00  0.00    -0.031 C 
ATOM      2  C   UNL     1     168.632 170.942 152.686  1.00  0.00    -0.031 C 
ENDROOT
BRANCH   1   3
ATOM      3  C   UNL     1     167.521 170.040 154.719  1.00  0.00     0.027 C 
BRANCH   3   4
ATOM      4  C   UNL     1     166.137 170.667 154.961  1.00  0.00     0.004 C 
BRANCH   4   5
ATOM      5  C   UNL     1     165.094 170.331 153.878  1.00  0.00     0.000 C 
BRANCH   5   6
ATOM      6  C   UNL     1     163.931 169.439 154.353  1.00  0.00     0.000 C 
BRANCH   6   7
ATOM      7  C   UNL     1     163.970 168.008 153.772  1.00  0.00     0.000 C 
BRANCH   7   8
ATOM      8  C   UNL     1     165.176 167.203 154.282  1.00  0.00     0.006 C 
BRANCH   8   9
ATOM      9  C   UNL     1     166.079 166.718 153.141  1.00  0.00     0.053 C 
BRANCH   9  10
ATOM     10  C   UNL     1     165.805 165.289 152.781  1.00  0.00     0.041 C 
ATOM     11  O   UNL     1     165.078 165.013 151.791  1.00  0.00    -0.550 OA
ATOM     12  O   UNL     1     166.380 164.263 153.519  1.00  0.00    -0.550 OA
ENDBRANCH   9  10
ENDBRANCH   8   9
ENDBRANCH   7   8
ENDBRANCH   6   7
ENDBRANCH   5   6
ENDBRANCH   4   5
ENDBRANCH   3   4
ENDBRANCH   1   3
BRANCH   2  13
ATOM     13  C   UNL     1     168.991 170.893 151.225  1.00  0.00     0.027 C 
BRANCH  13  14
ATOM     14  C   UNL     1     168.971 169.463 150.657  1.00  0.00     0.004 C 
BRANCH  14  15
ATOM     15  C   UNL     1     168.008 169.264 149.472  1.00  0.00     0.000 C 
BRANCH  15  16
ATOM     16  C   UNL     1     167.024 170.434 149.304  1.00  0.00     0.000 C 
BRANCH  16  17
ATOM     17  C   UNL     1     165.554 169.980 149.260  1.00  0.00    -0.000 C 
BRANCH  17  18
ATOM     18  C   UNL     1     165.103 169.100 150.440  1.00  0.00    -0.000 C 
BRANCH  18  19
ATOM     19  C   UNL     1     164.233 167.913 150.003  1.00  0.00    -0.003 C 
ATOM     20  C   UNL     1     164.862 167.173 148.826  1.00  0.00     0.004 C 
ENDBRANCH  18  19
ENDBRANCH  17  18
ENDBRANCH  16  17
ENDBRANCH  15  16
ENDBRANCH  14  15
ENDBRANCH  13  14
ENDBRANCH   2  13
TORSDOF 15
ENDMDL
MODEL 3
REMARK VINA RESULT:    -2.823     13.954     15.611
REMARK INTER + INTRA:          -8.370
REMARK INTER:                  -5.713
REMARK INTRA:                  -2.657
REMARK UNBOUND:                -3.072
REMARK SMILES CCCCCCCCC=CCCCCCCCC(=O)[O-]
REMARK SMILES IDX 10 1 9 2 11 3 12 4 13 5 14 6 15 7 16 8 17 9 18 10 19 11
REMARK SMILES IDX 20 12 8 13 7 14 6 15 5 16 4 17 3 18 2 19 1 20
REMARK H PARENT
REMARK Flexibility Score: inf
ROOT
ATOM      1  C   UNL     1     169.132 168.567 148.205  1.00  0.00    -0.031 C 
ATOM      2  C   UNL     1     169.723 169.412 149.062  1.00  0.00    -0.031 C 
ENDROOT
BRANCH   1   3
ATOM      3  C   UNL     1     168.991 168.896 146.743  1.00  0.00     0.027 C 
BRANCH   3   4
ATOM      4  C   UNL     1     168.440 167.716 145.922  1.00  0.00     0.004 C 
BRANCH   4   5
ATOM      5  C   UNL     1     169.216 166.399 146.113  1.00  0.00     0.000 C 
BRANCH   5   6
ATOM      6  C   UNL     1     170.670 166.424 145.604  1.00  0.00     0.000 C 
BRANCH   6   7
ATOM      7  C   UNL     1     171.699 165.933 146.645  1.00  0.00     0.000 C 
BRANCH   7   8
ATOM      8  C   UNL     1     172.821 166.957 146.885  1.00  0.00     0.006 C 
BRANCH   8   9
ATOM      9  C   UNL     1     172.623 168.240 146.068  1.00  0.00     0.053 C 
BRANCH   9  10
ATOM     10  C   UNL     1     172.803 169.469 146.907  1.00  0.00     0.041 C 
ATOM     11  O   UNL     1     173.045 169.365 148.138  1.00  0.00    -0.550 OA
ATOM     12  O   UNL     1     172.738 170.727 146.322  1.00  0.00    -0.550 OA
ENDBRANCH   9  10
ENDBRANCH   8   9
ENDBRANCH   7   8
ENDBRANCH   6   7
ENDBRANCH   5   6
ENDBRANCH   4   5
ENDBRANCH   3   4
ENDBRANCH   1   3
BRANCH   2  13
ATOM     13  C   UNL     1     169.868 169.081 150.523  1.00  0.00     0.027 C 
BRANCH  13  14
ATOM     14  C   UNL     1     168.988 169.967 151.423  1.00  0.00     0.004 C 
BRANCH  14  15
ATOM     15  C   UNL     1     167.992 169.187 152.301  1.00  0.00     0.000 C 
BRANCH  15  16
ATOM     16  C   UNL     1     166.626 168.992 151.622  1.00  0.00     0.000 C 
BRANCH  16  17
ATOM     17  C   UNL     1     166.277 170.124 150.640  1.00  0.00    -0.000 C 
BRANCH  17  18
ATOM     18  C   UNL     1     165.807 169.665 149.248  1.00  0.00    -0.000 C 
BRANCH  18  19
ATOM     19  C   UNL     1     165.523 168.157 149.180  1.00  0.00    -0.003 C 
ATOM     20  C   UNL     1     165.237 167.715 147.748  1.00  0.00     0.004 C 
ENDBRANCH  18  19
ENDBRANCH  17  18
ENDBRANCH  16  17
ENDBRANCH  15  16
ENDBRANCH  14  15
ENDBRANCH  13  14
ENDBRANCH   2  13
TORSDOF 15
ENDMDL
MODEL 4
REMARK VINA RESULT:    -2.815      1.232      2.751
REMARK INTER + INTRA:          -8.356
REMARK INTER:                  -5.469
REMARK INTRA:                  -2.887
REMARK UNBOUND:                -3.072
REMARK SMILES CCCCCCCCC=CCCCCCCCC(=O)[O-]
REMARK SMILES IDX 10 1 9 2 11 3 12 4 13 5 14 6 15 7 16 8 17 9 18 10 19 11
REMARK SMILES IDX 20 12 8 13 7 14 6 15 5 16 4 17 3 18 2 19 1 20
REMARK H PARENT
REMARK Flexibility Score: inf
ROOT
ATOM      1  C   UNL     1     171.235 151.743 153.343  1.00  0.00    -0.031 C 
ATOM      2  C   UNL     1     170.502 150.960 154.148  1.00  0.00    -0.031 C 
ENDROOT
BRANCH   1   3
ATOM      3  C   UNL     1     170.966 151.829 151.865  1.00  0.00     0.027 C 
BRANCH   3   4
ATOM      4  C   UNL     1     170.129 153.064 151.486  1.00  0.00     0.004 C 
BRANCH   4   5
ATOM      5  C   UNL     1     170.926 154.167 150.763  1.00  0.00     0.000 C 
BRANCH   5   6
ATOM      6  C   UNL     1     171.955 154.904 151.642  1.00  0.00     0.000 C 
BRANCH   6   7
ATOM      7  C   UNL     1     171.614 156.391 151.882  1.00  0.00     0.000 C 
BRANCH   7   8
ATOM      8  C   UNL     1     170.097 156.649 151.884  1.00  0.00     0.006 C 
BRANCH   8   9
ATOM      9  C   UNL     1     169.681 157.665 152.956  1.00  0.00     0.053 C 
BRANCH   9  10
ATOM     10  C   UNL     1     168.754 158.707 152.407  1.00  0.00     0.041 C 
ATOM     11  O   UNL     1     168.197 159.530 153.180  1.00  0.00    -0.550 OA
ATOM     12  O   UNL     1     168.532 158.790 151.038  1.00  0.00    -0.550 OA
ENDBRANCH   9  10
ENDBRANCH   8   9
ENDBRANCH   7   8
ENDBRANCH   6   7
ENDBRANCH   5   6
ENDBRANCH   4   5
ENDBRANCH   3   4
ENDBRANCH   1   3
BRANCH   2  13
ATOM     13  C   UNL     1     170.768 150.879 155.627  1.00  0.00     0.027 C 
BRANCH  13  14
ATOM     14  C   UNL     1     172.046 151.630 156.042  1.00  0.00     0.004 C 
BRANCH  14  15
ATOM     15  C   UNL     1     171.807 152.797 157.018  1.00  0.00     0.000 C 
BRANCH  15  16
ATOM     16  C   UNL     1     172.434 154.115 156.534  1.00  0.00     0.000 C 
BRANCH  16  17
ATOM     17  C   UNL     1     171.683 154.735 155.342  1.00  0.00    -0.000 C 
BRANCH  17  18
ATOM     18  C   UNL     1     170.240 155.181 155.636  1.00  0.00    -0.000 C 
BRANCH  18  19
ATOM     19  C   UNL     1     169.201 154.461 154.763  1.00  0.00    -0.003 C 
ATOM     20  C   UNL     1     168.234 153.646 155.617  1.00  0.00     0.004 C 
ENDBRANCH  18  19
ENDBRANCH  17  18
ENDBRANCH  16  17
ENDBRANCH  15  16
ENDBRANCH  14  15
ENDBRANCH  13  14
ENDBRANCH   2  13
TORSDOF 15
ENDMDL
MODEL 5
REMARK VINA RESULT:    -2.782     15.454     17.242
REMARK INTER + INTRA:          -8.294
REMARK INTER:                  -6.113
REMARK INTRA:                  -2.181
REMARK UNBOUND:                -3.072
REMARK SMILES CCCCCCCCC=CCCCCCCCC(=O)[O-]
REMARK SMILES IDX 10 1 9 2 11 3 12 4 13 5 14 6 15 7 16 8 17 9 18 10 19 11
REMARK SMILES IDX 20 12 8 13 7 14 6 15 5 16 4 17 3 18 2 19 1 20
REMARK H PARENT
REMARK Flexibility Score: inf
ROOT
ATOM      1  C   UNL     1     167.720 170.008 153.424  1.00  0.00    -0.031 C 
ATOM      2  C   UNL     1     168.466 170.126 152.316  1.00  0.00    -0.031 C 
ENDROOT
BRANCH   1   3
ATOM      3  C   UNL     1     167.614 171.125 154.427  1.00  0.00     0.027 C 
BRANCH   3   4
ATOM      4  C   UNL     1     166.351 171.017 155.300  1.00  0.00     0.004 C 
BRANCH   4   5
ATOM      5  C   UNL     1     165.459 169.805 154.973  1.00  0.00     0.000 C 
BRANCH   5   6
ATOM      6  C   UNL     1     164.072 169.822 155.642  1.00  0.00     0.000 C 
BRANCH   6   7
ATOM      7  C   UNL     1     162.991 169.054 154.849  1.00  0.00     0.000 C 
BRANCH   7   8
ATOM      8  C   UNL     1     161.627 169.764 154.883  1.00  0.00     0.006 C 
BRANCH   8   9
ATOM      9  C   UNL     1     161.046 169.976 153.479  1.00  0.00     0.053 C 
BRANCH   9  10
ATOM     10  C   UNL     1     159.709 169.316 153.324  1.00  0.00     0.041 C 
ATOM     11  O   UNL     1     159.287 169.003 152.180  1.00  0.00    -0.550 OA
ATOM     12  O   UNL     1     158.945 169.017 154.445  1.00  0.00    -0.550 OA
ENDBRANCH   9  10
ENDBRANCH   8   9
ENDBRANCH   7   8
ENDBRANCH   6   7
ENDBRANCH   5   6
ENDBRANCH   4   5
ENDBRANCH   3   4
ENDBRANCH   1   3
BRANCH   2  13
ATOM     13  C   UNL     1     168.568 169.011 151.310  1.00  0.00     0.027 C 
BRANCH  13  14
ATOM     14  C   UNL     1     168.917 169.515 149.898  1.00  0.00     0.004 C 
BRANCH  14  15
ATOM     15  C   UNL     1     167.767 170.247 149.183  1.00  0.00     0.000 C 
BRANCH  15  16
ATOM     16  C   UNL     1     166.606 169.309 148.810  1.00  0.00     0.000 C 
BRANCH  16  17
ATOM     17  C   UNL     1     165.223 169.936 149.064  1.00  0.00    -0.000 C 
BRANCH  17  18
ATOM     18  C   UNL     1     165.205 171.101 150.070  1.00  0.00    -0.000 C 
BRANCH  18  19
ATOM     19  C   UNL     1     164.663 170.694 151.448  1.00  0.00    -0.003 C 
ATOM     20  C   UNL     1     164.255 169.224 151.467  1.00  0.00     0.004 C 
ENDBRANCH  18  19
ENDBRANCH  17  18
ENDBRANCH  16  17
ENDBRANCH  15  16
ENDBRANCH  14  15
ENDBRANCH  13  14
ENDBRANCH   2  13
TORSDOF 15
ENDMDL
MODEL 6
REMARK VINA RESULT:    -2.771      2.532      5.291
REMARK INTER + INTRA:          -8.273
REMARK INTER:                  -5.352
REMARK INTRA:                  -2.922
REMARK UNBOUND:                -3.072
REMARK SMILES CCCCCCCCC=CCCCCCCCC(=O)[O-]
REMARK SMILES IDX 10 1 9 2 11 3 12 4 13 5 14 6 15 7 16 8 17 9 18 10 19 11
REMARK SMILES IDX 20 12 8 13 7 14 6 15 5 16 4 17 3 18 2 19 1 20
REMARK H PARENT
REMARK Flexibility Score: inf
ROOT
ATOM      1  C   UNL     1     172.601 152.373 153.538  1.00  0.00    -0.031 C 
ATOM      2  C   UNL     1     172.922 152.806 152.310  1.00  0.00    -0.031 C 
ENDROOT
BRANCH   1   3
ATOM      3  C   UNL     1     173.125 153.051 154.776  1.00  0.00     0.027 C 
BRANCH   3   4
ATOM      4  C   UNL     1     172.746 152.301 156.065  1.00  0.00     0.004 C 
BRANCH   4   5
ATOM      5  C   UNL     1     171.380 151.591 156.003  1.00  0.00     0.000 C 
BRANCH   5   6
ATOM      6  C   UNL     1     170.172 152.479 156.360  1.00  0.00     0.000 C 
BRANCH   6   7
ATOM      7  C   UNL     1     168.955 152.274 155.431  1.00  0.00     0.000 C 
BRANCH   7   8
ATOM      8  C   UNL     1     169.188 152.854 154.026  1.00  0.00     0.006 C 
BRANCH   8   9
ATOM      9  C   UNL     1     169.109 151.782 152.932  1.00  0.00     0.053 C 
BRANCH   9  10
ATOM     10  C   UNL     1     168.078 152.116 151.897  1.00  0.00     0.041 C 
ATOM     11  O   UNL     1     168.080 151.522 150.787  1.00  0.00    -0.550 OA
ATOM     12  O   UNL     1     167.094 153.058 152.172  1.00  0.00    -0.550 OA
ENDBRANCH   9  10
ENDBRANCH   8   9
ENDBRANCH   7   8
ENDBRANCH   6   7
ENDBRANCH   5   6
ENDBRANCH   4   5
ENDBRANCH   3   4
ENDBRANCH   1   3
BRANCH   2  13
ATOM     13  C   UNL     1     172.394 152.132 151.072  1.00  0.00     0.027 C 
BRANCH  13  14
ATOM     14  C   UNL     1     171.576 153.084 150.181  1.00  0.00     0.004 C 
BRANCH  14  15
ATOM     15  C   UNL     1     171.571 154.549 150.655  1.00  0.00     0.000 C 
BRANCH  15  16
ATOM     16  C   UNL     1     170.181 155.022 151.111  1.00  0.00     0.000 C 
BRANCH  16  17
ATOM     17  C   UNL     1     170.244 156.168 152.138  1.00  0.00    -0.000 C 
BRANCH  17  18
ATOM     18  C   UNL     1     171.651 156.730 152.407  1.00  0.00    -0.000 C 
BRANCH  18  19
ATOM     19  C   UNL     1     171.975 156.843 153.904  1.00  0.00    -0.003 C 
ATOM     20  C   UNL     1     171.041 155.968 154.736  1.00  0.00     0.004 C 
ENDBRANCH  18  19
ENDBRANCH  17  18
ENDBRANCH  16  17
ENDBRANCH  15  16
ENDBRANCH  14  15
ENDBRANCH  13  14
ENDBRANCH   2  13
TORSDOF 15
ENDMDL
MODEL 7
REMARK VINA RESULT:    -2.765      2.449      4.845
REMARK INTER + INTRA:          -8.262
REMARK INTER:                  -5.412
REMARK INTRA:                  -2.850
REMARK UNBOUND:                -3.072
REMARK SMILES CCCCCCCCC=CCCCCCCCC(=O)[O-]
REMARK SMILES IDX 10 1 9 2 11 3 12 4 13 5 14 6 15 7 16 8 17 9 18 10 19 11
REMARK SMILES IDX 20 12 8 13 7 14 6 15 5 16 4 17 3 18 2 19 1 20
REMARK H PARENT
REMARK Flexibility Score: inf
ROOT
ATOM      1  C   UNL     1     171.639 155.902 151.778  1.00  0.00    -0.031 C 
ATOM      2  C   UNL     1     170.488 155.318 151.413  1.00  0.00    -0.031 C 
ENDROOT
BRANCH   1   3
ATOM      3  C   UNL     1     171.658 157.182 152.570  1.00  0.00     0.027 C 
BRANCH   3   4
ATOM      4  C   UNL     1     172.260 156.999 153.975  1.00  0.00     0.004 C 
BRANCH   4   5
ATOM      5  C   UNL     1     171.225 157.050 155.115  1.00  0.00     0.000 C 
BRANCH   5   6
ATOM      6  C   UNL     1     169.839 157.583 154.707  1.00  0.00     0.000 C 
BRANCH   6   7
ATOM      7  C   UNL     1     168.692 156.576 154.946  1.00  0.00     0.000 C 
BRANCH   7   8
ATOM      8  C   UNL     1     169.160 155.117 154.818  1.00  0.00     0.006 C 
BRANCH   8   9
ATOM      9  C   UNL     1     168.851 154.293 156.075  1.00  0.00     0.053 C 
BRANCH   9  10
ATOM     10  C   UNL     1     168.727 152.831 155.767  1.00  0.00     0.041 C 
ATOM     11  O   UNL     1     168.705 151.988 156.702  1.00  0.00    -0.550 OA
ATOM     12  O   UNL     1     168.603 152.404 154.452  1.00  0.00    -0.550 OA
ENDBRANCH   9  10
ENDBRANCH   8   9
ENDBRANCH   7   8
ENDBRANCH   6   7
ENDBRANCH   5   6
ENDBRANCH   4   5
ENDBRANCH   3   4
ENDBRANCH   1   3
BRANCH   2  13
ATOM     13  C   UNL     1     170.468 154.035 150.626  1.00  0.00     0.027 C 
BRANCH  13  14
ATOM     14  C   UNL     1     171.875 153.443 150.422  1.00  0.00     0.004 C 
BRANCH  14  15
ATOM     15  C   UNL     1     172.135 152.144 151.207  1.00  0.00     0.000 C 
BRANCH  15  16
ATOM     16  C   UNL     1     172.966 152.376 152.480  1.00  0.00     0.000 C 
BRANCH  16  17
ATOM     17  C   UNL     1     172.098 152.528 153.743  1.00  0.00    -0.000 C 
BRANCH  17  18
ATOM     18  C   UNL     1     172.588 153.582 154.752  1.00  0.00    -0.000 C 
BRANCH  18  19
ATOM     19  C   UNL     1     172.419 153.137 156.212  1.00  0.00    -0.003 C 
ATOM     20  C   UNL     1     172.254 151.623 156.311  1.00  0.00     0.004 C 
ENDBRANCH  18  19
ENDBRANCH  17  18
ENDBRANCH  16  17
ENDBRANCH  15  16
ENDBRANCH  14  15
ENDBRANCH  13  14
ENDBRANCH   2  13
TORSDOF 15
ENDMDL
MODEL 8
REMARK VINA RESULT:    -2.761      2.286      5.027
REMARK INTER + INTRA:          -8.254
REMARK INTER:                  -5.473
REMARK INTRA:                  -2.781
REMARK UNBOUND:                -3.072
REMARK SMILES CCCCCCCCC=CCCCCCCCC(=O)[O-]
REMARK SMILES IDX 10 1 9 2 11 3 12 4 13 5 14 6 15 7 16 8 17 9 18 10 19 11
REMARK SMILES IDX 20 12 8 13 7 14 6 15 5 16 4 17 3 18 2 19 1 20
REMARK H PARENT
REMARK Flexibility Score: inf
ROOT
ATOM      1  C   UNL     1     172.751 155.221 154.699  1.00  0.00    -0.031 C 
ATOM      2  C   UNL     1     171.784 155.971 154.153  1.00  0.00    -0.031 C 
ENDROOT
BRANCH   1   3
ATOM      3  C   UNL     1     172.477 154.301 155.858  1.00  0.00     0.027 C 
BRANCH   3   4
ATOM      4  C   UNL     1     172.907 152.850 155.576  1.00  0.00     0.004 C 
BRANCH   4   5
ATOM      5  C   UNL     1     172.059 151.788 156.301  1.00  0.00     0.000 C 
BRANCH   5   6
ATOM      6  C   UNL     1     171.083 151.011 155.397  1.00  0.00     0.000 C 
BRANCH   6   7
ATOM      7  C   UNL     1     169.605 151.131 155.832  1.00  0.00     0.000 C 
BRANCH   7   8
ATOM      8  C   UNL     1     169.114 152.588 155.834  1.00  0.00     0.006 C 
BRANCH   8   9
ATOM      9  C   UNL     1     169.122 153.208 154.431  1.00  0.00     0.053 C 
BRANCH   9  10
ATOM     10  C   UNL     1     167.858 152.911 153.682  1.00  0.00     0.041 C 
ATOM     11  O   UNL     1     167.841 152.963 152.425  1.00  0.00    -0.550 OA
ATOM     12  O   UNL     1     166.710 152.544 154.372  1.00  0.00    -0.550 OA
ENDBRANCH   9  10
ENDBRANCH   8   9
ENDBRANCH   7   8
ENDBRANCH   6   7
ENDBRANCH   5   6
ENDBRANCH   4   5
ENDBRANCH   3   4
ENDBRANCH   1   3
BRANCH   2  13
ATOM     13  C   UNL     1     172.057 156.888 152.990  1.00  0.00     0.027 C 
BRANCH  13  14
ATOM     14  C   UNL     1     170.959 156.823 151.913  1.00  0.00     0.004 C 
BRANCH  14  15
ATOM     15  C   UNL     1     170.271 155.451 151.789  1.00  0.00     0.000 C 
BRANCH  15  16
ATOM     16  C   UNL     1     170.797 154.628 150.601  1.00  0.00     0.000 C 
BRANCH  16  17
ATOM     17  C   UNL     1     172.091 153.861 150.927  1.00  0.00    -0.000 C 
BRANCH  17  18
ATOM     18  C   UNL     1     171.968 152.816 152.050  1.00  0.00    -0.000 C 
BRANCH  18  19
ATOM     19  C   UNL     1     171.070 151.630 151.670  1.00  0.00    -0.003 C 
ATOM     20  C   UNL     1     171.413 151.103 150.279  1.00  0.00     0.004 C 
ENDBRANCH  18  19
ENDBRANCH  17  18
ENDBRANCH  16  17
ENDBRANCH  15  16
ENDBRANCH  14  15
ENDBRANCH  13  14
ENDBRANCH   2  13
TORSDOF 15
ENDMDL
MODEL 9
REMARK VINA RESULT:    -2.742     15.149     16.598
REMARK INTER + INTRA:          -8.219
REMARK INTER:                  -6.023
REMARK INTRA:                  -2.196
REMARK UNBOUND:                -3.072
REMARK SMILES CCCCCCCCC=CCCCCCCCC(=O)[O-]
REMARK SMILES IDX 10 1 9 2 11 3 12 4 13 5 14 6 15 7 16 8 17 9 18 10 19 11
REMARK SMILES IDX 20 12 8 13 7 14 6 15 5 16 4 17 3 18 2 19 1 20
REMARK H PARENT
REMARK Flexibility Score: inf
ROOT
ATOM      1  C   UNL     1     166.449 168.521 148.249  1.00  0.00    -0.031 C 
ATOM      2  C   UNL     1     167.502 169.331 148.062  1.00  0.00    -0.031 C 
ENDROOT
BRANCH   1   3
ATOM      3  C   UNL     1     165.308 168.906 149.152  1.00  0.00     0.027 C 
BRANCH   3   4
ATOM      4  C   UNL     1     165.297 170.409 149.484  1.00  0.00     0.004 C 
BRANCH   4   5
ATOM      5  C   UNL     1     164.929 170.730 150.945  1.00  0.00     0.000 C 
BRANCH   5   6
ATOM      6  C   UNL     1     164.131 169.628 151.668  1.00  0.00     0.000 C 
BRANCH   6   7
ATOM      7  C   UNL     1     163.942 169.890 153.179  1.00  0.00     0.000 C 
BRANCH   7   8
ATOM      8  C   UNL     1     164.423 168.710 154.041  1.00  0.00     0.006 C 
BRANCH   8   9
ATOM      9  C   UNL     1     163.733 168.670 155.410  1.00  0.00     0.053 C 
BRANCH   9  10
ATOM     10  C   UNL     1     163.964 169.930 156.188  1.00  0.00     0.041 C 
ATOM     11  O   UNL     1     162.985 170.607 156.600  1.00  0.00    -0.550 OA
ATOM     12  O   UNL     1     165.257 170.338 156.487  1.00  0.00    -0.550 OA
ENDBRANCH   9  10
ENDBRANCH   8   9
ENDBRANCH   7   8
ENDBRANCH   6   7
ENDBRANCH   5   6
ENDBRANCH   4   5
ENDBRANCH   3   4
ENDBRANCH   1   3
BRANCH   2  13
ATOM     13  C   UNL     1     168.640 168.948 147.155  1.00  0.00     0.027 C 
BRANCH  13  14
ATOM     14  C   UNL     1     169.989 169.529 147.618  1.00  0.00     0.004 C 
BRANCH  14  15
ATOM     15  C   UNL     1     170.857 168.549 148.428  1.00  0.00     0.000 C 
BRANCH  15  16
ATOM     16  C   UNL     1     170.983 168.950 149.908  1.00  0.00     0.000 C 
BRANCH  16  17
ATOM     17  C   UNL     1     170.443 170.363 150.195  1.00  0.00    -0.000 C 
BRANCH  17  18
ATOM     18  C   UNL     1     169.264 170.427 151.181  1.00  0.00    -0.000 C 
BRANCH  18  19
ATOM     19  C   UNL     1     168.671 169.046 151.496  1.00  0.00    -0.003 C 
ATOM     20  C   UNL     1     167.779 169.099 152.733  1.00  0.00     0.004 C 
ENDBRANCH  18  19
ENDBRANCH  17  18
ENDBRANCH  16  17
ENDBRANCH  15  16
ENDBRANCH  14  15
ENDBRANCH  13  14
ENDBRANCH   2  13
TORSDOF 15
ENDMDL
