MODEL 1
REMARK VINA RESULT:    -4.942      0.000      0.000
REMARK INTER + INTRA:         -11.866
REMARK INTER:                  -9.564
REMARK INTRA:                  -2.302
REMARK UNBOUND:                -2.302
REMARK SMILES CCCCCCCCCCCCCCCCCC(=O)[O-]
REMARK SMILES IDX 10 1 11 2 12 3 13 4 14 5 15 6 16 7 17 8 18 9 19 10 20 11
REMARK SMILES IDX 9 12 8 13 7 14 6 15 5 16 4 17 3 18 2 19 1 20
REMARK H PARENT
REMARK Flexibility Score: inf
ROOT
ATOM      1  C   UNL     1      -3.869  11.283  -6.974  1.00  0.00     0.000 C 
ENDROOT
BRANCH   1   2
ATOM      2  C   UNL     1      -2.390  10.878  -7.078  1.00  0.00     0.000 C 
BRANCH   2   3
ATOM      3  C   UNL     1      -1.719  11.419  -8.352  1.00  0.00     0.000 C 
BRANCH   3   4
ATOM      4  C   UNL     1      -0.639  12.473  -8.057  1.00  0.00     0.000 C 
BRANCH   4   5
ATOM      5  C   UNL     1      -0.351  12.715  -6.561  1.00  0.00     0.000 C 
BRANCH   5   6
ATOM      6  C   UNL     1       1.124  12.553  -6.143  1.00  0.00     0.000 C 
BRANCH   6   7
ATOM      7  C   UNL     1       1.680  11.124  -6.270  1.00  0.00     0.006 C 
BRANCH   7   8
ATOM      8  C   UNL     1       2.851  11.027  -7.257  1.00  0.00     0.053 C 
BRANCH   8   9
ATOM      9  C   UNL     1       2.513  10.098  -8.379  1.00  0.00     0.041 C 
ATOM     10  O   UNL     1       1.346   9.636  -8.489  1.00  0.00    -0.550 OA
ATOM     11  O   UNL     1       3.495   9.713  -9.283  1.00  0.00    -0.550 OA
ENDBRANCH   8   9
ENDBRANCH   7   8
ENDBRANCH   6   7
ENDBRANCH   5   6
ENDBRANCH   4   5
ENDBRANCH   3   4
ENDBRANCH   2   3
ENDBRANCH   1   2
BRANCH   1  12
ATOM     12  C   UNL     1      -4.099  12.770  -7.283  1.00  0.00     0.000 C 
BRANCH  12  13
ATOM     13  C   UNL     1      -4.917  12.939  -8.573  1.00  0.00    -0.000 C 
BRANCH  13  14
ATOM     14  C   UNL     1      -5.996  11.858  -8.740  1.00  0.00    -0.000 C 
BRANCH  14  15
ATOM     15  C   UNL     1      -6.007  11.245 -10.152  1.00  0.00    -0.000 C 
BRANCH  15  16
ATOM     16  C   UNL     1      -4.599  10.824 -10.609  1.00  0.00    -0.000 C 
BRANCH  16  17
ATOM     17  C   UNL     1      -4.363   9.299 -10.526  1.00  0.00    -0.000 C 
BRANCH  17  18
ATOM     18  C   UNL     1      -5.613   8.506 -10.099  1.00  0.00    -0.000 C 
BRANCH  18  19
ATOM     19  C   UNL     1      -5.475   7.773  -8.755  1.00  0.00    -0.003 C 
ATOM     20  C   UNL     1      -6.266   8.444  -7.630  1.00  0.00     0.004 C 
ENDBRANCH  18  19
ENDBRANCH  17  18
ENDBRANCH  16  17
ENDBRANCH  15  16
ENDBRANCH  14  15
ENDBRANCH  13  14
ENDBRANCH  12  13
ENDBRANCH   1  12
TORSDOF 16
ENDMDL
MODEL 2
REMARK VINA RESULT:    -4.924      1.567      3.197
REMARK INTER + INTRA:         -11.832
REMARK INTER:                  -9.164
REMARK INTRA:                  -2.668
REMARK UNBOUND:                -2.302
REMARK SMILES CCCCCCCCCCCCCCCCCC(=O)[O-]
REMARK SMILES IDX 10 1 11 2 12 3 13 4 14 5 15 6 16 7 17 8 18 9 19 10 20 11
REMARK SMILES IDX 9 12 8 13 7 14 6 15 5 16 4 17 3 18 2 19 1 20
REMARK H PARENT
REMARK Flexibility Score: inf
ROOT
ATOM      1  C   UNL     1      -4.473   9.637  -9.788  1.00  0.00     0.000 C 
ENDROOT
BRANCH   1   2
ATOM      2  C   UNL     1      -3.346  10.082  -8.842  1.00  0.00     0.000 C 
BRANCH   2   3
ATOM      3  C   UNL     1      -2.596  11.321  -9.361  1.00  0.00     0.000 C 
BRANCH   3   4
ATOM      4  C   UNL     1      -2.526  12.454  -8.323  1.00  0.00     0.000 C 
BRANCH   4   5
ATOM      5  C   UNL     1      -1.132  12.693  -7.706  1.00  0.00     0.000 C 
BRANCH   5   6
ATOM      6  C   UNL     1      -0.031  11.724  -8.180  1.00  0.00     0.000 C 
BRANCH   6   7
ATOM      7  C   UNL     1       0.478  10.746  -7.108  1.00  0.00     0.006 C 
BRANCH   7   8
ATOM      8  C   UNL     1       1.431   9.685  -7.673  1.00  0.00     0.053 C 
BRANCH   8   9
ATOM      9  C   UNL     1       2.793  10.266  -7.886  1.00  0.00     0.041 C 
ATOM     10  O   UNL     1       3.398  10.080  -8.975  1.00  0.00    -0.550 OA
ATOM     11  O   UNL     1       3.409  10.983  -6.868  1.00  0.00    -0.550 OA
ENDBRANCH   8   9
ENDBRANCH   7   8
ENDBRANCH   6   7
ENDBRANCH   5   6
ENDBRANCH   4   5
ENDBRANCH   3   4
ENDBRANCH   2   3
ENDBRANCH   1   2
BRANCH   1  12
ATOM     12  C   UNL     1      -5.007  10.787 -10.656  1.00  0.00     0.000 C 
BRANCH  12  13
ATOM     13  C   UNL     1      -6.492  11.048 -10.362  1.00  0.00    -0.000 C 
BRANCH  13  14
ATOM     14  C   UNL     1      -6.748  11.451  -8.901  1.00  0.00    -0.000 C 
BRANCH  14  15
ATOM     15  C   UNL     1      -6.298  12.891  -8.597  1.00  0.00    -0.000 C 
BRANCH  15  16
ATOM     16  C   UNL     1      -5.918  13.079  -7.118  1.00  0.00    -0.000 C 
BRANCH  16  17
ATOM     17  C   UNL     1      -5.771  11.743  -6.354  1.00  0.00    -0.000 C 
BRANCH  17  18
ATOM     18  C   UNL     1      -4.561  11.709  -5.402  1.00  0.00    -0.000 C 
BRANCH  18  19
ATOM     19  C   UNL     1      -3.896  10.329  -5.265  1.00  0.00    -0.003 C 
ATOM     20  C   UNL     1      -2.410  10.420  -4.916  1.00  0.00     0.004 C 
ENDBRANCH  18  19
ENDBRANCH  17  18
ENDBRANCH  16  17
ENDBRANCH  15  16
ENDBRANCH  14  15
ENDBRANCH  13  14
ENDBRANCH  12  13
ENDBRANCH   1  12
TORSDOF 16
ENDMDL
MODEL 3
REMARK VINA RESULT:    -4.784      1.441      2.162
REMARK INTER + INTRA:         -11.561
REMARK INTER:                  -9.161
REMARK INTRA:                  -2.400
REMARK UNBOUND:                -2.302
REMARK SMILES CCCCCCCCCCCCCCCCCC(=O)[O-]
REMARK SMILES IDX 10 1 11 2 12 3 13 4 14 5 15 6 16 7 17 8 18 9 19 10 20 11
REMARK SMILES IDX 9 12 8 13 7 14 6 15 5 16 4 17 3 18 2 19 1 20
REMARK H PARENT
REMARK Flexibility Score: inf
ROOT
ATOM      1  C   UNL     1      -3.310  10.662  -8.408  1.00  0.00     0.000 C 
ENDROOT
BRANCH   1   2
ATOM      2  C   UNL     1      -3.390  10.570  -6.875  1.00  0.00     0.000 C 
BRANCH   2   3
ATOM      3  C   UNL     1      -3.160  11.928  -6.191  1.00  0.00     0.000 C 
BRANCH   3   4
ATOM      4  C   UNL     1      -2.098  11.863  -5.080  1.00  0.00     0.000 C 
BRANCH   4   5
ATOM      5  C   UNL     1      -0.648  11.667  -5.570  1.00  0.00     0.000 C 
BRANCH   5   6
ATOM      6  C   UNL     1      -0.183  12.659  -6.655  1.00  0.00     0.000 C 
BRANCH   6   7
ATOM      7  C   UNL     1       0.301  12.009  -7.962  1.00  0.00     0.006 C 
BRANCH   7   8
ATOM      8  C   UNL     1       0.631  10.520  -7.801  1.00  0.00     0.053 C 
BRANCH   8   9
ATOM      9  C   UNL     1       2.077  10.270  -8.090  1.00  0.00     0.041 C 
ATOM     10  O   UNL     1       2.412   9.525  -9.048  1.00  0.00    -0.550 OA
ATOM     11  O   UNL     1       3.055  10.832  -7.279  1.00  0.00    -0.550 OA
ENDBRANCH   8   9
ENDBRANCH   7   8
ENDBRANCH   6   7
ENDBRANCH   5   6
ENDBRANCH   4   5
ENDBRANCH   3   4
ENDBRANCH   2   3
ENDBRANCH   1   2
BRANCH   1  12
ATOM     12  C   UNL     1      -3.782  12.021  -8.945  1.00  0.00     0.000 C 
BRANCH  12  13
ATOM     13  C   UNL     1      -5.290  11.998  -9.240  1.00  0.00    -0.000 C 
BRANCH  13  14
ATOM     14  C   UNL     1      -5.668  10.985 -10.333  1.00  0.00    -0.000 C 
BRANCH  14  15
ATOM     15  C   UNL     1      -7.023  10.306 -10.066  1.00  0.00    -0.000 C 
BRANCH  15  16
ATOM     16  C   UNL     1      -7.065   9.620  -8.689  1.00  0.00    -0.000 C 
BRANCH  16  17
ATOM     17  C   UNL     1      -6.300   8.277  -8.655  1.00  0.00    -0.000 C 
BRANCH  17  18
ATOM     18  C   UNL     1      -6.583   7.377  -9.874  1.00  0.00    -0.000 C 
BRANCH  18  19
ATOM     19  C   UNL     1      -5.389   7.200 -10.826  1.00  0.00    -0.003 C 
ATOM     20  C   UNL     1      -4.044   7.444 -10.140  1.00  0.00     0.004 C 
ENDBRANCH  18  19
ENDBRANCH  17  18
ENDBRANCH  16  17
ENDBRANCH  15  16
ENDBRANCH  14  15
ENDBRANCH  13  14
ENDBRANCH  12  13
ENDBRANCH   1  12
TORSDOF 16
ENDMDL
MODEL 4
REMARK VINA RESULT:    -4.712      3.305      6.325
REMARK INTER + INTRA:         -11.423
REMARK INTER:                  -8.679
REMARK INTRA:                  -2.744
REMARK UNBOUND:                -2.302
REMARK SMILES CCCCCCCCCCCCCCCCCC(=O)[O-]
REMARK SMILES IDX 10 1 11 2 12 3 13 4 14 5 15 6 16 7 17 8 18 9 19 10 20 11
REMARK SMILES IDX 9 12 8 13 7 14 6 15 5 16 4 17 3 18 2 19 1 20
REMARK H PARENT
REMARK Flexibility Score: inf
ROOT
ATOM      1  C   UNL     1      -4.984  10.957  -6.642  1.00  0.00     0.000 C 
ENDROOT
BRANCH   1   2
ATOM      2  C   UNL     1      -5.394  12.392  -7.012  1.00  0.00     0.000 C 
BRANCH   2   3
ATOM      3  C   UNL     1      -5.462  12.612  -8.532  1.00  0.00     0.000 C 
BRANCH   3   4
ATOM      4  C   UNL     1      -6.055  11.407  -9.284  1.00  0.00     0.000 C 
BRANCH   4   5
ATOM      5  C   UNL     1      -5.358  11.058 -10.615  1.00  0.00     0.000 C 
BRANCH   5   6
ATOM      6  C   UNL     1      -4.095  10.182 -10.484  1.00  0.00     0.000 C 
BRANCH   6   7
ATOM      7  C   UNL     1      -4.254   8.947  -9.582  1.00  0.00     0.006 C 
BRANCH   7   8
ATOM      8  C   UNL     1      -4.300   7.633 -10.373  1.00  0.00     0.053 C 
BRANCH   8   9
ATOM      9  C   UNL     1      -5.710   7.150 -10.503  1.00  0.00     0.041 C 
ATOM     10  O   UNL     1      -6.645   7.759  -9.918  1.00  0.00    -0.550 OA
ATOM     11  O   UNL     1      -5.988   6.008 -11.243  1.00  0.00    -0.550 OA
ENDBRANCH   8   9
ENDBRANCH   7   8
ENDBRANCH   6   7
ENDBRANCH   5   6
ENDBRANCH   4   5
ENDBRANCH   3   4
ENDBRANCH   2   3
ENDBRANCH   1   2
BRANCH   1  12
ATOM     12  C   UNL     1      -3.839  10.914  -5.618  1.00  0.00     0.000 C 
BRANCH  12  13
ATOM     13  C   UNL     1      -3.603  12.303  -5.005  1.00  0.00    -0.000 C 
BRANCH  13  14
ATOM     14  C   UNL     1      -2.156  12.793  -5.181  1.00  0.00    -0.000 C 
BRANCH  14  15
ATOM     15  C   UNL     1      -2.009  13.795  -6.340  1.00  0.00    -0.000 C 
BRANCH  15  16
ATOM     16  C   UNL     1      -1.109  13.251  -7.464  1.00  0.00    -0.000 C 
BRANCH  16  17
ATOM     17  C   UNL     1      -1.815  12.203  -8.354  1.00  0.00    -0.000 C 
BRANCH  17  18
ATOM     18  C   UNL     1      -1.200  10.795  -8.250  1.00  0.00    -0.000 C 
BRANCH  18  19
ATOM     19  C   UNL     1       0.046  10.708  -7.353  1.00  0.00    -0.003 C 
ATOM     20  C   UNL     1       1.259  10.124  -8.079  1.00  0.00     0.004 C 
ENDBRANCH  18  19
ENDBRANCH  17  18
ENDBRANCH  16  17
ENDBRANCH  15  16
ENDBRANCH  14  15
ENDBRANCH  13  14
ENDBRANCH  12  13
ENDBRANCH   1  12
TORSDOF 16
ENDMDL
MODEL 5
REMARK VINA RESULT:    -4.686      3.112      7.232
REMARK INTER + INTRA:         -11.371
REMARK INTER:                  -9.437
REMARK INTRA:                  -1.934
REMARK UNBOUND:                -2.302
REMARK SMILES CCCCCCCCCCCCCCCCCC(=O)[O-]
REMARK SMILES IDX 10 1 11 2 12 3 13 4 14 5 15 6 16 7 17 8 18 9 19 10 20 11
REMARK SMILES IDX 9 12 8 13 7 14 6 15 5 16 4 17 3 18 2 19 1 20
REMARK H PARENT
REMARK Flexibility Score: inf
ROOT
ATOM      1  C   UNL     1      -2.391  12.621  -8.512  1.00  0.00     0.000 C 
ENDROOT
BRANCH   1   2
ATOM      2  C   UNL     1      -3.644  12.793  -7.638  1.00  0.00     0.000 C 
BRANCH   2   3
ATOM      3  C   UNL     1      -4.913  13.044  -8.469  1.00  0.00     0.000 C 
BRANCH   3   4
ATOM      4  C   UNL     1      -5.811  11.800  -8.579  1.00  0.00     0.000 C 
BRANCH   4   5
ATOM      5  C   UNL     1      -6.064  11.300 -10.017  1.00  0.00     0.000 C 
BRANCH   5   6
ATOM      6  C   UNL     1      -5.035  10.282 -10.548  1.00  0.00     0.000 C 
BRANCH   6   7
ATOM      7  C   UNL     1      -4.709   9.127  -9.585  1.00  0.00     0.006 C 
BRANCH   7   8
ATOM      8  C   UNL     1      -4.228   7.864 -10.311  1.00  0.00     0.053 C 
BRANCH   8   9
ATOM      9  C   UNL     1      -5.394   7.042 -10.758  1.00  0.00     0.041 C 
ATOM     10  O   UNL     1      -6.476   7.074 -10.114  1.00  0.00    -0.550 OA
ATOM     11  O   UNL     1      -5.276   6.211 -11.865  1.00  0.00    -0.550 OA
ENDBRANCH   8   9
ENDBRANCH   7   8
ENDBRANCH   6   7
ENDBRANCH   5   6
ENDBRANCH   4   5
ENDBRANCH   3   4
ENDBRANCH   2   3
ENDBRANCH   1   2
BRANCH   1  12
ATOM     12  C   UNL     1      -1.933  11.158  -8.610  1.00  0.00     0.000 C 
BRANCH  12  13
ATOM     13  C   UNL     1      -1.028  10.788  -7.425  1.00  0.00    -0.000 C 
BRANCH  13  14
ATOM     14  C   UNL     1       0.385  10.371  -7.862  1.00  0.00    -0.000 C 
BRANCH  14  15
ATOM     15  C   UNL     1       1.397  11.527  -7.773  1.00  0.00    -0.000 C 
BRANCH  15  16
ATOM     16  C   UNL     1       2.526  11.231  -6.770  1.00  0.00    -0.000 C 
BRANCH  16  17
ATOM     17  C   UNL     1       2.288  11.865  -5.381  1.00  0.00    -0.000 C 
BRANCH  17  18
ATOM     18  C   UNL     1       1.542  13.212  -5.439  1.00  0.00    -0.000 C 
BRANCH  18  19
ATOM     19  C   UNL     1       0.187  13.222  -4.714  1.00  0.00    -0.003 C 
ATOM     20  C   UNL     1      -0.873  14.043  -5.450  1.00  0.00     0.004 C 
ENDBRANCH  18  19
ENDBRANCH  17  18
ENDBRANCH  16  17
ENDBRANCH  15  16
ENDBRANCH  14  15
ENDBRANCH  13  14
ENDBRANCH  12  13
ENDBRANCH   1  12
TORSDOF 16
ENDMDL
MODEL 6
REMARK VINA RESULT:    -4.677      2.432      7.000
REMARK INTER + INTRA:         -11.354
REMARK INTER:                  -9.646
REMARK INTRA:                  -1.707
REMARK UNBOUND:                -2.302
REMARK SMILES CCCCCCCCCCCCCCCCCC(=O)[O-]
REMARK SMILES IDX 10 1 11 2 12 3 13 4 14 5 15 6 16 7 17 8 18 9 19 10 20 11
REMARK SMILES IDX 9 12 8 13 7 14 6 15 5 16 4 17 3 18 2 19 1 20
REMARK H PARENT
REMARK Flexibility Score: inf
ROOT
ATOM      1  C   UNL     1      -2.192  11.143  -7.705  1.00  0.00     0.000 C 
ENDROOT
BRANCH   1   2
ATOM      2  C   UNL     1      -2.763  12.469  -8.232  1.00  0.00     0.000 C 
BRANCH   2   3
ATOM      3  C   UNL     1      -4.158  12.778  -7.662  1.00  0.00     0.000 C 
BRANCH   3   4
ATOM      4  C   UNL     1      -5.220  12.975  -8.758  1.00  0.00     0.000 C 
BRANCH   4   5
ATOM      5  C   UNL     1      -6.189  11.790  -8.952  1.00  0.00     0.000 C 
BRANCH   5   6
ATOM      6  C   UNL     1      -6.112  11.098 -10.328  1.00  0.00     0.000 C 
BRANCH   6   7
ATOM      7  C   UNL     1      -5.140   9.908 -10.402  1.00  0.00     0.006 C 
BRANCH   7   8
ATOM      8  C   UNL     1      -5.823   8.563 -10.124  1.00  0.00     0.053 C 
BRANCH   8   9
ATOM      9  C   UNL     1      -4.943   7.432 -10.551  1.00  0.00     0.041 C 
ATOM     10  O   UNL     1      -3.735   7.399 -10.197  1.00  0.00    -0.550 OA
ATOM     11  O   UNL     1      -5.448   6.431 -11.372  1.00  0.00    -0.550 OA
ENDBRANCH   8   9
ENDBRANCH   7   8
ENDBRANCH   6   7
ENDBRANCH   5   6
ENDBRANCH   4   5
ENDBRANCH   3   4
ENDBRANCH   2   3
ENDBRANCH   1   2
BRANCH   1  12
ATOM     12  C   UNL     1      -2.524  10.902  -6.224  1.00  0.00     0.000 C 
BRANCH  12  13
ATOM     13  C   UNL     1      -1.303  11.193  -5.337  1.00  0.00    -0.000 C 
BRANCH  13  14
ATOM     14  C   UNL     1      -1.033  12.697  -5.170  1.00  0.00    -0.000 C 
BRANCH  14  15
ATOM     15  C   UNL     1       0.359  13.107  -5.681  1.00  0.00    -0.000 C 
BRANCH  15  16
ATOM     16  C   UNL     1       1.468  12.186  -5.142  1.00  0.00    -0.000 C 
BRANCH  16  17
ATOM     17  C   UNL     1       2.292  11.508  -6.260  1.00  0.00    -0.000 C 
BRANCH  17  18
ATOM     18  C   UNL     1       1.558  11.446  -7.614  1.00  0.00    -0.000 C 
BRANCH  18  19
ATOM     19  C   UNL     1       1.547  10.055  -8.270  1.00  0.00    -0.003 C 
ATOM     20  C   UNL     1       2.842   9.746  -9.023  1.00  0.00     0.004 C 
ENDBRANCH  18  19
ENDBRANCH  17  18
ENDBRANCH  16  17
ENDBRANCH  15  16
ENDBRANCH  14  15
ENDBRANCH  13  14
ENDBRANCH  12  13
ENDBRANCH   1  12
TORSDOF 16
ENDMDL
MODEL 7
REMARK VINA RESULT:    -4.674      2.530      6.940
REMARK INTER + INTRA:         -11.349
REMARK INTER:                  -9.477
REMARK INTRA:                  -1.871
REMARK UNBOUND:                -2.302
REMARK SMILES CCCCCCCCCCCCCCCCCC(=O)[O-]
REMARK SMILES IDX 10 1 11 2 12 3 13 4 14 5 15 6 16 7 17 8 18 9 19 10 20 11
REMARK SMILES IDX 9 12 8 13 7 14 6 15 5 16 4 17 3 18 2 19 1 20
REMARK H PARENT
REMARK Flexibility Score: inf
ROOT
ATOM      1  C   UNL     1      -3.155  10.740  -7.597  1.00  0.00     0.000 C 
ENDROOT
BRANCH   1   2
ATOM      2  C   UNL     1      -3.229  11.999  -8.476  1.00  0.00     0.000 C 
BRANCH   2   3
ATOM      3  C   UNL     1      -4.633  12.228  -9.061  1.00  0.00     0.000 C 
BRANCH   3   4
ATOM      4  C   UNL     1      -5.086  11.088  -9.990  1.00  0.00     0.000 C 
BRANCH   4   5
ATOM      5  C   UNL     1      -6.509  10.554  -9.727  1.00  0.00     0.000 C 
BRANCH   5   6
ATOM      6  C   UNL     1      -6.660   9.682  -8.465  1.00  0.00     0.000 C 
BRANCH   6   7
ATOM      7  C   UNL     1      -6.110   8.252  -8.595  1.00  0.00     0.006 C 
BRANCH   7   8
ATOM      8  C   UNL     1      -6.449   7.604  -9.944  1.00  0.00     0.053 C 
BRANCH   8   9
ATOM      9  C   UNL     1      -5.204   7.127 -10.622  1.00  0.00     0.041 C 
ATOM     10  O   UNL     1      -5.276   6.315 -11.582  1.00  0.00    -0.550 OA
ATOM     11  O   UNL     1      -3.960   7.551 -10.171  1.00  0.00    -0.550 OA
ENDBRANCH   8   9
ENDBRANCH   7   8
ENDBRANCH   6   7
ENDBRANCH   5   6
ENDBRANCH   4   5
ENDBRANCH   3   4
ENDBRANCH   2   3
ENDBRANCH   1   2
BRANCH   1  12
ATOM     12  C   UNL     1      -3.147  11.066  -6.096  1.00  0.00     0.000 C 
BRANCH  12  13
ATOM     13  C   UNL     1      -2.450  12.410  -5.832  1.00  0.00    -0.000 C 
BRANCH  13  14
ATOM     14  C   UNL     1      -0.995  12.244  -5.366  1.00  0.00    -0.000 C 
BRANCH  14  15
ATOM     15  C   UNL     1       0.009  12.937  -6.304  1.00  0.00    -0.000 C 
BRANCH  15  16
ATOM     16  C   UNL     1       0.374  12.055  -7.512  1.00  0.00    -0.000 C 
BRANCH  16  17
ATOM     17  C   UNL     1       0.656  10.585  -7.128  1.00  0.00    -0.000 C 
BRANCH  17  18
ATOM     18  C   UNL     1       1.438   9.808  -8.205  1.00  0.00    -0.000 C 
BRANCH  18  19
ATOM     19  C   UNL     1       2.926  10.180  -8.304  1.00  0.00    -0.003 C 
ATOM     20  C   UNL     1       3.579   9.672  -9.591  1.00  0.00     0.004 C 
ENDBRANCH  18  19
ENDBRANCH  17  18
ENDBRANCH  16  17
ENDBRANCH  15  16
ENDBRANCH  14  15
ENDBRANCH  13  14
ENDBRANCH  12  13
ENDBRANCH   1  12
TORSDOF 16
ENDMDL
MODEL 8
REMARK VINA RESULT:    -4.638      1.110      2.916
REMARK INTER + INTRA:         -11.278
REMARK INTER:                  -8.861
REMARK INTRA:                  -2.417
REMARK UNBOUND:                -2.302
REMARK SMILES CCCCCCCCCCCCCCCCCC(=O)[O-]
REMARK SMILES IDX 10 1 11 2 12 3 13 4 14 5 15 6 16 7 17 8 18 9 19 10 20 11
REMARK SMILES IDX 9 12 8 13 7 14 6 15 5 16 4 17 3 18 2 19 1 20
REMARK H PARENT
REMARK Flexibility Score: inf
ROOT
ATOM      1  C   UNL     1      -6.095  11.910  -9.120  1.00  0.00     0.000 C 
ENDROOT
BRANCH   1   2
ATOM      2  C   UNL     1      -4.684  12.348  -8.695  1.00  0.00     0.000 C 
BRANCH   2   3
ATOM      3  C   UNL     1      -4.363  11.968  -7.240  1.00  0.00     0.000 C 
BRANCH   3   4
ATOM      4  C   UNL     1      -3.354  10.812  -7.133  1.00  0.00     0.000 C 
BRANCH   4   5
ATOM      5  C   UNL     1      -2.112  10.941  -8.039  1.00  0.00     0.000 C 
BRANCH   5   6
ATOM      6  C   UNL     1      -1.178  12.122  -7.708  1.00  0.00     0.000 C 
BRANCH   6   7
ATOM      7  C   UNL     1       0.313  11.869  -7.989  1.00  0.00     0.006 C 
BRANCH   7   8
ATOM      8  C   UNL     1       0.841  10.601  -7.306  1.00  0.00     0.053 C 
BRANCH   8   9
ATOM      9  C   UNL     1       2.188  10.239  -7.845  1.00  0.00     0.041 C 
ATOM     10  O   UNL     1       2.290   9.654  -8.956  1.00  0.00    -0.550 OA
ATOM     11  O   UNL     1       3.330  10.515  -7.105  1.00  0.00    -0.550 OA
ENDBRANCH   8   9
ENDBRANCH   7   8
ENDBRANCH   6   7
ENDBRANCH   5   6
ENDBRANCH   4   5
ENDBRANCH   3   4
ENDBRANCH   2   3
ENDBRANCH   1   2
BRANCH   1  12
ATOM     12  C   UNL     1      -6.078  10.915 -10.291  1.00  0.00     0.000 C 
BRANCH  12  13
ATOM     13  C   UNL     1      -4.636  10.592 -10.712  1.00  0.00    -0.000 C 
BRANCH  13  14
ATOM     14  C   UNL     1      -4.241   9.137 -10.415  1.00  0.00    -0.000 C 
BRANCH  14  15
ATOM     15  C   UNL     1      -5.368   8.140 -10.740  1.00  0.00    -0.000 C 
BRANCH  15  16
ATOM     16  C   UNL     1      -5.737   7.269  -9.526  1.00  0.00    -0.000 C 
BRANCH  16  17
ATOM     17  C   UNL     1      -5.384   7.930  -8.174  1.00  0.00    -0.000 C 
BRANCH  17  18
ATOM     18  C   UNL     1      -6.580   8.634  -7.503  1.00  0.00    -0.000 C 
BRANCH  18  19
ATOM     19  C   UNL     1      -6.370   8.968  -6.017  1.00  0.00    -0.003 C 
ATOM     20  C   UNL     1      -5.666   7.847  -5.251  1.00  0.00     0.004 C 
ENDBRANCH  18  19
ENDBRANCH  17  18
ENDBRANCH  16  17
ENDBRANCH  15  16
ENDBRANCH  14  15
ENDBRANCH  13  14
ENDBRANCH  12  13
ENDBRANCH   1  12
TORSDOF 16
ENDMDL
MODEL 9
REMARK VINA RESULT:    -4.607      3.053      6.957
REMARK INTER + INTRA:         -11.218
REMARK INTER:                  -9.230
REMARK INTRA:                  -1.987
REMARK UNBOUND:                -2.302
REMARK SMILES CCCCCCCCCCCCCCCCCC(=O)[O-]
REMARK SMILES IDX 10 1 11 2 12 3 13 4 14 5 15 6 16 7 17 8 18 9 19 10 20 11
REMARK SMILES IDX 9 12 8 13 7 14 6 15 5 16 4 17 3 18 2 19 1 20
REMARK H PARENT
REMARK Flexibility Score: inf
ROOT
ATOM      1  C   UNL     1      -4.377  12.786  -7.841  1.00  0.00     0.000 C 
ENDROOT
BRANCH   1   2
ATOM      2  C   UNL     1      -5.699  12.889  -8.619  1.00  0.00     0.000 C 
BRANCH   2   3
ATOM      3  C   UNL     1      -6.664  11.736  -8.296  1.00  0.00     0.000 C 
BRANCH   3   4
ATOM      4  C   UNL     1      -6.771  10.710  -9.437  1.00  0.00     0.000 C 
BRANCH   4   5
ATOM      5  C   UNL     1      -5.790  10.926 -10.608  1.00  0.00     0.000 C 
BRANCH   5   6
ATOM      6  C   UNL     1      -4.671   9.873 -10.729  1.00  0.00     0.000 C 
BRANCH   6   7
ATOM      7  C   UNL     1      -4.599   8.867  -9.567  1.00  0.00     0.006 C 
BRANCH   7   8
ATOM      8  C   UNL     1      -4.308   7.436 -10.036  1.00  0.00     0.053 C 
BRANCH   8   9
ATOM      9  C   UNL     1      -5.499   6.863 -10.737  1.00  0.00     0.041 C 
ATOM     10  O   UNL     1      -6.639   6.928 -10.205  1.00  0.00    -0.550 OA
ATOM     11  O   UNL     1      -5.346   6.226 -11.961  1.00  0.00    -0.550 OA
ENDBRANCH   8   9
ENDBRANCH   7   8
ENDBRANCH   6   7
ENDBRANCH   5   6
ENDBRANCH   4   5
ENDBRANCH   3   4
ENDBRANCH   2   3
ENDBRANCH   1   2
BRANCH   1  12
ATOM     12  C   UNL     1      -3.156  12.650  -8.763  1.00  0.00     0.000 C 
BRANCH  12  13
ATOM     13  C   UNL     1      -2.323  11.415  -8.387  1.00  0.00    -0.000 C 
BRANCH  13  14
ATOM     14  C   UNL     1      -2.490  11.010  -6.914  1.00  0.00    -0.000 C 
BRANCH  14  15
ATOM     15  C   UNL     1      -1.188  11.162  -6.107  1.00  0.00    -0.000 C 
BRANCH  15  16
ATOM     16  C   UNL     1      -0.316  12.317  -6.630  1.00  0.00    -0.000 C 
BRANCH  16  17
ATOM     17  C   UNL     1       1.089  12.357  -5.988  1.00  0.00    -0.000 C 
BRANCH  17  18
ATOM     18  C   UNL     1       2.026  11.241  -6.489  1.00  0.00    -0.000 C 
BRANCH  18  19
ATOM     19  C   UNL     1       2.139  11.143  -8.019  1.00  0.00    -0.003 C 
ATOM     20  C   UNL     1       2.391   9.715  -8.504  1.00  0.00     0.004 C 
ENDBRANCH  18  19
ENDBRANCH  17  18
ENDBRANCH  16  17
ENDBRANCH  15  16
ENDBRANCH  14  15
ENDBRANCH  13  14
ENDBRANCH  12  13
ENDBRANCH   1  12
TORSDOF 16
ENDMDL
