MODEL 1
REMARK VINA RESULT:    -5.777      0.000      0.000
REMARK INTER + INTRA:          -7.053
REMARK INTER:                  -6.790
REMARK INTRA:                  -0.263
REMARK UNBOUND:                -0.263
REMARK SMILES O=c1cc(-c2ccc(O)c(O)c2)oc2cc(O)cc(O)c12
REMARK SMILES IDX 4 1 3 2 2 3 1 4 21 5 19 6 18 7 16 8 15 9 14 10 13 11 5 12
REMARK SMILES IDX 6 13 7 14 8 15 12 16 10 17 9 18 11 20 20 22 17 24
REMARK H PARENT 9 19 11 21 20 23 17 25
REMARK Flexibility Score: inf
ROOT
ATOM      1  C   UNL     1    -105.876  44.565  54.172  1.00  0.00     0.138 A 
ATOM      2  C   UNL     1    -106.932  43.685  54.445  1.00  0.00     0.100 A 
ATOM      3  C   UNL     1    -106.793  42.728  55.452  1.00  0.00     0.197 A 
ATOM      4  O   UNL     1    -107.734  41.914  55.631  1.00  0.00    -0.289 OA
ATOM      5  C   UNL     1    -105.599  42.675  56.210  1.00  0.00     0.107 A 
ATOM      6  C   UNL     1    -105.360  41.770  57.287  1.00  0.00     0.134 A 
ATOM      7  C   UNL     1    -104.096  41.731  57.888  1.00  0.00     0.093 A 
ATOM      8  C   UNL     1    -103.083  42.604  57.494  1.00  0.00     0.123 A 
ATOM      9  C   UNL     1    -103.321  43.530  56.478  1.00  0.00     0.094 A 
ATOM     10  C   UNL     1    -104.562  43.570  55.835  1.00  0.00     0.146 A 
ATOM     11  O   UNL     1    -104.745  44.457  54.863  1.00  0.00    -0.456 OA
ENDROOT
BRANCH   1  12
ATOM     12  C   UNL     1    -105.971  45.601  53.114  1.00  0.00     0.021 A 
ATOM     13  C   UNL     1    -105.610  45.331  51.780  1.00  0.00     0.016 A 
ATOM     14  C   UNL     1    -105.720  46.322  50.801  1.00  0.00     0.051 A 
ATOM     15  C   UNL     1    -106.198  47.596  51.136  1.00  0.00     0.157 A 
ATOM     16  C   UNL     1    -106.464  46.878  53.437  1.00  0.00     0.062 A 
ATOM     17  C   UNL     1    -106.572  47.873  52.455  1.00  0.00     0.158 A 
BRANCH  15  18
ATOM     18  O   UNL     1    -106.306  48.587  50.162  1.00  0.00    -0.504 OA
ATOM     19  H   UNL     1    -106.109  48.396  49.187  1.00  0.00     0.293 HD
ENDBRANCH  15  18
BRANCH  17  20
ATOM     20  O   UNL     1    -107.052  49.140  52.783  1.00  0.00    -0.504 OA
ATOM     21  H   UNL     1    -106.952  49.519  53.718  1.00  0.00     0.293 HD
ENDBRANCH  17  20
ENDBRANCH   1  12
BRANCH   6  22
ATOM     22  O   UNL     1    -106.329  40.913  57.817  1.00  0.00    -0.507 OA
ATOM     23  H   UNL     1    -106.841  41.078  58.670  1.00  0.00     0.293 HD
ENDBRANCH   6  22
BRANCH   8  24
ATOM     24  O   UNL     1    -101.842  42.546  58.125  1.00  0.00    -0.508 OA
ATOM     25  H   UNL     1    -101.755  42.634  59.131  1.00  0.00     0.293 HD
ENDBRANCH   8  24
TORSDOF 5
ENDMDL
MODEL 2
REMARK VINA RESULT:    -5.671      1.489      2.999
REMARK INTER + INTRA:          -6.929
REMARK INTER:                  -6.665
REMARK INTRA:                  -0.264
REMARK UNBOUND:                -0.263
REMARK SMILES O=c1cc(-c2ccc(O)c(O)c2)oc2cc(O)cc(O)c12
REMARK SMILES IDX 4 1 3 2 2 3 1 4 21 5 19 6 18 7 16 8 15 9 14 10 13 11 5 12
REMARK SMILES IDX 6 13 7 14 8 15 12 16 10 17 9 18 11 20 20 22 17 24
REMARK H PARENT 9 19 11 21 20 23 17 25
REMARK Flexibility Score: inf
ROOT
ATOM      1  C   UNL     1    -105.882  44.368  53.918  1.00  0.00     0.138 A 
ATOM      2  C   UNL     1    -105.020  44.365  55.023  1.00  0.00     0.100 A 
ATOM      3  C   UNL     1    -105.040  43.289  55.911  1.00  0.00     0.197 A 
ATOM      4  O   UNL     1    -104.299  43.343  56.926  1.00  0.00    -0.289 OA
ATOM      5  C   UNL     1    -105.906  42.196  55.672  1.00  0.00     0.107 A 
ATOM      6  C   UNL     1    -105.984  41.027  56.487  1.00  0.00     0.134 A 
ATOM      7  C   UNL     1    -106.963  40.062  56.219  1.00  0.00     0.093 A 
ATOM      8  C   UNL     1    -107.826  40.194  55.132  1.00  0.00     0.123 A 
ATOM      9  C   UNL     1    -107.724  41.306  54.296  1.00  0.00     0.094 A 
ATOM     10  C   UNL     1    -106.781  42.303  54.558  1.00  0.00     0.146 A 
ATOM     11  O   UNL     1    -106.725  43.355  53.747  1.00  0.00    -0.456 OA
ENDROOT
BRANCH   1  12
ATOM     12  C   UNL     1    -105.901  45.486  52.941  1.00  0.00     0.021 A 
ATOM     13  C   UNL     1    -105.516  45.302  51.599  1.00  0.00     0.016 A 
ATOM     14  C   UNL     1    -105.555  46.370  50.698  1.00  0.00     0.051 A 
ATOM     15  C   UNL     1    -105.983  47.635  51.119  1.00  0.00     0.157 A 
ATOM     16  C   UNL     1    -106.344  46.757  53.351  1.00  0.00     0.062 A 
ATOM     17  C   UNL     1    -106.380  47.828  52.447  1.00  0.00     0.158 A 
BRANCH  15  18
ATOM     18  O   UNL     1    -106.021  48.701  50.223  1.00  0.00    -0.504 OA
ATOM     19  H   UNL     1    -106.424  49.595  50.478  1.00  0.00     0.293 HD
ENDBRANCH  15  18
BRANCH  17  20
ATOM     20  O   UNL     1    -106.811  49.087  52.861  1.00  0.00    -0.504 OA
ATOM     21  H   UNL     1    -107.735  49.228  53.254  1.00  0.00     0.293 HD
ENDBRANCH  17  20
ENDBRANCH   1  12
BRANCH   6  22
ATOM     22  O   UNL     1    -105.114  40.755  57.548  1.00  0.00    -0.507 OA
ATOM     23  H   UNL     1    -104.940  39.837  57.930  1.00  0.00     0.293 HD
ENDBRANCH   6  22
BRANCH   8  24
ATOM     24  O   UNL     1    -108.777  39.206  54.887  1.00  0.00    -0.508 OA
ATOM     25  H   UNL     1    -108.955  38.862  53.950  1.00  0.00     0.293 HD
ENDBRANCH   8  24
TORSDOF 5
ENDMDL
MODEL 3
REMARK VINA RESULT:    -5.588      1.876      6.838
REMARK INTER + INTRA:          -6.831
REMARK INTER:                  -6.516
REMARK INTRA:                  -0.315
REMARK UNBOUND:                -0.263
REMARK SMILES O=c1cc(-c2ccc(O)c(O)c2)oc2cc(O)cc(O)c12
REMARK SMILES IDX 4 1 3 2 2 3 1 4 21 5 19 6 18 7 16 8 15 9 14 10 13 11 5 12
REMARK SMILES IDX 6 13 7 14 8 15 12 16 10 17 9 18 11 20 20 22 17 24
REMARK H PARENT 9 19 11 21 20 23 17 25
REMARK Flexibility Score: inf
ROOT
ATOM      1  C   UNL     1    -106.464  44.278  54.351  1.00  0.00     0.138 A 
ATOM      2  C   UNL     1    -107.827  43.979  54.215  1.00  0.00     0.100 A 
ATOM      3  C   UNL     1    -108.591  44.658  53.265  1.00  0.00     0.197 A 
ATOM      4  O   UNL     1    -109.823  44.412  53.209  1.00  0.00    -0.289 OA
ATOM      5  C   UNL     1    -107.979  45.619  52.426  1.00  0.00     0.107 A 
ATOM      6  C   UNL     1    -108.649  46.344  51.396  1.00  0.00     0.134 A 
ATOM      7  C   UNL     1    -107.967  47.355  50.707  1.00  0.00     0.093 A 
ATOM      8  C   UNL     1    -106.625  47.626  50.969  1.00  0.00     0.123 A 
ATOM      9  C   UNL     1    -105.943  46.888  51.936  1.00  0.00     0.094 A 
ATOM     10  C   UNL     1    -106.606  45.896  52.665  1.00  0.00     0.146 A 
ATOM     11  O   UNL     1    -105.926  45.225  53.588  1.00  0.00    -0.456 OA
ENDROOT
BRANCH   1  12
ATOM     12  C   UNL     1    -105.604  43.586  55.344  1.00  0.00     0.021 A 
ATOM     13  C   UNL     1    -106.001  42.378  55.950  1.00  0.00     0.016 A 
ATOM     14  C   UNL     1    -105.167  41.741  56.874  1.00  0.00     0.051 A 
ATOM     15  C   UNL     1    -103.923  42.296  57.203  1.00  0.00     0.157 A 
ATOM     16  C   UNL     1    -104.348  44.127  55.670  1.00  0.00     0.062 A 
ATOM     17  C   UNL     1    -103.513  43.490  56.598  1.00  0.00     0.158 A 
BRANCH  15  18
ATOM     18  O   UNL     1    -103.091  41.665  58.125  1.00  0.00    -0.504 OA
ATOM     19  H   UNL     1    -102.311  41.090  57.829  1.00  0.00     0.293 HD
ENDBRANCH  15  18
BRANCH  17  20
ATOM     20  O   UNL     1    -102.273  44.036  56.924  1.00  0.00    -0.504 OA
ATOM     21  H   UNL     1    -101.423  43.735  56.461  1.00  0.00     0.293 HD
ENDBRANCH  17  20
ENDBRANCH   1  12
BRANCH   6  22
ATOM     22  O   UNL     1    -109.966  46.095  50.996  1.00  0.00    -0.507 OA
ATOM     23  H   UNL     1    -110.307  45.210  50.653  1.00  0.00     0.293 HD
ENDBRANCH   6  22
BRANCH   8  24
ATOM     24  O   UNL     1    -105.975  48.629  50.253  1.00  0.00    -0.508 OA
ATOM     25  H   UNL     1    -105.737  49.517  50.681  1.00  0.00     0.293 HD
ENDBRANCH   8  24
TORSDOF 5
ENDMDL
MODEL 4
REMARK VINA RESULT:    -5.190      2.606      3.949
REMARK INTER + INTRA:          -6.364
REMARK INTER:                  -6.077
REMARK INTRA:                  -0.287
REMARK UNBOUND:                -0.263
REMARK SMILES O=c1cc(-c2ccc(O)c(O)c2)oc2cc(O)cc(O)c12
REMARK SMILES IDX 4 1 3 2 2 3 1 4 21 5 19 6 18 7 16 8 15 9 14 10 13 11 5 12
REMARK SMILES IDX 6 13 7 14 8 15 12 16 10 17 9 18 11 20 20 22 17 24
REMARK H PARENT 9 19 11 21 20 23 17 25
REMARK Flexibility Score: inf
ROOT
ATOM      1  C   UNL     1    -107.101  47.347  53.853  1.00  0.00     0.138 A 
ATOM      2  C   UNL     1    -107.868  46.588  52.959  1.00  0.00     0.100 A 
ATOM      3  C   UNL     1    -107.749  45.198  52.955  1.00  0.00     0.197 A 
ATOM      4  O   UNL     1    -108.404  44.548  52.099  1.00  0.00    -0.289 OA
ATOM      5  C   UNL     1    -106.879  44.564  53.873  1.00  0.00     0.107 A 
ATOM      6  C   UNL     1    -106.706  43.152  53.988  1.00  0.00     0.134 A 
ATOM      7  C   UNL     1    -105.730  42.644  54.854  1.00  0.00     0.093 A 
ATOM      8  C   UNL     1    -104.964  43.491  55.652  1.00  0.00     0.123 A 
ATOM      9  C   UNL     1    -105.160  44.871  55.589  1.00  0.00     0.094 A 
ATOM     10  C   UNL     1    -106.103  45.410  54.709  1.00  0.00     0.146 A 
ATOM     11  O   UNL     1    -106.250  46.730  54.668  1.00  0.00    -0.456 OA
ENDROOT
BRANCH   1  12
ATOM     12  C   UNL     1    -107.189  48.829  53.901  1.00  0.00     0.021 A 
ATOM     13  C   UNL     1    -108.424  49.491  54.043  1.00  0.00     0.016 A 
ATOM     14  C   UNL     1    -108.477  50.887  54.097  1.00  0.00     0.051 A 
ATOM     15  C   UNL     1    -107.301  51.643  54.016  1.00  0.00     0.157 A 
ATOM     16  C   UNL     1    -106.012  49.596  53.835  1.00  0.00     0.062 A 
ATOM     17  C   UNL     1    -106.066  50.996  53.886  1.00  0.00     0.158 A 
BRANCH  15  18
ATOM     18  O   UNL     1    -107.351  53.034  54.066  1.00  0.00    -0.504 OA
ATOM     19  H   UNL     1    -106.521  53.589  54.236  1.00  0.00     0.293 HD
ENDBRANCH  15  18
BRANCH  17  20
ATOM     20  O   UNL     1    -104.897  51.751  53.811  1.00  0.00    -0.504 OA
ATOM     21  H   UNL     1    -104.916  52.732  53.558  1.00  0.00     0.293 HD
ENDBRANCH  17  20
ENDBRANCH   1  12
BRANCH   6  22
ATOM     22  O   UNL     1    -107.478  42.212  53.297  1.00  0.00    -0.507 OA
ATOM     23  H   UNL     1    -108.350  41.828  53.628  1.00  0.00     0.293 HD
ENDBRANCH   6  22
BRANCH   8  24
ATOM     24  O   UNL     1    -104.012  42.949  56.513  1.00  0.00    -0.508 OA
ATOM     25  H   UNL     1    -103.266  43.514  56.903  1.00  0.00     0.293 HD
ENDBRANCH   8  24
TORSDOF 5
ENDMDL
MODEL 5
REMARK VINA RESULT:    -4.920      3.677      5.790
REMARK INTER + INTRA:          -6.046
REMARK INTER:                  -5.760
REMARK INTRA:                  -0.286
REMARK UNBOUND:                -0.263
REMARK SMILES O=c1cc(-c2ccc(O)c(O)c2)oc2cc(O)cc(O)c12
REMARK SMILES IDX 4 1 3 2 2 3 1 4 21 5 19 6 18 7 16 8 15 9 14 10 13 11 5 12
REMARK SMILES IDX 6 13 7 14 8 15 12 16 10 17 9 18 11 20 20 22 17 24
REMARK H PARENT 9 19 11 21 20 23 17 25
REMARK Flexibility Score: inf
ROOT
ATOM      1  C   UNL     1    -107.223  47.687  53.704  1.00  0.00     0.138 A 
ATOM      2  C   UNL     1    -107.916  47.955  52.516  1.00  0.00     0.100 A 
ATOM      3  C   UNL     1    -108.591  46.923  51.862  1.00  0.00     0.197 A 
ATOM      4  O   UNL     1    -109.152  47.181  50.766  1.00  0.00    -0.289 OA
ATOM      5  C   UNL     1    -108.598  45.623  52.420  1.00  0.00     0.107 A 
ATOM      6  C   UNL     1    -109.285  44.503  51.864  1.00  0.00     0.134 A 
ATOM      7  C   UNL     1    -109.123  43.237  52.441  1.00  0.00     0.093 A 
ATOM      8  C   UNL     1    -108.349  43.062  53.587  1.00  0.00     0.123 A 
ATOM      9  C   UNL     1    -107.716  44.158  54.172  1.00  0.00     0.094 A 
ATOM     10  C   UNL     1    -107.830  45.428  53.599  1.00  0.00     0.146 A 
ATOM     11  O   UNL     1    -107.199  46.445  54.177  1.00  0.00    -0.456 OA
ENDROOT
BRANCH   1  12
ATOM     12  C   UNL     1    -106.489  48.747  54.440  1.00  0.00     0.021 A 
ATOM     13  C   UNL     1    -106.292  48.678  55.833  1.00  0.00     0.016 A 
ATOM     14  C   UNL     1    -105.588  49.684  56.500  1.00  0.00     0.051 A 
ATOM     15  C   UNL     1    -105.065  50.771  55.788  1.00  0.00     0.157 A 
ATOM     16  C   UNL     1    -105.948  49.834  53.732  1.00  0.00     0.062 A 
ATOM     17  C   UNL     1    -105.243  50.845  54.402  1.00  0.00     0.158 A 
BRANCH  15  18
ATOM     18  O   UNL     1    -104.364  51.777  56.451  1.00  0.00    -0.504 OA
ATOM     19  H   UNL     1    -103.430  52.047  56.168  1.00  0.00     0.293 HD
ENDBRANCH  15  18
BRANCH  17  20
ATOM     20  O   UNL     1    -104.717  51.926  53.696  1.00  0.00    -0.504 OA
ATOM     21  H   UNL     1    -105.241  52.383  52.960  1.00  0.00     0.293 HD
ENDBRANCH  17  20
ENDBRANCH   1  12
BRANCH   6  22
ATOM     22  O   UNL     1    -110.152  44.583  50.769  1.00  0.00    -0.507 OA
ATOM     23  H   UNL     1    -109.902  44.945  49.862  1.00  0.00     0.293 HD
ENDBRANCH   6  22
BRANCH   8  24
ATOM     24  O   UNL     1    -108.223  41.790  54.143  1.00  0.00    -0.508 OA
ATOM     25  H   UNL     1    -108.790  41.497  54.930  1.00  0.00     0.293 HD
ENDBRANCH   8  24
TORSDOF 5
ENDMDL
MODEL 6
REMARK VINA RESULT:    -4.863      2.956      5.206
REMARK INTER + INTRA:          -5.979
REMARK INTER:                  -5.705
REMARK INTRA:                  -0.274
REMARK UNBOUND:                -0.263
REMARK SMILES O=c1cc(-c2ccc(O)c(O)c2)oc2cc(O)cc(O)c12
REMARK SMILES IDX 4 1 3 2 2 3 1 4 21 5 19 6 18 7 16 8 15 9 14 10 13 11 5 12
REMARK SMILES IDX 6 13 7 14 8 15 12 16 10 17 9 18 11 20 20 22 17 24
REMARK H PARENT 9 19 11 21 20 23 17 25
REMARK Flexibility Score: inf
ROOT
ATOM      1  C   UNL     1    -107.600  44.521  53.279  1.00  0.00     0.138 A 
ATOM      2  C   UNL     1    -106.871  43.567  54.002  1.00  0.00     0.100 A 
ATOM      3  C   UNL     1    -107.308  42.242  54.034  1.00  0.00     0.197 A 
ATOM      4  O   UNL     1    -106.668  41.423  54.742  1.00  0.00    -0.289 OA
ATOM      5  C   UNL     1    -108.465  41.866  53.312  1.00  0.00     0.107 A 
ATOM      6  C   UNL     1    -108.981  40.538  53.239  1.00  0.00     0.134 A 
ATOM      7  C   UNL     1    -110.200  40.306  52.589  1.00  0.00     0.093 A 
ATOM      8  C   UNL     1    -110.889  41.341  51.958  1.00  0.00     0.123 A 
ATOM      9  C   UNL     1    -110.367  42.634  51.977  1.00  0.00     0.094 A 
ATOM     10  C   UNL     1    -109.171  42.904  52.647  1.00  0.00     0.146 A 
ATOM     11  O   UNL     1    -108.714  44.152  52.654  1.00  0.00    -0.456 OA
ENDROOT
BRANCH   1  12
ATOM     12  C   UNL     1    -107.179  45.943  53.210  1.00  0.00     0.021 A 
ATOM     13  C   UNL     1    -107.111  46.750  54.362  1.00  0.00     0.016 A 
ATOM     14  C   UNL     1    -106.701  48.084  54.270  1.00  0.00     0.051 A 
ATOM     15  C   UNL     1    -106.347  48.630  53.029  1.00  0.00     0.157 A 
ATOM     16  C   UNL     1    -106.808  46.497  51.971  1.00  0.00     0.062 A 
ATOM     17  C   UNL     1    -106.399  47.834  51.879  1.00  0.00     0.158 A 
BRANCH  15  18
ATOM     18  O   UNL     1    -105.941  49.959  52.934  1.00  0.00    -0.504 OA
ATOM     19  H   UNL     1    -105.224  50.339  53.541  1.00  0.00     0.293 HD
ENDBRANCH  15  18
BRANCH  17  20
ATOM     20  O   UNL     1    -106.042  48.380  50.647  1.00  0.00    -0.504 OA
ATOM     21  H   UNL     1    -105.202  48.938  50.538  1.00  0.00     0.293 HD
ENDBRANCH  17  20
ENDBRANCH   1  12
BRANCH   6  22
ATOM     22  O   UNL     1    -108.330  39.416  53.762  1.00  0.00    -0.507 OA
ATOM     23  H   UNL     1    -108.786  38.557  54.028  1.00  0.00     0.293 HD
ENDBRANCH   6  22
BRANCH   8  24
ATOM     24  O   UNL     1    -112.091  41.070  51.308  1.00  0.00    -0.508 OA
ATOM     25  H   UNL     1    -112.374  40.121  51.090  1.00  0.00     0.293 HD
ENDBRANCH   8  24
TORSDOF 5
ENDMDL
MODEL 7
REMARK VINA RESULT:    -4.857     12.189     14.551
REMARK INTER + INTRA:          -5.972
REMARK INTER:                  -5.691
REMARK INTRA:                  -0.282
REMARK UNBOUND:                -0.263
REMARK SMILES O=c1cc(-c2ccc(O)c(O)c2)oc2cc(O)cc(O)c12
REMARK SMILES IDX 4 1 3 2 2 3 1 4 21 5 19 6 18 7 16 8 15 9 14 10 13 11 5 12
REMARK SMILES IDX 6 13 7 14 8 15 12 16 10 17 9 18 11 20 20 22 17 24
REMARK H PARENT 9 19 11 21 20 23 17 25
REMARK Flexibility Score: inf
ROOT
ATOM      1  C   UNL     1    -107.303  44.132  41.763  1.00  0.00     0.138 A 
ATOM      2  C   UNL     1    -106.664  44.050  40.518  1.00  0.00     0.100 A 
ATOM      3  C   UNL     1    -106.076  45.189  39.967  1.00  0.00     0.197 A 
ATOM      4  O   UNL     1    -105.565  45.098  38.821  1.00  0.00    -0.289 OA
ATOM      5  C   UNL     1    -106.101  46.410  40.682  1.00  0.00     0.107 A 
ATOM      6  C   UNL     1    -105.499  47.625  40.238  1.00  0.00     0.134 A 
ATOM      7  C   UNL     1    -105.690  48.800  40.976  1.00  0.00     0.093 A 
ATOM      8  C   UNL     1    -106.407  48.792  42.171  1.00  0.00     0.123 A 
ATOM      9  C   UNL     1    -106.954  47.599  42.644  1.00  0.00     0.094 A 
ATOM     10  C   UNL     1    -106.811  46.417  41.912  1.00  0.00     0.146 A 
ATOM     11  O   UNL     1    -107.360  45.304  42.388  1.00  0.00    -0.456 OA
ENDROOT
BRANCH   1  12
ATOM     12  C   UNL     1    -107.944  42.952  42.396  1.00  0.00     0.021 A 
ATOM     13  C   UNL     1    -109.142  43.065  43.126  1.00  0.00     0.016 A 
ATOM     14  C   UNL     1    -109.730  41.936  43.703  1.00  0.00     0.051 A 
ATOM     15  C   UNL     1    -109.135  40.676  43.554  1.00  0.00     0.157 A 
ATOM     16  C   UNL     1    -107.362  41.681  42.240  1.00  0.00     0.062 A 
ATOM     17  C   UNL     1    -107.951  40.549  42.820  1.00  0.00     0.158 A 
BRANCH  15  18
ATOM     18  O   UNL     1    -109.718  39.549  44.130  1.00  0.00    -0.504 OA
ATOM     19  H   UNL     1    -109.388  38.615  43.919  1.00  0.00     0.293 HD
ENDBRANCH  15  18
BRANCH  17  20
ATOM     20  O   UNL     1    -107.365  39.293  42.670  1.00  0.00    -0.504 OA
ATOM     21  H   UNL     1    -107.258  38.864  41.758  1.00  0.00     0.293 HD
ENDBRANCH  17  20
ENDBRANCH   1  12
BRANCH   6  22
ATOM     22  O   UNL     1    -104.691  47.727  39.101  1.00  0.00    -0.507 OA
ATOM     23  H   UNL     1    -104.088  46.996  38.755  1.00  0.00     0.293 HD
ENDBRANCH   6  22
BRANCH   8  24
ATOM     24  O   UNL     1    -106.563  49.977  42.887  1.00  0.00    -0.508 OA
ATOM     25  H   UNL     1    -105.975  50.197  43.683  1.00  0.00     0.293 HD
ENDBRANCH   8  24
TORSDOF 5
ENDMDL
MODEL 8
REMARK VINA RESULT:    -4.809      3.419      5.849
REMARK INTER + INTRA:          -5.916
REMARK INTER:                  -5.616
REMARK INTRA:                  -0.301
REMARK UNBOUND:                -0.263
REMARK SMILES O=c1cc(-c2ccc(O)c(O)c2)oc2cc(O)cc(O)c12
REMARK SMILES IDX 4 1 3 2 2 3 1 4 21 5 19 6 18 7 16 8 15 9 14 10 13 11 5 12
REMARK SMILES IDX 6 13 7 14 8 15 12 16 10 17 9 18 11 20 20 22 17 24
REMARK H PARENT 9 19 11 21 20 23 17 25
REMARK Flexibility Score: inf
ROOT
ATOM      1  C   UNL     1    -106.983  46.990  54.151  1.00  0.00     0.138 A 
ATOM      2  C   UNL     1    -106.496  45.772  54.643  1.00  0.00     0.100 A 
ATOM      3  C   UNL     1    -107.050  44.573  54.191  1.00  0.00     0.197 A 
ATOM      4  O   UNL     1    -106.634  43.499  54.696  1.00  0.00    -0.289 OA
ATOM      5  C   UNL     1    -108.077  44.596  53.217  1.00  0.00     0.107 A 
ATOM      6  C   UNL     1    -108.688  43.437  52.653  1.00  0.00     0.134 A 
ATOM      7  C   UNL     1    -109.775  43.585  51.783  1.00  0.00     0.093 A 
ATOM      8  C   UNL     1    -110.234  44.847  51.409  1.00  0.00     0.123 A 
ATOM      9  C   UNL     1    -109.610  45.989  51.912  1.00  0.00     0.094 A 
ATOM     10  C   UNL     1    -108.545  45.874  52.810  1.00  0.00     0.146 A 
ATOM     11  O   UNL     1    -107.986  46.986  53.278  1.00  0.00    -0.456 OA
ENDROOT
BRANCH   1  12
ATOM     12  C   UNL     1    -106.430  48.294  54.597  1.00  0.00     0.021 A 
ATOM     13  C   UNL     1    -105.986  48.496  55.918  1.00  0.00     0.016 A 
ATOM     14  C   UNL     1    -105.459  49.730  56.308  1.00  0.00     0.051 A 
ATOM     15  C   UNL     1    -105.361  50.779  55.385  1.00  0.00     0.157 A 
ATOM     16  C   UNL     1    -106.313  49.349  53.674  1.00  0.00     0.062 A 
ATOM     17  C   UNL     1    -105.787  50.588  54.066  1.00  0.00     0.158 A 
BRANCH  15  18
ATOM     18  O   UNL     1    -104.838  52.012  55.772  1.00  0.00    -0.504 OA
ATOM     19  H   UNL     1    -104.124  52.085  56.487  1.00  0.00     0.293 HD
ENDBRANCH  15  18
BRANCH  17  20
ATOM     20  O   UNL     1    -105.682  51.633  53.149  1.00  0.00    -0.504 OA
ATOM     21  H   UNL     1    -106.241  51.654  52.304  1.00  0.00     0.293 HD
ENDBRANCH  17  20
ENDBRANCH   1  12
BRANCH   6  22
ATOM     22  O   UNL     1    -108.254  42.130  52.893  1.00  0.00    -0.507 OA
ATOM     23  H   UNL     1    -108.690  41.486  53.535  1.00  0.00     0.293 HD
ENDBRANCH   6  22
BRANCH   8  24
ATOM     24  O   UNL     1    -111.309  44.955  50.530  1.00  0.00    -0.508 OA
ATOM     25  H   UNL     1    -112.188  44.481  50.705  1.00  0.00     0.293 HD
ENDBRANCH   8  24
TORSDOF 5
ENDMDL
