MODEL 1
REMARK VINA RESULT:    -8.116      0.000      0.000
REMARK INTER + INTRA:         -12.019
REMARK INTER:                 -11.911
REMARK INTRA:                  -0.108
REMARK UNBOUND:                -0.108
REMARK SMILES O=c1c(O[C@H]2O[C@H](CO)[C@H](O)[C@@H](O)[C@@H]2O)c(-c2ccc(O)c(O)c2)oc2cc(O)cc(O)c12
REMARK SMILES IDX 4 1 3 2 16 3 25 4 2 5 26 6 1 7 33 8 27 9 31 10 28 11 30 12
REMARK SMILES IDX 17 13 18 14 19 15 20 16 24 17 22 18 21 19 23 21 32 23 29 25
REMARK SMILES IDX 5 27 14 28 6 29 12 30 7 31 10 32 15 33 13 35 8 37 9 38 11 40
REMARK H PARENT 21 20 23 22 32 24 29 26 15 34 13 36 9 39 11 41
REMARK Flexibility Score: inf
ROOT
ATOM      1  O   UNL     1       9.400  15.422  24.389  1.00  0.00    -0.454 OA
ENDROOT
BRANCH   1   2
ATOM      2  C   UNL     1       9.376  14.022  24.373  1.00  0.00     0.214 A 
ATOM      3  C   UNL     1       9.794  13.289  23.245  1.00  0.00     0.180 A 
ATOM      4  O   UNL     1       9.855  11.965  23.310  1.00  0.00    -0.452 OA
ATOM      5  C   UNL     1       8.941  13.332  25.510  1.00  0.00     0.239 A 
ATOM      6  C   UNL     1       9.480  11.268  24.377  1.00  0.00     0.146 A 
ATOM      7  O   UNL     1       8.592  14.000  26.518  1.00  0.00    -0.285 OA
ATOM      8  C   UNL     1       8.951  11.917  25.523  1.00  0.00     0.111 A 
ATOM      9  C   UNL     1       9.614   9.877  24.346  1.00  0.00     0.094 A 
ATOM     10  C   UNL     1       8.512  11.114  26.618  1.00  0.00     0.134 A 
ATOM     11  C   UNL     1       9.236   9.107  25.446  1.00  0.00     0.123 A 
ATOM     12  C   UNL     1       8.692   9.726  26.571  1.00  0.00     0.093 A 
BRANCH   3  13
ATOM     13  C   UNL     1      10.172  13.945  21.973  1.00  0.00     0.025 A 
ATOM     14  C   UNL     1      10.155  13.239  20.758  1.00  0.00     0.016 A 
ATOM     15  C   UNL     1      10.518  13.874  19.568  1.00  0.00     0.051 A 
ATOM     16  C   UNL     1      10.919  15.213  19.575  1.00  0.00     0.157 A 
ATOM     17  C   UNL     1      10.596  15.283  21.982  1.00  0.00     0.062 A 
ATOM     18  C   UNL     1      10.962  15.922  20.788  1.00  0.00     0.158 A 
BRANCH  16  19
ATOM     19  O   UNL     1      11.274  15.821  18.371  1.00  0.00    -0.504 OA
ATOM     20  H   UNL     1      11.042  15.414  17.473  1.00  0.00     0.293 HD
ENDBRANCH  16  19
BRANCH  18  21
ATOM     21  O   UNL     1      11.368  17.255  20.803  1.00  0.00    -0.504 OA
ATOM     22  H   UNL     1      10.848  17.974  20.313  1.00  0.00     0.293 HD
ENDBRANCH  18  21
ENDBRANCH   3  13
BRANCH  10  23
ATOM     23  O   UNL     1       7.875  11.622  27.753  1.00  0.00    -0.507 OA
ATOM     24  H   UNL     1       6.904  11.476  27.981  1.00  0.00     0.293 HD
ENDBRANCH  10  23
BRANCH  11  25
ATOM     25  O   UNL     1       9.386   7.722  25.429  1.00  0.00    -0.508 OA
ATOM     26  H   UNL     1      10.284   7.288  25.246  1.00  0.00     0.293 HD
ENDBRANCH  11  25
ENDBRANCH   1   2
BRANCH   1  27
ATOM     27  C   UNL     1      10.501  16.173  24.915  1.00  0.00     0.339 C 
ATOM     28  C   UNL     1      10.216  16.611  26.371  1.00  0.00     0.214 C 
ATOM     29  O   UNL     1      10.793  17.283  24.080  1.00  0.00    -0.332 OA
ATOM     30  C   UNL     1       9.157  17.732  26.435  1.00  0.00     0.180 C 
ATOM     31  C   UNL     1       9.697  18.180  24.007  1.00  0.00     0.179 C 
ATOM     32  C   UNL     1       9.427  18.828  25.385  1.00  0.00     0.177 C 
BRANCH  28  33
ATOM     33  O   UNL     1      11.398  16.999  27.031  1.00  0.00    -0.384 OA
ATOM     34  H   UNL     1      11.631  16.300  27.695  1.00  0.00     0.211 HD
ENDBRANCH  28  33
BRANCH  30  35
ATOM     35  O   UNL     1       7.884  17.173  26.222  1.00  0.00    -0.387 OA
ATOM     36  H   UNL     1       7.427  17.741  25.548  1.00  0.00     0.211 HD
ENDBRANCH  30  35
BRANCH  31  37
ATOM     37  C   UNL     1       9.993  19.239  22.936  1.00  0.00     0.191 C 
BRANCH  37  38
ATOM     38  O   UNL     1      11.372  19.480  22.856  1.00  0.00    -0.394 OA
ATOM     39  H   UNL     1      11.572  20.207  23.502  1.00  0.00     0.210 HD
ENDBRANCH  37  38
ENDBRANCH  31  37
BRANCH  32  40
ATOM     40  O   UNL     1      10.526  19.606  25.792  1.00  0.00    -0.387 OA
ATOM     41  H   UNL     1      10.614  20.355  25.147  1.00  0.00     0.211 HD
ENDBRANCH  32  40
ENDBRANCH   1  27
TORSDOF 12
ENDMDL
MODEL 2
REMARK VINA RESULT:    -6.879      1.615      4.839
REMARK INTER + INTRA:         -10.205
REMARK INTER:                  -9.603
REMARK INTRA:                  -0.601
REMARK UNBOUND:                -0.108
REMARK SMILES O=c1c(O[C@H]2O[C@H](CO)[C@H](O)[C@@H](O)[C@@H]2O)c(-c2ccc(O)c(O)c2)oc2cc(O)cc(O)c12
REMARK SMILES IDX 4 1 3 2 16 3 25 4 2 5 26 6 1 7 33 8 27 9 31 10 28 11 30 12
REMARK SMILES IDX 17 13 18 14 19 15 20 16 24 17 22 18 21 19 23 21 32 23 29 25
REMARK SMILES IDX 5 27 14 28 6 29 12 30 7 31 10 32 15 33 13 35 8 37 9 38 11 40
REMARK H PARENT 21 20 23 22 32 24 29 26 15 34 13 36 9 39 11 41
REMARK Flexibility Score: inf
ROOT
ATOM      1  O   UNL     1       9.942  15.285  23.818  1.00  0.00    -0.454 OA
ENDROOT
BRANCH   1   2
ATOM      2  C   UNL     1       9.641  14.172  24.612  1.00  0.00     0.214 A 
ATOM      3  C   UNL     1       9.126  14.312  25.916  1.00  0.00     0.180 A 
ATOM      4  O   UNL     1       8.756  13.233  26.594  1.00  0.00    -0.452 OA
ATOM      5  C   UNL     1       9.839  12.887  24.094  1.00  0.00     0.239 A 
ATOM      6  C   UNL     1       8.898  11.995  26.132  1.00  0.00     0.146 A 
ATOM      7  O   UNL     1      10.278  12.778  22.920  1.00  0.00    -0.285 OA
ATOM      8  C   UNL     1       9.500  11.753  24.869  1.00  0.00     0.111 A 
ATOM      9  C   UNL     1       8.446  10.933  26.920  1.00  0.00     0.094 A 
ATOM     10  C   UNL     1       9.678  10.401  24.449  1.00  0.00     0.134 A 
ATOM     11  C   UNL     1       8.573   9.618  26.471  1.00  0.00     0.123 A 
ATOM     12  C   UNL     1       9.183   9.360  25.244  1.00  0.00     0.093 A 
BRANCH   3  13
ATOM     13  C   UNL     1       8.982  15.632  26.570  1.00  0.00     0.025 A 
ATOM     14  C   UNL     1       7.998  15.856  27.548  1.00  0.00     0.016 A 
ATOM     15  C   UNL     1       7.875  17.109  28.151  1.00  0.00     0.051 A 
ATOM     16  C   UNL     1       8.718  18.160  27.777  1.00  0.00     0.157 A 
ATOM     17  C   UNL     1       9.813  16.694  26.180  1.00  0.00     0.062 A 
ATOM     18  C   UNL     1       9.691  17.953  26.785  1.00  0.00     0.158 A 
BRANCH  16  19
ATOM     19  O   UNL     1       8.574  19.400  28.399  1.00  0.00    -0.504 OA
ATOM     20  H   UNL     1       8.952  20.250  28.000  1.00  0.00     0.293 HD
ENDBRANCH  16  19
BRANCH  18  21
ATOM     21  O   UNL     1      10.530  18.998  26.402  1.00  0.00    -0.504 OA
ATOM     22  H   UNL     1      10.792  19.733  27.049  1.00  0.00     0.293 HD
ENDBRANCH  18  21
ENDBRANCH   3  13
BRANCH  10  23
ATOM     23  O   UNL     1      10.352  10.029  23.283  1.00  0.00    -0.507 OA
ATOM     24  H   UNL     1      10.483   9.078  22.973  1.00  0.00     0.293 HD
ENDBRANCH  10  23
BRANCH  11  25
ATOM     25  O   UNL     1       8.105   8.556  27.243  1.00  0.00    -0.508 OA
ATOM     26  H   UNL     1       8.704   8.081  27.909  1.00  0.00     0.293 HD
ENDBRANCH  11  25
ENDBRANCH   1   2
BRANCH   1  27
ATOM     27  C   UNL     1       9.219  15.604  22.623  1.00  0.00     0.339 C 
ATOM     28  C   UNL     1      10.194  15.964  21.477  1.00  0.00     0.214 C 
ATOM     29  O   UNL     1       8.286  16.646  22.867  1.00  0.00    -0.332 OA
ATOM     30  C   UNL     1      10.848  17.346  21.694  1.00  0.00     0.180 C 
ATOM     31  C   UNL     1       8.937  17.840  23.272  1.00  0.00     0.179 C 
ATOM     32  C   UNL     1       9.811  18.402  22.128  1.00  0.00     0.177 C 
BRANCH  28  33
ATOM     33  O   UNL     1       9.556  15.903  20.223  1.00  0.00    -0.384 OA
ATOM     34  H   UNL     1       9.070  16.755  20.076  1.00  0.00     0.211 HD
ENDBRANCH  28  33
BRANCH  30  35
ATOM     35  O   UNL     1      11.848  17.230  22.676  1.00  0.00    -0.387 OA
ATOM     36  H   UNL     1      11.394  16.994  23.526  1.00  0.00     0.211 HD
ENDBRANCH  30  35
BRANCH  31  37
ATOM     37  C   UNL     1       7.875  18.855  23.718  1.00  0.00     0.191 C 
BRANCH  37  38
ATOM     38  O   UNL     1       8.484  19.966  24.318  1.00  0.00    -0.394 OA
ATOM     39  H   UNL     1       7.897  20.746  24.133  1.00  0.00     0.210 HD
ENDBRANCH  37  38
ENDBRANCH  31  37
BRANCH  32  40
ATOM     40  O   UNL     1       9.017  18.759  21.023  1.00  0.00    -0.387 OA
ATOM     41  H   UNL     1       9.256  19.690  20.775  1.00  0.00     0.211 HD
ENDBRANCH  32  40
ENDBRANCH   1  27
TORSDOF 12
ENDMDL
MODEL 3
REMARK VINA RESULT:    -6.804      1.493      4.788
REMARK INTER + INTRA:         -10.094
REMARK INTER:                  -8.622
REMARK INTRA:                  -1.472
REMARK UNBOUND:                -0.108
REMARK SMILES O=c1c(O[C@H]2O[C@H](CO)[C@H](O)[C@@H](O)[C@@H]2O)c(-c2ccc(O)c(O)c2)oc2cc(O)cc(O)c12
REMARK SMILES IDX 4 1 3 2 16 3 25 4 2 5 26 6 1 7 33 8 27 9 31 10 28 11 30 12
REMARK SMILES IDX 17 13 18 14 19 15 20 16 24 17 22 18 21 19 23 21 32 23 29 25
REMARK SMILES IDX 5 27 14 28 6 29 12 30 7 31 10 32 15 33 13 35 8 37 9 38 11 40
REMARK H PARENT 21 20 23 22 32 24 29 26 15 34 13 36 9 39 11 41
REMARK Flexibility Score: inf
ROOT
ATOM      1  O   UNL     1       9.358  14.592  23.556  1.00  0.00    -0.454 OA
ENDROOT
BRANCH   1   2
ATOM      2  C   UNL     1       9.156  13.752  24.658  1.00  0.00     0.214 A 
ATOM      3  C   UNL     1       8.891  14.269  25.941  1.00  0.00     0.180 A 
ATOM      4  O   UNL     1       8.602  13.438  26.935  1.00  0.00    -0.452 OA
ATOM      5  C   UNL     1       9.202  12.365  24.479  1.00  0.00     0.239 A 
ATOM      6  C   UNL     1       8.605  12.116  26.807  1.00  0.00     0.146 A 
ATOM      7  O   UNL     1       9.416  11.918  23.322  1.00  0.00    -0.285 OA
ATOM      8  C   UNL     1       8.958  11.504  25.575  1.00  0.00     0.111 A 
ATOM      9  C   UNL     1       8.256  11.337  27.913  1.00  0.00     0.094 A 
ATOM     10  C   UNL     1       8.998  10.079  25.511  1.00  0.00     0.134 A 
ATOM     11  C   UNL     1       8.242   9.945  27.821  1.00  0.00     0.123 A 
ATOM     12  C   UNL     1       8.609   9.326  26.626  1.00  0.00     0.093 A 
BRANCH   3  13
ATOM     13  C   UNL     1       8.926  15.720  26.231  1.00  0.00     0.025 A 
ATOM     14  C   UNL     1       7.876  16.566  25.834  1.00  0.00     0.016 A 
ATOM     15  C   UNL     1       7.928  17.933  26.113  1.00  0.00     0.051 A 
ATOM     16  C   UNL     1       9.033  18.479  26.774  1.00  0.00     0.157 A 
ATOM     17  C   UNL     1      10.044  16.273  26.874  1.00  0.00     0.062 A 
ATOM     18  C   UNL     1      10.098  17.646  27.154  1.00  0.00     0.158 A 
BRANCH  16  19
ATOM     19  O   UNL     1       9.056  19.847  27.041  1.00  0.00    -0.504 OA
ATOM     20  H   UNL     1       9.109  20.539  26.303  1.00  0.00     0.293 HD
ENDBRANCH  16  19
BRANCH  18  21
ATOM     21  O   UNL     1      11.206  18.184  27.807  1.00  0.00    -0.504 OA
ATOM     22  H   UNL     1      11.712  17.662  28.512  1.00  0.00     0.293 HD
ENDBRANCH  18  21
ENDBRANCH   3  13
BRANCH  10  23
ATOM     23  O   UNL     1       9.434   9.360  24.394  1.00  0.00    -0.507 OA
ATOM     24  H   UNL     1       9.470   8.353  24.337  1.00  0.00     0.293 HD
ENDBRANCH  10  23
BRANCH  11  25
ATOM     25  O   UNL     1       7.875   9.164  28.914  1.00  0.00    -0.508 OA
ATOM     26  H   UNL     1       7.903   9.529  29.860  1.00  0.00     0.293 HD
ENDBRANCH  11  25
ENDBRANCH   1   2
BRANCH   1  27
ATOM     27  C   UNL     1      10.661  14.984  23.107  1.00  0.00     0.339 C 
ATOM     28  C   UNL     1      10.866  16.506  23.292  1.00  0.00     0.214 C 
ATOM     29  O   UNL     1      10.867  14.586  21.760  1.00  0.00    -0.332 OA
ATOM     30  C   UNL     1      10.045  17.323  22.271  1.00  0.00     0.180 C 
ATOM     31  C   UNL     1       9.939  15.210  20.888  1.00  0.00     0.179 C 
ATOM     32  C   UNL     1      10.168  16.739  20.849  1.00  0.00     0.177 C 
BRANCH  28  33
ATOM     33  O   UNL     1      12.229  16.852  23.231  1.00  0.00    -0.384 OA
ATOM     34  H   UNL     1      12.564  16.647  22.321  1.00  0.00     0.211 HD
ENDBRANCH  28  33
BRANCH  30  35
ATOM     35  O   UNL     1       8.696  17.329  22.668  1.00  0.00    -0.387 OA
ATOM     36  H   UNL     1       8.362  18.256  22.545  1.00  0.00     0.211 HD
ENDBRANCH  30  35
BRANCH  31  37
ATOM     37  C   UNL     1      10.075  14.586  19.492  1.00  0.00     0.191 C 
BRANCH  37  38
ATOM     38  O   UNL     1      11.410  14.237  19.241  1.00  0.00    -0.394 OA
ATOM     39  H   UNL     1      11.527  13.307  19.570  1.00  0.00     0.210 HD
ENDBRANCH  37  38
ENDBRANCH  31  37
BRANCH  32  40
ATOM     40  O   UNL     1      11.440  17.039  20.328  1.00  0.00    -0.387 OA
ATOM     41  H   UNL     1      11.936  16.183  20.250  1.00  0.00     0.211 HD
ENDBRANCH  32  40
ENDBRANCH   1  27
TORSDOF 12
ENDMDL
MODEL 4
REMARK VINA RESULT:    -6.610     15.650     18.642
REMARK INTER + INTRA:          -9.809
REMARK INTER:                  -8.188
REMARK INTRA:                  -1.621
REMARK UNBOUND:                -0.108
REMARK SMILES O=c1c(O[C@H]2O[C@H](CO)[C@H](O)[C@@H](O)[C@@H]2O)c(-c2ccc(O)c(O)c2)oc2cc(O)cc(O)c12
REMARK SMILES IDX 4 1 3 2 16 3 25 4 2 5 26 6 1 7 33 8 27 9 31 10 28 11 30 12
REMARK SMILES IDX 17 13 18 14 19 15 20 16 24 17 22 18 21 19 23 21 32 23 29 25
REMARK SMILES IDX 5 27 14 28 6 29 12 30 7 31 10 32 15 33 13 35 8 37 9 38 11 40
REMARK H PARENT 21 20 23 22 32 24 29 26 15 34 13 36 9 39 11 41
REMARK Flexibility Score: inf
ROOT
ATOM      1  O   UNL     1      23.237   5.569  31.848  1.00  0.00    -0.454 OA
ENDROOT
BRANCH   1   2
ATOM      2  C   UNL     1      23.385   6.701  31.038  1.00  0.00     0.214 A 
ATOM      3  C   UNL     1      23.862   6.605  29.715  1.00  0.00     0.180 A 
ATOM      4  O   UNL     1      23.887   7.687  28.948  1.00  0.00    -0.452 OA
ATOM      5  C   UNL     1      23.037   7.957  31.545  1.00  0.00     0.239 A 
ATOM      6  C   UNL     1      23.540   8.896  29.377  1.00  0.00     0.146 A 
ATOM      7  O   UNL     1      22.591   8.024  32.720  1.00  0.00    -0.285 OA
ATOM      8  C   UNL     1      23.142   9.105  30.723  1.00  0.00     0.111 A 
ATOM      9  C   UNL     1      23.577   9.961  28.473  1.00  0.00     0.094 A 
ATOM     10  C   UNL     1      22.834  10.433  31.143  1.00  0.00     0.134 A 
ATOM     11  C   UNL     1      23.216  11.246  28.881  1.00  0.00     0.123 A 
ATOM     12  C   UNL     1      22.847  11.474  30.207  1.00  0.00     0.093 A 
BRANCH   3  13
ATOM     13  C   UNL     1      24.344   5.329  29.140  1.00  0.00     0.025 A 
ATOM     14  C   UNL     1      23.561   4.600  28.230  1.00  0.00     0.016 A 
ATOM     15  C   UNL     1      24.031   3.396  27.701  1.00  0.00     0.051 A 
ATOM     16  C   UNL     1      25.278   2.894  28.085  1.00  0.00     0.157 A 
ATOM     17  C   UNL     1      25.586   4.813  29.541  1.00  0.00     0.062 A 
ATOM     18  C   UNL     1      26.060   3.604  29.012  1.00  0.00     0.158 A 
BRANCH  16  19
ATOM     19  O   UNL     1      25.723   1.691  27.538  1.00  0.00    -0.504 OA
ATOM     20  H   UNL     1      26.186   0.984  28.096  1.00  0.00     0.293 HD
ENDBRANCH  16  19
BRANCH  18  21
ATOM     21  O   UNL     1      27.301   3.106  29.404  1.00  0.00    -0.504 OA
ATOM     22  H   UNL     1      28.071   3.722  29.637  1.00  0.00     0.293 HD
ENDBRANCH  18  21
ENDBRANCH   3  13
BRANCH  10  23
ATOM     23  O   UNL     1      22.537  10.786  32.463  1.00  0.00    -0.507 OA
ATOM     24  H   UNL     1      21.730  11.321  32.747  1.00  0.00     0.293 HD
ENDBRANCH  10  23
BRANCH  11  25
ATOM     25  O   UNL     1      23.232  12.308  27.980  1.00  0.00    -0.508 OA
ATOM     26  H   UNL     1      23.722  12.245  27.095  1.00  0.00     0.293 HD
ENDBRANCH  11  25
ENDBRANCH   1   2
BRANCH   1  27
ATOM     27  C   UNL     1      21.968   4.952  32.094  1.00  0.00     0.339 C 
ATOM     28  C   UNL     1      21.807   4.614  33.595  1.00  0.00     0.214 C 
ATOM     29  O   UNL     1      21.804   3.803  31.276  1.00  0.00    -0.332 OA
ATOM     30  C   UNL     1      22.697   3.423  34.012  1.00  0.00     0.180 C 
ATOM     31  C   UNL     1      22.787   2.821  31.559  1.00  0.00     0.179 C 
ATOM     32  C   UNL     1      22.613   2.269  32.993  1.00  0.00     0.177 C 
BRANCH  28  33
ATOM     33  O   UNL     1      20.461   4.374  33.927  1.00  0.00    -0.384 OA
ATOM     34  H   UNL     1      20.111   5.166  34.411  1.00  0.00     0.211 HD
ENDBRANCH  28  33
BRANCH  30  35
ATOM     35  O   UNL     1      24.028   3.863  34.125  1.00  0.00    -0.387 OA
ATOM     36  H   UNL     1      24.044   4.815  33.843  1.00  0.00     0.211 HD
ENDBRANCH  30  35
BRANCH  31  37
ATOM     37  C   UNL     1      22.688   1.704  30.511  1.00  0.00     0.191 C 
BRANCH  37  38
ATOM     38  O   UNL     1      21.377   1.610  30.020  1.00  0.00    -0.394 OA
ATOM     39  H   UNL     1      21.215   2.430  29.485  1.00  0.00     0.210 HD
ENDBRANCH  37  38
ENDBRANCH  31  37
BRANCH  32  40
ATOM     40  O   UNL     1      21.375   1.615  33.127  1.00  0.00    -0.387 OA
ATOM     41  H   UNL     1      20.665   2.289  32.961  1.00  0.00     0.211 HD
ENDBRANCH  32  40
ENDBRANCH   1  27
TORSDOF 12
ENDMDL
MODEL 5
REMARK VINA RESULT:    -6.353     15.089     17.895
REMARK INTER + INTRA:          -9.432
REMARK INTER:                  -7.731
REMARK INTRA:                  -1.701
REMARK UNBOUND:                -0.108
REMARK SMILES O=c1c(O[C@H]2O[C@H](CO)[C@H](O)[C@@H](O)[C@@H]2O)c(-c2ccc(O)c(O)c2)oc2cc(O)cc(O)c12
REMARK SMILES IDX 4 1 3 2 16 3 25 4 2 5 26 6 1 7 33 8 27 9 31 10 28 11 30 12
REMARK SMILES IDX 17 13 18 14 19 15 20 16 24 17 22 18 21 19 23 21 32 23 29 25
REMARK SMILES IDX 5 27 14 28 6 29 12 30 7 31 10 32 15 33 13 35 8 37 9 38 11 40
REMARK H PARENT 21 20 23 22 32 24 29 26 15 34 13 36 9 39 11 41
REMARK Flexibility Score: inf
ROOT
ATOM      1  O   UNL     1      22.922   6.746  31.759  1.00  0.00    -0.454 OA
ENDROOT
BRANCH   1   2
ATOM      2  C   UNL     1      23.210   7.888  31.003  1.00  0.00     0.214 A 
ATOM      3  C   UNL     1      23.667   7.797  29.673  1.00  0.00     0.180 A 
ATOM      4  O   UNL     1      23.827   8.903  28.958  1.00  0.00    -0.452 OA
ATOM      5  C   UNL     1      23.024   9.152  31.573  1.00  0.00     0.239 A 
ATOM      6  C   UNL     1      23.636  10.124  29.447  1.00  0.00     0.146 A 
ATOM      7  O   UNL     1      22.593   9.217  32.753  1.00  0.00    -0.285 OA
ATOM      8  C   UNL     1      23.270  10.315  30.806  1.00  0.00     0.111 A 
ATOM      9  C   UNL     1      23.805  11.218  28.595  1.00  0.00     0.094 A 
ATOM     10  C   UNL     1      23.133  11.650  31.291  1.00  0.00     0.134 A 
ATOM     11  C   UNL     1      23.609  12.517  29.067  1.00  0.00     0.123 A 
ATOM     12  C   UNL     1      23.275  12.725  30.405  1.00  0.00     0.093 A 
BRANCH   3  13
ATOM     13  C   UNL     1      23.983   6.500  29.034  1.00  0.00     0.025 A 
ATOM     14  C   UNL     1      23.162   5.966  28.026  1.00  0.00     0.016 A 
ATOM     15  C   UNL     1      23.474   4.739  27.437  1.00  0.00     0.051 A 
ATOM     16  C   UNL     1      24.597   4.019  27.856  1.00  0.00     0.157 A 
ATOM     17  C   UNL     1      25.098   5.766  29.468  1.00  0.00     0.062 A 
ATOM     18  C   UNL     1      25.413   4.533  28.878  1.00  0.00     0.158 A 
BRANCH  16  19
ATOM     19  O   UNL     1      24.886   2.798  27.248  1.00  0.00    -0.504 OA
ATOM     20  H   UNL     1      24.282   1.991  27.348  1.00  0.00     0.293 HD
ENDBRANCH  16  19
BRANCH  18  21
ATOM     21  O   UNL     1      26.530   3.817  29.305  1.00  0.00    -0.504 OA
ATOM     22  H   UNL     1      27.445   3.967  28.895  1.00  0.00     0.293 HD
ENDBRANCH  18  21
ENDBRANCH   3  13
BRANCH  10  23
ATOM     23  O   UNL     1      22.886  11.973  32.628  1.00  0.00    -0.507 OA
ATOM     24  H   UNL     1      23.597  12.061  33.339  1.00  0.00     0.293 HD
ENDBRANCH  10  23
BRANCH  11  25
ATOM     25  O   UNL     1      23.757  13.611  28.217  1.00  0.00    -0.508 OA
ATOM     26  H   UNL     1      23.396  14.526  28.464  1.00  0.00     0.293 HD
ENDBRANCH  11  25
ENDBRANCH   1   2
BRANCH   1  27
ATOM     27  C   UNL     1      21.597   6.216  31.892  1.00  0.00     0.339 C 
ATOM     28  C   UNL     1      21.275   5.921  33.376  1.00  0.00     0.214 C 
ATOM     29  O   UNL     1      21.435   5.064  31.080  1.00  0.00    -0.332 OA
ATOM     30  C   UNL     1      22.041   4.684  33.893  1.00  0.00     0.180 C 
ATOM     31  C   UNL     1      22.320   4.027  31.469  1.00  0.00     0.179 C 
ATOM     32  C   UNL     1      21.976   3.517  32.887  1.00  0.00     0.177 C 
BRANCH  28  33
ATOM     33  O   UNL     1      19.890   5.775  33.582  1.00  0.00    -0.384 OA
ATOM     34  H   UNL     1      19.659   4.814  33.499  1.00  0.00     0.211 HD
ENDBRANCH  28  33
BRANCH  30  35
ATOM     35  O   UNL     1      23.381   5.039  34.125  1.00  0.00    -0.387 OA
ATOM     36  H   UNL     1      23.615   4.711  35.032  1.00  0.00     0.211 HD
ENDBRANCH  30  35
BRANCH  31  37
ATOM     37  C   UNL     1      22.246   2.897  30.432  1.00  0.00     0.191 C 
BRANCH  37  38
ATOM     38  O   UNL     1      20.920   2.699  30.020  1.00  0.00    -0.394 OA
ATOM     39  H   UNL     1      20.960   2.362  29.086  1.00  0.00     0.210 HD
ENDBRANCH  37  38
ENDBRANCH  31  37
BRANCH  32  40
ATOM     40  O   UNL     1      20.690   2.947  32.913  1.00  0.00    -0.387 OA
ATOM     41  H   UNL     1      20.578   2.432  32.071  1.00  0.00     0.211 HD
ENDBRANCH  32  40
ENDBRANCH   1  27
TORSDOF 12
ENDMDL
MODEL 6
REMARK VINA RESULT:    -6.087     13.013     14.946
REMARK INTER + INTRA:          -9.042
REMARK INTER:                  -7.603
REMARK INTRA:                  -1.438
REMARK UNBOUND:                -0.108
REMARK SMILES O=c1c(O[C@H]2O[C@H](CO)[C@H](O)[C@@H](O)[C@@H]2O)c(-c2ccc(O)c(O)c2)oc2cc(O)cc(O)c12
REMARK SMILES IDX 4 1 3 2 16 3 25 4 2 5 26 6 1 7 33 8 27 9 31 10 28 11 30 12
REMARK SMILES IDX 17 13 18 14 19 15 20 16 24 17 22 18 21 19 23 21 32 23 29 25
REMARK SMILES IDX 5 27 14 28 6 29 12 30 7 31 10 32 15 33 13 35 8 37 9 38 11 40
REMARK H PARENT 21 20 23 22 32 24 29 26 15 34 13 36 9 39 11 41
REMARK Flexibility Score: inf
ROOT
ATOM      1  O   UNL     1      23.689  17.718  27.672  1.00  0.00    -0.454 OA
ENDROOT
BRANCH   1   2
ATOM      2  C   UNL     1      22.351  18.130  27.633  1.00  0.00     0.214 A 
ATOM      3  C   UNL     1      21.848  18.905  26.568  1.00  0.00     0.180 A 
ATOM      4  O   UNL     1      20.552  19.184  26.518  1.00  0.00    -0.452 OA
ATOM      5  C   UNL     1      21.488  17.751  28.666  1.00  0.00     0.239 A 
ATOM      6  C   UNL     1      19.688  18.822  27.460  1.00  0.00     0.146 A 
ATOM      7  O   UNL     1      21.946  17.040  29.597  1.00  0.00    -0.285 OA
ATOM      8  C   UNL     1      20.123  18.125  28.618  1.00  0.00     0.111 A 
ATOM      9  C   UNL     1      18.339  19.144  27.290  1.00  0.00     0.094 A 
ATOM     10  C   UNL     1      19.161  17.811  29.624  1.00  0.00     0.134 A 
ATOM     11  C   UNL     1      17.398  18.779  28.253  1.00  0.00     0.123 A 
ATOM     12  C   UNL     1      17.812  18.116  29.409  1.00  0.00     0.093 A 
BRANCH   3  13
ATOM     13  C   UNL     1      22.719  19.428  25.492  1.00  0.00     0.025 A 
ATOM     14  C   UNL     1      23.406  20.645  25.640  1.00  0.00     0.016 A 
ATOM     15  C   UNL     1      24.220  21.125  24.612  1.00  0.00     0.051 A 
ATOM     16  C   UNL     1      24.347  20.409  23.418  1.00  0.00     0.157 A 
ATOM     17  C   UNL     1      22.830  18.722  24.285  1.00  0.00     0.062 A 
ATOM     18  C   UNL     1      23.647  19.202  23.250  1.00  0.00     0.158 A 
BRANCH  16  19
ATOM     19  O   UNL     1      25.169  20.911  22.410  1.00  0.00    -0.504 OA
ATOM     20  H   UNL     1      26.147  20.657  22.335  1.00  0.00     0.293 HD
ENDBRANCH  16  19
BRANCH  18  21
ATOM     21  O   UNL     1      23.763  18.487  22.060  1.00  0.00    -0.504 OA
ATOM     22  H   UNL     1      23.264  18.765  21.223  1.00  0.00     0.293 HD
ENDBRANCH  18  21
ENDBRANCH   3  13
BRANCH  10  23
ATOM     23  O   UNL     1      19.480  17.227  30.854  1.00  0.00    -0.507 OA
ATOM     24  H   UNL     1      20.303  16.672  31.030  1.00  0.00     0.293 HD
ENDBRANCH  10  23
BRANCH  11  25
ATOM     25  O   UNL     1      16.049  19.080  28.079  1.00  0.00    -0.508 OA
ATOM     26  H   UNL     1      15.638  19.155  27.156  1.00  0.00     0.293 HD
ENDBRANCH  11  25
ENDBRANCH   1   2
BRANCH   1  27
ATOM     27  C   UNL     1      24.614  18.177  28.665  1.00  0.00     0.339 C 
ATOM     28  C   UNL     1      25.614  19.186  28.052  1.00  0.00     0.214 C 
ATOM     29  O   UNL     1      25.279  17.082  29.274  1.00  0.00    -0.332 OA
ATOM     30  C   UNL     1      26.637  18.489  27.129  1.00  0.00     0.180 C 
ATOM     31  C   UNL     1      26.040  16.347  28.329  1.00  0.00     0.179 C 
ATOM     32  C   UNL     1      27.199  17.206  27.772  1.00  0.00     0.177 C 
BRANCH  28  33
ATOM     33  O   UNL     1      26.267  19.933  29.051  1.00  0.00    -0.384 OA
ATOM     34  H   UNL     1      26.208  20.894  28.815  1.00  0.00     0.211 HD
ENDBRANCH  28  33
BRANCH  30  35
ATOM     35  O   UNL     1      26.013  18.176  25.908  1.00  0.00    -0.387 OA
ATOM     36  H   UNL     1      25.734  19.035  25.496  1.00  0.00     0.211 HD
ENDBRANCH  30  35
BRANCH  31  37
ATOM     37  C   UNL     1      26.560  15.067  28.999  1.00  0.00     0.191 C 
BRANCH  37  38
ATOM     38  O   UNL     1      27.843  14.755  28.525  1.00  0.00    -0.394 OA
ATOM     39  H   UNL     1      27.720  14.125  27.767  1.00  0.00     0.210 HD
ENDBRANCH  37  38
ENDBRANCH  31  37
BRANCH  32  40
ATOM     40  O   UNL     1      28.098  17.551  28.797  1.00  0.00    -0.387 OA
ATOM     41  H   UNL     1      27.692  18.299  29.308  1.00  0.00     0.211 HD
ENDBRANCH  32  40
ENDBRANCH   1  27
TORSDOF 12
ENDMDL
MODEL 7
REMARK VINA RESULT:    -5.965     15.946     18.451
REMARK INTER + INTRA:          -8.862
REMARK INTER:                  -7.667
REMARK INTRA:                  -1.195
REMARK UNBOUND:                -0.108
REMARK SMILES O=c1c(O[C@H]2O[C@H](CO)[C@H](O)[C@@H](O)[C@@H]2O)c(-c2ccc(O)c(O)c2)oc2cc(O)cc(O)c12
REMARK SMILES IDX 4 1 3 2 16 3 25 4 2 5 26 6 1 7 33 8 27 9 31 10 28 11 30 12
REMARK SMILES IDX 17 13 18 14 19 15 20 16 24 17 22 18 21 19 23 21 32 23 29 25
REMARK SMILES IDX 5 27 14 28 6 29 12 30 7 31 10 32 15 33 13 35 8 37 9 38 11 40
REMARK H PARENT 21 20 23 22 32 24 29 26 15 34 13 36 9 39 11 41
REMARK Flexibility Score: inf
ROOT
ATOM      1  O   UNL     1      22.438   5.993  30.145  1.00  0.00    -0.454 OA
ENDROOT
BRANCH   1   2
ATOM      2  C   UNL     1      23.495   6.877  29.898  1.00  0.00     0.214 A 
ATOM      3  C   UNL     1      24.638   6.478  29.178  1.00  0.00     0.180 A 
ATOM      4  O   UNL     1      25.568   7.375  28.875  1.00  0.00    -0.452 OA
ATOM      5  C   UNL     1      23.408   8.194  30.361  1.00  0.00     0.239 A 
ATOM      6  C   UNL     1      25.516   8.643  29.268  1.00  0.00     0.146 A 
ATOM      7  O   UNL     1      22.370   8.543  30.981  1.00  0.00    -0.285 OA
ATOM      8  C   UNL     1      24.450   9.111  30.081  1.00  0.00     0.111 A 
ATOM      9  C   UNL     1      26.536   9.509  28.867  1.00  0.00     0.094 A 
ATOM     10  C   UNL     1      24.474  10.469  30.520  1.00  0.00     0.134 A 
ATOM     11  C   UNL     1      26.518  10.850  29.254  1.00  0.00     0.123 A 
ATOM     12  C   UNL     1      25.492  11.320  30.073  1.00  0.00     0.093 A 
BRANCH   3  13
ATOM     13  C   UNL     1      24.849   5.079  28.743  1.00  0.00     0.025 A 
ATOM     14  C   UNL     1      24.086   4.517  27.705  1.00  0.00     0.016 A 
ATOM     15  C   UNL     1      24.296   3.194  27.311  1.00  0.00     0.051 A 
ATOM     16  C   UNL     1      25.256   2.408  27.956  1.00  0.00     0.157 A 
ATOM     17  C   UNL     1      25.796   4.282  29.404  1.00  0.00     0.062 A 
ATOM     18  C   UNL     1      26.008   2.952  29.010  1.00  0.00     0.158 A 
BRANCH  16  19
ATOM     19  O   UNL     1      25.445   1.091  27.539  1.00  0.00    -0.504 OA
ATOM     20  H   UNL     1      24.751   0.371  27.697  1.00  0.00     0.293 HD
ENDBRANCH  16  19
BRANCH  18  21
ATOM     21  O   UNL     1      26.961   2.172  29.662  1.00  0.00    -0.504 OA
ATOM     22  H   UNL     1      27.067   2.195  30.670  1.00  0.00     0.293 HD
ENDBRANCH  18  21
ENDBRANCH   3  13
BRANCH  10  23
ATOM     23  O   UNL     1      23.547  11.018  31.409  1.00  0.00    -0.507 OA
ATOM     24  H   UNL     1      22.951  11.806  31.204  1.00  0.00     0.293 HD
ENDBRANCH  10  23
BRANCH  11  25
ATOM     25  O   UNL     1      27.522  11.722  28.839  1.00  0.00    -0.508 OA
ATOM     26  H   UNL     1      27.465  12.718  29.019  1.00  0.00     0.293 HD
ENDBRANCH  11  25
ENDBRANCH   1   2
BRANCH   1  27
ATOM     27  C   UNL     1      22.542   4.895  31.060  1.00  0.00     0.339 C 
ATOM     28  C   UNL     1      21.409   3.870  30.813  1.00  0.00     0.214 C 
ATOM     29  O   UNL     1      22.546   5.360  32.401  1.00  0.00    -0.332 OA
ATOM     30  C   UNL     1      20.041   4.403  31.290  1.00  0.00     0.180 C 
ATOM     31  C   UNL     1      21.339   6.033  32.720  1.00  0.00     0.179 C 
ATOM     32  C   UNL     1      20.142   5.056  32.683  1.00  0.00     0.177 C 
BRANCH  28  33
ATOM     33  O   UNL     1      21.700   2.629  31.410  1.00  0.00    -0.384 OA
ATOM     34  H   UNL     1      21.499   2.693  32.379  1.00  0.00     0.211 HD
ENDBRANCH  28  33
BRANCH  30  35
ATOM     35  O   UNL     1      19.565   5.343  30.358  1.00  0.00    -0.387 OA
ATOM     36  H   UNL     1      18.741   5.741  30.743  1.00  0.00     0.211 HD
ENDBRANCH  30  35
BRANCH  31  37
ATOM     37  C   UNL     1      21.487   6.688  34.101  1.00  0.00     0.191 C 
BRANCH  37  38
ATOM     38  O   UNL     1      22.187   7.898  33.995  1.00  0.00    -0.394 OA
ATOM     39  H   UNL     1      21.510   8.604  33.822  1.00  0.00     0.210 HD
ENDBRANCH  37  38
ENDBRANCH  31  37
BRANCH  32  40
ATOM     40  O   UNL     1      20.287   4.053  33.660  1.00  0.00    -0.387 OA
ATOM     41  H   UNL     1      19.511   4.125  34.274  1.00  0.00     0.211 HD
ENDBRANCH  32  40
ENDBRANCH   1  27
TORSDOF 12
ENDMDL
MODEL 8
REMARK VINA RESULT:    -5.883     12.905     14.684
REMARK INTER + INTRA:          -8.742
REMARK INTER:                  -7.179
REMARK INTRA:                  -1.563
REMARK UNBOUND:                -0.108
REMARK SMILES O=c1c(O[C@H]2O[C@H](CO)[C@H](O)[C@@H](O)[C@@H]2O)c(-c2ccc(O)c(O)c2)oc2cc(O)cc(O)c12
REMARK SMILES IDX 4 1 3 2 16 3 25 4 2 5 26 6 1 7 33 8 27 9 31 10 28 11 30 12
REMARK SMILES IDX 17 13 18 14 19 15 20 16 24 17 22 18 21 19 23 21 32 23 29 25
REMARK SMILES IDX 5 27 14 28 6 29 12 30 7 31 10 32 15 33 13 35 8 37 9 38 11 40
REMARK H PARENT 21 20 23 22 32 24 29 26 15 34 13 36 9 39 11 41
REMARK Flexibility Score: inf
ROOT
ATOM      1  O   UNL     1      23.647  18.535  28.277  1.00  0.00    -0.454 OA
ENDROOT
BRANCH   1   2
ATOM      2  C   UNL     1      22.267  18.544  28.044  1.00  0.00     0.214 A 
ATOM      3  C   UNL     1      21.731  18.912  26.794  1.00  0.00     0.180 A 
ATOM      4  O   UNL     1      20.426  18.805  26.583  1.00  0.00    -0.452 OA
ATOM      5  C   UNL     1      21.396  18.163  29.071  1.00  0.00     0.239 A 
ATOM      6  C   UNL     1      19.563  18.421  27.519  1.00  0.00     0.146 A 
ATOM      7  O   UNL     1      21.890  17.815  30.175  1.00  0.00    -0.285 OA
ATOM      8  C   UNL     1      20.001  18.127  28.837  1.00  0.00     0.111 A 
ATOM      9  C   UNL     1      18.212  18.316  27.178  1.00  0.00     0.094 A 
ATOM     10  C   UNL     1      19.024  17.774  29.815  1.00  0.00     0.134 A 
ATOM     11  C   UNL     1      17.274  17.912  28.129  1.00  0.00     0.123 A 
ATOM     12  C   UNL     1      17.683  17.643  29.435  1.00  0.00     0.093 A 
BRANCH   3  13
ATOM     13  C   UNL     1      22.578  19.421  25.691  1.00  0.00     0.025 A 
ATOM     14  C   UNL     1      23.236  20.659  25.792  1.00  0.00     0.016 A 
ATOM     15  C   UNL     1      24.028  21.124  24.740  1.00  0.00     0.051 A 
ATOM     16  C   UNL     1      24.160  20.374  23.568  1.00  0.00     0.157 A 
ATOM     17  C   UNL     1      22.693  18.679  24.506  1.00  0.00     0.062 A 
ATOM     18  C   UNL     1      23.487  19.146  23.448  1.00  0.00     0.158 A 
BRANCH  16  19
ATOM     19  O   UNL     1      24.959  20.863  22.536  1.00  0.00    -0.504 OA
ATOM     20  H   UNL     1      25.267  20.277  21.769  1.00  0.00     0.293 HD
ENDBRANCH  16  19
BRANCH  18  21
ATOM     21  O   UNL     1      23.608  18.396  22.279  1.00  0.00    -0.504 OA
ATOM     22  H   UNL     1      23.632  17.383  22.299  1.00  0.00     0.293 HD
ENDBRANCH  18  21
ENDBRANCH   3  13
BRANCH  10  23
ATOM     23  O   UNL     1      19.312  17.569  31.167  1.00  0.00    -0.507 OA
ATOM     24  H   UNL     1      18.907  16.842  31.737  1.00  0.00     0.293 HD
ENDBRANCH  10  23
BRANCH  11  25
ATOM     25  O   UNL     1      15.928  17.786  27.790  1.00  0.00    -0.508 OA
ATOM     26  H   UNL     1      15.615  17.100  27.113  1.00  0.00     0.293 HD
ENDBRANCH  11  25
ENDBRANCH   1   2
BRANCH   1  27
ATOM     27  C   UNL     1      24.518  17.530  27.744  1.00  0.00     0.339 C 
ATOM     28  C   UNL     1      25.249  16.782  28.884  1.00  0.00     0.214 C 
ATOM     29  O   UNL     1      25.432  18.099  26.819  1.00  0.00    -0.332 OA
ATOM     30  C   UNL     1      26.333  17.661  29.543  1.00  0.00     0.180 C 
ATOM     31  C   UNL     1      26.267  19.062  27.441  1.00  0.00     0.179 C 
ATOM     32  C   UNL     1      27.187  18.394  28.489  1.00  0.00     0.177 C 
BRANCH  28  33
ATOM     33  O   UNL     1      25.795  15.566  28.433  1.00  0.00    -0.384 OA
ATOM     34  H   UNL     1      25.921  14.968  29.214  1.00  0.00     0.211 HD
ENDBRANCH  28  33
BRANCH  30  35
ATOM     35  O   UNL     1      25.712  18.599  30.388  1.00  0.00    -0.387 OA
ATOM     36  H   UNL     1      24.739  18.568  30.189  1.00  0.00     0.211 HD
ENDBRANCH  30  35
BRANCH  31  37
ATOM     37  C   UNL     1      27.081  19.785  26.359  1.00  0.00     0.191 C 
BRANCH  37  38
ATOM     38  O   UNL     1      27.227  18.967  25.229  1.00  0.00    -0.394 OA
ATOM     39  H   UNL     1      28.174  18.668  25.216  1.00  0.00     0.210 HD
ENDBRANCH  37  38
ENDBRANCH  31  37
BRANCH  32  40
ATOM     40  O   UNL     1      28.058  17.477  27.873  1.00  0.00    -0.387 OA
ATOM     41  H   UNL     1      27.972  16.616  28.359  1.00  0.00     0.211 HD
ENDBRANCH  32  40
ENDBRANCH   1  27
TORSDOF 12
ENDMDL
MODEL 9
REMARK VINA RESULT:    -5.799     15.524     17.321
REMARK INTER + INTRA:          -8.620
REMARK INTER:                  -7.319
REMARK INTRA:                  -1.301
REMARK UNBOUND:                -0.108
REMARK SMILES O=c1c(O[C@H]2O[C@H](CO)[C@H](O)[C@@H](O)[C@@H]2O)c(-c2ccc(O)c(O)c2)oc2cc(O)cc(O)c12
REMARK SMILES IDX 4 1 3 2 16 3 25 4 2 5 26 6 1 7 33 8 27 9 31 10 28 11 30 12
REMARK SMILES IDX 17 13 18 14 19 15 20 16 24 17 22 18 21 19 23 21 32 23 29 25
REMARK SMILES IDX 5 27 14 28 6 29 12 30 7 31 10 32 15 33 13 35 8 37 9 38 11 40
REMARK H PARENT 21 20 23 22 32 24 29 26 15 34 13 36 9 39 11 41
REMARK Flexibility Score: inf
ROOT
ATOM      1  O   UNL     1      23.241   8.598  31.716  1.00  0.00    -0.454 OA
ENDROOT
BRANCH   1   2
ATOM      2  C   UNL     1      23.838   9.605  30.948  1.00  0.00     0.214 A 
ATOM      3  C   UNL     1      24.248   9.376  29.620  1.00  0.00     0.180 A 
ATOM      4  O   UNL     1      24.711  10.386  28.894  1.00  0.00    -0.452 OA
ATOM      5  C   UNL     1      24.017  10.876  31.506  1.00  0.00     0.239 A 
ATOM      6  C   UNL     1      24.873  11.616  29.372  1.00  0.00     0.146 A 
ATOM      7  O   UNL     1      23.625  11.071  32.686  1.00  0.00    -0.285 OA
ATOM      8  C   UNL     1      24.580  11.915  30.728  1.00  0.00     0.111 A 
ATOM      9  C   UNL     1      25.342  12.610  28.509  1.00  0.00     0.094 A 
ATOM     10  C   UNL     1      24.826  13.239  31.201  1.00  0.00     0.134 A 
ATOM     11  C   UNL     1      25.522  13.916  28.968  1.00  0.00     0.123 A 
ATOM     12  C   UNL     1      25.263  14.222  30.304  1.00  0.00     0.093 A 
BRANCH   3  13
ATOM     13  C   UNL     1      24.184   8.037  28.993  1.00  0.00     0.025 A 
ATOM     14  C   UNL     1      24.757   6.915  29.615  1.00  0.00     0.016 A 
ATOM     15  C   UNL     1      24.690   5.660  29.007  1.00  0.00     0.051 A 
ATOM     16  C   UNL     1      24.067   5.508  27.765  1.00  0.00     0.157 A 
ATOM     17  C   UNL     1      23.579   7.888  27.736  1.00  0.00     0.062 A 
ATOM     18  C   UNL     1      23.511   6.628  27.123  1.00  0.00     0.158 A 
BRANCH  16  19
ATOM     19  O   UNL     1      24.013   4.242  27.183  1.00  0.00    -0.504 OA
ATOM     20  H   UNL     1      24.571   3.997  26.374  1.00  0.00     0.293 HD
ENDBRANCH  16  19
BRANCH  18  21
ATOM     21  O   UNL     1      22.895   6.485  25.881  1.00  0.00    -0.504 OA
ATOM     22  H   UNL     1      23.408   6.612  25.016  1.00  0.00     0.293 HD
ENDBRANCH  18  21
ENDBRANCH   3  13
BRANCH  10  23
ATOM     23  O   UNL     1      24.683  13.631  32.535  1.00  0.00    -0.507 OA
ATOM     24  H   UNL     1      25.400  14.086  33.079  1.00  0.00     0.293 HD
ENDBRANCH  10  23
BRANCH  11  25
ATOM     25  O   UNL     1      25.970  14.916  28.108  1.00  0.00    -0.508 OA
ATOM     26  H   UNL     1      26.958  15.080  27.955  1.00  0.00     0.293 HD
ENDBRANCH  11  25
ENDBRANCH   1   2
BRANCH   1  27
ATOM     27  C   UNL     1      21.830   8.539  31.957  1.00  0.00     0.339 C 
ATOM     28  C   UNL     1      21.542   8.401  33.471  1.00  0.00     0.214 C 
ATOM     29  O   UNL     1      21.239   7.486  31.212  1.00  0.00    -0.332 OA
ATOM     30  C   UNL     1      21.897   6.992  33.995  1.00  0.00     0.180 C 
ATOM     31  C   UNL     1      21.762   6.224  31.592  1.00  0.00     0.179 C 
ATOM     32  C   UNL     1      21.378   5.889  33.052  1.00  0.00     0.177 C 
BRANCH  28  33
ATOM     33  O   UNL     1      20.205   8.725  33.771  1.00  0.00    -0.384 OA
ATOM     34  H   UNL     1      19.759   9.022  32.936  1.00  0.00     0.211 HD
ENDBRANCH  28  33
BRANCH  30  35
ATOM     35  O   UNL     1      23.294   6.890  34.125  1.00  0.00    -0.387 OA
ATOM     36  H   UNL     1      23.488   5.975  34.457  1.00  0.00     0.211 HD
ENDBRANCH  30  35
BRANCH  31  37
ATOM     37  C   UNL     1      21.244   5.158  30.616  1.00  0.00     0.191 C 
BRANCH  37  38
ATOM     38  O   UNL     1      19.877   5.347  30.368  1.00  0.00    -0.394 OA
ATOM     39  H   UNL     1      19.448   5.508  31.249  1.00  0.00     0.210 HD
ENDBRANCH  37  38
ENDBRANCH  31  37
BRANCH  32  40
ATOM     40  O   UNL     1      19.982   5.777  33.185  1.00  0.00    -0.387 OA
ATOM     41  H   UNL     1      19.688   6.487  33.813  1.00  0.00     0.211 HD
ENDBRANCH  32  40
ENDBRANCH   1  27
TORSDOF 12
ENDMDL
