MODEL 1
REMARK VINA RESULT:    -2.934      0.000      0.000
REMARK INTER + INTRA:          -9.646
REMARK INTER:                  -6.364
REMARK INTRA:                  -3.282
REMARK UNBOUND:                -3.282
REMARK SMILES CCCCCCCCCCCCCCCCCCCCCC(=O)[O-]
REMARK SMILES IDX 12 1 11 2 10 3 9 4 8 5 7 6 6 7 5 8 4 9 3 10 2 11 1 12 13 13
REMARK SMILES IDX 14 14 15 15 16 16 17 17 18 18 19 19 20 20 21 21 22 22 23 23
REMARK SMILES IDX 24 24
REMARK H PARENT
REMARK Flexibility Score: inf
ROOT
ATOM      1  C   UNL     1      21.639  29.448  45.970  1.00  0.00     0.000 C 
ENDROOT
BRANCH   1   2
ATOM      2  C   UNL     1      22.929  28.778  46.467  1.00  0.00     0.000 C 
BRANCH   2   3
ATOM      3  C   UNL     1      24.004  29.825  46.784  1.00  0.00     0.000 C 
BRANCH   3   4
ATOM      4  C   UNL     1      24.062  30.902  45.691  1.00  0.00    -0.000 C 
BRANCH   4   5
ATOM      5  C   UNL     1      25.298  31.809  45.819  1.00  0.00    -0.000 C 
BRANCH   5   6
ATOM      6  C   UNL     1      25.939  32.130  44.462  1.00  0.00    -0.000 C 
BRANCH   6   7
ATOM      7  C   UNL     1      26.214  30.846  43.668  1.00  0.00    -0.000 C 
BRANCH   7   8
ATOM      8  C   UNL     1      25.679  30.905  42.226  1.00  0.00    -0.000 C 
BRANCH   8   9
ATOM      9  C   UNL     1      24.300  30.234  42.051  1.00  0.00    -0.000 C 
BRANCH   9  10
ATOM     10  C   UNL     1      23.208  31.244  41.662  1.00  0.00    -0.000 C 
BRANCH  10  11
ATOM     11  C   UNL     1      22.094  31.280  42.715  1.00  0.00    -0.003 C 
ATOM     12  C   UNL     1      21.982  32.662  43.353  1.00  0.00     0.004 C 
ENDBRANCH  10  11
ENDBRANCH   9  10
ENDBRANCH   8   9
ENDBRANCH   7   8
ENDBRANCH   6   7
ENDBRANCH   5   6
ENDBRANCH   4   5
ENDBRANCH   3   4
ENDBRANCH   2   3
ENDBRANCH   1   2
BRANCH   1  13
ATOM     13  C   UNL     1      20.789  30.031  47.113  1.00  0.00     0.000 C 
BRANCH  13  14
ATOM     14  C   UNL     1      20.690  31.570  47.138  1.00  0.00     0.000 C 
BRANCH  14  15
ATOM     15  C   UNL     1      21.589  32.270  48.172  1.00  0.00     0.000 C 
BRANCH  15  16
ATOM     16  C   UNL     1      20.794  32.875  49.342  1.00  0.00     0.000 C 
BRANCH  16  17
ATOM     17  C   UNL     1      20.415  31.827  50.401  1.00  0.00     0.000 C 
BRANCH  17  18
ATOM     18  C   UNL     1      21.634  31.066  50.945  1.00  0.00     0.000 C 
BRANCH  18  19
ATOM     19  C   UNL     1      21.445  29.552  50.798  1.00  0.00     0.000 C 
BRANCH  19  20
ATOM     20  C   UNL     1      22.692  28.896  50.193  1.00  0.00     0.006 C 
BRANCH  20  21
ATOM     21  C   UNL     1      22.695  27.385  50.440  1.00  0.00     0.053 C 
BRANCH  21  22
ATOM     22  C   UNL     1      23.333  26.667  49.294  1.00  0.00     0.041 C 
ATOM     23  O   UNL     1      22.654  25.881  48.582  1.00  0.00    -0.550 OA
ATOM     24  O   UNL     1      24.689  26.828  49.040  1.00  0.00    -0.550 OA
ENDBRANCH  21  22
ENDBRANCH  20  21
ENDBRANCH  19  20
ENDBRANCH  18  19
ENDBRANCH  17  18
ENDBRANCH  16  17
ENDBRANCH  15  16
ENDBRANCH  14  15
ENDBRANCH  13  14
ENDBRANCH   1  13
TORSDOF 20
ENDMDL
MODEL 2
REMARK VINA RESULT:    -2.887      1.589      2.884
REMARK INTER + INTRA:          -9.545
REMARK INTER:                  -6.420
REMARK INTRA:                  -3.125
REMARK UNBOUND:                -3.282
REMARK SMILES CCCCCCCCCCCCCCCCCCCCCC(=O)[O-]
REMARK SMILES IDX 12 1 11 2 10 3 9 4 8 5 7 6 6 7 5 8 4 9 3 10 2 11 1 12 13 13
REMARK SMILES IDX 14 14 15 15 16 16 17 17 18 18 19 19 20 20 21 21 22 22 23 23
REMARK SMILES IDX 24 24
REMARK H PARENT
REMARK Flexibility Score: inf
ROOT
ATOM      1  C   UNL     1      23.567  31.735  46.969  1.00  0.00     0.000 C 
ENDROOT
BRANCH   1   2
ATOM      2  C   UNL     1      24.122  30.305  47.045  1.00  0.00     0.000 C 
BRANCH   2   3
ATOM      3  C   UNL     1      23.003  29.296  47.329  1.00  0.00     0.000 C 
BRANCH   3   4
ATOM      4  C   UNL     1      23.379  27.898  46.817  1.00  0.00    -0.000 C 
BRANCH   4   5
ATOM      5  C   UNL     1      22.400  27.375  45.753  1.00  0.00    -0.000 C 
BRANCH   5   6
ATOM      6  C   UNL     1      23.034  27.287  44.357  1.00  0.00    -0.000 C 
BRANCH   6   7
ATOM      7  C   UNL     1      22.745  28.556  43.543  1.00  0.00    -0.000 C 
BRANCH   7   8
ATOM      8  C   UNL     1      24.011  29.173  42.924  1.00  0.00    -0.000 C 
BRANCH   8   9
ATOM      9  C   UNL     1      24.324  30.591  43.445  1.00  0.00    -0.000 C 
BRANCH   9  10
ATOM     10  C   UNL     1      25.807  30.762  43.811  1.00  0.00    -0.000 C 
BRANCH  10  11
ATOM     11  C   UNL     1      26.133  32.229  44.111  1.00  0.00    -0.003 C 
ATOM     12  C   UNL     1      25.603  33.148  43.014  1.00  0.00     0.004 C 
ENDBRANCH  10  11
ENDBRANCH   9  10
ENDBRANCH   8   9
ENDBRANCH   7   8
ENDBRANCH   6   7
ENDBRANCH   5   6
ENDBRANCH   4   5
ENDBRANCH   3   4
ENDBRANCH   2   3
ENDBRANCH   1   2
BRANCH   1  13
ATOM     13  C   UNL     1      22.040  31.775  46.779  1.00  0.00     0.000 C 
BRANCH  13  14
ATOM     14  C   UNL     1      21.264  32.551  47.863  1.00  0.00     0.000 C 
BRANCH  14  15
ATOM     15  C   UNL     1      20.613  31.682  48.954  1.00  0.00     0.000 C 
BRANCH  15  16
ATOM     16  C   UNL     1      21.533  31.457  50.166  1.00  0.00     0.000 C 
BRANCH  16  17
ATOM     17  C   UNL     1      21.130  30.223  50.990  1.00  0.00     0.000 C 
BRANCH  17  18
ATOM     18  C   UNL     1      22.059  29.023  50.753  1.00  0.00     0.000 C 
BRANCH  18  19
ATOM     19  C   UNL     1      21.268  27.808  50.254  1.00  0.00     0.000 C 
BRANCH  19  20
ATOM     20  C   UNL     1      22.189  26.601  50.036  1.00  0.00     0.006 C 
BRANCH  20  21
ATOM     21  C   UNL     1      23.566  26.840  50.660  1.00  0.00     0.053 C 
BRANCH  21  22
ATOM     22  C   UNL     1      24.542  25.809  50.189  1.00  0.00     0.041 C 
ATOM     23  O   UNL     1      24.585  24.679  50.742  1.00  0.00    -0.550 OA
ATOM     24  O   UNL     1      25.437  26.112  49.171  1.00  0.00    -0.550 OA
ENDBRANCH  21  22
ENDBRANCH  20  21
ENDBRANCH  19  20
ENDBRANCH  18  19
ENDBRANCH  17  18
ENDBRANCH  16  17
ENDBRANCH  15  16
ENDBRANCH  14  15
ENDBRANCH  13  14
ENDBRANCH   1  13
TORSDOF 20
ENDMDL
MODEL 3
REMARK VINA RESULT:    -2.844      1.266      2.180
REMARK INTER + INTRA:          -9.450
REMARK INTER:                  -6.399
REMARK INTRA:                  -3.051
REMARK UNBOUND:                -3.282
REMARK SMILES CCCCCCCCCCCCCCCCCCCCCC(=O)[O-]
REMARK SMILES IDX 12 1 11 2 10 3 9 4 8 5 7 6 6 7 5 8 4 9 3 10 2 11 1 12 13 13
REMARK SMILES IDX 14 14 15 15 16 16 17 17 18 18 19 19 20 20 21 21 22 22 23 23
REMARK SMILES IDX 24 24
REMARK H PARENT
REMARK Flexibility Score: inf
ROOT
ATOM      1  C   UNL     1      22.183  28.856  45.888  1.00  0.00     0.000 C 
ENDROOT
BRANCH   1   2
ATOM      2  C   UNL     1      23.559  29.420  45.500  1.00  0.00     0.000 C 
BRANCH   2   3
ATOM      3  C   UNL     1      24.141  30.272  46.634  1.00  0.00     0.000 C 
BRANCH   3   4
ATOM      4  C   UNL     1      24.433  31.701  46.154  1.00  0.00    -0.000 C 
BRANCH   4   5
ATOM      5  C   UNL     1      23.792  32.010  44.791  1.00  0.00    -0.000 C 
BRANCH   5   6
ATOM      6  C   UNL     1      24.803  32.559  43.773  1.00  0.00    -0.000 C 
BRANCH   6   7
ATOM      7  C   UNL     1      26.192  31.945  43.994  1.00  0.00    -0.000 C 
BRANCH   7   8
ATOM      8  C   UNL     1      26.356  30.575  43.313  1.00  0.00    -0.000 C 
BRANCH   8   9
ATOM      9  C   UNL     1      25.951  30.573  41.824  1.00  0.00    -0.000 C 
BRANCH   9  10
ATOM     10  C   UNL     1      24.709  29.706  41.560  1.00  0.00    -0.000 C 
BRANCH  10  11
ATOM     11  C   UNL     1      25.088  28.413  40.831  1.00  0.00    -0.003 C 
ATOM     12  C   UNL     1      25.080  27.220  41.783  1.00  0.00     0.004 C 
ENDBRANCH  10  11
ENDBRANCH   9  10
ENDBRANCH   8   9
ENDBRANCH   7   8
ENDBRANCH   6   7
ENDBRANCH   5   6
ENDBRANCH   4   5
ENDBRANCH   3   4
ENDBRANCH   2   3
ENDBRANCH   1   2
BRANCH   1  13
ATOM     13  C   UNL     1      21.654  29.427  47.215  1.00  0.00     0.000 C 
BRANCH  13  14
ATOM     14  C   UNL     1      20.333  30.217  47.110  1.00  0.00     0.000 C 
BRANCH  14  15
ATOM     15  C   UNL     1      20.457  31.736  47.319  1.00  0.00     0.000 C 
BRANCH  15  16
ATOM     16  C   UNL     1      21.493  32.109  48.392  1.00  0.00     0.000 C 
BRANCH  16  17
ATOM     17  C   UNL     1      20.841  32.536  49.718  1.00  0.00     0.000 C 
BRANCH  17  18
ATOM     18  C   UNL     1      21.139  31.560  50.867  1.00  0.00     0.000 C 
BRANCH  18  19
ATOM     19  C   UNL     1      19.983  30.570  51.058  1.00  0.00     0.000 C 
BRANCH  19  20
ATOM     20  C   UNL     1      20.473  29.121  50.943  1.00  0.00     0.006 C 
BRANCH  20  21
ATOM     21  C   UNL     1      21.997  29.064  50.807  1.00  0.00     0.053 C 
BRANCH  21  22
ATOM     22  C   UNL     1      22.438  27.689  50.418  1.00  0.00     0.041 C 
ATOM     23  O   UNL     1      21.654  26.925  49.796  1.00  0.00    -0.550 OA
ATOM     24  O   UNL     1      23.698  27.234  50.784  1.00  0.00    -0.550 OA
ENDBRANCH  21  22
ENDBRANCH  20  21
ENDBRANCH  19  20
ENDBRANCH  18  19
ENDBRANCH  17  18
ENDBRANCH  16  17
ENDBRANCH  15  16
ENDBRANCH  14  15
ENDBRANCH  13  14
ENDBRANCH   1  13
TORSDOF 20
ENDMDL
MODEL 4
REMARK VINA RESULT:    -2.839      1.429      2.696
REMARK INTER + INTRA:          -9.440
REMARK INTER:                  -5.768
REMARK INTRA:                  -3.672
REMARK UNBOUND:                -3.282
REMARK SMILES CCCCCCCCCCCCCCCCCCCCCC(=O)[O-]
REMARK SMILES IDX 12 1 11 2 10 3 9 4 8 5 7 6 6 7 5 8 4 9 3 10 2 11 1 12 13 13
REMARK SMILES IDX 14 14 15 15 16 16 17 17 18 18 19 19 20 20 21 21 22 22 23 23
REMARK SMILES IDX 24 24
REMARK H PARENT
REMARK Flexibility Score: inf
ROOT
ATOM      1  C   UNL     1      20.393  30.969  47.570  1.00  0.00     0.000 C 
ENDROOT
BRANCH   1   2
ATOM      2  C   UNL     1      20.888  31.750  46.343  1.00  0.00     0.000 C 
BRANCH   2   3
ATOM      3  C   UNL     1      22.381  32.077  46.467  1.00  0.00     0.000 C 
BRANCH   3   4
ATOM      4  C   UNL     1      23.119  30.991  47.263  1.00  0.00    -0.000 C 
BRANCH   4   5
ATOM      5  C   UNL     1      24.455  30.589  46.618  1.00  0.00    -0.000 C 
BRANCH   5   6
ATOM      6  C   UNL     1      25.114  31.745  45.851  1.00  0.00    -0.000 C 
BRANCH   6   7
ATOM      7  C   UNL     1      25.588  31.283  44.466  1.00  0.00    -0.000 C 
BRANCH   7   8
ATOM      8  C   UNL     1      24.452  31.229  43.430  1.00  0.00    -0.000 C 
BRANCH   8   9
ATOM      9  C   UNL     1      24.009  29.794  43.075  1.00  0.00    -0.000 C 
BRANCH   9  10
ATOM     10  C   UNL     1      22.573  29.498  43.537  1.00  0.00    -0.000 C 
BRANCH  10  11
ATOM     11  C   UNL     1      22.550  28.355  44.557  1.00  0.00    -0.003 C 
ATOM     12  C   UNL     1      21.163  28.191  45.172  1.00  0.00     0.004 C 
ENDBRANCH  10  11
ENDBRANCH   9  10
ENDBRANCH   8   9
ENDBRANCH   7   8
ENDBRANCH   6   7
ENDBRANCH   5   6
ENDBRANCH   4   5
ENDBRANCH   3   4
ENDBRANCH   2   3
ENDBRANCH   1   2
BRANCH   1  13
ATOM     13  C   UNL     1      19.763  31.874  48.643  1.00  0.00     0.000 C 
BRANCH  13  14
ATOM     14  C   UNL     1      20.759  32.506  49.637  1.00  0.00     0.000 C 
BRANCH  14  15
ATOM     15  C   UNL     1      20.926  31.754  50.969  1.00  0.00     0.000 C 
BRANCH  15  16
ATOM     16  C   UNL     1      21.839  30.523  50.849  1.00  0.00     0.000 C 
BRANCH  16  17
ATOM     17  C   UNL     1      21.054  29.201  50.891  1.00  0.00     0.000 C 
BRANCH  17  18
ATOM     18  C   UNL     1      21.870  28.009  50.367  1.00  0.00     0.000 C 
BRANCH  18  19
ATOM     19  C   UNL     1      21.755  27.896  48.842  1.00  0.00     0.000 C 
BRANCH  19  20
ATOM     20  C   UNL     1      22.628  26.754  48.307  1.00  0.00     0.006 C 
BRANCH  20  21
ATOM     21  C   UNL     1      24.115  27.095  48.427  1.00  0.00     0.053 C 
BRANCH  21  22
ATOM     22  C   UNL     1      24.873  25.943  49.006  1.00  0.00     0.041 C 
ATOM     23  O   UNL     1      25.978  26.135  49.579  1.00  0.00    -0.550 OA
ATOM     24  O   UNL     1      24.382  24.650  48.872  1.00  0.00    -0.550 OA
ENDBRANCH  21  22
ENDBRANCH  20  21
ENDBRANCH  19  20
ENDBRANCH  18  19
ENDBRANCH  17  18
ENDBRANCH  16  17
ENDBRANCH  15  16
ENDBRANCH  14  15
ENDBRANCH  13  14
ENDBRANCH   1  13
TORSDOF 20
ENDMDL
MODEL 5
REMARK VINA RESULT:    -2.805      3.625      7.825
REMARK INTER + INTRA:          -9.366
REMARK INTER:                  -6.067
REMARK INTRA:                  -3.299
REMARK UNBOUND:                -3.282
REMARK SMILES CCCCCCCCCCCCCCCCCCCCCC(=O)[O-]
REMARK SMILES IDX 12 1 11 2 10 3 9 4 8 5 7 6 6 7 5 8 4 9 3 10 2 11 1 12 13 13
REMARK SMILES IDX 14 14 15 15 16 16 17 17 18 18 19 19 20 20 21 21 22 22 23 23
REMARK SMILES IDX 24 24
REMARK H PARENT
REMARK Flexibility Score: inf
ROOT
ATOM      1  C   UNL     1      27.619  23.400  46.813  1.00  0.00     0.000 C 
ENDROOT
BRANCH   1   2
ATOM      2  C   UNL     1      28.397  23.664  48.111  1.00  0.00     0.000 C 
BRANCH   2   3
ATOM      3  C   UNL     1      27.853  22.807  49.260  1.00  0.00     0.000 C 
BRANCH   3   4
ATOM      4  C   UNL     1      27.368  23.686  50.421  1.00  0.00    -0.000 C 
BRANCH   4   5
ATOM      5  C   UNL     1      27.439  25.188  50.097  1.00  0.00    -0.000 C 
BRANCH   5   6
ATOM      6  C   UNL     1      26.105  25.909  50.337  1.00  0.00    -0.000 C 
BRANCH   6   7
ATOM      7  C   UNL     1      25.009  24.913  50.741  1.00  0.00    -0.000 C 
BRANCH   7   8
ATOM      8  C   UNL     1      23.619  25.564  50.854  1.00  0.00    -0.000 C 
BRANCH   8   9
ATOM      9  C   UNL     1      23.647  27.103  50.732  1.00  0.00    -0.000 C 
BRANCH   9  10
ATOM     10  C   UNL     1      22.250  27.690  50.472  1.00  0.00    -0.000 C 
BRANCH  10  11
ATOM     11  C   UNL     1      22.232  29.200  50.738  1.00  0.00    -0.003 C 
ATOM     12  C   UNL     1      20.978  29.848  50.157  1.00  0.00     0.004 C 
ENDBRANCH  10  11
ENDBRANCH   9  10
ENDBRANCH   8   9
ENDBRANCH   7   8
ENDBRANCH   6   7
ENDBRANCH   5   6
ENDBRANCH   4   5
ENDBRANCH   3   4
ENDBRANCH   2   3
ENDBRANCH   1   2
BRANCH   1  13
ATOM     13  C   UNL     1      26.320  24.219  46.715  1.00  0.00     0.000 C 
BRANCH  13  14
ATOM     14  C   UNL     1      25.027  23.441  47.034  1.00  0.00     0.000 C 
BRANCH  14  15
ATOM     15  C   UNL     1      23.735  24.276  47.016  1.00  0.00     0.000 C 
BRANCH  15  16
ATOM     16  C   UNL     1      23.989  25.774  47.252  1.00  0.00     0.000 C 
BRANCH  16  17
ATOM     17  C   UNL     1      22.719  26.622  47.071  1.00  0.00     0.000 C 
BRANCH  17  18
ATOM     18  C   UNL     1      22.951  27.858  46.190  1.00  0.00     0.000 C 
BRANCH  18  19
ATOM     19  C   UNL     1      22.594  29.145  46.945  1.00  0.00     0.000 C 
BRANCH  19  20
ATOM     20  C   UNL     1      23.857  29.896  47.383  1.00  0.00     0.006 C 
BRANCH  20  21
ATOM     21  C   UNL     1      23.930  31.279  46.729  1.00  0.00     0.053 C 
BRANCH  21  22
ATOM     22  C   UNL     1      24.916  31.277  45.605  1.00  0.00     0.041 C 
ATOM     23  O   UNL     1      25.855  32.115  45.584  1.00  0.00    -0.550 OA
ATOM     24  O   UNL     1      24.770  30.380  44.554  1.00  0.00    -0.550 OA
ENDBRANCH  21  22
ENDBRANCH  20  21
ENDBRANCH  19  20
ENDBRANCH  18  19
ENDBRANCH  17  18
ENDBRANCH  16  17
ENDBRANCH  15  16
ENDBRANCH  14  15
ENDBRANCH  13  14
ENDBRANCH   1  13
TORSDOF 20
ENDMDL
MODEL 6
REMARK VINA RESULT:    -2.804      3.145      6.454
REMARK INTER + INTRA:          -9.365
REMARK INTER:                  -5.954
REMARK INTRA:                  -3.411
REMARK UNBOUND:                -3.282
REMARK SMILES CCCCCCCCCCCCCCCCCCCCCC(=O)[O-]
REMARK SMILES IDX 12 1 11 2 10 3 9 4 8 5 7 6 6 7 5 8 4 9 3 10 2 11 1 12 13 13
REMARK SMILES IDX 14 14 15 15 16 16 17 17 18 18 19 19 20 20 21 21 22 22 23 23
REMARK SMILES IDX 24 24
REMARK H PARENT
REMARK Flexibility Score: inf
ROOT
ATOM      1  C   UNL     1      22.171  27.070  48.563  1.00  0.00     0.000 C 
ENDROOT
BRANCH   1   2
ATOM      2  C   UNL     1      21.721  27.611  49.929  1.00  0.00     0.000 C 
BRANCH   2   3
ATOM      3  C   UNL     1      22.670  28.709  50.424  1.00  0.00     0.000 C 
BRANCH   3   4
ATOM      4  C   UNL     1      21.890  29.854  51.085  1.00  0.00    -0.000 C 
BRANCH   4   5
ATOM      5  C   UNL     1      20.369  29.718  50.901  1.00  0.00    -0.000 C 
BRANCH   5   6
ATOM      6  C   UNL     1      19.778  30.828  50.020  1.00  0.00    -0.000 C 
BRANCH   6   7
ATOM      7  C   UNL     1      20.325  32.202  50.430  1.00  0.00    -0.000 C 
BRANCH   7   8
ATOM      8  C   UNL     1      20.812  33.036  49.232  1.00  0.00    -0.000 C 
BRANCH   8   9
ATOM      9  C   UNL     1      20.902  32.233  47.917  1.00  0.00    -0.000 C 
BRANCH   9  10
ATOM     10  C   UNL     1      22.354  31.912  47.530  1.00  0.00    -0.000 C 
BRANCH  10  11
ATOM     11  C   UNL     1      22.506  30.436  47.148  1.00  0.00    -0.003 C 
ATOM     12  C   UNL     1      23.970  30.006  47.179  1.00  0.00     0.004 C 
ENDBRANCH  10  11
ENDBRANCH   9  10
ENDBRANCH   8   9
ENDBRANCH   7   8
ENDBRANCH   6   7
ENDBRANCH   5   6
ENDBRANCH   4   5
ENDBRANCH   3   4
ENDBRANCH   2   3
ENDBRANCH   1   2
BRANCH   1  13
ATOM     13  C   UNL     1      21.323  25.879  48.081  1.00  0.00     0.000 C 
BRANCH  13  14
ATOM     14  C   UNL     1      20.705  25.017  49.201  1.00  0.00     0.000 C 
BRANCH  14  15
ATOM     15  C   UNL     1      21.660  23.998  49.850  1.00  0.00     0.000 C 
BRANCH  15  16
ATOM     16  C   UNL     1      22.726  23.474  48.874  1.00  0.00     0.000 C 
BRANCH  16  17
ATOM     17  C   UNL     1      24.154  23.841  49.311  1.00  0.00     0.000 C 
BRANCH  17  18
ATOM     18  C   UNL     1      24.217  24.369  50.752  1.00  0.00     0.000 C 
BRANCH  18  19
ATOM     19  C   UNL     1      24.882  25.750  50.801  1.00  0.00     0.000 C 
BRANCH  19  20
ATOM     20  C   UNL     1      25.675  26.026  49.518  1.00  0.00     0.006 C 
BRANCH  20  21
ATOM     21  C   UNL     1      27.181  26.029  49.791  1.00  0.00     0.053 C 
BRANCH  21  22
ATOM     22  C   UNL     1      27.779  24.702  49.449  1.00  0.00     0.041 C 
ATOM     23  O   UNL     1      28.339  24.528  48.334  1.00  0.00    -0.550 OA
ATOM     24  O   UNL     1      27.677  23.642  50.341  1.00  0.00    -0.550 OA
ENDBRANCH  21  22
ENDBRANCH  20  21
ENDBRANCH  19  20
ENDBRANCH  18  19
ENDBRANCH  17  18
ENDBRANCH  16  17
ENDBRANCH  15  16
ENDBRANCH  14  15
ENDBRANCH  13  14
ENDBRANCH   1  13
TORSDOF 20
ENDMDL
MODEL 7
REMARK VINA RESULT:    -2.795      2.794      6.626
REMARK INTER + INTRA:          -9.345
REMARK INTER:                  -5.902
REMARK INTRA:                  -3.443
REMARK UNBOUND:                -3.282
REMARK SMILES CCCCCCCCCCCCCCCCCCCCCC(=O)[O-]
REMARK SMILES IDX 12 1 11 2 10 3 9 4 8 5 7 6 6 7 5 8 4 9 3 10 2 11 1 12 13 13
REMARK SMILES IDX 14 14 15 15 16 16 17 17 18 18 19 19 20 20 21 21 22 22 23 23
REMARK SMILES IDX 24 24
REMARK H PARENT
REMARK Flexibility Score: inf
ROOT
ATOM      1  C   UNL     1      21.907  30.400  50.021  1.00  0.00     0.000 C 
ENDROOT
BRANCH   1   2
ATOM      2  C   UNL     1      22.314  29.098  50.729  1.00  0.00     0.000 C 
BRANCH   2   3
ATOM      3  C   UNL     1      21.448  27.924  50.257  1.00  0.00     0.000 C 
BRANCH   3   4
ATOM      4  C   UNL     1      22.285  26.644  50.118  1.00  0.00    -0.000 C 
BRANCH   4   5
ATOM      5  C   UNL     1      23.534  26.653  51.014  1.00  0.00    -0.000 C 
BRANCH   5   6
ATOM      6  C   UNL     1      24.636  25.714  50.503  1.00  0.00    -0.000 C 
BRANCH   6   7
ATOM      7  C   UNL     1      25.169  26.184  49.142  1.00  0.00    -0.000 C 
BRANCH   7   8
ATOM      8  C   UNL     1      25.068  25.103  48.052  1.00  0.00    -0.000 C 
BRANCH   8   9
ATOM      9  C   UNL     1      26.234  24.092  48.076  1.00  0.00    -0.000 C 
BRANCH   9  10
ATOM     10  C   UNL     1      27.576  24.761  48.412  1.00  0.00    -0.000 C 
BRANCH  10  11
ATOM     11  C   UNL     1      28.375  23.916  49.410  1.00  0.00    -0.003 C 
ATOM     12  C   UNL     1      27.480  23.389  50.528  1.00  0.00     0.004 C 
ENDBRANCH  10  11
ENDBRANCH   9  10
ENDBRANCH   8   9
ENDBRANCH   7   8
ENDBRANCH   6   7
ENDBRANCH   5   6
ENDBRANCH   4   5
ENDBRANCH   3   4
ENDBRANCH   2   3
ENDBRANCH   1   2
BRANCH   1  13
ATOM     13  C   UNL     1      20.627  30.249  49.180  1.00  0.00     0.000 C 
BRANCH  13  14
ATOM     14  C   UNL     1      20.619  31.032  47.851  1.00  0.00     0.000 C 
BRANCH  14  15
ATOM     15  C   UNL     1      21.618  32.200  47.770  1.00  0.00     0.000 C 
BRANCH  15  16
ATOM     16  C   UNL     1      22.503  32.144  46.514  1.00  0.00     0.000 C 
BRANCH  16  17
ATOM     17  C   UNL     1      23.924  31.640  46.817  1.00  0.00     0.000 C 
BRANCH  17  18
ATOM     18  C   UNL     1      24.183  30.229  46.266  1.00  0.00     0.000 C 
BRANCH  18  19
ATOM     19  C   UNL     1      23.953  29.168  47.348  1.00  0.00     0.000 C 
BRANCH  19  20
ATOM     20  C   UNL     1      22.989  28.080  46.858  1.00  0.00     0.006 C 
BRANCH  20  21
ATOM     21  C   UNL     1      22.387  28.449  45.500  1.00  0.00     0.053 C 
BRANCH  21  22
ATOM     22  C   UNL     1      22.703  27.399  44.483  1.00  0.00     0.041 C 
ATOM     23  O   UNL     1      23.415  27.679  43.484  1.00  0.00    -0.550 OA
ATOM     24  O   UNL     1      22.170  26.122  44.613  1.00  0.00    -0.550 OA
ENDBRANCH  21  22
ENDBRANCH  20  21
ENDBRANCH  19  20
ENDBRANCH  18  19
ENDBRANCH  17  18
ENDBRANCH  16  17
ENDBRANCH  15  16
ENDBRANCH  14  15
ENDBRANCH  13  14
ENDBRANCH   1  13
TORSDOF 20
ENDMDL
MODEL 8
REMARK VINA RESULT:    -2.774      2.836      4.489
REMARK INTER + INTRA:          -9.298
REMARK INTER:                  -5.989
REMARK INTRA:                  -3.309
REMARK UNBOUND:                -3.282
REMARK SMILES CCCCCCCCCCCCCCCCCCCCCC(=O)[O-]
REMARK SMILES IDX 12 1 11 2 10 3 9 4 8 5 7 6 6 7 5 8 4 9 3 10 2 11 1 12 13 13
REMARK SMILES IDX 14 14 15 15 16 16 17 17 18 18 19 19 20 20 21 21 22 22 23 23
REMARK SMILES IDX 24 24
REMARK H PARENT
REMARK Flexibility Score: inf
ROOT
ATOM      1  C   UNL     1      22.314  26.674  47.050  1.00  0.00     0.000 C 
ENDROOT
BRANCH   1   2
ATOM      2  C   UNL     1      21.272  27.754  46.718  1.00  0.00     0.000 C 
BRANCH   2   3
ATOM      3  C   UNL     1      21.947  29.106  46.458  1.00  0.00     0.000 C 
BRANCH   3   4
ATOM      4  C   UNL     1      23.471  28.999  46.611  1.00  0.00    -0.000 C 
BRANCH   4   5
ATOM      5  C   UNL     1      24.071  30.175  47.399  1.00  0.00    -0.000 C 
BRANCH   5   6
ATOM      6  C   UNL     1      23.959  31.509  46.647  1.00  0.00    -0.000 C 
BRANCH   6   7
ATOM      7  C   UNL     1      25.213  31.769  45.802  1.00  0.00    -0.000 C 
BRANCH   7   8
ATOM      8  C   UNL     1      24.912  31.868  44.296  1.00  0.00    -0.000 C 
BRANCH   8   9
ATOM      9  C   UNL     1      23.405  31.829  43.964  1.00  0.00    -0.000 C 
BRANCH   9  10
ATOM     10  C   UNL     1      23.007  30.542  43.224  1.00  0.00    -0.000 C 
BRANCH  10  11
ATOM     11  C   UNL     1      23.929  30.290  42.026  1.00  0.00    -0.003 C 
ATOM     12  C   UNL     1      24.665  28.960  42.166  1.00  0.00     0.004 C 
ENDBRANCH  10  11
ENDBRANCH   9  10
ENDBRANCH   8   9
ENDBRANCH   7   8
ENDBRANCH   6   7
ENDBRANCH   5   6
ENDBRANCH   4   5
ENDBRANCH   3   4
ENDBRANCH   2   3
ENDBRANCH   1   2
BRANCH   1  13
ATOM     13  C   UNL     1      21.959  25.866  48.311  1.00  0.00     0.000 C 
BRANCH  13  14
ATOM     14  C   UNL     1      21.642  26.709  49.563  1.00  0.00     0.000 C 
BRANCH  14  15
ATOM     15  C   UNL     1      22.867  27.283  50.298  1.00  0.00     0.000 C 
BRANCH  15  16
ATOM     16  C   UNL     1      22.760  28.796  50.545  1.00  0.00     0.000 C 
BRANCH  16  17
ATOM     17  C   UNL     1      21.356  29.345  50.241  1.00  0.00     0.000 C 
BRANCH  17  18
ATOM     18  C   UNL     1      20.985  30.546  51.125  1.00  0.00     0.000 C 
BRANCH  18  19
ATOM     19  C   UNL     1      21.084  31.858  50.336  1.00  0.00     0.000 C 
BRANCH  19  20
ATOM     20  C   UNL     1      20.825  31.624  48.843  1.00  0.00     0.006 C 
BRANCH  20  21
ATOM     21  C   UNL     1      20.888  32.939  48.061  1.00  0.00     0.053 C 
BRANCH  21  22
ATOM     22  C   UNL     1      20.262  34.047  48.846  1.00  0.00     0.041 C 
ATOM     23  O   UNL     1      19.028  34.029  49.095  1.00  0.00    -0.550 OA
ATOM     24  O   UNL     1      21.032  35.126  49.262  1.00  0.00    -0.550 OA
ENDBRANCH  21  22
ENDBRANCH  20  21
ENDBRANCH  19  20
ENDBRANCH  18  19
ENDBRANCH  17  18
ENDBRANCH  16  17
ENDBRANCH  15  16
ENDBRANCH  14  15
ENDBRANCH  13  14
ENDBRANCH   1  13
TORSDOF 20
ENDMDL
MODEL 9
REMARK VINA RESULT:    -2.754      2.728      5.804
REMARK INTER + INTRA:          -9.257
REMARK INTER:                  -5.398
REMARK INTRA:                  -3.859
REMARK UNBOUND:                -3.282
REMARK SMILES CCCCCCCCCCCCCCCCCCCCCC(=O)[O-]
REMARK SMILES IDX 12 1 11 2 10 3 9 4 8 5 7 6 6 7 5 8 4 9 3 10 2 11 1 12 13 13
REMARK SMILES IDX 14 14 15 15 16 16 17 17 18 18 19 19 20 20 21 21 22 22 23 23
REMARK SMILES IDX 24 24
REMARK H PARENT
REMARK Flexibility Score: inf
ROOT
ATOM      1  C   UNL     1      18.531  29.672  48.911  1.00  0.00     0.000 C 
ENDROOT
BRANCH   1   2
ATOM      2  C   UNL     1      19.150  29.002  50.147  1.00  0.00     0.000 C 
BRANCH   2   3
ATOM      3  C   UNL     1      20.533  28.425  49.824  1.00  0.00     0.000 C 
BRANCH   3   4
ATOM      4  C   UNL     1      21.629  29.142  50.627  1.00  0.00    -0.000 C 
BRANCH   4   5
ATOM      5  C   UNL     1      22.942  28.343  50.679  1.00  0.00    -0.000 C 
BRANCH   5   6
ATOM      6  C   UNL     1      22.728  26.837  50.474  1.00  0.00    -0.000 C 
BRANCH   6   7
ATOM      7  C   UNL     1      23.915  26.211  49.730  1.00  0.00    -0.000 C 
BRANCH   7   8
ATOM      8  C   UNL     1      24.153  26.837  48.345  1.00  0.00    -0.000 C 
BRANCH   8   9
ATOM      9  C   UNL     1      23.340  26.167  47.217  1.00  0.00    -0.000 C 
BRANCH   9  10
ATOM     10  C   UNL     1      22.232  27.084  46.676  1.00  0.00    -0.000 C 
BRANCH  10  11
ATOM     11  C   UNL     1      20.859  26.414  46.793  1.00  0.00    -0.003 C 
ATOM     12  C   UNL     1      19.751  27.329  46.278  1.00  0.00     0.004 C 
ENDBRANCH  10  11
ENDBRANCH   9  10
ENDBRANCH   8   9
ENDBRANCH   7   8
ENDBRANCH   6   7
ENDBRANCH   5   6
ENDBRANCH   4   5
ENDBRANCH   3   4
ENDBRANCH   2   3
ENDBRANCH   1   2
BRANCH   1  13
ATOM     13  C   UNL     1      18.283  31.178  49.107  1.00  0.00     0.000 C 
BRANCH  13  14
ATOM     14  C   UNL     1      19.035  31.819  50.292  1.00  0.00     0.000 C 
BRANCH  14  15
ATOM     15  C   UNL     1      20.322  32.577  49.921  1.00  0.00     0.000 C 
BRANCH  15  16
ATOM     16  C   UNL     1      20.494  32.756  48.404  1.00  0.00     0.000 C 
BRANCH  16  17
ATOM     17  C   UNL     1      21.911  32.397  47.926  1.00  0.00     0.000 C 
BRANCH  17  18
ATOM     18  C   UNL     1      22.001  30.975  47.353  1.00  0.00     0.000 C 
BRANCH  18  19
ATOM     19  C   UNL     1      23.399  30.384  47.573  1.00  0.00     0.000 C 
BRANCH  19  20
ATOM     20  C   UNL     1      24.154  30.241  46.246  1.00  0.00     0.006 C 
BRANCH  20  21
ATOM     21  C   UNL     1      24.681  31.595  45.764  1.00  0.00     0.053 C 
BRANCH  21  22
ATOM     22  C   UNL     1      24.117  31.929  44.419  1.00  0.00     0.041 C 
ATOM     23  O   UNL     1      23.074  31.357  44.010  1.00  0.00    -0.550 OA
ATOM     24  O   UNL     1      24.772  32.838  43.598  1.00  0.00    -0.550 OA
ENDBRANCH  21  22
ENDBRANCH  20  21
ENDBRANCH  19  20
ENDBRANCH  18  19
ENDBRANCH  17  18
ENDBRANCH  16  17
ENDBRANCH  15  16
ENDBRANCH  14  15
ENDBRANCH  13  14
ENDBRANCH   1  13
TORSDOF 20
ENDMDL
