MODEL 1
REMARK VINA RESULT:    -3.855      0.000      0.000
REMARK INTER + INTRA:          -9.786
REMARK INTER:                  -8.362
REMARK INTRA:                  -1.425
REMARK UNBOUND:                -1.425
REMARK SMILES CCCCCCCCCCCCCCCCCCCCCC(=O)[O-]
REMARK SMILES IDX 12 1 11 2 10 3 9 4 8 5 7 6 6 7 5 8 4 9 3 10 2 11 1 12 13 13
REMARK SMILES IDX 14 14 15 15 16 16 17 17 18 18 19 19 20 20 21 21 22 22 23 23
REMARK SMILES IDX 24 24
REMARK H PARENT
REMARK Flexibility Score: inf
ROOT
ATOM      1  C   UNL     1     -18.271   0.793  -4.832  1.00  0.00     0.000 C 
ENDROOT
BRANCH   1   2
ATOM      2  C   UNL     1     -17.941   1.955  -3.876  1.00  0.00     0.000 C 
BRANCH   2   3
ATOM      3  C   UNL     1     -18.771   3.216  -4.163  1.00  0.00     0.000 C 
BRANCH   3   4
ATOM      4  C   UNL     1     -17.898   4.477  -4.284  1.00  0.00    -0.000 C 
BRANCH   4   5
ATOM      5  C   UNL     1     -18.518   5.569  -5.183  1.00  0.00    -0.000 C 
BRANCH   5   6
ATOM      6  C   UNL     1     -18.637   6.918  -4.454  1.00  0.00    -0.000 C 
BRANCH   6   7
ATOM      7  C   UNL     1     -20.056   7.508  -4.515  1.00  0.00    -0.000 C 
BRANCH   7   8
ATOM      8  C   UNL     1     -20.746   7.539  -3.139  1.00  0.00    -0.000 C 
BRANCH   8   9
ATOM      9  C   UNL     1     -19.898   6.874  -2.039  1.00  0.00    -0.000 C 
BRANCH   9  10
ATOM     10  C   UNL     1     -20.407   5.469  -1.672  1.00  0.00    -0.000 C 
BRANCH  10  11
ATOM     11  C   UNL     1     -21.619   5.042  -2.514  1.00  0.00    -0.003 C 
ATOM     12  C   UNL     1     -22.906   4.948  -1.695  1.00  0.00     0.004 C 
ENDBRANCH  10  11
ENDBRANCH   9  10
ENDBRANCH   8   9
ENDBRANCH   7   8
ENDBRANCH   6   7
ENDBRANCH   5   6
ENDBRANCH   4   5
ENDBRANCH   3   4
ENDBRANCH   2   3
ENDBRANCH   1   2
BRANCH   1  13
ATOM     13  C   UNL     1     -18.535  -0.564  -4.147  1.00  0.00     0.000 C 
BRANCH  13  14
ATOM     14  C   UNL     1     -19.907  -0.693  -3.463  1.00  0.00     0.000 C 
BRANCH  14  15
ATOM     15  C   UNL     1     -20.179  -2.113  -2.951  1.00  0.00     0.000 C 
BRANCH  15  16
ATOM     16  C   UNL     1     -20.149  -2.165  -1.416  1.00  0.00     0.000 C 
BRANCH  16  17
ATOM     17  C   UNL     1     -19.668  -3.524  -0.876  1.00  0.00     0.000 C 
BRANCH  17  18
ATOM     18  C   UNL     1     -19.603  -3.588   0.664  1.00  0.00     0.000 C 
BRANCH  18  19
ATOM     19  C   UNL     1     -19.026  -4.923   1.167  1.00  0.00     0.000 C 
BRANCH  19  20
ATOM     20  C   UNL     1     -19.755  -6.147   0.579  1.00  0.00     0.006 C 
BRANCH  20  21
ATOM     21  C   UNL     1     -19.709  -7.388   1.486  1.00  0.00     0.053 C 
BRANCH  21  22
ATOM     22  C   UNL     1     -20.884  -7.481   2.411  1.00  0.00     0.041 C 
ATOM     23  O   UNL     1     -21.029  -6.642   3.339  1.00  0.00    -0.550 OA
ATOM     24  O   UNL     1     -21.811  -8.503   2.255  1.00  0.00    -0.550 OA
ENDBRANCH  21  22
ENDBRANCH  20  21
ENDBRANCH  19  20
ENDBRANCH  18  19
ENDBRANCH  17  18
ENDBRANCH  16  17
ENDBRANCH  15  16
ENDBRANCH  14  15
ENDBRANCH  13  14
ENDBRANCH   1  13
TORSDOF 20
ENDMDL
MODEL 2
REMARK VINA RESULT:    -3.703     13.184     16.704
REMARK INTER + INTRA:          -9.457
REMARK INTER:                  -8.181
REMARK INTRA:                  -1.275
REMARK UNBOUND:                -1.425
REMARK SMILES CCCCCCCCCCCCCCCCCCCCCC(=O)[O-]
REMARK SMILES IDX 12 1 11 2 10 3 9 4 8 5 7 6 6 7 5 8 4 9 3 10 2 11 1 12 13 13
REMARK SMILES IDX 14 14 15 15 16 16 17 17 18 18 19 19 20 20 21 21 22 22 23 23
REMARK SMILES IDX 24 24
REMARK H PARENT
REMARK Flexibility Score: inf
ROOT
ATOM      1  C   UNL     1     -25.407   5.455  11.823  1.00  0.00     0.000 C 
ENDROOT
BRANCH   1   2
ATOM      2  C   UNL     1     -24.122   5.730  12.625  1.00  0.00     0.000 C 
BRANCH   2   3
ATOM      3  C   UNL     1     -23.656   7.191  12.522  1.00  0.00     0.000 C 
BRANCH   3   4
ATOM      4  C   UNL     1     -22.244   7.398  13.096  1.00  0.00    -0.000 C 
BRANCH   4   5
ATOM      5  C   UNL     1     -21.137   6.708  12.269  1.00  0.00    -0.000 C 
BRANCH   5   6
ATOM      6  C   UNL     1     -20.364   5.667  13.095  1.00  0.00    -0.000 C 
BRANCH   6   7
ATOM      7  C   UNL     1     -20.160   4.340  12.344  1.00  0.00    -0.000 C 
BRANCH   7   8
ATOM      8  C   UNL     1     -21.459   3.521  12.220  1.00  0.00    -0.000 C 
BRANCH   8   9
ATOM      9  C   UNL     1     -21.887   3.314  10.756  1.00  0.00    -0.000 C 
BRANCH   9  10
ATOM     10  C   UNL     1     -22.270   1.855  10.455  1.00  0.00    -0.000 C 
BRANCH  10  11
ATOM     11  C   UNL     1     -22.186   1.520   8.959  1.00  0.00    -0.003 C 
ATOM     12  C   UNL     1     -20.971   2.149   8.277  1.00  0.00     0.004 C 
ENDBRANCH  10  11
ENDBRANCH   9  10
ENDBRANCH   8   9
ENDBRANCH   7   8
ENDBRANCH   6   7
ENDBRANCH   5   6
ENDBRANCH   4   5
ENDBRANCH   3   4
ENDBRANCH   2   3
ENDBRANCH   1   2
BRANCH   1  13
ATOM     13  C   UNL     1     -26.718   5.864  12.527  1.00  0.00     0.000 C 
BRANCH  13  14
ATOM     14  C   UNL     1     -28.007   5.466  11.786  1.00  0.00     0.000 C 
BRANCH  14  15
ATOM     15  C   UNL     1     -27.728   4.789  10.438  1.00  0.00     0.000 C 
BRANCH  15  16
ATOM     16  C   UNL     1     -28.997   4.727   9.575  1.00  0.00     0.000 C 
BRANCH  16  17
ATOM     17  C   UNL     1     -28.735   5.100   8.105  1.00  0.00     0.000 C 
BRANCH  17  18
ATOM     18  C   UNL     1     -29.695   6.177   7.561  1.00  0.00     0.000 C 
BRANCH  18  19
ATOM     19  C   UNL     1     -29.780   6.159   6.024  1.00  0.00     0.000 C 
BRANCH  19  20
ATOM     20  C   UNL     1     -30.626   7.316   5.460  1.00  0.00     0.006 C 
BRANCH  20  21
ATOM     21  C   UNL     1     -32.067   6.913   5.105  1.00  0.00     0.053 C 
BRANCH  21  22
ATOM     22  C   UNL     1     -32.162   6.157   3.815  1.00  0.00     0.041 C 
ATOM     23  O   UNL     1     -33.203   5.503   3.538  1.00  0.00    -0.550 OA
ATOM     24  O   UNL     1     -31.096   6.164   2.925  1.00  0.00    -0.550 OA
ENDBRANCH  21  22
ENDBRANCH  20  21
ENDBRANCH  19  20
ENDBRANCH  18  19
ENDBRANCH  17  18
ENDBRANCH  16  17
ENDBRANCH  15  16
ENDBRANCH  14  15
ENDBRANCH  13  14
ENDBRANCH   1  13
TORSDOF 20
ENDMDL
MODEL 3
REMARK VINA RESULT:    -3.655     11.784     14.656
REMARK INTER + INTRA:          -9.354
REMARK INTER:                  -6.273
REMARK INTRA:                  -3.081
REMARK UNBOUND:                -1.425
REMARK SMILES CCCCCCCCCCCCCCCCCCCCCC(=O)[O-]
REMARK SMILES IDX 12 1 11 2 10 3 9 4 8 5 7 6 6 7 5 8 4 9 3 10 2 11 1 12 13 13
REMARK SMILES IDX 14 14 15 15 16 16 17 17 18 18 19 19 20 20 21 21 22 22 23 23
REMARK SMILES IDX 24 24
REMARK H PARENT
REMARK Flexibility Score: inf
ROOT
ATOM      1  C   UNL     1     -21.690   1.945   8.972  1.00  0.00     0.000 C 
ENDROOT
BRANCH   1   2
ATOM      2  C   UNL     1     -22.207   1.920  10.423  1.00  0.00     0.000 C 
BRANCH   2   3
ATOM      3  C   UNL     1     -22.343   3.325  11.031  1.00  0.00     0.000 C 
BRANCH   3   4
ATOM      4  C   UNL     1     -22.191   3.318  12.562  1.00  0.00    -0.000 C 
BRANCH   4   5
ATOM      5  C   UNL     1     -20.721   3.371  13.034  1.00  0.00    -0.000 C 
BRANCH   5   6
ATOM      6  C   UNL     1     -19.828   4.151  12.055  1.00  0.00    -0.000 C 
BRANCH   6   7
ATOM      7  C   UNL     1     -19.650   5.626  12.454  1.00  0.00    -0.000 C 
BRANCH   7   8
ATOM      8  C   UNL     1     -20.904   6.216  13.125  1.00  0.00    -0.000 C 
BRANCH   8   9
ATOM      9  C   UNL     1     -21.516   7.373  12.314  1.00  0.00    -0.000 C 
BRANCH   9  10
ATOM     10  C   UNL     1     -22.788   6.953  11.556  1.00  0.00    -0.000 C 
BRANCH  10  11
ATOM     11  C   UNL     1     -24.055   7.085  12.413  1.00  0.00    -0.003 C 
ATOM     12  C   UNL     1     -24.938   5.838  12.363  1.00  0.00     0.004 C 
ENDBRANCH  10  11
ENDBRANCH   9  10
ENDBRANCH   8   9
ENDBRANCH   7   8
ENDBRANCH   6   7
ENDBRANCH   5   6
ENDBRANCH   4   5
ENDBRANCH   3   4
ENDBRANCH   2   3
ENDBRANCH   1   2
BRANCH   1  13
ATOM     13  C   UNL     1     -20.204   2.323   8.812  1.00  0.00     0.000 C 
BRANCH  13  14
ATOM     14  C   UNL     1     -19.930   3.510   7.872  1.00  0.00     0.000 C 
BRANCH  14  15
ATOM     15  C   UNL     1     -19.387   4.738   8.614  1.00  0.00     0.000 C 
BRANCH  15  16
ATOM     16  C   UNL     1     -20.493   5.776   8.850  1.00  0.00     0.000 C 
BRANCH  16  17
ATOM     17  C   UNL     1     -20.071   7.199   8.441  1.00  0.00     0.000 C 
BRANCH  17  18
ATOM     18  C   UNL     1     -18.810   7.237   7.553  1.00  0.00     0.000 C 
BRANCH  18  19
ATOM     19  C   UNL     1     -19.137   7.596   6.093  1.00  0.00     0.000 C 
BRANCH  19  20
ATOM     20  C   UNL     1     -18.570   6.576   5.087  1.00  0.00     0.006 C 
BRANCH  20  21
ATOM     21  C   UNL     1     -19.632   5.631   4.499  1.00  0.00     0.053 C 
BRANCH  21  22
ATOM     22  C   UNL     1     -20.285   6.180   3.267  1.00  0.00     0.041 C 
ATOM     23  O   UNL     1     -19.678   6.156   2.163  1.00  0.00    -0.550 OA
ATOM     24  O   UNL     1     -21.559   6.728   3.341  1.00  0.00    -0.550 OA
ENDBRANCH  21  22
ENDBRANCH  20  21
ENDBRANCH  19  20
ENDBRANCH  18  19
ENDBRANCH  17  18
ENDBRANCH  16  17
ENDBRANCH  15  16
ENDBRANCH  14  15
ENDBRANCH  13  14
ENDBRANCH   1  13
TORSDOF 20
ENDMDL
MODEL 4
REMARK VINA RESULT:    -3.463     10.908     14.075
REMARK INTER + INTRA:          -8.937
REMARK INTER:                  -6.788
REMARK INTRA:                  -2.149
REMARK UNBOUND:                -1.425
REMARK SMILES CCCCCCCCCCCCCCCCCCCCCC(=O)[O-]
REMARK SMILES IDX 12 1 11 2 10 3 9 4 8 5 7 6 6 7 5 8 4 9 3 10 2 11 1 12 13 13
REMARK SMILES IDX 14 14 15 15 16 16 17 17 18 18 19 19 20 20 21 21 22 22 23 23
REMARK SMILES IDX 24 24
REMARK H PARENT
REMARK Flexibility Score: inf
ROOT
ATOM      1  C   UNL     1     -19.797   1.470   9.428  1.00  0.00     0.000 C 
ENDROOT
BRANCH   1   2
ATOM      2  C   UNL     1     -21.320   1.500   9.201  1.00  0.00     0.000 C 
BRANCH   2   3
ATOM      3  C   UNL     1     -22.097   1.989  10.434  1.00  0.00     0.000 C 
BRANCH   3   4
ATOM      4  C   UNL     1     -21.229   2.841  11.374  1.00  0.00    -0.000 C 
BRANCH   4   5
ATOM      5  C   UNL     1     -22.051   3.687  12.371  1.00  0.00    -0.000 C 
BRANCH   5   6
ATOM      6  C   UNL     1     -23.272   4.340  11.704  1.00  0.00    -0.000 C 
BRANCH   6   7
ATOM      7  C   UNL     1     -24.126   5.157  12.688  1.00  0.00    -0.000 C 
BRANCH   7   8
ATOM      8  C   UNL     1     -24.368   6.601  12.211  1.00  0.00    -0.000 C 
BRANCH   8   9
ATOM      9  C   UNL     1     -23.098   7.468  12.293  1.00  0.00    -0.000 C 
BRANCH   9  10
ATOM     10  C   UNL     1     -22.711   8.076  10.934  1.00  0.00    -0.000 C 
BRANCH  10  11
ATOM     11  C   UNL     1     -21.359   7.560  10.420  1.00  0.00    -0.003 C 
ATOM     12  C   UNL     1     -20.509   6.925  11.521  1.00  0.00     0.004 C 
ENDBRANCH  10  11
ENDBRANCH   9  10
ENDBRANCH   8   9
ENDBRANCH   7   8
ENDBRANCH   6   7
ENDBRANCH   5   6
ENDBRANCH   4   5
ENDBRANCH   3   4
ENDBRANCH   2   3
ENDBRANCH   1   2
BRANCH   1  13
ATOM     13  C   UNL     1     -18.983   2.438   8.545  1.00  0.00     0.000 C 
BRANCH  13  14
ATOM     14  C   UNL     1     -19.818   3.472   7.770  1.00  0.00     0.000 C 
BRANCH  14  15
ATOM     15  C   UNL     1     -19.824   4.850   8.445  1.00  0.00     0.000 C 
BRANCH  15  16
ATOM     16  C   UNL     1     -19.365   5.946   7.472  1.00  0.00     0.000 C 
BRANCH  16  17
ATOM     17  C   UNL     1     -19.256   5.445   6.020  1.00  0.00     0.000 C 
BRANCH  17  18
ATOM     18  C   UNL     1     -19.504   6.544   4.968  1.00  0.00     0.000 C 
BRANCH  18  19
ATOM     19  C   UNL     1     -19.997   5.967   3.629  1.00  0.00     0.000 C 
BRANCH  19  20
ATOM     20  C   UNL     1     -19.572   6.822   2.419  1.00  0.00     0.006 C 
BRANCH  20  21
ATOM     21  C   UNL     1     -20.723   7.135   1.448  1.00  0.00     0.053 C 
BRANCH  21  22
ATOM     22  C   UNL     1     -20.913   6.077   0.405  1.00  0.00     0.041 C 
ATOM     23  O   UNL     1     -22.027   5.502   0.281  1.00  0.00    -0.550 OA
ATOM     24  O   UNL     1     -19.856   5.717  -0.420  1.00  0.00    -0.550 OA
ENDBRANCH  21  22
ENDBRANCH  20  21
ENDBRANCH  19  20
ENDBRANCH  18  19
ENDBRANCH  17  18
ENDBRANCH  16  17
ENDBRANCH  15  16
ENDBRANCH  14  15
ENDBRANCH  13  14
ENDBRANCH   1  13
TORSDOF 20
ENDMDL
MODEL 5
REMARK VINA RESULT:    -3.442      6.713      8.621
REMARK INTER + INTRA:          -8.891
REMARK INTER:                  -6.594
REMARK INTRA:                  -2.297
REMARK UNBOUND:                -1.425
REMARK SMILES CCCCCCCCCCCCCCCCCCCCCC(=O)[O-]
REMARK SMILES IDX 12 1 11 2 10 3 9 4 8 5 7 6 6 7 5 8 4 9 3 10 2 11 1 12 13 13
REMARK SMILES IDX 14 14 15 15 16 16 17 17 18 18 19 19 20 20 21 21 22 22 23 23
REMARK SMILES IDX 24 24
REMARK H PARENT
REMARK Flexibility Score: inf
ROOT
ATOM      1  C   UNL     1     -20.891   6.547   2.073  1.00  0.00     0.000 C 
ENDROOT
BRANCH   1   2
ATOM      2  C   UNL     1     -20.770   6.366   0.548  1.00  0.00     0.000 C 
BRANCH   2   3
ATOM      3  C   UNL     1     -19.373   5.893   0.114  1.00  0.00     0.000 C 
BRANCH   3   4
ATOM      4  C   UNL     1     -18.845   6.668  -1.105  1.00  0.00    -0.000 C 
BRANCH   4   5
ATOM      5  C   UNL     1     -19.913   7.559  -1.778  1.00  0.00    -0.000 C 
BRANCH   5   6
ATOM      6  C   UNL     1     -19.589   7.832  -3.256  1.00  0.00    -0.000 C 
BRANCH   6   7
ATOM      7  C   UNL     1     -18.720   6.733  -3.891  1.00  0.00    -0.000 C 
BRANCH   7   8
ATOM      8  C   UNL     1     -19.556   5.641  -4.585  1.00  0.00    -0.000 C 
BRANCH   8   9
ATOM      9  C   UNL     1     -19.374   4.258  -3.934  1.00  0.00    -0.000 C 
BRANCH   9  10
ATOM     10  C   UNL     1     -20.571   3.858  -3.054  1.00  0.00    -0.000 C 
BRANCH  10  11
ATOM     11  C   UNL     1     -21.794   4.761  -3.277  1.00  0.00    -0.003 C 
ATOM     12  C   UNL     1     -22.693   4.856  -2.045  1.00  0.00     0.004 C 
ENDBRANCH  10  11
ENDBRANCH   9  10
ENDBRANCH   8   9
ENDBRANCH   7   8
ENDBRANCH   6   7
ENDBRANCH   5   6
ENDBRANCH   4   5
ENDBRANCH   3   4
ENDBRANCH   2   3
ENDBRANCH   1   2
BRANCH   1  13
ATOM     13  C   UNL     1     -19.554   6.534   2.842  1.00  0.00     0.000 C 
BRANCH  13  14
ATOM     14  C   UNL     1     -19.589   5.808   4.199  1.00  0.00     0.000 C 
BRANCH  14  15
ATOM     15  C   UNL     1     -18.234   5.196   4.576  1.00  0.00     0.000 C 
BRANCH  15  16
ATOM     16  C   UNL     1     -18.188   4.827   6.066  1.00  0.00     0.000 C 
BRANCH  16  17
ATOM     17  C   UNL     1     -19.383   5.389   6.856  1.00  0.00     0.000 C 
BRANCH  17  18
ATOM     18  C   UNL     1     -19.740   4.561   8.108  1.00  0.00     0.000 C 
BRANCH  18  19
ATOM     19  C   UNL     1     -20.036   3.090   7.768  1.00  0.00     0.000 C 
BRANCH  19  20
ATOM     20  C   UNL     1     -19.601   2.121   8.885  1.00  0.00     0.006 C 
BRANCH  20  21
ATOM     21  C   UNL     1     -20.241   2.423  10.250  1.00  0.00     0.053 C 
BRANCH  21  22
ATOM     22  C   UNL     1     -21.727   2.226  10.256  1.00  0.00     0.041 C 
ATOM     23  O   UNL     1     -22.485   3.127  10.703  1.00  0.00    -0.550 OA
ATOM     24  O   UNL     1     -22.272   1.041   9.779  1.00  0.00    -0.550 OA
ENDBRANCH  21  22
ENDBRANCH  20  21
ENDBRANCH  19  20
ENDBRANCH  18  19
ENDBRANCH  17  18
ENDBRANCH  16  17
ENDBRANCH  15  16
ENDBRANCH  14  15
ENDBRANCH  13  14
ENDBRANCH   1  13
TORSDOF 20
ENDMDL
MODEL 6
REMARK VINA RESULT:    -3.422     11.781     15.109
REMARK INTER + INTRA:          -8.847
REMARK INTER:                  -5.716
REMARK INTRA:                  -3.132
REMARK UNBOUND:                -1.425
REMARK SMILES CCCCCCCCCCCCCCCCCCCCCC(=O)[O-]
REMARK SMILES IDX 12 1 11 2 10 3 9 4 8 5 7 6 6 7 5 8 4 9 3 10 2 11 1 12 13 13
REMARK SMILES IDX 14 14 15 15 16 16 17 17 18 18 19 19 20 20 21 21 22 22 23 23
REMARK SMILES IDX 24 24
REMARK H PARENT
REMARK Flexibility Score: inf
ROOT
ATOM      1  C   UNL     1     -22.458   7.548  12.453  1.00  0.00     0.000 C 
ENDROOT
BRANCH   1   2
ATOM      2  C   UNL     1     -23.940   7.400  12.061  1.00  0.00     0.000 C 
BRANCH   2   3
ATOM      3  C   UNL     1     -24.460   5.964  12.230  1.00  0.00     0.000 C 
BRANCH   3   4
ATOM      4  C   UNL     1     -23.399   5.022  12.826  1.00  0.00    -0.000 C 
BRANCH   4   5
ATOM      5  C   UNL     1     -22.844   4.000  11.810  1.00  0.00    -0.000 C 
BRANCH   5   6
ATOM      6  C   UNL     1     -21.581   3.295  12.332  1.00  0.00    -0.000 C 
BRANCH   6   7
ATOM      7  C   UNL     1     -20.522   4.279  12.858  1.00  0.00    -0.000 C 
BRANCH   7   8
ATOM      8  C   UNL     1     -19.178   4.159  12.117  1.00  0.00    -0.000 C 
BRANCH   8   9
ATOM      9  C   UNL     1     -19.076   2.865  11.288  1.00  0.00    -0.000 C 
BRANCH   9  10
ATOM     10  C   UNL     1     -18.801   3.139   9.799  1.00  0.00    -0.000 C 
BRANCH  10  11
ATOM     11  C   UNL     1     -20.084   3.427   9.006  1.00  0.00    -0.003 C 
ATOM     12  C   UNL     1     -19.930   3.156   7.510  1.00  0.00     0.004 C 
ENDBRANCH  10  11
ENDBRANCH   9  10
ENDBRANCH   8   9
ENDBRANCH   7   8
ENDBRANCH   6   7
ENDBRANCH   5   6
ENDBRANCH   4   5
ENDBRANCH   3   4
ENDBRANCH   2   3
ENDBRANCH   1   2
BRANCH   1  13
ATOM     13  C   UNL     1     -21.508   7.919  11.295  1.00  0.00     0.000 C 
BRANCH  13  14
ATOM     14  C   UNL     1     -21.285   6.808  10.253  1.00  0.00     0.000 C 
BRANCH  14  15
ATOM     15  C   UNL     1     -20.390   7.259   9.092  1.00  0.00     0.000 C 
BRANCH  15  16
ATOM     16  C   UNL     1     -18.935   6.819   9.310  1.00  0.00     0.000 C 
BRANCH  16  17
ATOM     17  C   UNL     1     -18.145   6.704   7.994  1.00  0.00     0.000 C 
BRANCH  17  18
ATOM     18  C   UNL     1     -19.029   6.801   6.733  1.00  0.00     0.000 C 
BRANCH  18  19
ATOM     19  C   UNL     1     -18.569   5.838   5.625  1.00  0.00     0.000 C 
BRANCH  19  20
ATOM     20  C   UNL     1     -19.689   5.509   4.618  1.00  0.00     0.006 C 
BRANCH  20  21
ATOM     21  C   UNL     1     -19.501   6.176   3.245  1.00  0.00     0.053 C 
BRANCH  21  22
ATOM     22  C   UNL     1     -20.779   6.709   2.674  1.00  0.00     0.041 C 
ATOM     23  O   UNL     1     -21.485   7.513   3.339  1.00  0.00    -0.550 OA
ATOM     24  O   UNL     1     -21.196   6.308   1.412  1.00  0.00    -0.550 OA
ENDBRANCH  21  22
ENDBRANCH  20  21
ENDBRANCH  19  20
ENDBRANCH  18  19
ENDBRANCH  17  18
ENDBRANCH  16  17
ENDBRANCH  15  16
ENDBRANCH  14  15
ENDBRANCH  13  14
ENDBRANCH   1  13
TORSDOF 20
ENDMDL
MODEL 7
REMARK VINA RESULT:    -3.410      9.764     13.218
REMARK INTER + INTRA:          -8.821
REMARK INTER:                  -7.022
REMARK INTRA:                  -1.800
REMARK UNBOUND:                -1.425
REMARK SMILES CCCCCCCCCCCCCCCCCCCCCC(=O)[O-]
REMARK SMILES IDX 12 1 11 2 10 3 9 4 8 5 7 6 6 7 5 8 4 9 3 10 2 11 1 12 13 13
REMARK SMILES IDX 14 14 15 15 16 16 17 17 18 18 19 19 20 20 21 21 22 22 23 23
REMARK SMILES IDX 24 24
REMARK H PARENT
REMARK Flexibility Score: inf
ROOT
ATOM      1  C   UNL     1     -19.709   4.636   7.849  1.00  0.00     0.000 C 
ENDROOT
BRANCH   1   2
ATOM      2  C   UNL     1     -18.900   4.935   9.125  1.00  0.00     0.000 C 
BRANCH   2   3
ATOM      3  C   UNL     1     -19.350   6.226   9.827  1.00  0.00     0.000 C 
BRANCH   3   4
ATOM      4  C   UNL     1     -20.765   6.659   9.407  1.00  0.00    -0.000 C 
BRANCH   4   5
ATOM      5  C   UNL     1     -21.665   7.056  10.598  1.00  0.00    -0.000 C 
BRANCH   5   6
ATOM      6  C   UNL     1     -21.332   6.253  11.866  1.00  0.00    -0.000 C 
BRANCH   6   7
ATOM      7  C   UNL     1     -22.534   5.459  12.404  1.00  0.00    -0.000 C 
BRANCH   7   8
ATOM      8  C   UNL     1     -22.278   3.941  12.439  1.00  0.00    -0.000 C 
BRANCH   8   9
ATOM      9  C   UNL     1     -22.862   3.218  11.212  1.00  0.00    -0.000 C 
BRANCH   9  10
ATOM     10  C   UNL     1     -21.789   2.875  10.163  1.00  0.00    -0.000 C 
BRANCH  10  11
ATOM     11  C   UNL     1     -21.925   1.443   9.626  1.00  0.00    -0.003 C 
ATOM     12  C   UNL     1     -22.416   1.396   8.179  1.00  0.00     0.004 C 
ENDBRANCH  10  11
ENDBRANCH   9  10
ENDBRANCH   8   9
ENDBRANCH   7   8
ENDBRANCH   6   7
ENDBRANCH   5   6
ENDBRANCH   4   5
ENDBRANCH   3   4
ENDBRANCH   2   3
ENDBRANCH   1   2
BRANCH   1  13
ATOM     13  C   UNL     1     -19.057   3.629   6.880  1.00  0.00     0.000 C 
BRANCH  13  14
ATOM     14  C   UNL     1     -19.084   4.039   5.397  1.00  0.00     0.000 C 
BRANCH  14  15
ATOM     15  C   UNL     1     -19.415   5.524   5.202  1.00  0.00     0.000 C 
BRANCH  15  16
ATOM     16  C   UNL     1     -19.543   5.873   3.712  1.00  0.00     0.000 C 
BRANCH  16  17
ATOM     17  C   UNL     1     -20.815   6.680   3.397  1.00  0.00     0.000 C 
BRANCH  17  18
ATOM     18  C   UNL     1     -20.829   7.279   1.975  1.00  0.00     0.000 C 
BRANCH  18  19
ATOM     19  C   UNL     1     -21.184   6.231   0.906  1.00  0.00     0.000 C 
BRANCH  19  20
ATOM     20  C   UNL     1     -21.407   6.852  -0.487  1.00  0.00     0.006 C 
BRANCH  20  21
ATOM     21  C   UNL     1     -22.720   6.413  -1.156  1.00  0.00     0.053 C 
BRANCH  21  22
ATOM     22  C   UNL     1     -22.668   5.012  -1.684  1.00  0.00     0.041 C 
ATOM     23  O   UNL     1     -22.270   4.791  -2.859  1.00  0.00    -0.550 OA
ATOM     24  O   UNL     1     -23.070   3.953  -0.882  1.00  0.00    -0.550 OA
ENDBRANCH  21  22
ENDBRANCH  20  21
ENDBRANCH  19  20
ENDBRANCH  18  19
ENDBRANCH  17  18
ENDBRANCH  16  17
ENDBRANCH  15  16
ENDBRANCH  14  15
ENDBRANCH  13  14
ENDBRANCH   1  13
TORSDOF 20
ENDMDL
MODEL 8
REMARK VINA RESULT:    -3.408     11.883     14.851
REMARK INTER + INTRA:          -8.817
REMARK INTER:                  -5.879
REMARK INTRA:                  -2.938
REMARK UNBOUND:                -1.425
REMARK SMILES CCCCCCCCCCCCCCCCCCCCCC(=O)[O-]
REMARK SMILES IDX 12 1 11 2 10 3 9 4 8 5 7 6 6 7 5 8 4 9 3 10 2 11 1 12 13 13
REMARK SMILES IDX 14 14 15 15 16 16 17 17 18 18 19 19 20 20 21 21 22 22 23 23
REMARK SMILES IDX 24 24
REMARK H PARENT
REMARK Flexibility Score: inf
ROOT
ATOM      1  C   UNL     1     -20.308   1.100   9.409  1.00  0.00     0.000 C 
ENDROOT
BRANCH   1   2
ATOM      2  C   UNL     1     -18.789   1.318   9.282  1.00  0.00     0.000 C 
BRANCH   2   3
ATOM      3  C   UNL     1     -18.098   1.501  10.643  1.00  0.00     0.000 C 
BRANCH   3   4
ATOM      4  C   UNL     1     -19.052   2.053  11.716  1.00  0.00    -0.000 C 
BRANCH   4   5
ATOM      5  C   UNL     1     -18.386   3.076  12.662  1.00  0.00    -0.000 C 
BRANCH   5   6
ATOM      6  C   UNL     1     -19.373   4.161  13.125  1.00  0.00    -0.000 C 
BRANCH   6   7
ATOM      7  C   UNL     1     -20.842   3.722  13.007  1.00  0.00    -0.000 C 
BRANCH   7   8
ATOM      8  C   UNL     1     -21.819   4.913  12.985  1.00  0.00    -0.000 C 
BRANCH   8   9
ATOM      9  C   UNL     1     -23.009   4.680  12.037  1.00  0.00    -0.000 C 
BRANCH   9  10
ATOM     10  C   UNL     1     -24.157   5.675  12.277  1.00  0.00    -0.000 C 
BRANCH  10  11
ATOM     11  C   UNL     1     -23.657   7.057  12.722  1.00  0.00    -0.003 C 
ATOM     12  C   UNL     1     -23.823   8.125  11.641  1.00  0.00     0.004 C 
ENDBRANCH  10  11
ENDBRANCH   9  10
ENDBRANCH   8   9
ENDBRANCH   7   8
ENDBRANCH   6   7
ENDBRANCH   5   6
ENDBRANCH   4   5
ENDBRANCH   3   4
ENDBRANCH   2   3
ENDBRANCH   1   2
BRANCH   1  13
ATOM     13  C   UNL     1     -21.182   2.272   8.916  1.00  0.00     0.000 C 
BRANCH  13  14
ATOM     14  C   UNL     1     -20.404   3.519   8.461  1.00  0.00     0.000 C 
BRANCH  14  15
ATOM     15  C   UNL     1     -20.642   4.728   9.374  1.00  0.00     0.000 C 
BRANCH  15  16
ATOM     16  C   UNL     1     -19.344   5.516   9.602  1.00  0.00     0.000 C 
BRANCH  16  17
ATOM     17  C   UNL     1     -19.597   6.942  10.123  1.00  0.00     0.000 C 
BRANCH  17  18
ATOM     18  C   UNL     1     -19.376   8.036   9.058  1.00  0.00     0.000 C 
BRANCH  18  19
ATOM     19  C   UNL     1     -18.551   7.528   7.863  1.00  0.00     0.000 C 
BRANCH  19  20
ATOM     20  C   UNL     1     -19.282   7.697   6.518  1.00  0.00     0.006 C 
BRANCH  20  21
ATOM     21  C   UNL     1     -18.629   6.927   5.358  1.00  0.00     0.053 C 
BRANCH  21  22
ATOM     22  C   UNL     1     -19.476   5.798   4.855  1.00  0.00     0.041 C 
ATOM     23  O   UNL     1     -19.396   4.659   5.386  1.00  0.00    -0.550 OA
ATOM     24  O   UNL     1     -20.344   6.002   3.790  1.00  0.00    -0.550 OA
ENDBRANCH  21  22
ENDBRANCH  20  21
ENDBRANCH  19  20
ENDBRANCH  18  19
ENDBRANCH  17  18
ENDBRANCH  16  17
ENDBRANCH  15  16
ENDBRANCH  14  15
ENDBRANCH  13  14
ENDBRANCH   1  13
TORSDOF 20
ENDMDL
