MODEL 1
REMARK VINA RESULT:    -0.262      0.000      0.000
REMARK INTER + INTRA:          -0.608
REMARK INTER:                  -0.308
REMARK INTRA:                  -0.300
REMARK UNBOUND:                -0.300
REMARK SMILES O=c1c(O)c(-c2ccc(O)cc2)oc2cc(O)cc(O)c12
REMARK SMILES IDX 5 1 3 2 2 3 1 4 21 5 19 6 18 7 16 8 15 9 14 10 13 11 6 12
REMARK SMILES IDX 7 13 8 14 9 15 12 16 11 17 10 18 4 20 20 22 17 24
REMARK H PARENT 10 19 4 21 20 23 17 25
REMARK Flexibility Score: inf
ROOT
ATOM      1  C   UNL     1      24.924  28.751  47.703  1.00  0.00     0.180 A 
ATOM      2  C   UNL     1      25.663  27.583  47.443  1.00  0.00     0.208 A 
ATOM      3  C   UNL     1      24.978  26.388  47.178  1.00  0.00     0.238 A 
ATOM      4  O   UNL     1      25.645  25.359  46.893  1.00  0.00    -0.285 OA
ATOM      5  C   UNL     1      23.562  26.369  47.190  1.00  0.00     0.111 A 
ATOM      6  C   UNL     1      22.765  25.206  46.975  1.00  0.00     0.134 A 
ATOM      7  C   UNL     1      21.373  25.329  46.881  1.00  0.00     0.093 A 
ATOM      8  C   UNL     1      20.746  26.566  47.061  1.00  0.00     0.123 A 
ATOM      9  C   UNL     1      21.512  27.697  47.331  1.00  0.00     0.094 A 
ATOM     10  C   UNL     1      22.905  27.611  47.395  1.00  0.00     0.146 A 
ATOM     11  O   UNL     1      23.598  28.716  47.643  1.00  0.00    -0.452 OA
ENDROOT
BRANCH   1  12
ATOM     12  C   UNL     1      25.575  30.043  48.016  1.00  0.00     0.021 A 
ATOM     13  C   UNL     1      25.812  30.967  46.985  1.00  0.00     0.016 A 
ATOM     14  C   UNL     1      26.406  32.202  47.263  1.00  0.00     0.047 A 
ATOM     15  C   UNL     1      26.755  32.536  48.574  1.00  0.00     0.115 A 
ATOM     16  C   UNL     1      25.912  30.394  49.338  1.00  0.00     0.016 A 
ATOM     17  C   UNL     1      26.504  31.629  49.612  1.00  0.00     0.047 A 
BRANCH  15  18
ATOM     18  O   UNL     1      27.346  33.770  48.835  1.00  0.00    -0.508 OA
ATOM     19  H   UNL     1      27.160  34.274  49.694  1.00  0.00     0.293 HD
ENDBRANCH  15  18
ENDBRANCH   1  12
BRANCH   2  20
ATOM     20  O   UNL     1      27.060  27.629  47.414  1.00  0.00    -0.502 OA
ATOM     21  H   UNL     1      27.574  28.033  46.639  1.00  0.00     0.293 HD
ENDBRANCH   2  20
BRANCH   6  22
ATOM     22  O   UNL     1      23.284  23.912  46.875  1.00  0.00    -0.507 OA
ATOM     23  H   UNL     1      23.758  23.543  46.064  1.00  0.00     0.293 HD
ENDBRANCH   6  22
BRANCH   8  24
ATOM     24  O   UNL     1      19.360  26.678  46.981  1.00  0.00    -0.508 OA
ATOM     25  H   UNL     1      18.817  26.100  46.349  1.00  0.00     0.293 HD
ENDBRANCH   8  24
TORSDOF 5
ENDMDL
MODEL 2
REMARK VINA RESULT:    -0.243      2.970      3.708
REMARK INTER + INTRA:          -0.586
REMARK INTER:                  -0.288
REMARK INTRA:                  -0.299
REMARK UNBOUND:                -0.300
REMARK SMILES O=c1c(O)c(-c2ccc(O)cc2)oc2cc(O)cc(O)c12
REMARK SMILES IDX 5 1 3 2 2 3 1 4 21 5 19 6 18 7 16 8 15 9 14 10 13 11 6 12
REMARK SMILES IDX 7 13 8 14 9 15 12 16 11 17 10 18 4 20 20 22 17 24
REMARK H PARENT 10 19 4 21 20 23 17 25
REMARK Flexibility Score: inf
ROOT
ATOM      1  C   UNL     1      26.769  26.501  47.674  1.00  0.00     0.180 A 
ATOM      2  C   UNL     1      26.397  25.157  47.488  1.00  0.00     0.208 A 
ATOM      3  C   UNL     1      25.048  24.850  47.257  1.00  0.00     0.238 A 
ATOM      4  O   UNL     1      24.730  23.652  47.038  1.00  0.00    -0.285 OA
ATOM      5  C   UNL     1      24.083  25.886  47.231  1.00  0.00     0.111 A 
ATOM      6  C   UNL     1      22.683  25.686  47.047  1.00  0.00     0.134 A 
ATOM      7  C   UNL     1      21.838  26.794  46.908  1.00  0.00     0.093 A 
ATOM      8  C   UNL     1      22.336  28.096  47.014  1.00  0.00     0.123 A 
ATOM      9  C   UNL     1      23.692  28.301  47.254  1.00  0.00     0.094 A 
ATOM     10  C   UNL     1      24.565  27.215  47.361  1.00  0.00     0.146 A 
ATOM     11  O   UNL     1      25.852  27.456  47.579  1.00  0.00    -0.452 OA
ENDROOT
BRANCH   1  12
ATOM     12  C   UNL     1      28.168  26.901  47.947  1.00  0.00     0.021 A 
ATOM     13  C   UNL     1      29.005  27.267  46.879  1.00  0.00     0.016 A 
ATOM     14  C   UNL     1      30.322  27.669  47.117  1.00  0.00     0.047 A 
ATOM     15  C   UNL     1      30.816  27.726  48.423  1.00  0.00     0.115 A 
ATOM     16  C   UNL     1      28.666  26.979  49.261  1.00  0.00     0.016 A 
ATOM     17  C   UNL     1      29.984  27.382  49.496  1.00  0.00     0.047 A 
BRANCH  15  18
ATOM     18  O   UNL     1      32.131  28.128  48.644  1.00  0.00    -0.508 OA
ATOM     19  H   UNL     1      32.831  28.070  47.913  1.00  0.00     0.293 HD
ENDBRANCH  15  18
ENDBRANCH   1  12
BRANCH   2  20
ATOM     20  O   UNL     1      27.369  24.153  47.495  1.00  0.00    -0.502 OA
ATOM     21  H   UNL     1      28.038  24.038  46.742  1.00  0.00     0.293 HD
ENDBRANCH   2  20
BRANCH   6  22
ATOM     22  O   UNL     1      22.071  24.429  47.019  1.00  0.00    -0.507 OA
ATOM     23  H   UNL     1      22.308  23.688  46.376  1.00  0.00     0.293 HD
ENDBRANCH   6  22
BRANCH   8  24
ATOM     24  O   UNL     1      21.486  29.193  46.891  1.00  0.00    -0.508 OA
ATOM     25  H   UNL     1      20.833  29.274  46.120  1.00  0.00     0.293 HD
ENDBRANCH   8  24
TORSDOF 5
ENDMDL
MODEL 3
REMARK VINA RESULT:    -0.228      1.632      3.515
REMARK INTER + INTRA:          -0.568
REMARK INTER:                  -0.268
REMARK INTRA:                  -0.300
REMARK UNBOUND:                -0.300
REMARK SMILES O=c1c(O)c(-c2ccc(O)cc2)oc2cc(O)cc(O)c12
REMARK SMILES IDX 5 1 3 2 2 3 1 4 21 5 19 6 18 7 16 8 15 9 14 10 13 11 6 12
REMARK SMILES IDX 7 13 8 14 9 15 12 16 11 17 10 18 4 20 20 22 17 24
REMARK H PARENT 10 19 4 21 20 23 17 25
REMARK Flexibility Score: inf
ROOT
ATOM      1  C   UNL     1      24.665  27.825  47.798  1.00  0.00     0.180 A 
ATOM      2  C   UNL     1      23.284  27.567  47.844  1.00  0.00     0.208 A 
ATOM      3  C   UNL     1      22.828  26.258  47.628  1.00  0.00     0.238 A 
ATOM      4  O   UNL     1      21.595  26.023  47.724  1.00  0.00    -0.285 OA
ATOM      5  C   UNL     1      23.756  25.224  47.355  1.00  0.00     0.111 A 
ATOM      6  C   UNL     1      23.403  23.869  47.081  1.00  0.00     0.134 A 
ATOM      7  C   UNL     1      24.410  22.904  46.952  1.00  0.00     0.093 A 
ATOM      8  C   UNL     1      25.760  23.260  47.022  1.00  0.00     0.123 A 
ATOM      9  C   UNL     1      26.115  24.590  47.229  1.00  0.00     0.094 A 
ATOM     10  C   UNL     1      25.132  25.569  47.397  1.00  0.00     0.146 A 
ATOM     11  O   UNL     1      25.515  26.823  47.604  1.00  0.00    -0.452 OA
ENDROOT
BRANCH   1  12
ATOM     12  C   UNL     1      25.221  29.184  47.989  1.00  0.00     0.021 A 
ATOM     13  C   UNL     1      25.633  29.590  49.269  1.00  0.00     0.016 A 
ATOM     14  C   UNL     1      26.180  30.861  49.468  1.00  0.00     0.047 A 
ATOM     15  C   UNL     1      26.337  31.736  48.390  1.00  0.00     0.115 A 
ATOM     16  C   UNL     1      25.400  30.063  46.904  1.00  0.00     0.016 A 
ATOM     17  C   UNL     1      25.948  31.333  47.106  1.00  0.00     0.047 A 
BRANCH  15  18
ATOM     18  O   UNL     1      26.883  32.999  48.604  1.00  0.00    -0.508 OA
ATOM     19  H   UNL     1      27.499  33.431  47.924  1.00  0.00     0.293 HD
ENDBRANCH  15  18
ENDBRANCH   1  12
BRANCH   2  20
ATOM     20  O   UNL     1      22.387  28.598  48.138  1.00  0.00    -0.502 OA
ATOM     21  H   UNL     1      22.675  29.568  48.201  1.00  0.00     0.293 HD
ENDBRANCH   2  20
BRANCH   6  22
ATOM     22  O   UNL     1      22.089  23.426  46.900  1.00  0.00    -0.507 OA
ATOM     23  H   UNL     1      21.295  23.751  47.430  1.00  0.00     0.293 HD
ENDBRANCH   6  22
BRANCH   8  24
ATOM     24  O   UNL     1      26.757  22.297  46.878  1.00  0.00    -0.508 OA
ATOM     25  H   UNL     1      27.462  22.368  46.153  1.00  0.00     0.293 HD
ENDBRANCH   8  24
TORSDOF 5
ENDMDL
MODEL 4
REMARK VINA RESULT:    -0.223      2.583      3.311
REMARK INTER + INTRA:          -0.563
REMARK INTER:                  -0.274
REMARK INTRA:                  -0.289
REMARK UNBOUND:                -0.300
REMARK SMILES O=c1c(O)c(-c2ccc(O)cc2)oc2cc(O)cc(O)c12
REMARK SMILES IDX 5 1 3 2 2 3 1 4 21 5 19 6 18 7 16 8 15 9 14 10 13 11 6 12
REMARK SMILES IDX 7 13 8 14 9 15 12 16 11 17 10 18 4 20 20 22 17 24
REMARK H PARENT 10 19 4 21 20 23 17 25
REMARK Flexibility Score: inf
ROOT
ATOM      1  C   UNL     1      24.399  27.543  47.759  1.00  0.00     0.180 A 
ATOM      2  C   UNL     1      25.762  27.306  47.510  1.00  0.00     0.208 A 
ATOM      3  C   UNL     1      26.186  25.997  47.234  1.00  0.00     0.238 A 
ATOM      4  O   UNL     1      27.398  25.800  46.959  1.00  0.00    -0.285 OA
ATOM      5  C   UNL     1      25.245  24.938  47.225  1.00  0.00     0.111 A 
ATOM      6  C   UNL     1      25.570  23.568  46.998  1.00  0.00     0.134 A 
ATOM      7  C   UNL     1      24.541  22.624  46.883  1.00  0.00     0.093 A 
ATOM      8  C   UNL     1      23.204  22.993  47.053  1.00  0.00     0.123 A 
ATOM      9  C   UNL     1      22.882  24.318  47.335  1.00  0.00     0.094 A 
ATOM     10  C   UNL     1      23.883  25.288  47.420  1.00  0.00     0.146 A 
ATOM     11  O   UNL     1      23.532  26.541  47.680  1.00  0.00    -0.452 OA
ENDROOT
BRANCH   1  12
ATOM     12  C   UNL     1      23.880  28.892  48.083  1.00  0.00     0.021 A 
ATOM     13  C   UNL     1      23.847  29.319  49.421  1.00  0.00     0.016 A 
ATOM     14  C   UNL     1      23.381  30.596  49.747  1.00  0.00     0.047 A 
ATOM     15  C   UNL     1      22.958  31.468  48.740  1.00  0.00     0.115 A 
ATOM     16  C   UNL     1      23.470  29.783  47.073  1.00  0.00     0.016 A 
ATOM     17  C   UNL     1      23.006  31.060  47.401  1.00  0.00     0.047 A 
BRANCH  15  18
ATOM     18  O   UNL     1      22.496  32.737  49.081  1.00  0.00    -0.508 OA
ATOM     19  H   UNL     1      21.798  32.870  49.804  1.00  0.00     0.293 HD
ENDBRANCH  15  18
ENDBRANCH   1  12
BRANCH   2  20
ATOM     20  O   UNL     1      26.670  28.369  47.502  1.00  0.00    -0.502 OA
ATOM     21  H   UNL     1      27.660  28.236  47.333  1.00  0.00     0.293 HD
ENDBRANCH   2  20
BRANCH   6  22
ATOM     22  O   UNL     1      26.876  23.080  46.905  1.00  0.00    -0.507 OA
ATOM     23  H   UNL     1      27.262  22.355  47.490  1.00  0.00     0.293 HD
ENDBRANCH   6  22
BRANCH   8  24
ATOM     24  O   UNL     1      22.187  22.045  46.953  1.00  0.00    -0.508 OA
ATOM     25  H   UNL     1      21.297  22.171  47.420  1.00  0.00     0.293 HD
ENDBRANCH   8  24
TORSDOF 5
ENDMDL
MODEL 5
REMARK VINA RESULT:    -0.187      1.070      1.278
REMARK INTER + INTRA:          -0.519
REMARK INTER:                  -0.269
REMARK INTRA:                  -0.250
REMARK UNBOUND:                -0.300
REMARK SMILES O=c1c(O)c(-c2ccc(O)cc2)oc2cc(O)cc(O)c12
REMARK SMILES IDX 5 1 3 2 2 3 1 4 21 5 19 6 18 7 16 8 15 9 14 10 13 11 6 12
REMARK SMILES IDX 7 13 8 14 9 15 12 16 11 17 10 18 4 20 20 22 17 24
REMARK H PARENT 10 19 4 21 20 23 17 25
REMARK Flexibility Score: inf
ROOT
ATOM      1  C   UNL     1      24.687  27.513  47.914  1.00  0.00     0.180 A 
ATOM      2  C   UNL     1      25.366  26.332  47.570  1.00  0.00     0.208 A 
ATOM      3  C   UNL     1      24.621  25.182  47.265  1.00  0.00     0.238 A 
ATOM      4  O   UNL     1      25.233  24.143  46.905  1.00  0.00    -0.285 OA
ATOM      5  C   UNL     1      23.207  25.223  47.324  1.00  0.00     0.111 A 
ATOM      6  C   UNL     1      22.353  24.107  47.075  1.00  0.00     0.134 A 
ATOM      7  C   UNL     1      20.965  24.294  47.034  1.00  0.00     0.093 A 
ATOM      8  C   UNL     1      20.400  25.544  47.299  1.00  0.00     0.123 A 
ATOM      9  C   UNL     1      21.223  26.626  47.601  1.00  0.00     0.094 A 
ATOM     10  C   UNL     1      22.612  26.478  47.614  1.00  0.00     0.146 A 
ATOM     11  O   UNL     1      23.359  27.538  47.897  1.00  0.00    -0.452 OA
ENDROOT
BRANCH   1  12
ATOM     12  C   UNL     1      25.404  28.759  48.272  1.00  0.00     0.021 A 
ATOM     13  C   UNL     1      25.418  29.834  47.369  1.00  0.00     0.016 A 
ATOM     14  C   UNL     1      26.071  31.026  47.696  1.00  0.00     0.047 A 
ATOM     15  C   UNL     1      26.702  31.166  48.935  1.00  0.00     0.115 A 
ATOM     16  C   UNL     1      26.025  28.913  49.526  1.00  0.00     0.016 A 
ATOM     17  C   UNL     1      26.675  30.107  49.852  1.00  0.00     0.047 A 
BRANCH  15  18
ATOM     18  O   UNL     1      27.348  32.360  49.247  1.00  0.00    -0.508 OA
ATOM     19  H   UNL     1      28.326  32.378  49.513  1.00  0.00     0.293 HD
ENDBRANCH  15  18
ENDBRANCH   1  12
BRANCH   2  20
ATOM     20  O   UNL     1      26.762  26.320  47.496  1.00  0.00    -0.502 OA
ATOM     21  H   UNL     1      27.265  26.605  46.663  1.00  0.00     0.293 HD
ENDBRANCH   2  20
BRANCH   6  22
ATOM     22  O   UNL     1      22.811  22.799  46.891  1.00  0.00    -0.507 OA
ATOM     23  H   UNL     1      23.268  22.245  47.599  1.00  0.00     0.293 HD
ENDBRANCH   6  22
BRANCH   8  24
ATOM     24  O   UNL     1      19.018  25.719  47.271  1.00  0.00    -0.508 OA
ATOM     25  H   UNL     1      18.585  26.573  47.603  1.00  0.00     0.293 HD
ENDBRANCH   8  24
TORSDOF 5
ENDMDL
MODEL 6
REMARK VINA RESULT:    -0.175      2.951      5.384
REMARK INTER + INTRA:          -0.506
REMARK INTER:                  -0.216
REMARK INTRA:                  -0.289
REMARK UNBOUND:                -0.300
REMARK SMILES O=c1c(O)c(-c2ccc(O)cc2)oc2cc(O)cc(O)c12
REMARK SMILES IDX 5 1 3 2 2 3 1 4 21 5 19 6 18 7 16 8 15 9 14 10 13 11 6 12
REMARK SMILES IDX 7 13 8 14 9 15 12 16 11 17 10 18 4 20 20 22 17 24
REMARK H PARENT 10 19 4 21 20 23 17 25
REMARK Flexibility Score: inf
ROOT
ATOM      1  C   UNL     1      24.480  27.689  47.853  1.00  0.00     0.180 A 
ATOM      2  C   UNL     1      24.369  26.328  47.519  1.00  0.00     0.208 A 
ATOM      3  C   UNL     1      25.537  25.565  47.370  1.00  0.00     0.238 A 
ATOM      4  O   UNL     1      25.429  24.335  47.125  1.00  0.00    -0.285 OA
ATOM      5  C   UNL     1      26.804  26.175  47.542  1.00  0.00     0.111 A 
ATOM      6  C   UNL     1      28.054  25.508  47.375  1.00  0.00     0.134 A 
ATOM      7  C   UNL     1      29.242  26.176  47.697  1.00  0.00     0.093 A 
ATOM      8  C   UNL     1      29.228  27.509  48.116  1.00  0.00     0.123 A 
ATOM      9  C   UNL     1      28.016  28.187  48.224  1.00  0.00     0.094 A 
ATOM     10  C   UNL     1      26.812  27.536  47.945  1.00  0.00     0.146 A 
ATOM     11  O   UNL     1      25.680  28.217  48.071  1.00  0.00    -0.452 OA
ENDROOT
BRANCH   1  12
ATOM     12  C   UNL     1      23.295  28.564  48.001  1.00  0.00     0.021 A 
ATOM     13  C   UNL     1      22.775  29.224  46.875  1.00  0.00     0.016 A 
ATOM     14  C   UNL     1      21.644  30.037  46.989  1.00  0.00     0.047 A 
ATOM     15  C   UNL     1      21.009  30.190  48.225  1.00  0.00     0.115 A 
ATOM     16  C   UNL     1      22.639  28.707  49.239  1.00  0.00     0.016 A 
ATOM     17  C   UNL     1      21.507  29.520  49.350  1.00  0.00     0.047 A 
BRANCH  15  18
ATOM     18  O   UNL     1      19.883  31.004  48.323  1.00  0.00    -0.508 OA
ATOM     19  H   UNL     1      19.341  31.056  49.178  1.00  0.00     0.293 HD
ENDBRANCH  15  18
ENDBRANCH   1  12
BRANCH   2  20
ATOM     20  O   UNL     1      23.108  25.741  47.377  1.00  0.00    -0.502 OA
ATOM     21  H   UNL     1      22.761  25.408  46.485  1.00  0.00     0.293 HD
ENDBRANCH   2  20
BRANCH   6  22
ATOM     22  O   UNL     1      28.185  24.209  46.876  1.00  0.00    -0.507 OA
ATOM     23  H   UNL     1      27.431  23.666  46.482  1.00  0.00     0.293 HD
ENDBRANCH   6  22
BRANCH   8  24
ATOM     24  O   UNL     1      30.415  28.171  48.420  1.00  0.00    -0.508 OA
ATOM     25  H   UNL     1      31.125  27.745  49.005  1.00  0.00     0.293 HD
ENDBRANCH   8  24
TORSDOF 5
ENDMDL
MODEL 7
REMARK VINA RESULT:    -0.166      3.815      6.144
REMARK INTER + INTRA:          -0.495
REMARK INTER:                  -0.219
REMARK INTRA:                  -0.276
REMARK UNBOUND:                -0.300
REMARK SMILES O=c1c(O)c(-c2ccc(O)cc2)oc2cc(O)cc(O)c12
REMARK SMILES IDX 5 1 3 2 2 3 1 4 21 5 19 6 18 7 16 8 15 9 14 10 13 11 6 12
REMARK SMILES IDX 7 13 8 14 9 15 12 16 11 17 10 18 4 20 20 22 17 24
REMARK H PARENT 10 19 4 21 20 23 17 25
REMARK Flexibility Score: inf
ROOT
ATOM      1  C   UNL     1      27.806  25.517  47.868  1.00  0.00     0.180 A 
ATOM      2  C   UNL     1      28.021  26.899  48.010  1.00  0.00     0.208 A 
ATOM      3  C   UNL     1      26.938  27.777  47.847  1.00  0.00     0.238 A 
ATOM      4  O   UNL     1      27.125  29.008  48.029  1.00  0.00    -0.285 OA
ATOM      5  C   UNL     1      25.657  27.264  47.529  1.00  0.00     0.111 A 
ATOM      6  C   UNL     1      24.498  28.064  47.301  1.00  0.00     0.134 A 
ATOM      7  C   UNL     1      23.255  27.444  47.122  1.00  0.00     0.093 A 
ATOM      8  C   UNL     1      23.142  26.051  47.096  1.00  0.00     0.123 A 
ATOM      9  C   UNL     1      24.278  25.262  47.257  1.00  0.00     0.094 A 
ATOM     10  C   UNL     1      25.526  25.852  47.474  1.00  0.00     0.146 A 
ATOM     11  O   UNL     1      26.581  25.062  47.634  1.00  0.00    -0.452 OA
ENDROOT
BRANCH   1  12
ATOM     12  C   UNL     1      28.904  24.531  48.000  1.00  0.00     0.021 A 
ATOM     13  C   UNL     1      29.748  24.284  46.905  1.00  0.00     0.016 A 
ATOM     14  C   UNL     1      30.803  23.373  47.015  1.00  0.00     0.047 A 
ATOM     15  C   UNL     1      31.038  22.710  48.223  1.00  0.00     0.115 A 
ATOM     16  C   UNL     1      29.158  23.875  49.219  1.00  0.00     0.016 A 
ATOM     17  C   UNL     1      30.214  22.965  49.327  1.00  0.00     0.047 A 
BRANCH  15  18
ATOM     18  O   UNL     1      32.093  21.806  48.317  1.00  0.00    -0.508 OA
ATOM     19  H   UNL     1      32.868  21.962  48.950  1.00  0.00     0.293 HD
ENDBRANCH  15  18
ENDBRANCH   1  12
BRANCH   2  20
ATOM     20  O   UNL     1      29.289  27.382  48.347  1.00  0.00    -0.502 OA
ATOM     21  H   UNL     1      29.767  28.084  47.794  1.00  0.00     0.293 HD
ENDBRANCH   2  20
BRANCH   6  22
ATOM     22  O   UNL     1      24.516  29.459  47.216  1.00  0.00    -0.507 OA
ATOM     23  H   UNL     1      24.364  29.985  46.369  1.00  0.00     0.293 HD
ENDBRANCH   6  22
BRANCH   8  24
ATOM     24  O   UNL     1      21.904  25.442  46.901  1.00  0.00    -0.508 OA
ATOM     25  H   UNL     1      21.316  25.175  47.682  1.00  0.00     0.293 HD
ENDBRANCH   8  24
TORSDOF 5
ENDMDL
MODEL 8
REMARK VINA RESULT:     1.178      2.274      2.912
REMARK INTER + INTRA:           1.085
REMARK INTER:                   1.373
REMARK INTRA:                  -0.289
REMARK UNBOUND:                -0.300
REMARK SMILES O=c1c(O)c(-c2ccc(O)cc2)oc2cc(O)cc(O)c12
REMARK SMILES IDX 5 1 3 2 2 3 1 4 21 5 19 6 18 7 16 8 15 9 14 10 13 11 6 12
REMARK SMILES IDX 7 13 8 14 9 15 12 16 11 17 10 18 4 20 20 22 17 24
REMARK H PARENT 10 19 4 21 20 23 17 25
REMARK Flexibility Score: inf
ROOT
ATOM      1  C   UNL     1      24.859  26.141  47.651  1.00  0.00     0.180 A 
ATOM      2  C   UNL     1      25.170  24.792  47.403  1.00  0.00     0.208 A 
ATOM      3  C   UNL     1      24.127  23.888  47.152  1.00  0.00     0.238 A 
ATOM      4  O   UNL     1      24.415  22.694  46.877  1.00  0.00    -0.285 OA
ATOM      5  C   UNL     1      22.784  24.338  47.168  1.00  0.00     0.111 A 
ATOM      6  C   UNL     1      21.646  23.501  46.967  1.00  0.00     0.134 A 
ATOM      7  C   UNL     1      20.373  24.076  46.875  1.00  0.00     0.093 A 
ATOM      8  C   UNL     1      20.191  25.452  47.043  1.00  0.00     0.123 A 
ATOM      9  C   UNL     1      21.288  26.269  47.298  1.00  0.00     0.094 A 
ATOM     10  C   UNL     1      22.575  25.729  47.360  1.00  0.00     0.146 A 
ATOM     11  O   UNL     1      23.595  26.545  47.595  1.00  0.00    -0.452 OA
ENDROOT
BRANCH   1  12
ATOM     12  C   UNL     1      25.902  27.149  47.949  1.00  0.00     0.021 A 
ATOM     13  C   UNL     1      26.302  27.360  49.279  1.00  0.00     0.016 A 
ATOM     14  C   UNL     1      27.300  28.291  49.580  1.00  0.00     0.047 A 
ATOM     15  C   UNL     1      27.923  29.011  48.556  1.00  0.00     0.115 A 
ATOM     16  C   UNL     1      26.546  27.863  46.921  1.00  0.00     0.016 A 
ATOM     17  C   UNL     1      27.545  28.793  47.225  1.00  0.00     0.047 A 
BRANCH  15  18
ATOM     18  O   UNL     1      28.915  29.935  48.872  1.00  0.00    -0.508 OA
ATOM     19  H   UNL     1      28.947  30.387  49.779  1.00  0.00     0.293 HD
ENDBRANCH  15  18
ENDBRANCH   1  12
BRANCH   2  20
ATOM     20  O   UNL     1      26.503  24.374  47.369  1.00  0.00    -0.502 OA
ATOM     21  H   UNL     1      26.805  23.489  47.759  1.00  0.00     0.293 HD
ENDBRANCH   2  20
BRANCH   6  22
ATOM     22  O   UNL     1      21.708  22.107  46.880  1.00  0.00    -0.507 OA
ATOM     23  H   UNL     1      20.907  21.500  46.796  1.00  0.00     0.293 HD
ENDBRANCH   6  22
BRANCH   8  24
ATOM     24  O   UNL     1      18.918  26.014  46.965  1.00  0.00    -0.508 OA
ATOM     25  H   UNL     1      18.533  26.561  47.726  1.00  0.00     0.293 HD
ENDBRANCH   8  24
TORSDOF 5
ENDMDL
