MODEL 1
REMARK VINA RESULT:    -4.722      0.000      0.000
REMARK INTER + INTRA:         -11.064
REMARK INTER:                  -9.138
REMARK INTRA:                  -1.925
REMARK UNBOUND:                -1.925
REMARK SMILES CCCCCCCCCCCCCCCCCC(=O)[O-]
REMARK SMILES IDX 10 1 11 2 12 3 13 4 14 5 15 6 16 7 17 8 18 9 19 10 20 11
REMARK SMILES IDX 9 12 8 13 7 14 6 15 5 16 4 17 3 18 2 19 1 20
REMARK H PARENT
REMARK Flexibility Score: inf
ROOT
ATOM      1  C   UNL     1      12.914 -15.653  16.573  1.00  0.00     0.000 C 
ENDROOT
BRANCH   1   2
ATOM      2  C   UNL     1      11.783 -14.614  16.453  1.00  0.00     0.000 C 
BRANCH   2   3
ATOM      3  C   UNL     1      11.771 -13.857  15.107  1.00  0.00     0.000 C 
BRANCH   3   4
ATOM      4  C   UNL     1      11.777 -12.329  15.293  1.00  0.00     0.000 C 
BRANCH   4   5
ATOM      5  C   UNL     1      13.168 -11.715  15.078  1.00  0.00     0.000 C 
BRANCH   5   6
ATOM      6  C   UNL     1      14.227 -12.768  14.705  1.00  0.00     0.000 C 
BRANCH   6   7
ATOM      7  C   UNL     1      15.077 -12.351  13.490  1.00  0.00     0.006 C 
BRANCH   7   8
ATOM      8  C   UNL     1      15.915 -11.081  13.714  1.00  0.00     0.053 C 
BRANCH   8   9
ATOM      9  C   UNL     1      15.668 -10.055  12.651  1.00  0.00     0.041 C 
ATOM     10  O   UNL     1      15.171  -8.938  12.954  1.00  0.00    -0.550 OA
ATOM     11  O   UNL     1      15.953 -10.347  11.323  1.00  0.00    -0.550 OA
ENDBRANCH   8   9
ENDBRANCH   7   8
ENDBRANCH   6   7
ENDBRANCH   5   6
ENDBRANCH   4   5
ENDBRANCH   3   4
ENDBRANCH   2   3
ENDBRANCH   1   2
BRANCH   1  12
ATOM     12  C   UNL     1      13.152 -16.512  15.316  1.00  0.00     0.000 C 
BRANCH  12  13
ATOM     13  C   UNL     1      14.143 -17.678  15.503  1.00  0.00    -0.000 C 
BRANCH  13  14
ATOM     14  C   UNL     1      15.460 -17.544  14.715  1.00  0.00    -0.000 C 
BRANCH  14  15
ATOM     15  C   UNL     1      15.388 -16.528  13.554  1.00  0.00    -0.000 C 
BRANCH  15  16
ATOM     16  C   UNL     1      15.397 -17.214  12.177  1.00  0.00    -0.000 C 
BRANCH  16  17
ATOM     17  C   UNL     1      14.002 -17.279  11.534  1.00  0.00    -0.000 C 
BRANCH  17  18
ATOM     18  C   UNL     1      13.150 -16.037  11.840  1.00  0.00    -0.000 C 
BRANCH  18  19
ATOM     19  C   UNL     1      11.719 -16.211  11.317  1.00  0.00    -0.003 C 
ATOM     20  C   UNL     1      10.693 -15.906  12.405  1.00  0.00     0.004 C 
ENDBRANCH  18  19
ENDBRANCH  17  18
ENDBRANCH  16  17
ENDBRANCH  15  16
ENDBRANCH  14  15
ENDBRANCH  13  14
ENDBRANCH  12  13
ENDBRANCH   1  12
TORSDOF 16
ENDMDL
MODEL 2
REMARK VINA RESULT:    -4.688      2.919      6.268
REMARK INTER + INTRA:         -10.999
REMARK INTER:                  -9.060
REMARK INTRA:                  -1.938
REMARK UNBOUND:                -1.925
REMARK SMILES CCCCCCCCCCCCCCCCCC(=O)[O-]
REMARK SMILES IDX 10 1 11 2 12 3 13 4 14 5 15 6 16 7 17 8 18 9 19 10 20 11
REMARK SMILES IDX 9 12 8 13 7 14 6 15 5 16 4 17 3 18 2 19 1 20
REMARK H PARENT
REMARK Flexibility Score: inf
ROOT
ATOM      1  C   UNL     1      10.794 -15.564  10.861  1.00  0.00     0.000 C 
ENDROOT
BRANCH   1   2
ATOM      2  C   UNL     1      11.369 -16.323   9.649  1.00  0.00     0.000 C 
BRANCH   2   3
ATOM      3  C   UNL     1      12.391 -17.418  10.025  1.00  0.00     0.000 C 
BRANCH   3   4
ATOM      4  C   UNL     1      13.751 -17.215   9.333  1.00  0.00     0.000 C 
BRANCH   4   5
ATOM      5  C   UNL     1      14.867 -16.850  10.322  1.00  0.00     0.000 C 
BRANCH   5   6
ATOM      6  C   UNL     1      14.524 -15.612  11.169  1.00  0.00     0.000 C 
BRANCH   6   7
ATOM      7  C   UNL     1      14.983 -15.748  12.633  1.00  0.00     0.006 C 
BRANCH   7   8
ATOM      8  C   UNL     1      14.552 -17.060  13.309  1.00  0.00     0.053 C 
BRANCH   8   9
ATOM      9  C   UNL     1      14.530 -16.938  14.801  1.00  0.00     0.041 C 
ATOM     10  O   UNL     1      14.761 -15.828  15.349  1.00  0.00    -0.550 OA
ATOM     11  O   UNL     1      14.289 -18.059  15.587  1.00  0.00    -0.550 OA
ENDBRANCH   8   9
ENDBRANCH   7   8
ENDBRANCH   6   7
ENDBRANCH   5   6
ENDBRANCH   4   5
ENDBRANCH   3   4
ENDBRANCH   2   3
ENDBRANCH   1   2
BRANCH   1  12
ATOM     12  C   UNL     1      11.025 -16.239  12.227  1.00  0.00     0.000 C 
BRANCH  12  13
ATOM     13  C   UNL     1      10.852 -15.314  13.447  1.00  0.00    -0.000 C 
BRANCH  13  14
ATOM     14  C   UNL     1      11.251 -15.937  14.797  1.00  0.00    -0.000 C 
BRANCH  14  15
ATOM     15  C   UNL     1      11.362 -14.912  15.947  1.00  0.00    -0.000 C 
BRANCH  15  16
ATOM     16  C   UNL     1      11.338 -13.460  15.439  1.00  0.00    -0.000 C 
BRANCH  16  17
ATOM     17  C   UNL     1      12.741 -12.841  15.336  1.00  0.00    -0.000 C 
BRANCH  17  18
ATOM     18  C   UNL     1      12.704 -11.320  15.124  1.00  0.00    -0.000 C 
BRANCH  18  19
ATOM     19  C   UNL     1      11.262 -10.797  15.160  1.00  0.00    -0.003 C 
ATOM     20  C   UNL     1      11.227  -9.294  15.428  1.00  0.00     0.004 C 
ENDBRANCH  18  19
ENDBRANCH  17  18
ENDBRANCH  16  17
ENDBRANCH  15  16
ENDBRANCH  14  15
ENDBRANCH  13  14
ENDBRANCH  12  13
ENDBRANCH   1  12
TORSDOF 16
ENDMDL
MODEL 3
REMARK VINA RESULT:    -4.660      1.572      3.482
REMARK INTER + INTRA:         -10.945
REMARK INTER:                  -8.416
REMARK INTRA:                  -2.529
REMARK UNBOUND:                -1.925
REMARK SMILES CCCCCCCCCCCCCCCCCC(=O)[O-]
REMARK SMILES IDX 10 1 11 2 12 3 13 4 14 5 15 6 16 7 17 8 18 9 19 10 20 11
REMARK SMILES IDX 9 12 8 13 7 14 6 15 5 16 4 17 3 18 2 19 1 20
REMARK H PARENT
REMARK Flexibility Score: inf
ROOT
ATOM      1  C   UNL     1      15.568 -16.250  13.917  1.00  0.00     0.000 C 
ENDROOT
BRANCH   1   2
ATOM      2  C   UNL     1      14.896 -15.471  12.770  1.00  0.00     0.000 C 
BRANCH   2   3
ATOM      3  C   UNL     1      15.653 -14.189  12.359  1.00  0.00     0.000 C 
BRANCH   3   4
ATOM      4  C   UNL     1      16.804 -13.851  13.324  1.00  0.00     0.000 C 
BRANCH   4   5
ATOM      5  C   UNL     1      17.211 -12.371  13.261  1.00  0.00     0.000 C 
BRANCH   5   6
ATOM      6  C   UNL     1      16.980 -11.638  14.595  1.00  0.00     0.000 C 
BRANCH   6   7
ATOM      7  C   UNL     1      15.523 -11.737  15.083  1.00  0.00     0.006 C 
BRANCH   7   8
ATOM      8  C   UNL     1      14.493 -11.128  14.118  1.00  0.00     0.053 C 
BRANCH   8   9
ATOM      9  C   UNL     1      14.354  -9.649  14.309  1.00  0.00     0.041 C 
ATOM     10  O   UNL     1      13.376  -9.184  14.952  1.00  0.00    -0.550 OA
ATOM     11  O   UNL     1      15.284  -8.785  13.745  1.00  0.00    -0.550 OA
ENDBRANCH   8   9
ENDBRANCH   7   8
ENDBRANCH   6   7
ENDBRANCH   5   6
ENDBRANCH   4   5
ENDBRANCH   3   4
ENDBRANCH   2   3
ENDBRANCH   1   2
BRANCH   1  12
ATOM     12  C   UNL     1      14.937 -17.619  14.237  1.00  0.00     0.000 C 
BRANCH  12  13
ATOM     13  C   UNL     1      14.003 -17.634  15.463  1.00  0.00    -0.000 C 
BRANCH  13  14
ATOM     14  C   UNL     1      14.141 -16.419  16.399  1.00  0.00    -0.000 C 
BRANCH  14  15
ATOM     15  C   UNL     1      12.829 -15.625  16.584  1.00  0.00    -0.000 C 
BRANCH  15  16
ATOM     16  C   UNL     1      12.849 -14.282  15.834  1.00  0.00    -0.000 C 
BRANCH  16  17
ATOM     17  C   UNL     1      11.923 -14.270  14.608  1.00  0.00    -0.000 C 
BRANCH  17  18
ATOM     18  C   UNL     1      11.051 -15.531  14.511  1.00  0.00    -0.000 C 
BRANCH  18  19
ATOM     19  C   UNL     1      11.302 -16.271  13.192  1.00  0.00    -0.003 C 
ATOM     20  C   UNL     1      10.573 -15.597  12.033  1.00  0.00     0.004 C 
ENDBRANCH  18  19
ENDBRANCH  17  18
ENDBRANCH  16  17
ENDBRANCH  15  16
ENDBRANCH  14  15
ENDBRANCH  13  14
ENDBRANCH  12  13
ENDBRANCH   1  12
TORSDOF 16
ENDMDL
MODEL 4
REMARK VINA RESULT:    -4.659      6.068      8.837
REMARK INTER + INTRA:         -10.942
REMARK INTER:                  -9.248
REMARK INTRA:                  -1.694
REMARK UNBOUND:                -1.925
REMARK SMILES CCCCCCCCCCCCCCCCCC(=O)[O-]
REMARK SMILES IDX 10 1 11 2 12 3 13 4 14 5 15 6 16 7 17 8 18 9 19 10 20 11
REMARK SMILES IDX 9 12 8 13 7 14 6 15 5 16 4 17 3 18 2 19 1 20
REMARK H PARENT
REMARK Flexibility Score: inf
ROOT
ATOM      1  C   UNL     1       9.955 -17.631   7.177  1.00  0.00     0.000 C 
ENDROOT
BRANCH   1   2
ATOM      2  C   UNL     1      10.899 -17.392   8.371  1.00  0.00     0.000 C 
BRANCH   2   3
ATOM      3  C   UNL     1      11.422 -15.942   8.473  1.00  0.00     0.000 C 
BRANCH   3   4
ATOM      4  C   UNL     1      11.750 -15.537   9.922  1.00  0.00     0.000 C 
BRANCH   4   5
ATOM      5  C   UNL     1      11.016 -16.403  10.956  1.00  0.00     0.000 C 
BRANCH   5   6
ATOM      6  C   UNL     1      10.675 -15.628  12.241  1.00  0.00     0.000 C 
BRANCH   6   7
ATOM      7  C   UNL     1      11.408 -16.177  13.479  1.00  0.00     0.006 C 
BRANCH   7   8
ATOM      8  C   UNL     1      11.032 -15.477  14.796  1.00  0.00     0.053 C 
BRANCH   8   9
ATOM      9  C   UNL     1      12.186 -15.419  15.747  1.00  0.00     0.041 C 
ATOM     10  O   UNL     1      13.191 -16.157  15.569  1.00  0.00    -0.550 OA
ATOM     11  O   UNL     1      12.137 -14.576  16.851  1.00  0.00    -0.550 OA
ENDBRANCH   8   9
ENDBRANCH   7   8
ENDBRANCH   6   7
ENDBRANCH   5   6
ENDBRANCH   4   5
ENDBRANCH   3   4
ENDBRANCH   2   3
ENDBRANCH   1   2
BRANCH   1  12
ATOM     12  C   UNL     1       8.759 -16.664   7.084  1.00  0.00     0.000 C 
BRANCH  12  13
ATOM     13  C   UNL     1       8.745 -15.767   5.830  1.00  0.00    -0.000 C 
BRANCH  13  14
ATOM     14  C   UNL     1      10.032 -15.811   4.986  1.00  0.00    -0.000 C 
BRANCH  14  15
ATOM     15  C   UNL     1       9.904 -16.661   3.702  1.00  0.00    -0.000 C 
BRANCH  15  16
ATOM     16  C   UNL     1       8.487 -16.611   3.108  1.00  0.00    -0.000 C 
BRANCH  16  17
ATOM     17  C   UNL     1       7.853 -18.003   2.961  1.00  0.00    -0.000 C 
BRANCH  17  18
ATOM     18  C   UNL     1       6.543 -18.145   3.751  1.00  0.00    -0.000 C 
BRANCH  18  19
ATOM     19  C   UNL     1       6.654 -19.259   4.800  1.00  0.00    -0.003 C 
ATOM     20  C   UNL     1       8.067 -19.835   4.846  1.00  0.00     0.004 C 
ENDBRANCH  18  19
ENDBRANCH  17  18
ENDBRANCH  16  17
ENDBRANCH  15  16
ENDBRANCH  14  15
ENDBRANCH  13  14
ENDBRANCH  12  13
ENDBRANCH   1  12
TORSDOF 16
ENDMDL
MODEL 5
REMARK VINA RESULT:    -4.620      1.697      3.524
REMARK INTER + INTRA:         -10.866
REMARK INTER:                  -8.355
REMARK INTRA:                  -2.511
REMARK UNBOUND:                -1.925
REMARK SMILES CCCCCCCCCCCCCCCCCC(=O)[O-]
REMARK SMILES IDX 10 1 11 2 12 3 13 4 14 5 15 6 16 7 17 8 18 9 19 10 20 11
REMARK SMILES IDX 9 12 8 13 7 14 6 15 5 16 4 17 3 18 2 19 1 20
REMARK H PARENT
REMARK Flexibility Score: inf
ROOT
ATOM      1  C   UNL     1      15.535 -15.603  11.922  1.00  0.00     0.000 C 
ENDROOT
BRANCH   1   2
ATOM      2  C   UNL     1      15.217 -14.250  12.586  1.00  0.00     0.000 C 
BRANCH   2   3
ATOM      3  C   UNL     1      16.111 -13.925  13.802  1.00  0.00     0.000 C 
BRANCH   3   4
ATOM      4  C   UNL     1      15.446 -12.932  14.772  1.00  0.00     0.000 C 
BRANCH   4   5
ATOM      5  C   UNL     1      14.602 -11.874  14.045  1.00  0.00     0.000 C 
BRANCH   5   6
ATOM      6  C   UNL     1      13.480 -11.303  14.930  1.00  0.00     0.000 C 
BRANCH   6   7
ATOM      7  C   UNL     1      13.468  -9.763  14.956  1.00  0.00     0.006 C 
BRANCH   7   8
ATOM      8  C   UNL     1      14.550  -9.111  14.079  1.00  0.00     0.053 C 
BRANCH   8   9
ATOM      9  C   UNL     1      15.465  -8.236  14.879  1.00  0.00     0.041 C 
ATOM     10  O   UNL     1      16.041  -7.258  14.334  1.00  0.00    -0.550 OA
ATOM     11  O   UNL     1      15.707  -8.523  16.217  1.00  0.00    -0.550 OA
ENDBRANCH   8   9
ENDBRANCH   7   8
ENDBRANCH   6   7
ENDBRANCH   5   6
ENDBRANCH   4   5
ENDBRANCH   3   4
ENDBRANCH   2   3
ENDBRANCH   1   2
BRANCH   1  12
ATOM     12  C   UNL     1      14.310 -16.486  11.614  1.00  0.00     0.000 C 
BRANCH  12  13
ATOM     13  C   UNL     1      13.967 -17.523  12.701  1.00  0.00    -0.000 C 
BRANCH  13  14
ATOM     14  C   UNL     1      14.913 -17.528  13.916  1.00  0.00    -0.000 C 
BRANCH  14  15
ATOM     15  C   UNL     1      14.181 -17.599  15.274  1.00  0.00    -0.000 C 
BRANCH  15  16
ATOM     16  C   UNL     1      14.222 -16.261  16.031  1.00  0.00    -0.000 C 
BRANCH  16  17
ATOM     17  C   UNL     1      12.836 -15.612  16.171  1.00  0.00    -0.000 C 
BRANCH  17  18
ATOM     18  C   UNL     1      12.336 -14.993  14.858  1.00  0.00    -0.000 C 
BRANCH  18  19
ATOM     19  C   UNL     1      11.011 -15.631  14.421  1.00  0.00    -0.003 C 
ATOM     20  C   UNL     1      10.855 -15.592  12.902  1.00  0.00     0.004 C 
ENDBRANCH  18  19
ENDBRANCH  17  18
ENDBRANCH  16  17
ENDBRANCH  15  16
ENDBRANCH  14  15
ENDBRANCH  13  14
ENDBRANCH  12  13
ENDBRANCH   1  12
TORSDOF 16
ENDMDL
MODEL 6
REMARK VINA RESULT:    -4.617      2.177      4.610
REMARK INTER + INTRA:         -10.861
REMARK INTER:                  -8.532
REMARK INTRA:                  -2.329
REMARK UNBOUND:                -1.925
REMARK SMILES CCCCCCCCCCCCCCCCCC(=O)[O-]
REMARK SMILES IDX 10 1 11 2 12 3 13 4 14 5 15 6 16 7 17 8 18 9 19 10 20 11
REMARK SMILES IDX 9 12 8 13 7 14 6 15 5 16 4 17 3 18 2 19 1 20
REMARK H PARENT
REMARK Flexibility Score: inf
ROOT
ATOM      1  C   UNL     1      12.487 -17.021  10.968  1.00  0.00     0.000 C 
ENDROOT
BRANCH   1   2
ATOM      2  C   UNL     1      11.267 -16.081  10.931  1.00  0.00     0.000 C 
BRANCH   2   3
ATOM      3  C   UNL     1      10.614 -15.849  12.311  1.00  0.00     0.000 C 
BRANCH   3   4
ATOM      4  C   UNL     1      11.655 -15.716  13.438  1.00  0.00     0.000 C 
BRANCH   4   5
ATOM      5  C   UNL     1      11.016 -15.386  14.794  1.00  0.00     0.000 C 
BRANCH   5   6
ATOM      6  C   UNL     1      12.058 -15.230  15.916  1.00  0.00     0.000 C 
BRANCH   6   7
ATOM      7  C   UNL     1      11.963 -13.869  16.630  1.00  0.00     0.006 C 
BRANCH   7   8
ATOM      8  C   UNL     1      11.397 -12.737  15.756  1.00  0.00     0.053 C 
BRANCH   8   9
ATOM      9  C   UNL     1      12.476 -11.839  15.237  1.00  0.00     0.041 C 
ATOM     10  O   UNL     1      12.296 -10.593  15.193  1.00  0.00    -0.550 OA
ATOM     11  O   UNL     1      13.666 -12.382  14.768  1.00  0.00    -0.550 OA
ENDBRANCH   8   9
ENDBRANCH   7   8
ENDBRANCH   6   7
ENDBRANCH   5   6
ENDBRANCH   4   5
ENDBRANCH   3   4
ENDBRANCH   2   3
ENDBRANCH   1   2
BRANCH   1  12
ATOM     12  C   UNL     1      13.591 -16.703   9.941  1.00  0.00     0.000 C 
BRANCH  12  13
ATOM     13  C   UNL     1      13.649 -15.232   9.484  1.00  0.00    -0.000 C 
BRANCH  13  14
ATOM     14  C   UNL     1      14.905 -14.462   9.932  1.00  0.00    -0.000 C 
BRANCH  14  15
ATOM     15  C   UNL     1      15.651 -15.122  11.112  1.00  0.00    -0.000 C 
BRANCH  15  16
ATOM     16  C   UNL     1      15.337 -14.441  12.455  1.00  0.00    -0.000 C 
BRANCH  16  17
ATOM     17  C   UNL     1      15.125 -15.446  13.598  1.00  0.00    -0.000 C 
BRANCH  17  18
ATOM     18  C   UNL     1      15.460 -16.888  13.189  1.00  0.00    -0.000 C 
BRANCH  18  19
ATOM     19  C   UNL     1      15.792 -17.744  14.418  1.00  0.00    -0.003 C 
ATOM     20  C   UNL     1      14.679 -17.667  15.461  1.00  0.00     0.004 C 
ENDBRANCH  18  19
ENDBRANCH  17  18
ENDBRANCH  16  17
ENDBRANCH  15  16
ENDBRANCH  14  15
ENDBRANCH  13  14
ENDBRANCH  12  13
ENDBRANCH   1  12
TORSDOF 16
ENDMDL
MODEL 7
REMARK VINA RESULT:    -4.566      4.196      6.791
REMARK INTER + INTRA:         -10.762
REMARK INTER:                  -8.426
REMARK INTRA:                  -2.336
REMARK UNBOUND:                -1.925
REMARK SMILES CCCCCCCCCCCCCCCCCC(=O)[O-]
REMARK SMILES IDX 10 1 11 2 12 3 13 4 14 5 15 6 16 7 17 8 18 9 19 10 20 11
REMARK SMILES IDX 9 12 8 13 7 14 6 15 5 16 4 17 3 18 2 19 1 20
REMARK H PARENT
REMARK Flexibility Score: inf
ROOT
ATOM      1  C   UNL     1      10.998 -15.311  13.545  1.00  0.00     0.000 C 
ENDROOT
BRANCH   1   2
ATOM      2  C   UNL     1      10.994 -16.246  12.320  1.00  0.00     0.000 C 
BRANCH   2   3
ATOM      3  C   UNL     1      10.829 -15.510  10.973  1.00  0.00     0.000 C 
BRANCH   3   4
ATOM      4  C   UNL     1      11.785 -16.044   9.891  1.00  0.00     0.000 C 
BRANCH   4   5
ATOM      5  C   UNL     1      11.513 -17.513   9.537  1.00  0.00     0.000 C 
BRANCH   5   6
ATOM      6  C   UNL     1      11.307 -17.730   8.027  1.00  0.00     0.000 C 
BRANCH   6   7
ATOM      7  C   UNL     1       9.824 -17.894   7.648  1.00  0.00     0.006 C 
BRANCH   7   8
ATOM      8  C   UNL     1       9.107 -16.573   7.322  1.00  0.00     0.053 C 
BRANCH   8   9
ATOM      9  C   UNL     1       9.167 -16.250   5.861  1.00  0.00     0.041 C 
ATOM     10  O   UNL     1       8.789 -17.098   5.010  1.00  0.00    -0.550 OA
ATOM     11  O   UNL     1       9.673 -15.027   5.440  1.00  0.00    -0.550 OA
ENDBRANCH   8   9
ENDBRANCH   7   8
ENDBRANCH   6   7
ENDBRANCH   5   6
ENDBRANCH   4   5
ENDBRANCH   3   4
ENDBRANCH   2   3
ENDBRANCH   1   2
BRANCH   1  12
ATOM     12  C   UNL     1      11.373 -15.982  14.881  1.00  0.00     0.000 C 
BRANCH  12  13
ATOM     13  C   UNL     1      12.530 -15.308  15.645  1.00  0.00    -0.000 C 
BRANCH  13  14
ATOM     14  C   UNL     1      13.622 -16.269  16.148  1.00  0.00    -0.000 C 
BRANCH  14  15
ATOM     15  C   UNL     1      13.614 -17.643  15.443  1.00  0.00    -0.000 C 
BRANCH  15  16
ATOM     16  C   UNL     1      14.762 -17.786  14.429  1.00  0.00    -0.000 C 
BRANCH  16  17
ATOM     17  C   UNL     1      14.307 -17.555  12.979  1.00  0.00    -0.000 C 
BRANCH  17  18
ATOM     18  C   UNL     1      15.139 -16.483  12.260  1.00  0.00    -0.000 C 
BRANCH  18  19
ATOM     19  C   UNL     1      14.595 -15.079  12.553  1.00  0.00    -0.003 C 
ATOM     20  C   UNL     1      15.541 -14.299  13.463  1.00  0.00     0.004 C 
ENDBRANCH  18  19
ENDBRANCH  17  18
ENDBRANCH  16  17
ENDBRANCH  15  16
ENDBRANCH  14  15
ENDBRANCH  13  14
ENDBRANCH  12  13
ENDBRANCH   1  12
TORSDOF 16
ENDMDL
MODEL 8
REMARK VINA RESULT:    -4.529      2.499      5.873
REMARK INTER + INTRA:         -10.691
REMARK INTER:                  -8.201
REMARK INTRA:                  -2.490
REMARK UNBOUND:                -1.925
REMARK SMILES CCCCCCCCCCCCCCCCCC(=O)[O-]
REMARK SMILES IDX 10 1 11 2 12 3 13 4 14 5 15 6 16 7 17 8 18 9 19 10 20 11
REMARK SMILES IDX 9 12 8 13 7 14 6 15 5 16 4 17 3 18 2 19 1 20
REMARK H PARENT
REMARK Flexibility Score: inf
ROOT
ATOM      1  C   UNL     1      14.687 -13.507  14.151  1.00  0.00     0.000 C 
ENDROOT
BRANCH   1   2
ATOM      2  C   UNL     1      16.141 -13.830  13.757  1.00  0.00     0.000 C 
BRANCH   2   3
ATOM      3  C   UNL     1      16.264 -14.840  12.596  1.00  0.00     0.000 C 
BRANCH   3   4
ATOM      4  C   UNL     1      14.893 -15.317  12.084  1.00  0.00     0.000 C 
BRANCH   4   5
ATOM      5  C   UNL     1      14.879 -16.815  11.746  1.00  0.00     0.000 C 
BRANCH   5   6
ATOM      6  C   UNL     1      13.455 -17.357  11.524  1.00  0.00     0.000 C 
BRANCH   6   7
ATOM      7  C   UNL     1      12.382 -16.255  11.596  1.00  0.00     0.006 C 
BRANCH   7   8
ATOM      8  C   UNL     1      11.377 -16.278  10.432  1.00  0.00     0.053 C 
BRANCH   8   9
ATOM      9  C   UNL     1      11.997 -15.821   9.149  1.00  0.00     0.041 C 
ATOM     10  O   UNL     1      11.701 -16.389   8.065  1.00  0.00    -0.550 OA
ATOM     11  O   UNL     1      12.929 -14.790   9.156  1.00  0.00    -0.550 OA
ENDBRANCH   8   9
ENDBRANCH   7   8
ENDBRANCH   6   7
ENDBRANCH   5   6
ENDBRANCH   4   5
ENDBRANCH   3   4
ENDBRANCH   2   3
ENDBRANCH   1   2
BRANCH   1  12
ATOM     12  C   UNL     1      14.391 -12.015  14.400  1.00  0.00     0.000 C 
BRANCH  12  13
ATOM     13  C   UNL     1      13.100 -11.732  15.191  1.00  0.00    -0.000 C 
BRANCH  13  14
ATOM     14  C   UNL     1      11.942 -12.710  14.918  1.00  0.00    -0.000 C 
BRANCH  14  15
ATOM     15  C   UNL     1      11.577 -13.595  16.130  1.00  0.00    -0.000 C 
BRANCH  15  16
ATOM     16  C   UNL     1      11.060 -14.981  15.706  1.00  0.00    -0.000 C 
BRANCH  16  17
ATOM     17  C   UNL     1      12.192 -15.949  15.326  1.00  0.00    -0.000 C 
BRANCH  17  18
ATOM     18  C   UNL     1      13.299 -16.013  16.389  1.00  0.00    -0.000 C 
BRANCH  18  19
ATOM     19  C   UNL     1      14.485 -16.850  15.896  1.00  0.00    -0.003 C 
ATOM     20  C   UNL     1      14.013 -18.026  15.043  1.00  0.00     0.004 C 
ENDBRANCH  18  19
ENDBRANCH  17  18
ENDBRANCH  16  17
ENDBRANCH  15  16
ENDBRANCH  14  15
ENDBRANCH  13  14
ENDBRANCH  12  13
ENDBRANCH   1  12
TORSDOF 16
ENDMDL
MODEL 9
REMARK VINA RESULT:    -4.511      4.183      7.001
REMARK INTER + INTRA:         -10.657
REMARK INTER:                  -8.542
REMARK INTRA:                  -2.114
REMARK UNBOUND:                -1.925
REMARK SMILES CCCCCCCCCCCCCCCCCC(=O)[O-]
REMARK SMILES IDX 10 1 11 2 12 3 13 4 14 5 15 6 16 7 17 8 18 9 19 10 20 11
REMARK SMILES IDX 9 12 8 13 7 14 6 15 5 16 4 17 3 18 2 19 1 20
REMARK H PARENT
REMARK Flexibility Score: inf
ROOT
ATOM      1  C   UNL     1      10.649 -15.562  12.623  1.00  0.00     0.000 C 
ENDROOT
BRANCH   1   2
ATOM      2  C   UNL     1      11.080 -16.109  11.249  1.00  0.00     0.000 C 
BRANCH   2   3
ATOM      3  C   UNL     1      12.603 -16.332  11.115  1.00  0.00     0.000 C 
BRANCH   3   4
ATOM      4  C   UNL     1      12.942 -17.588  10.291  1.00  0.00     0.000 C 
BRANCH   4   5
ATOM      5  C   UNL     1      11.762 -18.065   9.432  1.00  0.00     0.000 C 
BRANCH   5   6
ATOM      6  C   UNL     1      11.987 -17.817   7.929  1.00  0.00     0.000 C 
BRANCH   6   7
ATOM      7  C   UNL     1      11.379 -16.486   7.449  1.00  0.00     0.006 C 
BRANCH   7   8
ATOM      8  C   UNL     1       9.872 -16.347   7.723  1.00  0.00     0.053 C 
BRANCH   8   9
ATOM      9  C   UNL     1       9.054 -16.611   6.497  1.00  0.00     0.041 C 
ATOM     10  O   UNL     1       8.493 -15.658   5.894  1.00  0.00    -0.550 OA
ATOM     11  O   UNL     1       8.884 -17.912   6.042  1.00  0.00    -0.550 OA
ENDBRANCH   8   9
ENDBRANCH   7   8
ENDBRANCH   6   7
ENDBRANCH   5   6
ENDBRANCH   4   5
ENDBRANCH   3   4
ENDBRANCH   2   3
ENDBRANCH   1   2
BRANCH   1  12
ATOM     12  C   UNL     1      11.333 -16.223  13.836  1.00  0.00     0.000 C 
BRANCH  12  13
ATOM     13  C   UNL     1      11.161 -15.470  15.170  1.00  0.00    -0.000 C 
BRANCH  13  14
ATOM     14  C   UNL     1      12.473 -14.985  15.815  1.00  0.00    -0.000 C 
BRANCH  14  15
ATOM     15  C   UNL     1      13.128 -13.798  15.076  1.00  0.00    -0.000 C 
BRANCH  15  16
ATOM     16  C   UNL     1      14.606 -14.061  14.743  1.00  0.00    -0.000 C 
BRANCH  16  17
ATOM     17  C   UNL     1      14.788 -15.082  13.608  1.00  0.00    -0.000 C 
BRANCH  17  18
ATOM     18  C   UNL     1      15.875 -16.123  13.916  1.00  0.00    -0.000 C 
BRANCH  18  19
ATOM     19  C   UNL     1      15.317 -17.547  13.805  1.00  0.00    -0.003 C 
ATOM     20  C   UNL     1      14.454 -17.897  15.014  1.00  0.00     0.004 C 
ENDBRANCH  18  19
ENDBRANCH  17  18
ENDBRANCH  16  17
ENDBRANCH  15  16
ENDBRANCH  14  15
ENDBRANCH  13  14
ENDBRANCH  12  13
ENDBRANCH   1  12
TORSDOF 16
ENDMDL
