MODEL 1
REMARK VINA RESULT:    -7.470      0.000      0.000
REMARK INTER + INTRA:         -11.075
REMARK INTER:                  -9.872
REMARK INTRA:                  -1.203
REMARK UNBOUND:                -1.203
REMARK SMILES CC[C@H](C=C[C@@H](C)[C@H]1CC[C@H]2[C@@H]3CC=C4C[C@H](O)CC[C@]4(C)[C@@H]3CC[C@]12C)C(C)C
REMARK SMILES IDX 6 1 7 2 5 3 4 4 3 5 2 6 1 7 28 8 29 9 30 10 8 11 9 12 26 13
REMARK SMILES IDX 10 14 11 15 25 16 27 17 12 18 24 19 23 20 13 21 21 22 14 23
REMARK SMILES IDX 15 24 20 25 22 26 16 27 19 28 17 29 18 30
REMARK H PARENT 18 31
REMARK Flexibility Score: inf
ROOT
ATOM      1  C   UNL     1      20.919   1.982 -17.465  1.00  0.00     0.012 C 
ATOM      2  C   UNL     1      19.883   2.841 -16.725  1.00  0.00     0.012 C 
ENDROOT
BRANCH   1   3
ATOM      3  C   UNL     1      22.247   1.825 -16.721  1.00  0.00    -0.028 C 
ATOM      4  C   UNL     1      22.816   0.725 -16.168  1.00  0.00    -0.027 C 
BRANCH   4   5
ATOM      5  C   UNL     1      22.260  -0.689 -16.091  1.00  0.00     0.014 C 
BRANCH   5   6
ATOM      6  C   UNL     1      22.802  -1.410 -14.827  1.00  0.00     0.004 C 
ATOM      7  C   UNL     1      24.245  -1.049 -14.490  1.00  0.00     0.004 C 
ENDBRANCH   5   6
BRANCH   5   8
ATOM      8  C   UNL     1      20.693  -0.654 -16.106  1.00  0.00    -0.011 C 
ATOM      9  C   UNL     1      20.099  -1.967 -16.644  1.00  0.00     0.008 C 
ATOM     10  C   UNL     1      20.055  -0.306 -14.748  1.00  0.00     0.008 C 
ENDBRANCH   5   8
ENDBRANCH   4   5
ENDBRANCH   1   3
BRANCH   1  11
ATOM     11  C   UNL     1      20.998   2.320 -18.994  1.00  0.00     0.002 C 
ATOM     12  C   UNL     1      22.394   2.555 -19.598  1.00  0.00     0.005 C 
ATOM     13  C   UNL     1      20.358   1.284 -19.957  1.00  0.00    -0.026 C 
ATOM     14  C   UNL     1      22.270   2.257 -21.102  1.00  0.00     0.005 C 
ATOM     15  C   UNL     1      20.807   1.854 -21.309  1.00  0.00    -0.001 C 
ATOM     16  C   UNL     1      18.805   1.254 -19.919  1.00  0.00     0.007 C 
ATOM     17  C   UNL     1      20.930  -0.146 -19.686  1.00  0.00     0.012 C 
ATOM     18  C   UNL     1      20.470   0.925 -22.502  1.00  0.00     0.000 C 
ATOM     19  C   UNL     1      18.143   1.122 -21.319  1.00  0.00     0.005 C 
ATOM     20  C   UNL     1      18.991   0.345 -22.382  1.00  0.00     0.003 C 
ATOM     21  C   UNL     1      20.773   1.654 -23.844  1.00  0.00     0.031 C 
ATOM     22  C   UNL     1      18.275   0.207 -23.787  1.00  0.00    -0.008 C 
ATOM     23  C   UNL     1      19.551   2.220 -24.501  1.00  0.00    -0.027 C 
ATOM     24  C   UNL     1      18.408   1.518 -24.555  1.00  0.00    -0.065 C 
ATOM     25  C   UNL     1      16.755  -0.129 -23.652  1.00  0.00     0.014 C 
ATOM     26  C   UNL     1      18.943  -0.948 -24.585  1.00  0.00     0.016 C 
ATOM     27  C   UNL     1      17.209   2.095 -25.278  1.00  0.00     0.063 C 
ATOM     28  C   UNL     1      16.018  -0.174 -25.006  1.00  0.00     0.033 C 
ATOM     29  C   UNL     1      16.414   0.978 -25.970  1.00  0.00     0.118 C 
BRANCH  29  30
ATOM     30  O   UNL     1      15.267   1.532 -26.559  1.00  0.00    -0.393 OA
ATOM     31  H   UNL     1      15.209   1.162 -27.478  1.00  0.00     0.210 HD
ENDBRANCH  29  30
ENDBRANCH   1  11
TORSDOF 6
ENDMDL
MODEL 2
REMARK VINA RESULT:    -6.908      1.585      1.950
REMARK INTER + INTRA:         -10.333
REMARK INTER:                  -8.734
REMARK INTRA:                  -1.599
REMARK UNBOUND:                -1.203
REMARK SMILES CC[C@H](C=C[C@@H](C)[C@H]1CC[C@H]2[C@@H]3CC=C4C[C@H](O)CC[C@]4(C)[C@@H]3CC[C@]12C)C(C)C
REMARK SMILES IDX 6 1 7 2 5 3 4 4 3 5 2 6 1 7 28 8 29 9 30 10 8 11 9 12 26 13
REMARK SMILES IDX 10 14 11 15 25 16 27 17 12 18 24 19 23 20 13 21 21 22 14 23
REMARK SMILES IDX 15 24 20 25 22 26 16 27 19 28 17 29 18 30
REMARK H PARENT 18 31
REMARK Flexibility Score: inf
ROOT
ATOM      1  C   UNL     1      19.567   1.595 -17.287  1.00  0.00     0.012 C 
ATOM      2  C   UNL     1      18.040   1.625 -17.130  1.00  0.00     0.012 C 
ENDROOT
BRANCH   1   3
ATOM      3  C   UNL     1      20.333   2.038 -16.039  1.00  0.00    -0.028 C 
ATOM      4  C   UNL     1      21.385   1.461 -15.406  1.00  0.00    -0.027 C 
BRANCH   4   5
ATOM      5  C   UNL     1      22.091   0.157 -15.743  1.00  0.00     0.014 C 
BRANCH   5   6
ATOM      6  C   UNL     1      23.543   0.175 -15.192  1.00  0.00     0.004 C 
ATOM      7  C   UNL     1      24.033   1.569 -14.809  1.00  0.00     0.004 C 
ENDBRANCH   5   6
BRANCH   5   8
ATOM      8  C   UNL     1      21.277  -1.058 -15.179  1.00  0.00    -0.011 C 
ATOM      9  C   UNL     1      20.446  -1.745 -16.275  1.00  0.00     0.008 C 
ATOM     10  C   UNL     1      22.132  -2.103 -14.436  1.00  0.00     0.008 C 
ENDBRANCH   5   8
ENDBRANCH   4   5
ENDBRANCH   1   3
BRANCH   1  11
ATOM     11  C   UNL     1      20.043   2.187 -18.659  1.00  0.00     0.002 C 
ATOM     12  C   UNL     1      21.318   3.050 -18.656  1.00  0.00     0.005 C 
ATOM     13  C   UNL     1      20.305   1.160 -19.793  1.00  0.00    -0.026 C 
ATOM     14  C   UNL     1      21.888   2.982 -20.083  1.00  0.00     0.005 C 
ATOM     15  C   UNL     1      20.924   2.078 -20.855  1.00  0.00    -0.001 C 
ATOM     16  C   UNL     1      19.019   0.515 -20.378  1.00  0.00     0.007 C 
ATOM     17  C   UNL     1      21.291   0.046 -19.310  1.00  0.00     0.012 C 
ATOM     18  C   UNL     1      21.475   1.305 -22.080  1.00  0.00     0.000 C 
ATOM     19  C   UNL     1      19.035   0.370 -21.925  1.00  0.00     0.005 C 
ATOM     20  C   UNL     1      20.455   0.179 -22.558  1.00  0.00     0.003 C 
ATOM     21  C   UNL     1      21.901   2.307 -23.192  1.00  0.00     0.031 C 
ATOM     22  C   UNL     1      20.431   0.008 -24.132  1.00  0.00    -0.008 C 
ATOM     23  C   UNL     1      20.886   2.448 -24.284  1.00  0.00    -0.027 C 
ATOM     24  C   UNL     1      20.259   1.373 -24.788  1.00  0.00    -0.065 C 
ATOM     25  C   UNL     1      19.267  -0.918 -24.614  1.00  0.00     0.014 C 
ATOM     26  C   UNL     1      21.767  -0.641 -24.591  1.00  0.00     0.016 C 
ATOM     27  C   UNL     1      19.282   1.544 -25.932  1.00  0.00     0.063 C 
ATOM     28  C   UNL     1      19.167  -1.021 -26.149  1.00  0.00     0.033 C 
ATOM     29  C   UNL     1      19.353   0.337 -26.880  1.00  0.00     0.118 C 
BRANCH  29  30
ATOM     30  O   UNL     1      18.379   0.485 -27.880  1.00  0.00    -0.393 OA
ATOM     31  H   UNL     1      17.769  -0.293 -27.804  1.00  0.00     0.210 HD
ENDBRANCH  29  30
ENDBRANCH   1  11
TORSDOF 6
ENDMDL
MODEL 3
REMARK VINA RESULT:    -6.890      3.014      8.606
REMARK INTER + INTRA:         -10.308
REMARK INTER:                  -9.046
REMARK INTRA:                  -1.263
REMARK UNBOUND:                -1.203
REMARK SMILES CC[C@H](C=C[C@@H](C)[C@H]1CC[C@H]2[C@@H]3CC=C4C[C@H](O)CC[C@]4(C)[C@@H]3CC[C@]12C)C(C)C
REMARK SMILES IDX 6 1 7 2 5 3 4 4 3 5 2 6 1 7 28 8 29 9 30 10 8 11 9 12 26 13
REMARK SMILES IDX 10 14 11 15 25 16 27 17 12 18 24 19 23 20 13 21 21 22 14 23
REMARK SMILES IDX 15 24 20 25 22 26 16 27 19 28 17 29 18 30
REMARK H PARENT 18 31
REMARK Flexibility Score: inf
ROOT
ATOM      1  C   UNL     1      19.750   0.602 -24.274  1.00  0.00     0.012 C 
ATOM      2  C   UNL     1      20.037  -0.883 -24.539  1.00  0.00     0.012 C 
ENDROOT
BRANCH   1   3
ATOM      3  C   UNL     1      19.793   1.480 -25.526  1.00  0.00    -0.028 C 
ATOM      4  C   UNL     1      18.855   1.688 -26.484  1.00  0.00    -0.027 C 
BRANCH   4   5
ATOM      5  C   UNL     1      17.476   1.056 -26.607  1.00  0.00     0.014 C 
BRANCH   5   6
ATOM      6  C   UNL     1      17.606  -0.441 -26.998  1.00  0.00     0.004 C 
ATOM      7  C   UNL     1      18.459  -0.676 -28.241  1.00  0.00     0.004 C 
ENDBRANCH   5   6
BRANCH   5   8
ATOM      8  C   UNL     1      16.679   1.235 -25.269  1.00  0.00    -0.011 C 
ATOM      9  C   UNL     1      15.580   2.302 -25.399  1.00  0.00     0.008 C 
ATOM     10  C   UNL     1      16.081  -0.070 -24.710  1.00  0.00     0.008 C 
ENDBRANCH   5   8
ENDBRANCH   4   5
ENDBRANCH   1   3
BRANCH   1  11
ATOM     11  C   UNL     1      20.495   1.142 -23.004  1.00  0.00     0.002 C 
ATOM     12  C   UNL     1      20.781   2.652 -22.936  1.00  0.00     0.005 C 
ATOM     13  C   UNL     1      19.821   0.840 -21.638  1.00  0.00    -0.026 C 
ATOM     14  C   UNL     1      20.925   2.998 -21.444  1.00  0.00     0.005 C 
ATOM     15  C   UNL     1      20.710   1.674 -20.705  1.00  0.00    -0.001 C 
ATOM     16  C   UNL     1      19.901  -0.649 -21.203  1.00  0.00     0.007 C 
ATOM     17  C   UNL     1      18.333   1.320 -21.640  1.00  0.00     0.012 C 
ATOM     18  C   UNL     1      20.180   1.731 -19.251  1.00  0.00     0.000 C 
ATOM     19  C   UNL     1      20.217  -0.849 -19.695  1.00  0.00     0.005 C 
ATOM     20  C   UNL     1      19.704   0.294 -18.753  1.00  0.00     0.003 C 
ATOM     21  C   UNL     1      21.229   2.421 -18.330  1.00  0.00     0.031 C 
ATOM     22  C   UNL     1      20.020   0.045 -17.222  1.00  0.00    -0.008 C 
ATOM     23  C   UNL     1      22.048   1.452 -17.534  1.00  0.00    -0.027 C 
ATOM     24  C   UNL     1      21.479   0.390 -16.942  1.00  0.00    -0.065 C 
ATOM     25  C   UNL     1      19.777  -1.440 -16.797  1.00  0.00     0.014 C 
ATOM     26  C   UNL     1      19.086   0.940 -16.360  1.00  0.00     0.016 C 
ATOM     27  C   UNL     1      22.325  -0.538 -16.095  1.00  0.00     0.063 C 
ATOM     28  C   UNL     1      20.169  -1.726 -15.334  1.00  0.00     0.033 C 
ATOM     29  C   UNL     1      21.510  -1.068 -14.906  1.00  0.00     0.118 C 
BRANCH  29  30
ATOM     30  O   UNL     1      22.294  -1.987 -14.191  1.00  0.00    -0.393 OA
ATOM     31  H   UNL     1      22.954  -1.458 -13.672  1.00  0.00     0.210 HD
ENDBRANCH  29  30
ENDBRANCH   1  11
TORSDOF 6
ENDMDL
MODEL 4
REMARK VINA RESULT:    -6.510      3.198      8.391
REMARK INTER + INTRA:          -9.807
REMARK INTER:                  -9.221
REMARK INTRA:                  -0.586
REMARK UNBOUND:                -1.203
REMARK SMILES CC[C@H](C=C[C@@H](C)[C@H]1CC[C@H]2[C@@H]3CC=C4C[C@H](O)CC[C@]4(C)[C@@H]3CC[C@]12C)C(C)C
REMARK SMILES IDX 6 1 7 2 5 3 4 4 3 5 2 6 1 7 28 8 29 9 30 10 8 11 9 12 26 13
REMARK SMILES IDX 10 14 11 15 25 16 27 17 12 18 24 19 23 20 13 21 21 22 14 23
REMARK SMILES IDX 15 24 20 25 22 26 16 27 19 28 17 29 18 30
REMARK H PARENT 18 31
REMARK Flexibility Score: inf
ROOT
ATOM      1  C   UNL     1      19.541   0.736 -24.228  1.00  0.00     0.012 C 
ATOM      2  C   UNL     1      18.707   1.851 -24.876  1.00  0.00     0.012 C 
ENDROOT
BRANCH   1   3
ATOM      3  C   UNL     1      18.798  -0.592 -24.076  1.00  0.00    -0.028 C 
ATOM      4  C   UNL     1      19.025  -1.795 -24.661  1.00  0.00    -0.027 C 
BRANCH   4   5
ATOM      5  C   UNL     1      20.083  -2.160 -25.691  1.00  0.00     0.014 C 
BRANCH   5   6
ATOM      6  C   UNL     1      20.192  -3.703 -25.824  1.00  0.00     0.004 C 
ATOM      7  C   UNL     1      19.210  -4.463 -24.937  1.00  0.00     0.004 C 
ENDBRANCH   5   6
BRANCH   5   8
ATOM      8  C   UNL     1      19.750  -1.486 -27.067  1.00  0.00    -0.011 C 
ATOM      9  C   UNL     1      20.678  -0.295 -27.356  1.00  0.00     0.008 C 
ATOM     10  C   UNL     1      19.753  -2.457 -28.264  1.00  0.00     0.008 C 
ENDBRANCH   5   8
ENDBRANCH   4   5
ENDBRANCH   1   3
BRANCH   1  11
ATOM     11  C   UNL     1      20.357   1.239 -22.987  1.00  0.00     0.002 C 
ATOM     12  C   UNL     1      20.690   2.740 -22.917  1.00  0.00     0.005 C 
ATOM     13  C   UNL     1      19.736   0.941 -21.595  1.00  0.00    -0.026 C 
ATOM     14  C   UNL     1      20.910   3.065 -21.429  1.00  0.00     0.005 C 
ATOM     15  C   UNL     1      20.689   1.739 -20.695  1.00  0.00    -0.001 C 
ATOM     16  C   UNL     1      19.792  -0.554 -21.179  1.00  0.00     0.007 C 
ATOM     17  C   UNL     1      18.264   1.464 -21.526  1.00  0.00     0.012 C 
ATOM     18  C   UNL     1      20.226   1.794 -19.218  1.00  0.00     0.000 C 
ATOM     19  C   UNL     1      20.168  -0.780 -19.689  1.00  0.00     0.005 C 
ATOM     20  C   UNL     1      19.732   0.366 -18.714  1.00  0.00     0.003 C 
ATOM     21  C   UNL     1      21.335   2.443 -18.338  1.00  0.00     0.031 C 
ATOM     22  C   UNL     1      20.108   0.090 -17.201  1.00  0.00    -0.008 C 
ATOM     23  C   UNL     1      22.160   1.442 -17.590  1.00  0.00    -0.027 C 
ATOM     24  C   UNL     1      21.587   0.389 -16.984  1.00  0.00    -0.065 C 
ATOM     25  C   UNL     1      19.841  -1.392 -16.781  1.00  0.00     0.014 C 
ATOM     26  C   UNL     1      19.239   1.001 -16.289  1.00  0.00     0.016 C 
ATOM     27  C   UNL     1      22.443  -0.572 -16.185  1.00  0.00     0.063 C 
ATOM     28  C   UNL     1      20.289  -1.706 -15.340  1.00  0.00     0.033 C 
ATOM     29  C   UNL     1      21.667  -1.092 -14.966  1.00  0.00     0.118 C 
BRANCH  29  30
ATOM     30  O   UNL     1      22.454  -2.041 -14.296  1.00  0.00    -0.393 OA
ATOM     31  H   UNL     1      21.957  -2.899 -14.327  1.00  0.00     0.210 HD
ENDBRANCH  29  30
ENDBRANCH   1  11
TORSDOF 6
ENDMDL
MODEL 5
REMARK VINA RESULT:    -6.399      3.305      8.740
REMARK INTER + INTRA:          -9.660
REMARK INTER:                  -8.262
REMARK INTRA:                  -1.397
REMARK UNBOUND:                -1.203
REMARK SMILES CC[C@H](C=C[C@@H](C)[C@H]1CC[C@H]2[C@@H]3CC=C4C[C@H](O)CC[C@]4(C)[C@@H]3CC[C@]12C)C(C)C
REMARK SMILES IDX 6 1 7 2 5 3 4 4 3 5 2 6 1 7 28 8 29 9 30 10 8 11 9 12 26 13
REMARK SMILES IDX 10 14 11 15 25 16 27 17 12 18 24 19 23 20 13 21 21 22 14 23
REMARK SMILES IDX 15 24 20 25 22 26 16 27 19 28 17 29 18 30
REMARK H PARENT 18 31
REMARK Flexibility Score: inf
ROOT
ATOM      1  C   UNL     1      19.095   0.044 -24.164  1.00  0.00     0.012 C 
ATOM      2  C   UNL     1      19.334  -1.443 -24.462  1.00  0.00     0.012 C 
ENDROOT
BRANCH   1   3
ATOM      3  C   UNL     1      18.914   0.910 -25.412  1.00  0.00    -0.028 C 
ATOM      4  C   UNL     1      19.532   0.849 -26.618  1.00  0.00    -0.027 C 
BRANCH   4   5
ATOM      5  C   UNL     1      20.637  -0.096 -27.067  1.00  0.00     0.014 C 
BRANCH   5   6
ATOM      6  C   UNL     1      20.505  -0.392 -28.585  1.00  0.00     0.004 C 
ATOM      7  C   UNL     1      19.076  -0.276 -29.108  1.00  0.00     0.004 C 
ENDBRANCH   5   6
BRANCH   5   8
ATOM      8  C   UNL     1      22.039   0.511 -26.719  1.00  0.00    -0.011 C 
ATOM      9  C   UNL     1      21.989   2.046 -26.630  1.00  0.00     0.008 C 
ATOM     10  C   UNL     1      22.681  -0.068 -25.443  1.00  0.00     0.008 C 
ENDBRANCH   5   8
ENDBRANCH   4   5
ENDBRANCH   1   3
BRANCH   1  11
ATOM     11  C   UNL     1      20.050   0.596 -23.050  1.00  0.00     0.002 C 
ATOM     12  C   UNL     1      20.515   2.058 -23.173  1.00  0.00     0.005 C 
ATOM     13  C   UNL     1      19.523   0.506 -21.592  1.00  0.00    -0.026 C 
ATOM     14  C   UNL     1      20.884   2.515 -21.751  1.00  0.00     0.005 C 
ATOM     15  C   UNL     1      20.612   1.301 -20.859  1.00  0.00    -0.001 C 
ATOM     16  C   UNL     1      19.485  -0.936 -21.016  1.00  0.00     0.007 C 
ATOM     17  C   UNL     1      18.112   1.169 -21.475  1.00  0.00     0.012 C 
ATOM     18  C   UNL     1      20.279   1.555 -19.367  1.00  0.00     0.000 C 
ATOM     19  C   UNL     1      19.962  -1.038 -19.541  1.00  0.00     0.005 C 
ATOM     20  C   UNL     1      19.707   0.241 -18.672  1.00  0.00     0.003 C 
ATOM     21  C   UNL     1      21.508   2.185 -18.649  1.00  0.00     0.031 C 
ATOM     22  C   UNL     1      20.182   0.091 -17.169  1.00  0.00    -0.008 C 
ATOM     23  C   UNL     1      22.303   1.195 -17.854  1.00  0.00    -0.027 C 
ATOM     24  C   UNL     1      21.694   0.272 -17.094  1.00  0.00    -0.065 C 
ATOM     25  C   UNL     1      19.824  -1.306 -16.566  1.00  0.00     0.014 C 
ATOM     26  C   UNL     1      19.472   1.172 -16.305  1.00  0.00     0.016 C 
ATOM     27  C   UNL     1      22.527  -0.677 -16.257  1.00  0.00     0.063 C 
ATOM     28  C   UNL     1      20.361  -1.507 -15.135  1.00  0.00     0.033 C 
ATOM     29  C   UNL     1      21.812  -0.990 -14.934  1.00  0.00     0.118 C 
BRANCH  29  30
ATOM     30  O   UNL     1      22.567  -1.933 -14.220  1.00  0.00    -0.393 OA
ATOM     31  H   UNL     1      22.834  -2.636 -14.867  1.00  0.00     0.210 HD
ENDBRANCH  29  30
ENDBRANCH   1  11
TORSDOF 6
ENDMDL
MODEL 6
REMARK VINA RESULT:    -6.322      2.864      8.169
REMARK INTER + INTRA:          -9.558
REMARK INTER:                  -8.785
REMARK INTRA:                  -0.773
REMARK UNBOUND:                -1.203
REMARK SMILES CC[C@H](C=C[C@@H](C)[C@H]1CC[C@H]2[C@@H]3CC=C4C[C@H](O)CC[C@]4(C)[C@@H]3CC[C@]12C)C(C)C
REMARK SMILES IDX 6 1 7 2 5 3 4 4 3 5 2 6 1 7 28 8 29 9 30 10 8 11 9 12 26 13
REMARK SMILES IDX 10 14 11 15 25 16 27 17 12 18 24 19 23 20 13 21 21 22 14 23
REMARK SMILES IDX 15 24 20 25 22 26 16 27 19 28 17 29 18 30
REMARK H PARENT 18 31
REMARK Flexibility Score: inf
ROOT
ATOM      1  C   UNL     1      21.288   1.040 -24.569  1.00  0.00     0.012 C 
ATOM      2  C   UNL     1      22.251   0.420 -25.592  1.00  0.00     0.012 C 
ENDROOT
BRANCH   1   3
ATOM      3  C   UNL     1      20.418   2.166 -25.130  1.00  0.00    -0.028 C 
ATOM      4  C   UNL     1      19.080   2.216 -25.344  1.00  0.00    -0.027 C 
BRANCH   4   5
ATOM      5  C   UNL     1      18.046   1.122 -25.120  1.00  0.00     0.014 C 
BRANCH   5   6
ATOM      6  C   UNL     1      17.000   1.582 -24.070  1.00  0.00     0.004 C 
ATOM      7  C   UNL     1      16.850   0.620 -22.895  1.00  0.00     0.004 C 
ENDBRANCH   5   6
BRANCH   5   8
ATOM      8  C   UNL     1      17.367   0.736 -26.479  1.00  0.00    -0.011 C 
ATOM      9  C   UNL     1      18.245  -0.220 -27.303  1.00  0.00     0.008 C 
ATOM     10  C   UNL     1      15.948   0.153 -26.333  1.00  0.00     0.008 C 
ENDBRANCH   5   8
ENDBRANCH   4   5
ENDBRANCH   1   3
BRANCH   1  11
ATOM     11  C   UNL     1      21.970   1.295 -23.180  1.00  0.00     0.002 C 
ATOM     12  C   UNL     1      22.984   2.450 -23.088  1.00  0.00     0.005 C 
ATOM     13  C   UNL     1      21.013   1.560 -21.987  1.00  0.00    -0.026 C 
ATOM     14  C   UNL     1      23.024   2.873 -21.609  1.00  0.00     0.005 C 
ATOM     15  C   UNL     1      22.027   1.950 -20.904  1.00  0.00    -0.001 C 
ATOM     16  C   UNL     1      20.229   0.307 -21.509  1.00  0.00     0.007 C 
ATOM     17  C   UNL     1      20.018   2.718 -22.326  1.00  0.00     0.012 C 
ATOM     18  C   UNL     1      21.360   2.460 -19.602  1.00  0.00     0.000 C 
ATOM     19  C   UNL     1      20.126   0.179 -19.964  1.00  0.00     0.005 C 
ATOM     20  C   UNL     1      20.129   1.539 -19.185  1.00  0.00     0.003 C 
ATOM     21  C   UNL     1      22.436   2.644 -18.491  1.00  0.00     0.031 C 
ATOM     22  C   UNL     1      19.997   1.372 -17.616  1.00  0.00    -0.008 C 
ATOM     23  C   UNL     1      22.478   1.511 -17.512  1.00  0.00    -0.027 C 
ATOM     24  C   UNL     1      21.347   0.969 -17.033  1.00  0.00    -0.065 C 
ATOM     25  C   UNL     1      18.947   0.284 -17.218  1.00  0.00     0.014 C 
ATOM     26  C   UNL     1      19.531   2.722 -17.001  1.00  0.00     0.016 C 
ATOM     27  C   UNL     1      21.424  -0.135 -16.000  1.00  0.00     0.063 C 
ATOM     28  C   UNL     1      18.871   0.039 -15.698  1.00  0.00     0.033 C 
ATOM     29  C   UNL     1      20.260  -0.018 -15.005  1.00  0.00     0.118 C 
BRANCH  29  30
ATOM     30  O   UNL     1      20.312  -1.101 -14.113  1.00  0.00    -0.393 OA
ATOM     31  H   UNL     1      20.645  -1.881 -14.629  1.00  0.00     0.210 HD
ENDBRANCH  29  30
ENDBRANCH   1  11
TORSDOF 6
ENDMDL
MODEL 7
REMARK VINA RESULT:    -6.203     14.673     16.797
REMARK INTER + INTRA:          -9.401
REMARK INTER:                  -8.136
REMARK INTRA:                  -1.265
REMARK UNBOUND:                -1.203
REMARK SMILES CC[C@H](C=C[C@@H](C)[C@H]1CC[C@H]2[C@@H]3CC=C4C[C@H](O)CC[C@]4(C)[C@@H]3CC[C@]12C)C(C)C
REMARK SMILES IDX 6 1 7 2 5 3 4 4 3 5 2 6 1 7 28 8 29 9 30 10 8 11 9 12 26 13
REMARK SMILES IDX 10 14 11 15 25 16 27 17 12 18 24 19 23 20 13 21 21 22 14 23
REMARK SMILES IDX 15 24 20 25 22 26 16 27 19 28 17 29 18 30
REMARK H PARENT 18 31
REMARK Flexibility Score: inf
ROOT
ATOM      1  C   UNL     1      22.019 -13.204 -25.317  1.00  0.00     0.012 C 
ATOM      2  C   UNL     1      22.583 -12.655 -23.998  1.00  0.00     0.012 C 
ENDROOT
BRANCH   1   3
ATOM      3  C   UNL     1      22.943 -13.007 -26.521  1.00  0.00    -0.028 C 
ATOM      4  C   UNL     1      24.199 -13.467 -26.746  1.00  0.00    -0.027 C 
BRANCH   4   5
ATOM      5  C   UNL     1      25.083 -14.292 -25.822  1.00  0.00     0.014 C 
BRANCH   5   6
ATOM      6  C   UNL     1      25.335 -15.695 -26.435  1.00  0.00     0.004 C 
ATOM      7  C   UNL     1      24.092 -16.580 -26.469  1.00  0.00     0.004 C 
ENDBRANCH   5   6
BRANCH   5   8
ATOM      8  C   UNL     1      26.427 -13.535 -25.544  1.00  0.00    -0.011 C 
ATOM      9  C   UNL     1      27.013 -12.926 -26.829  1.00  0.00     0.008 C 
ATOM     10  C   UNL     1      26.330 -12.456 -24.448  1.00  0.00     0.008 C 
ENDBRANCH   5   8
ENDBRANCH   4   5
ENDBRANCH   1   3
BRANCH   1  11
ATOM     11  C   UNL     1      20.505 -12.848 -25.519  1.00  0.00     0.002 C 
ATOM     12  C   UNL     1      20.094 -12.231 -26.867  1.00  0.00     0.005 C 
ATOM     13  C   UNL     1      19.499 -14.016 -25.334  1.00  0.00    -0.026 C 
ATOM     14  C   UNL     1      18.599 -12.543 -27.047  1.00  0.00     0.005 C 
ATOM     15  C   UNL     1      18.204 -13.336 -25.798  1.00  0.00    -0.001 C 
ATOM     16  C   UNL     1      19.320 -14.477 -23.861  1.00  0.00     0.007 C 
ATOM     17  C   UNL     1      19.896 -15.232 -26.233  1.00  0.00     0.012 C 
ATOM     18  C   UNL     1      17.008 -14.315 -25.906  1.00  0.00     0.000 C 
ATOM     19  C   UNL     1      17.848 -14.779 -23.470  1.00  0.00     0.005 C 
ATOM     20  C   UNL     1      16.940 -15.284 -24.643  1.00  0.00     0.003 C 
ATOM     21  C   UNL     1      15.697 -13.523 -26.185  1.00  0.00     0.031 C 
ATOM     22  C   UNL     1      15.455 -15.607 -24.203  1.00  0.00    -0.008 C 
ATOM     23  C   UNL     1      14.858 -13.315 -24.962  1.00  0.00    -0.027 C 
ATOM     24  C   UNL     1      14.668 -14.307 -24.078  1.00  0.00    -0.065 C 
ATOM     25  C   UNL     1      15.388 -16.354 -22.831  1.00  0.00     0.014 C 
ATOM     26  C   UNL     1      14.798 -16.526 -25.271  1.00  0.00     0.016 C 
ATOM     27  C   UNL     1      13.766 -14.082 -22.882  1.00  0.00     0.063 C 
ATOM     28  C   UNL     1      13.947 -16.594 -22.338  1.00  0.00     0.033 C 
ATOM     29  C   UNL     1      13.008 -15.372 -22.535  1.00  0.00     0.118 C 
BRANCH  29  30
ATOM     30  O   UNL     1      12.246 -15.155 -21.376  1.00  0.00    -0.393 OA
ATOM     31  H   UNL     1      12.695 -14.430 -20.869  1.00  0.00     0.210 HD
ENDBRANCH  29  30
ENDBRANCH   1  11
TORSDOF 6
ENDMDL
MODEL 8
REMARK VINA RESULT:    -6.125      2.246      3.769
REMARK INTER + INTRA:          -9.298
REMARK INTER:                  -8.366
REMARK INTRA:                  -0.932
REMARK UNBOUND:                -1.203
REMARK SMILES CC[C@H](C=C[C@@H](C)[C@H]1CC[C@H]2[C@@H]3CC=C4C[C@H](O)CC[C@]4(C)[C@@H]3CC[C@]12C)C(C)C
REMARK SMILES IDX 6 1 7 2 5 3 4 4 3 5 2 6 1 7 28 8 29 9 30 10 8 11 9 12 26 13
REMARK SMILES IDX 10 14 11 15 25 16 27 17 12 18 24 19 23 20 13 21 21 22 14 23
REMARK SMILES IDX 15 24 20 25 22 26 16 27 19 28 17 29 18 30
REMARK H PARENT 18 31
REMARK Flexibility Score: inf
ROOT
ATOM      1  C   UNL     1      21.480   2.508 -20.144  1.00  0.00     0.012 C 
ATOM      2  C   UNL     1      22.958   2.385 -20.542  1.00  0.00     0.012 C 
ENDROOT
BRANCH   1   3
ATOM      3  C   UNL     1      21.253   2.771 -18.654  1.00  0.00    -0.028 C 
ATOM      4  C   UNL     1      21.330   1.928 -17.594  1.00  0.00    -0.027 C 
BRANCH   4   5
ATOM      5  C   UNL     1      21.628   0.436 -17.594  1.00  0.00     0.014 C 
BRANCH   5   6
ATOM      6  C   UNL     1      22.475   0.060 -16.348  1.00  0.00     0.004 C 
ATOM      7  C   UNL     1      22.608   1.193 -15.335  1.00  0.00     0.004 C 
ENDBRANCH   5   6
BRANCH   5   8
ATOM      8  C   UNL     1      20.291  -0.381 -17.649  1.00  0.00    -0.011 C 
ATOM      9  C   UNL     1      20.512  -1.796 -18.209  1.00  0.00     0.008 C 
ATOM     10  C   UNL     1      19.541  -0.459 -16.306  1.00  0.00     0.008 C 
ENDBRANCH   5   8
ENDBRANCH   4   5
ENDBRANCH   1   3
BRANCH   1  11
ATOM     11  C   UNL     1      20.583   1.412 -20.816  1.00  0.00     0.002 C 
ATOM     12  C   UNL     1      19.187   1.169 -20.214  1.00  0.00     0.005 C 
ATOM     13  C   UNL     1      20.295   1.598 -22.330  1.00  0.00    -0.026 C 
ATOM     14  C   UNL     1      18.331   0.563 -21.339  1.00  0.00     0.005 C 
ATOM     15  C   UNL     1      19.263   0.484 -22.551  1.00  0.00    -0.001 C 
ATOM     16  C   UNL     1      21.520   1.333 -23.249  1.00  0.00     0.007 C 
ATOM     17  C   UNL     1      19.713   3.022 -22.609  1.00  0.00     0.012 C 
ATOM     18  C   UNL     1      18.625   0.518 -23.962  1.00  0.00     0.000 C 
ATOM     19  C   UNL     1      21.178   0.541 -24.541  1.00  0.00     0.005 C 
ATOM     20  C   UNL     1      19.726   0.759 -25.088  1.00  0.00     0.003 C 
ATOM     21  C   UNL     1      17.746  -0.749 -24.178  1.00  0.00     0.031 C 
ATOM     22  C   UNL     1      19.423  -0.042 -26.419  1.00  0.00    -0.008 C 
ATOM     23  C   UNL     1      18.426  -1.813 -24.984  1.00  0.00    -0.027 C 
ATOM     24  C   UNL     1      19.137  -1.501 -26.079  1.00  0.00    -0.065 C 
ATOM     25  C   UNL     1      20.616   0.001 -27.427  1.00  0.00     0.014 C 
ATOM     26  C   UNL     1      18.190   0.593 -27.122  1.00  0.00     0.016 C 
ATOM     27  C   UNL     1      19.762  -2.605 -26.906  1.00  0.00     0.063 C 
ATOM     28  C   UNL     1      20.378  -0.852 -28.690  1.00  0.00     0.033 C 
ATOM     29  C   UNL     1      19.738  -2.236 -28.396  1.00  0.00     0.118 C 
BRANCH  29  30
ATOM     30  O   UNL     1      20.398  -3.239 -29.125  1.00  0.00    -0.393 OA
ATOM     31  H   UNL     1      21.054  -2.782 -29.712  1.00  0.00     0.210 HD
ENDBRANCH  29  30
ENDBRANCH   1  11
TORSDOF 6
ENDMDL
MODEL 9
REMARK VINA RESULT:    -5.703     14.316     16.740
REMARK INTER + INTRA:          -8.741
REMARK INTER:                  -7.374
REMARK INTRA:                  -1.367
REMARK UNBOUND:                -1.203
REMARK SMILES CC[C@H](C=C[C@@H](C)[C@H]1CC[C@H]2[C@@H]3CC=C4C[C@H](O)CC[C@]4(C)[C@@H]3CC[C@]12C)C(C)C
REMARK SMILES IDX 6 1 7 2 5 3 4 4 3 5 2 6 1 7 28 8 29 9 30 10 8 11 9 12 26 13
REMARK SMILES IDX 10 14 11 15 25 16 27 17 12 18 24 19 23 20 13 21 21 22 14 23
REMARK SMILES IDX 15 24 20 25 22 26 16 27 19 28 17 29 18 30
REMARK H PARENT 18 31
REMARK Flexibility Score: inf
ROOT
ATOM      1  C   UNL     1      22.265 -13.200 -27.666  1.00  0.00     0.012 C 
ATOM      2  C   UNL     1      22.194 -12.051 -28.681  1.00  0.00     0.012 C 
ENDROOT
BRANCH   1   3
ATOM      3  C   UNL     1      23.639 -13.868 -27.573  1.00  0.00    -0.028 C 
ATOM      4  C   UNL     1      24.701 -13.581 -26.779  1.00  0.00    -0.027 C 
BRANCH   4   5
ATOM      5  C   UNL     1      24.844 -12.458 -25.763  1.00  0.00     0.014 C 
BRANCH   5   6
ATOM      6  C   UNL     1      24.497 -12.975 -24.341  1.00  0.00     0.004 C 
ATOM      7  C   UNL     1      23.216 -12.375 -23.768  1.00  0.00     0.004 C 
ENDBRANCH   5   6
BRANCH   5   8
ATOM      8  C   UNL     1      26.293 -11.861 -25.820  1.00  0.00    -0.011 C 
ATOM      9  C   UNL     1      26.852 -11.860 -27.252  1.00  0.00     0.008 C 
ATOM     10  C   UNL     1      26.422 -10.454 -25.205  1.00  0.00     0.008 C 
ENDBRANCH   5   8
ENDBRANCH   4   5
ENDBRANCH   1   3
BRANCH   1  11
ATOM     11  C   UNL     1      21.019 -14.148 -27.742  1.00  0.00     0.002 C 
ATOM     12  C   UNL     1      21.278 -15.643 -28.007  1.00  0.00     0.005 C 
ATOM     13  C   UNL     1      20.090 -14.158 -26.498  1.00  0.00    -0.026 C 
ATOM     14  C   UNL     1      20.062 -16.398 -27.443  1.00  0.00     0.005 C 
ATOM     15  C   UNL     1      19.149 -15.312 -26.869  1.00  0.00    -0.001 C 
ATOM     16  C   UNL     1      19.248 -12.864 -26.321  1.00  0.00     0.007 C 
ATOM     17  C   UNL     1      20.912 -14.445 -25.199  1.00  0.00     0.012 C 
ATOM     18  C   UNL     1      18.186 -15.704 -25.720  1.00  0.00     0.000 C 
ATOM     19  C   UNL     1      17.779 -13.123 -25.887  1.00  0.00     0.005 C 
ATOM     20  C   UNL     1      17.560 -14.414 -25.026  1.00  0.00     0.003 C 
ATOM     21  C   UNL     1      17.139 -16.735 -26.234  1.00  0.00     0.031 C 
ATOM     22  C   UNL     1      16.057 -14.631 -24.579  1.00  0.00    -0.008 C 
ATOM     23  C   UNL     1      15.811 -16.122 -26.555  1.00  0.00    -0.027 C 
ATOM     24  C   UNL     1      15.259 -15.204 -25.745  1.00  0.00    -0.065 C 
ATOM     25  C   UNL     1      15.372 -13.303 -24.122  1.00  0.00     0.014 C 
ATOM     26  C   UNL     1      16.025 -15.615 -23.375  1.00  0.00     0.016 C 
ATOM     27  C   UNL     1      13.888 -14.647 -26.068  1.00  0.00     0.063 C 
ATOM     28  C   UNL     1      13.881 -13.476 -23.773  1.00  0.00     0.033 C 
ATOM     29  C   UNL     1      13.105 -14.374 -24.775  1.00  0.00     0.118 C 
BRANCH  29  30
ATOM     30  O   UNL     1      11.875 -13.783 -25.104  1.00  0.00    -0.393 OA
ATOM     31  H   UNL     1      11.188 -14.496 -25.041  1.00  0.00     0.210 HD
ENDBRANCH  29  30
ENDBRANCH   1  11
TORSDOF 6
ENDMDL
