MODEL 1
REMARK VINA RESULT:    -4.438      0.000      0.000
REMARK INTER + INTRA:         -10.073
REMARK INTER:                  -8.589
REMARK INTRA:                  -1.485
REMARK UNBOUND:                -1.485
REMARK SMILES CCCCCCCCCCCCCCCCCC(=O)[O-]
REMARK SMILES IDX 10 1 11 2 12 3 13 4 14 5 15 6 16 7 17 8 18 9 19 10 20 11
REMARK SMILES IDX 9 12 8 13 7 14 6 15 5 16 4 17 3 18 2 19 1 20
REMARK H PARENT
REMARK Flexibility Score: inf
ROOT
ATOM      1  C   UNL     1      14.265  11.728  16.086  1.00  0.00     0.000 C 
ENDROOT
BRANCH   1   2
ATOM      2  C   UNL     1      15.573  12.100  16.808  1.00  0.00     0.000 C 
BRANCH   2   3
ATOM      3  C   UNL     1      15.420  12.147  18.335  1.00  0.00     0.000 C 
BRANCH   3   4
ATOM      4  C   UNL     1      16.790  12.054  19.025  1.00  0.00     0.000 C 
BRANCH   4   5
ATOM      5  C   UNL     1      17.933  12.599  18.152  1.00  0.00     0.000 C 
BRANCH   5   6
ATOM      6  C   UNL     1      19.054  11.569  17.938  1.00  0.00     0.000 C 
BRANCH   6   7
ATOM      7  C   UNL     1      19.617  11.582  16.505  1.00  0.00     0.006 C 
BRANCH   7   8
ATOM      8  C   UNL     1      19.125  12.762  15.648  1.00  0.00     0.053 C 
BRANCH   8   9
ATOM      9  C   UNL     1      18.603  12.330  14.311  1.00  0.00     0.041 C 
ATOM     10  O   UNL     1      17.862  11.318  14.214  1.00  0.00    -0.550 OA
ATOM     11  O   UNL     1      18.963  13.031  13.166  1.00  0.00    -0.550 OA
ENDBRANCH   8   9
ENDBRANCH   7   8
ENDBRANCH   6   7
ENDBRANCH   5   6
ENDBRANCH   4   5
ENDBRANCH   3   4
ENDBRANCH   2   3
ENDBRANCH   1   2
BRANCH   1  12
ATOM     12  C   UNL     1      14.328  11.801  14.547  1.00  0.00     0.000 C 
BRANCH  12  13
ATOM     13  C   UNL     1      13.254  10.980  13.807  1.00  0.00    -0.000 C 
BRANCH  13  14
ATOM     14  C   UNL     1      11.907  11.697  13.604  1.00  0.00    -0.000 C 
BRANCH  14  15
ATOM     15  C   UNL     1      11.397  11.609  12.155  1.00  0.00    -0.000 C 
BRANCH  15  16
ATOM     16  C   UNL     1      12.480  11.127  11.176  1.00  0.00    -0.000 C 
BRANCH  16  17
ATOM     17  C   UNL     1      12.897  12.213  10.168  1.00  0.00    -0.000 C 
BRANCH  17  18
ATOM     18  C   UNL     1      13.126  13.579  10.834  1.00  0.00    -0.000 C 
BRANCH  18  19
ATOM     19  C   UNL     1      12.298  14.698  10.185  1.00  0.00    -0.003 C 
ATOM     20  C   UNL     1      11.141  15.118  11.087  1.00  0.00     0.004 C 
ENDBRANCH  18  19
ENDBRANCH  17  18
ENDBRANCH  16  17
ENDBRANCH  15  16
ENDBRANCH  14  15
ENDBRANCH  13  14
ENDBRANCH  12  13
ENDBRANCH   1  12
TORSDOF 16
ENDMDL
MODEL 2
REMARK VINA RESULT:    -4.421      2.134      3.437
REMARK INTER + INTRA:         -10.041
REMARK INTER:                  -8.690
REMARK INTRA:                  -1.352
REMARK UNBOUND:                -1.485
REMARK SMILES CCCCCCCCCCCCCCCCCC(=O)[O-]
REMARK SMILES IDX 10 1 11 2 12 3 13 4 14 5 15 6 16 7 17 8 18 9 19 10 20 11
REMARK SMILES IDX 9 12 8 13 7 14 6 15 5 16 4 17 3 18 2 19 1 20
REMARK H PARENT
REMARK Flexibility Score: inf
ROOT
ATOM      1  C   UNL     1      14.447  11.515  14.998  1.00  0.00     0.000 C 
ENDROOT
BRANCH   1   2
ATOM      2  C   UNL     1      15.885  11.984  15.284  1.00  0.00     0.000 C 
BRANCH   2   3
ATOM      3  C   UNL     1      16.813  11.837  14.069  1.00  0.00     0.000 C 
BRANCH   3   4
ATOM      4  C   UNL     1      18.160  12.533  14.323  1.00  0.00     0.000 C 
BRANCH   4   5
ATOM      5  C   UNL     1      18.985  11.846  15.425  1.00  0.00     0.000 C 
BRANCH   5   6
ATOM      6  C   UNL     1      19.602  12.850  16.413  1.00  0.00     0.000 C 
BRANCH   6   7
ATOM      7  C   UNL     1      18.715  13.102  17.646  1.00  0.00     0.006 C 
BRANCH   7   8
ATOM      8  C   UNL     1      18.312  11.823  18.401  1.00  0.00     0.053 C 
BRANCH   8   9
ATOM      9  C   UNL     1      17.048  11.989  19.188  1.00  0.00     0.041 C 
ATOM     10  O   UNL     1      17.079  12.006  20.447  1.00  0.00    -0.550 OA
ATOM     11  O   UNL     1      15.828  12.094  18.530  1.00  0.00    -0.550 OA
ENDBRANCH   8   9
ENDBRANCH   7   8
ENDBRANCH   6   7
ENDBRANCH   5   6
ENDBRANCH   4   5
ENDBRANCH   3   4
ENDBRANCH   2   3
ENDBRANCH   1   2
BRANCH   1  12
ATOM     12  C   UNL     1      13.871  11.974  13.643  1.00  0.00     0.000 C 
BRANCH  12  13
ATOM     13  C   UNL     1      12.652  11.173  13.142  1.00  0.00    -0.000 C 
BRANCH  13  14
ATOM     14  C   UNL     1      11.296  11.615  13.723  1.00  0.00    -0.000 C 
BRANCH  14  15
ATOM     15  C   UNL     1      10.314  12.097  12.642  1.00  0.00    -0.000 C 
BRANCH  15  16
ATOM     16  C   UNL     1       9.446  13.274  13.116  1.00  0.00    -0.000 C 
BRANCH  16  17
ATOM     17  C   UNL     1       9.784  14.590  12.394  1.00  0.00    -0.000 C 
BRANCH  17  18
ATOM     18  C   UNL     1      10.282  14.364  10.958  1.00  0.00    -0.000 C 
BRANCH  18  19
ATOM     19  C   UNL     1      11.620  15.066  10.680  1.00  0.00    -0.003 C 
ATOM     20  C   UNL     1      12.737  14.049  10.456  1.00  0.00     0.004 C 
ENDBRANCH  18  19
ENDBRANCH  17  18
ENDBRANCH  16  17
ENDBRANCH  15  16
ENDBRANCH  14  15
ENDBRANCH  13  14
ENDBRANCH  12  13
ENDBRANCH   1  12
TORSDOF 16
ENDMDL
MODEL 3
REMARK VINA RESULT:    -4.344      2.757      7.879
REMARK INTER + INTRA:          -9.892
REMARK INTER:                  -8.635
REMARK INTRA:                  -1.257
REMARK UNBOUND:                -1.485
REMARK SMILES CCCCCCCCCCCCCCCCCC(=O)[O-]
REMARK SMILES IDX 10 1 11 2 12 3 13 4 14 5 15 6 16 7 17 8 18 9 19 10 20 11
REMARK SMILES IDX 9 12 8 13 7 14 6 15 5 16 4 17 3 18 2 19 1 20
REMARK H PARENT
REMARK Flexibility Score: inf
ROOT
ATOM      1  C   UNL     1      14.410  11.987  16.163  1.00  0.00     0.000 C 
ENDROOT
BRANCH   1   2
ATOM      2  C   UNL     1      14.440  11.370  14.753  1.00  0.00     0.000 C 
BRANCH   2   3
ATOM      3  C   UNL     1      13.374  11.961  13.819  1.00  0.00     0.000 C 
BRANCH   3   4
ATOM      4  C   UNL     1      12.676  10.854  13.015  1.00  0.00     0.000 C 
BRANCH   4   5
ATOM      5  C   UNL     1      11.567  11.395  12.096  1.00  0.00     0.000 C 
BRANCH   5   6
ATOM      6  C   UNL     1      10.728  12.494  12.769  1.00  0.00     0.000 C 
BRANCH   6   7
ATOM      7  C   UNL     1       9.884  13.304  11.768  1.00  0.00     0.006 C 
BRANCH   7   8
ATOM      8  C   UNL     1      10.439  14.709  11.474  1.00  0.00     0.053 C 
BRANCH   8   9
ATOM      9  C   UNL     1      11.328  14.741  10.267  1.00  0.00     0.041 C 
ATOM     10  O   UNL     1      12.578  14.668  10.395  1.00  0.00    -0.550 OA
ATOM     11  O   UNL     1      10.774  14.882   9.001  1.00  0.00    -0.550 OA
ENDBRANCH   8   9
ENDBRANCH   7   8
ENDBRANCH   6   7
ENDBRANCH   5   6
ENDBRANCH   4   5
ENDBRANCH   3   4
ENDBRANCH   2   3
ENDBRANCH   1   2
BRANCH   1  12
ATOM     12  C   UNL     1      15.768  12.010  16.891  1.00  0.00     0.000 C 
BRANCH  12  13
ATOM     13  C   UNL     1      15.687  12.073  18.430  1.00  0.00    -0.000 C 
BRANCH  13  14
ATOM     14  C   UNL     1      17.044  12.057  19.157  1.00  0.00    -0.000 C 
BRANCH  14  15
ATOM     15  C   UNL     1      18.190  12.611  18.294  1.00  0.00    -0.000 C 
BRANCH  15  16
ATOM     16  C   UNL     1      19.304  11.578  18.059  1.00  0.00    -0.000 C 
BRANCH  16  17
ATOM     17  C   UNL     1      19.827  11.587  16.611  1.00  0.00    -0.000 C 
BRANCH  17  18
ATOM     18  C   UNL     1      19.037  12.544  15.705  1.00  0.00    -0.000 C 
BRANCH  18  19
ATOM     19  C   UNL     1      18.466  11.844  14.462  1.00  0.00    -0.003 C 
ATOM     20  C   UNL     1      18.255  12.836  13.322  1.00  0.00     0.004 C 
ENDBRANCH  18  19
ENDBRANCH  17  18
ENDBRANCH  16  17
ENDBRANCH  15  16
ENDBRANCH  14  15
ENDBRANCH  13  14
ENDBRANCH  12  13
ENDBRANCH   1  12
TORSDOF 16
ENDMDL
MODEL 4
REMARK VINA RESULT:    -4.333      3.983      6.314
REMARK INTER + INTRA:          -9.870
REMARK INTER:                  -8.524
REMARK INTRA:                  -1.346
REMARK UNBOUND:                -1.485
REMARK SMILES CCCCCCCCCCCCCCCCCC(=O)[O-]
REMARK SMILES IDX 10 1 11 2 12 3 13 4 14 5 15 6 16 7 17 8 18 9 19 10 20 11
REMARK SMILES IDX 9 12 8 13 7 14 6 15 5 16 4 17 3 18 2 19 1 20
REMARK H PARENT
REMARK Flexibility Score: inf
ROOT
ATOM      1  C   UNL     1      13.978  12.299  17.191  1.00  0.00     0.000 C 
ENDROOT
BRANCH   1   2
ATOM      2  C   UNL     1      15.474  12.094  17.489  1.00  0.00     0.000 C 
BRANCH   2   3
ATOM      3  C   UNL     1      15.792  12.114  18.991  1.00  0.00     0.000 C 
BRANCH   3   4
ATOM      4  C   UNL     1      17.207  12.657  19.244  1.00  0.00     0.000 C 
BRANCH   4   5
ATOM      5  C   UNL     1      18.231  12.144  18.217  1.00  0.00     0.000 C 
BRANCH   5   6
ATOM      6  C   UNL     1      18.981  13.286  17.511  1.00  0.00     0.000 C 
BRANCH   6   7
ATOM      7  C   UNL     1      19.795  12.809  16.294  1.00  0.00     0.006 C 
BRANCH   7   8
ATOM      8  C   UNL     1      19.125  11.675  15.498  1.00  0.00     0.053 C 
BRANCH   8   9
ATOM      9  C   UNL     1      18.243  12.183  14.396  1.00  0.00     0.041 C 
ATOM     10  O   UNL     1      17.000  11.991  14.437  1.00  0.00    -0.550 OA
ATOM     11  O   UNL     1      18.802  12.842  13.308  1.00  0.00    -0.550 OA
ENDBRANCH   8   9
ENDBRANCH   7   8
ENDBRANCH   6   7
ENDBRANCH   5   6
ENDBRANCH   4   5
ENDBRANCH   3   4
ENDBRANCH   2   3
ENDBRANCH   1   2
BRANCH   1  12
ATOM     12  C   UNL     1      13.022  11.825  18.304  1.00  0.00     0.000 C 
BRANCH  12  13
ATOM     13  C   UNL     1      11.753  12.681  18.488  1.00  0.00    -0.000 C 
BRANCH  13  14
ATOM     14  C   UNL     1      10.426  11.900  18.448  1.00  0.00    -0.000 C 
BRANCH  14  15
ATOM     15  C   UNL     1       9.625  12.019  19.757  1.00  0.00    -0.000 C 
BRANCH  15  16
ATOM     16  C   UNL     1      10.521  11.961  21.004  1.00  0.00    -0.000 C 
BRANCH  16  17
ATOM     17  C   UNL     1      10.341  10.660  21.806  1.00  0.00    -0.000 C 
BRANCH  17  18
ATOM     18  C   UNL     1       9.294   9.724  21.183  1.00  0.00    -0.000 C 
BRANCH  18  19
ATOM     19  C   UNL     1       9.883   8.364  20.779  1.00  0.00    -0.003 C 
ATOM     20  C   UNL     1       9.896   8.200  19.262  1.00  0.00     0.004 C 
ENDBRANCH  18  19
ENDBRANCH  17  18
ENDBRANCH  16  17
ENDBRANCH  15  16
ENDBRANCH  14  15
ENDBRANCH  13  14
ENDBRANCH  12  13
ENDBRANCH   1  12
TORSDOF 16
ENDMDL
MODEL 5
REMARK VINA RESULT:    -4.305      1.884      3.694
REMARK INTER + INTRA:          -9.816
REMARK INTER:                  -8.352
REMARK INTRA:                  -1.464
REMARK UNBOUND:                -1.485
REMARK SMILES CCCCCCCCCCCCCCCCCC(=O)[O-]
REMARK SMILES IDX 10 1 11 2 12 3 13 4 14 5 15 6 16 7 17 8 18 9 19 10 20 11
REMARK SMILES IDX 9 12 8 13 7 14 6 15 5 16 4 17 3 18 2 19 1 20
REMARK H PARENT
REMARK Flexibility Score: inf
ROOT
ATOM      1  C   UNL     1      11.493  11.608  13.746  1.00  0.00     0.000 C 
ENDROOT
BRANCH   1   2
ATOM      2  C   UNL     1      12.872  11.067  13.328  1.00  0.00     0.000 C 
BRANCH   2   3
ATOM      3  C   UNL     1      14.034  11.918  13.861  1.00  0.00     0.000 C 
BRANCH   3   4
ATOM      4  C   UNL     1      14.746  11.205  15.021  1.00  0.00     0.000 C 
BRANCH   4   5
ATOM      5  C   UNL     1      15.996  11.960  15.505  1.00  0.00     0.000 C 
BRANCH   5   6
ATOM      6  C   UNL     1      17.118  11.979  14.453  1.00  0.00     0.000 C 
BRANCH   6   7
ATOM      7  C   UNL     1      18.524  12.055  15.075  1.00  0.00     0.006 C 
BRANCH   7   8
ATOM      8  C   UNL     1      18.555  12.676  16.483  1.00  0.00     0.053 C 
BRANCH   8   9
ATOM      9  C   UNL     1      19.024  11.712  17.531  1.00  0.00     0.041 C 
ATOM     10  O   UNL     1      18.530  11.741  18.689  1.00  0.00    -0.550 OA
ATOM     11  O   UNL     1      20.030  10.801  17.237  1.00  0.00    -0.550 OA
ENDBRANCH   8   9
ENDBRANCH   7   8
ENDBRANCH   6   7
ENDBRANCH   5   6
ENDBRANCH   4   5
ENDBRANCH   3   4
ENDBRANCH   2   3
ENDBRANCH   1   2
BRANCH   1  12
ATOM     12  C   UNL     1      10.299  11.006  12.978  1.00  0.00     0.000 C 
BRANCH  12  13
ATOM     13  C   UNL     1       9.249  12.026  12.493  1.00  0.00    -0.000 C 
BRANCH  13  14
ATOM     14  C   UNL     1       9.187  13.335  13.302  1.00  0.00    -0.000 C 
BRANCH  14  15
ATOM     15  C   UNL     1       9.202  14.589  12.411  1.00  0.00    -0.000 C 
BRANCH  15  16
ATOM     16  C   UNL     1      10.623  14.998  11.993  1.00  0.00    -0.000 C 
BRANCH  16  17
ATOM     17  C   UNL     1      10.894  14.760  10.496  1.00  0.00    -0.000 C 
BRANCH  17  18
ATOM     18  C   UNL     1      12.394  14.661  10.177  1.00  0.00    -0.000 C 
BRANCH  18  19
ATOM     19  C   UNL     1      12.996  13.308  10.586  1.00  0.00    -0.003 C 
ATOM     20  C   UNL     1      12.926  12.306   9.437  1.00  0.00     0.004 C 
ENDBRANCH  18  19
ENDBRANCH  17  18
ENDBRANCH  16  17
ENDBRANCH  15  16
ENDBRANCH  14  15
ENDBRANCH  13  14
ENDBRANCH  12  13
ENDBRANCH   1  12
TORSDOF 16
ENDMDL
MODEL 6
REMARK VINA RESULT:    -4.283      2.122      3.330
REMARK INTER + INTRA:          -9.773
REMARK INTER:                  -8.438
REMARK INTRA:                  -1.335
REMARK UNBOUND:                -1.485
REMARK SMILES CCCCCCCCCCCCCCCCCC(=O)[O-]
REMARK SMILES IDX 10 1 11 2 12 3 13 4 14 5 15 6 16 7 17 8 18 9 19 10 20 11
REMARK SMILES IDX 9 12 8 13 7 14 6 15 5 16 4 17 3 18 2 19 1 20
REMARK H PARENT
REMARK Flexibility Score: inf
ROOT
ATOM      1  C   UNL     1      13.374  11.722  13.858  1.00  0.00     0.000 C 
ENDROOT
BRANCH   1   2
ATOM      2  C   UNL     1      14.547  10.986  14.532  1.00  0.00     0.000 C 
BRANCH   2   3
ATOM      3  C   UNL     1      15.611  11.943  15.089  1.00  0.00     0.000 C 
BRANCH   3   4
ATOM      4  C   UNL     1      16.991  11.637  14.487  1.00  0.00     0.000 C 
BRANCH   4   5
ATOM      5  C   UNL     1      18.057  12.671  14.888  1.00  0.00     0.000 C 
BRANCH   5   6
ATOM      6  C   UNL     1      19.028  12.135  15.953  1.00  0.00     0.000 C 
BRANCH   6   7
ATOM      7  C   UNL     1      18.785  12.742  17.348  1.00  0.00     0.006 C 
BRANCH   7   8
ATOM      8  C   UNL     1      18.329  11.720  18.405  1.00  0.00     0.053 C 
BRANCH   8   9
ATOM      9  C   UNL     1      17.066  12.132  19.101  1.00  0.00     0.041 C 
ATOM     10  O   UNL     1      17.093  12.494  20.306  1.00  0.00    -0.550 OA
ATOM     11  O   UNL     1      15.853  12.085  18.424  1.00  0.00    -0.550 OA
ENDBRANCH   8   9
ENDBRANCH   7   8
ENDBRANCH   6   7
ENDBRANCH   5   6
ENDBRANCH   4   5
ENDBRANCH   3   4
ENDBRANCH   2   3
ENDBRANCH   1   2
BRANCH   1  12
ATOM     12  C   UNL     1      12.557  10.870  12.867  1.00  0.00     0.000 C 
BRANCH  12  13
ATOM     13  C   UNL     1      11.068  11.253  12.745  1.00  0.00    -0.000 C 
BRANCH  13  14
ATOM     14  C   UNL     1      10.477  11.135  11.328  1.00  0.00    -0.000 C 
BRANCH  14  15
ATOM     15  C   UNL     1      11.555  10.959  10.245  1.00  0.00    -0.000 C 
BRANCH  15  16
ATOM     16  C   UNL     1      11.626  12.156   9.283  1.00  0.00    -0.000 C 
BRANCH  16  17
ATOM     17  C   UNL     1      10.413  13.096   9.413  1.00  0.00    -0.000 C 
BRANCH  17  18
ATOM     18  C   UNL     1      10.808  14.579   9.353  1.00  0.00    -0.000 C 
BRANCH  18  19
ATOM     19  C   UNL     1      11.587  15.033  10.597  1.00  0.00    -0.003 C 
ATOM     20  C   UNL     1      10.735  14.906  11.856  1.00  0.00     0.004 C 
ENDBRANCH  18  19
ENDBRANCH  17  18
ENDBRANCH  16  17
ENDBRANCH  15  16
ENDBRANCH  14  15
ENDBRANCH  13  14
ENDBRANCH  12  13
ENDBRANCH   1  12
TORSDOF 16
ENDMDL
MODEL 7
REMARK VINA RESULT:    -4.279      2.851      8.165
REMARK INTER + INTRA:          -9.766
REMARK INTER:                  -8.379
REMARK INTRA:                  -1.387
REMARK UNBOUND:                -1.485
REMARK SMILES CCCCCCCCCCCCCCCCCC(=O)[O-]
REMARK SMILES IDX 10 1 11 2 12 3 13 4 14 5 15 6 16 7 17 8 18 9 19 10 20 11
REMARK SMILES IDX 9 12 8 13 7 14 6 15 5 16 4 17 3 18 2 19 1 20
REMARK H PARENT
REMARK Flexibility Score: inf
ROOT
ATOM      1  C   UNL     1      13.261  11.647  14.087  1.00  0.00     0.000 C 
ENDROOT
BRANCH   1   2
ATOM      2  C   UNL     1      12.618  10.874  12.921  1.00  0.00     0.000 C 
BRANCH   2   3
ATOM      3  C   UNL     1      11.083  10.916  12.951  1.00  0.00     0.000 C 
BRANCH   3   4
ATOM      4  C   UNL     1      10.516  11.163  11.544  1.00  0.00     0.000 C 
BRANCH   4   5
ATOM      5  C   UNL     1      11.556  10.931  10.435  1.00  0.00     0.000 C 
BRANCH   5   6
ATOM      6  C   UNL     1      11.570  12.061   9.393  1.00  0.00     0.000 C 
BRANCH   6   7
ATOM      7  C   UNL     1      12.811  12.966   9.503  1.00  0.00     0.006 C 
BRANCH   7   8
ATOM      8  C   UNL     1      12.825  13.861  10.755  1.00  0.00     0.053 C 
BRANCH   8   9
ATOM      9  C   UNL     1      11.710  14.863  10.763  1.00  0.00     0.041 C 
ATOM     10  O   UNL     1      10.869  14.872  11.699  1.00  0.00    -0.550 OA
ATOM     11  O   UNL     1      11.584  15.771   9.718  1.00  0.00    -0.550 OA
ENDBRANCH   8   9
ENDBRANCH   7   8
ENDBRANCH   6   7
ENDBRANCH   5   6
ENDBRANCH   4   5
ENDBRANCH   3   4
ENDBRANCH   2   3
ENDBRANCH   1   2
BRANCH   1  12
ATOM     12  C   UNL     1      14.471  10.950  14.740  1.00  0.00     0.000 C 
BRANCH  12  13
ATOM     13  C   UNL     1      15.635  11.883  15.129  1.00  0.00    -0.000 C 
BRANCH  13  14
ATOM     14  C   UNL     1      16.961  11.615  14.392  1.00  0.00    -0.000 C 
BRANCH  14  15
ATOM     15  C   UNL     1      18.048  12.651  14.726  1.00  0.00    -0.000 C 
BRANCH  15  16
ATOM     16  C   UNL     1      19.117  12.098  15.682  1.00  0.00    -0.000 C 
BRANCH  16  17
ATOM     17  C   UNL     1      19.095  12.786  17.059  1.00  0.00    -0.000 C 
BRANCH  17  18
ATOM     18  C   UNL     1      18.599  11.854  18.175  1.00  0.00    -0.000 C 
BRANCH  18  19
ATOM     19  C   UNL     1      17.223  12.265  18.720  1.00  0.00    -0.003 C 
ATOM     20  C   UNL     1      16.942  11.597  20.063  1.00  0.00     0.004 C 
ENDBRANCH  18  19
ENDBRANCH  17  18
ENDBRANCH  16  17
ENDBRANCH  15  16
ENDBRANCH  14  15
ENDBRANCH  13  14
ENDBRANCH  12  13
ENDBRANCH   1  12
TORSDOF 16
ENDMDL
MODEL 8
REMARK VINA RESULT:    -4.245      3.008      8.125
REMARK INTER + INTRA:          -9.701
REMARK INTER:                  -8.212
REMARK INTRA:                  -1.488
REMARK UNBOUND:                -1.485
REMARK SMILES CCCCCCCCCCCCCCCCCC(=O)[O-]
REMARK SMILES IDX 10 1 11 2 12 3 13 4 14 5 15 6 16 7 17 8 18 9 19 10 20 11
REMARK SMILES IDX 9 12 8 13 7 14 6 15 5 16 4 17 3 18 2 19 1 20
REMARK H PARENT
REMARK Flexibility Score: inf
ROOT
ATOM      1  C   UNL     1      14.227  11.072  14.471  1.00  0.00     0.000 C 
ENDROOT
BRANCH   1   2
ATOM      2  C   UNL     1      12.830  11.586  14.079  1.00  0.00     0.000 C 
BRANCH   2   3
ATOM      3  C   UNL     1      12.618  11.640  12.559  1.00  0.00     0.000 C 
BRANCH   3   4
ATOM      4  C   UNL     1      13.386  12.820  11.942  1.00  0.00     0.000 C 
BRANCH   4   5
ATOM      5  C   UNL     1      12.931  13.139  10.508  1.00  0.00     0.000 C 
BRANCH   5   6
ATOM      6  C   UNL     1      12.554  14.619  10.324  1.00  0.00     0.000 C 
BRANCH   6   7
ATOM      7  C   UNL     1      11.033  14.857  10.329  1.00  0.00     0.006 C 
BRANCH   7   8
ATOM      8  C   UNL     1      10.424  14.992  11.736  1.00  0.00     0.053 C 
BRANCH   8   9
ATOM      9  C   UNL     1       9.667  13.769  12.160  1.00  0.00     0.041 C 
ATOM     10  O   UNL     1       9.403  13.573  13.375  1.00  0.00    -0.550 OA
ATOM     11  O   UNL     1       9.279  12.829  11.213  1.00  0.00    -0.550 OA
ENDBRANCH   8   9
ENDBRANCH   7   8
ENDBRANCH   6   7
ENDBRANCH   5   6
ENDBRANCH   4   5
ENDBRANCH   3   4
ENDBRANCH   2   3
ENDBRANCH   1   2
BRANCH   1  12
ATOM     12  C   UNL     1      14.989  11.962  15.473  1.00  0.00     0.000 C 
BRANCH  12  13
ATOM     13  C   UNL     1      14.465  11.917  16.923  1.00  0.00    -0.000 C 
BRANCH  13  14
ATOM     14  C   UNL     1      15.261  12.762  17.933  1.00  0.00    -0.000 C 
BRANCH  14  15
ATOM     15  C   UNL     1      16.385  11.968  18.620  1.00  0.00    -0.000 C 
BRANCH  15  16
ATOM     16  C   UNL     1      17.766  12.619  18.435  1.00  0.00    -0.000 C 
BRANCH  16  17
ATOM     17  C   UNL     1      18.881  11.587  18.189  1.00  0.00    -0.000 C 
BRANCH  17  18
ATOM     18  C   UNL     1      19.424  11.638  16.753  1.00  0.00    -0.000 C 
BRANCH  18  19
ATOM     19  C   UNL     1      18.607  12.570  15.845  1.00  0.00    -0.003 C 
ATOM     20  C   UNL     1      18.540  12.028  14.420  1.00  0.00     0.004 C 
ENDBRANCH  18  19
ENDBRANCH  17  18
ENDBRANCH  16  17
ENDBRANCH  15  16
ENDBRANCH  14  15
ENDBRANCH  13  14
ENDBRANCH  12  13
ENDBRANCH   1  12
TORSDOF 16
ENDMDL
MODEL 9
REMARK VINA RESULT:    -4.163      3.269      8.577
REMARK INTER + INTRA:          -9.541
REMARK INTER:                  -8.369
REMARK INTRA:                  -1.171
REMARK UNBOUND:                -1.485
REMARK SMILES CCCCCCCCCCCCCCCCCC(=O)[O-]
REMARK SMILES IDX 10 1 11 2 12 3 13 4 14 5 15 6 16 7 17 8 18 9 19 10 20 11
REMARK SMILES IDX 9 12 8 13 7 14 6 15 5 16 4 17 3 18 2 19 1 20
REMARK H PARENT
REMARK Flexibility Score: inf
ROOT
ATOM      1  C   UNL     1      14.136  11.630  13.870  1.00  0.00     0.000 C 
ENDROOT
BRANCH   1   2
ATOM      2  C   UNL     1      12.663  11.271  13.607  1.00  0.00     0.000 C 
BRANCH   2   3
ATOM      3  C   UNL     1      12.257  11.451  12.137  1.00  0.00     0.000 C 
BRANCH   3   4
ATOM      4  C   UNL     1      12.271  12.936  11.743  1.00  0.00     0.000 C 
BRANCH   4   5
ATOM      5  C   UNL     1      10.977  13.667  12.139  1.00  0.00     0.000 C 
BRANCH   5   6
ATOM      6  C   UNL     1      10.828  15.026  11.434  1.00  0.00     0.000 C 
BRANCH   6   7
ATOM      7  C   UNL     1      11.454  15.045  10.027  1.00  0.00     0.006 C 
BRANCH   7   8
ATOM      8  C   UNL     1      10.463  14.721   8.895  1.00  0.00     0.053 C 
BRANCH   8   9
ATOM      9  C   UNL     1      10.451  13.266   8.533  1.00  0.00     0.041 C 
ATOM     10  O   UNL     1      11.227  12.825   7.645  1.00  0.00    -0.550 OA
ATOM     11  O   UNL     1       9.560  12.402   9.158  1.00  0.00    -0.550 OA
ENDBRANCH   8   9
ENDBRANCH   7   8
ENDBRANCH   6   7
ENDBRANCH   5   6
ENDBRANCH   4   5
ENDBRANCH   3   4
ENDBRANCH   2   3
ENDBRANCH   1   2
BRANCH   1  12
ATOM     12  C   UNL     1      14.530  11.712  15.359  1.00  0.00     0.000 C 
BRANCH  12  13
ATOM     13  C   UNL     1      16.046  11.726  15.637  1.00  0.00    -0.000 C 
BRANCH  13  14
ATOM     14  C   UNL     1      16.924  12.172  14.453  1.00  0.00    -0.000 C 
BRANCH  14  15
ATOM     15  C   UNL     1      18.429  12.061  14.751  1.00  0.00    -0.000 C 
BRANCH  15  16
ATOM     16  C   UNL     1      18.846  12.869  15.991  1.00  0.00    -0.000 C 
BRANCH  16  17
ATOM     17  C   UNL     1      19.746  12.067  16.947  1.00  0.00    -0.000 C 
BRANCH  17  18
ATOM     18  C   UNL     1      18.982  11.536  18.170  1.00  0.00    -0.000 C 
BRANCH  18  19
ATOM     19  C   UNL     1      17.814  12.447  18.577  1.00  0.00    -0.003 C 
ATOM     20  C   UNL     1      17.169  11.966  19.874  1.00  0.00     0.004 C 
ENDBRANCH  18  19
ENDBRANCH  17  18
ENDBRANCH  16  17
ENDBRANCH  15  16
ENDBRANCH  14  15
ENDBRANCH  13  14
ENDBRANCH  12  13
ENDBRANCH   1  12
TORSDOF 16
ENDMDL
