MODEL 1
REMARK VINA RESULT:    -6.802      0.000      0.000
REMARK INTER + INTRA:          -8.514
REMARK INTER:                  -8.193
REMARK INTRA:                  -0.320
REMARK UNBOUND:                -0.320
REMARK SMILES O=c1c(O)c(-c2ccc(O)c(O)c2)oc2cc(O)cc(O)c12
REMARK SMILES IDX 5 1 3 2 2 3 1 4 22 5 20 6 19 7 17 8 16 9 15 10 14 11 6 12
REMARK SMILES IDX 7 13 8 14 9 15 13 16 11 17 10 18 12 20 4 22 21 24 18 26
REMARK H PARENT 10 19 12 21 4 23 21 25 18 27
REMARK Flexibility Score: inf
ROOT
ATOM      1  C   UNL     1       9.941  12.254 -17.115  1.00  0.00     0.180 A 
ATOM      2  C   UNL     1      10.756  13.317 -16.685  1.00  0.00     0.208 A 
ATOM      3  C   UNL     1      10.793  14.496 -17.446  1.00  0.00     0.238 A 
ATOM      4  O   UNL     1      11.565  15.423 -17.085  1.00  0.00    -0.285 OA
ATOM      5  C   UNL     1      10.006  14.605 -18.617  1.00  0.00     0.111 A 
ATOM      6  C   UNL     1       9.936  15.767 -19.442  1.00  0.00     0.134 A 
ATOM      7  C   UNL     1       9.225  15.717 -20.647  1.00  0.00     0.093 A 
ATOM      8  C   UNL     1       8.529  14.570 -21.027  1.00  0.00     0.123 A 
ATOM      9  C   UNL     1       8.541  13.447 -20.198  1.00  0.00     0.094 A 
ATOM     10  C   UNL     1       9.271  13.454 -19.006  1.00  0.00     0.146 A 
ATOM     11  O   UNL     1       9.266  12.362 -18.252  1.00  0.00    -0.452 OA
ENDROOT
BRANCH   1  12
ATOM     12  C   UNL     1       9.830  10.989 -16.352  1.00  0.00     0.025 A 
ATOM     13  C   UNL     1      10.738   9.934 -16.549  1.00  0.00     0.016 A 
ATOM     14  C   UNL     1      10.629   8.759 -15.800  1.00  0.00     0.051 A 
ATOM     15  C   UNL     1       9.621   8.627 -14.837  1.00  0.00     0.157 A 
ATOM     16  C   UNL     1       8.834  10.859 -15.371  1.00  0.00     0.062 A 
ATOM     17  C   UNL     1       8.724   9.680 -14.620  1.00  0.00     0.158 A 
BRANCH  15  18
ATOM     18  O   UNL     1       9.507   7.456 -14.090  1.00  0.00    -0.504 OA
ATOM     19  H   UNL     1       9.878   7.389 -13.149  1.00  0.00     0.293 HD
ENDBRANCH  15  18
BRANCH  17  20
ATOM     20  O   UNL     1       7.726   9.548 -13.655  1.00  0.00    -0.504 OA
ATOM     21  H   UNL     1       7.298   8.651 -13.455  1.00  0.00     0.293 HD
ENDBRANCH  17  20
ENDBRANCH   1  12
BRANCH   2  22
ATOM     22  O   UNL     1      11.542  13.181 -15.537  1.00  0.00    -0.502 OA
ATOM     23  H   UNL     1      11.487  13.827 -14.761  1.00  0.00     0.293 HD
ENDBRANCH   2  22
BRANCH   6  24
ATOM     24  O   UNL     1      10.519  16.995 -19.113  1.00  0.00    -0.507 OA
ATOM     25  H   UNL     1      10.690  17.315 -18.171  1.00  0.00     0.293 HD
ENDBRANCH   6  24
BRANCH   8  26
ATOM     26  O   UNL     1       7.820  14.561 -22.225  1.00  0.00    -0.508 OA
ATOM     27  H   UNL     1       7.676  15.408 -22.762  1.00  0.00     0.293 HD
ENDBRANCH   8  26
TORSDOF 6
ENDMDL
MODEL 2
REMARK VINA RESULT:    -6.605      3.005      7.557
REMARK INTER + INTRA:          -8.277
REMARK INTER:                  -8.169
REMARK INTRA:                  -0.108
REMARK UNBOUND:                -0.320
REMARK SMILES O=c1c(O)c(-c2ccc(O)c(O)c2)oc2cc(O)cc(O)c12
REMARK SMILES IDX 5 1 3 2 2 3 1 4 22 5 20 6 19 7 17 8 16 9 15 10 14 11 6 12
REMARK SMILES IDX 7 13 8 14 9 15 13 16 11 17 10 18 12 20 4 22 21 24 18 26
REMARK H PARENT 10 19 12 21 4 23 21 25 18 27
REMARK Flexibility Score: inf
ROOT
ATOM      1  C   UNL     1       8.603  16.183 -18.869  1.00  0.00     0.180 A 
ATOM      2  C   UNL     1       8.630  15.856 -20.237  1.00  0.00     0.208 A 
ATOM      3  C   UNL     1       8.942  14.540 -20.615  1.00  0.00     0.238 A 
ATOM      4  O   UNL     1       9.017  14.267 -21.842  1.00  0.00    -0.285 OA
ATOM      5  C   UNL     1       9.206  13.565 -19.623  1.00  0.00     0.111 A 
ATOM      6  C   UNL     1       9.494  12.193 -19.892  1.00  0.00     0.134 A 
ATOM      7  C   UNL     1       9.868  11.347 -18.841  1.00  0.00     0.093 A 
ATOM      8  C   UNL     1       9.903  11.806 -17.524  1.00  0.00     0.123 A 
ATOM      9  C   UNL     1       9.566  13.130 -17.243  1.00  0.00     0.094 A 
ATOM     10  C   UNL     1       9.223  14.008 -18.275  1.00  0.00     0.146 A 
ATOM     11  O   UNL     1       8.920  15.263 -17.966  1.00  0.00    -0.452 OA
ENDROOT
BRANCH   1  12
ATOM     12  C   UNL     1       8.258  17.542 -18.391  1.00  0.00     0.025 A 
ATOM     13  C   UNL     1       7.166  17.762 -17.534  1.00  0.00     0.016 A 
ATOM     14  C   UNL     1       6.875  19.049 -17.076  1.00  0.00     0.051 A 
ATOM     15  C   UNL     1       7.678  20.132 -17.457  1.00  0.00     0.157 A 
ATOM     16  C   UNL     1       9.071  18.629 -18.753  1.00  0.00     0.062 A 
ATOM     17  C   UNL     1       8.779  19.921 -18.294  1.00  0.00     0.158 A 
BRANCH  15  18
ATOM     18  O   UNL     1       7.389  21.418 -17.003  1.00  0.00    -0.504 OA
ATOM     19  H   UNL     1       7.370  22.211 -17.634  1.00  0.00     0.293 HD
ENDBRANCH  15  18
BRANCH  17  20
ATOM     20  O   UNL     1       9.580  21.000 -18.665  1.00  0.00    -0.504 OA
ATOM     21  H   UNL     1       9.989  21.619 -17.975  1.00  0.00     0.293 HD
ENDBRANCH  17  20
ENDBRANCH   1  12
BRANCH   2  22
ATOM     22  O   UNL     1       8.387  16.839 -21.200  1.00  0.00    -0.502 OA
ATOM     23  H   UNL     1       8.990  16.975 -22.001  1.00  0.00     0.293 HD
ENDBRANCH   2  22
BRANCH   6  24
ATOM     24  O   UNL     1       9.399  11.609 -21.159  1.00  0.00    -0.507 OA
ATOM     25  H   UNL     1       9.966  10.838 -21.480  1.00  0.00     0.293 HD
ENDBRANCH   6  24
BRANCH   8  26
ATOM     26  O   UNL     1      10.264  10.932 -16.502  1.00  0.00    -0.508 OA
ATOM     27  H   UNL     1      10.100   9.935 -16.573  1.00  0.00     0.293 HD
ENDBRANCH   8  26
TORSDOF 6
ENDMDL
MODEL 3
REMARK VINA RESULT:    -6.577      1.871      7.144
REMARK INTER + INTRA:          -8.243
REMARK INTER:                  -8.286
REMARK INTRA:                   0.044
REMARK UNBOUND:                -0.320
REMARK SMILES O=c1c(O)c(-c2ccc(O)c(O)c2)oc2cc(O)cc(O)c12
REMARK SMILES IDX 5 1 3 2 2 3 1 4 22 5 20 6 19 7 17 8 16 9 15 10 14 11 6 12
REMARK SMILES IDX 7 13 8 14 9 15 13 16 11 17 10 18 12 20 4 22 21 24 18 26
REMARK H PARENT 10 19 12 21 4 23 21 25 18 27
REMARK Flexibility Score: inf
ROOT
ATOM      1  C   UNL     1       9.060  12.904 -18.566  1.00  0.00     0.180 A 
ATOM      2  C   UNL     1       9.517  11.615 -18.896  1.00  0.00     0.208 A 
ATOM      3  C   UNL     1       9.525  10.621 -17.904  1.00  0.00     0.238 A 
ATOM      4  O   UNL     1       9.986   9.486 -18.191  1.00  0.00    -0.285 OA
ATOM      5  C   UNL     1       9.063  10.923 -16.600  1.00  0.00     0.111 A 
ATOM      6  C   UNL     1       8.990   9.984 -15.528  1.00  0.00     0.134 A 
ATOM      7  C   UNL     1       8.640  10.424 -14.246  1.00  0.00     0.093 A 
ATOM      8  C   UNL     1       8.297  11.755 -14.009  1.00  0.00     0.123 A 
ATOM      9  C   UNL     1       8.308  12.670 -15.063  1.00  0.00     0.094 A 
ATOM     10  C   UNL     1       8.688  12.269 -16.347  1.00  0.00     0.146 A 
ATOM     11  O   UNL     1       8.695  13.173 -17.318  1.00  0.00    -0.452 OA
ENDROOT
BRANCH   1  12
ATOM     12  C   UNL     1       8.998  13.997 -19.564  1.00  0.00     0.025 A 
ATOM     13  C   UNL     1       8.477  13.782 -20.852  1.00  0.00     0.016 A 
ATOM     14  C   UNL     1       8.405  14.834 -21.769  1.00  0.00     0.051 A 
ATOM     15  C   UNL     1       8.839  16.116 -21.408  1.00  0.00     0.157 A 
ATOM     16  C   UNL     1       9.412  15.289 -19.201  1.00  0.00     0.062 A 
ATOM     17  C   UNL     1       9.340  16.344 -20.121  1.00  0.00     0.158 A 
BRANCH  15  18
ATOM     18  O   UNL     1       8.771  17.168 -22.320  1.00  0.00    -0.504 OA
ATOM     19  H   UNL     1       9.153  18.081 -22.106  1.00  0.00     0.293 HD
ENDBRANCH  15  18
BRANCH  17  20
ATOM     20  O   UNL     1       9.764  17.623 -19.762  1.00  0.00    -0.504 OA
ATOM     21  H   UNL     1       9.667  18.410 -20.393  1.00  0.00     0.293 HD
ENDBRANCH  17  20
ENDBRANCH   1  12
BRANCH   2  22
ATOM     22  O   UNL     1       9.989  11.344 -20.183  1.00  0.00    -0.502 OA
ATOM     23  H   UNL     1       9.371  11.127 -20.954  1.00  0.00     0.293 HD
ENDBRANCH   2  22
BRANCH   6  24
ATOM     24  O   UNL     1       9.222   8.613 -15.675  1.00  0.00    -0.507 OA
ATOM     25  H   UNL     1      10.127   8.198 -15.846  1.00  0.00     0.293 HD
ENDBRANCH   6  24
BRANCH   8  26
ATOM     26  O   UNL     1       7.939  12.155 -12.725  1.00  0.00    -0.508 OA
ATOM     27  H   UNL     1       7.671  13.111 -12.523  1.00  0.00     0.293 HD
ENDBRANCH   8  26
TORSDOF 6
ENDMDL
MODEL 4
REMARK VINA RESULT:    -6.554      1.256      2.954
REMARK INTER + INTRA:          -8.215
REMARK INTER:                  -7.888
REMARK INTRA:                  -0.327
REMARK UNBOUND:                -0.320
REMARK SMILES O=c1c(O)c(-c2ccc(O)c(O)c2)oc2cc(O)cc(O)c12
REMARK SMILES IDX 5 1 3 2 2 3 1 4 22 5 20 6 19 7 17 8 16 9 15 10 14 11 6 12
REMARK SMILES IDX 7 13 8 14 9 15 13 16 11 17 10 18 12 20 4 22 21 24 18 26
REMARK H PARENT 10 19 12 21 4 23 21 25 18 27
REMARK Flexibility Score: inf
ROOT
ATOM      1  C   UNL     1       9.120  11.775 -18.067  1.00  0.00     0.180 A 
ATOM      2  C   UNL     1       8.277  11.521 -19.164  1.00  0.00     0.208 A 
ATOM      3  C   UNL     1       8.063  12.537 -20.108  1.00  0.00     0.238 A 
ATOM      4  O   UNL     1       7.265  12.321 -21.057  1.00  0.00    -0.285 OA
ATOM      5  C   UNL     1       8.706  13.789 -19.954  1.00  0.00     0.111 A 
ATOM      6  C   UNL     1       8.593  14.877 -20.871  1.00  0.00     0.134 A 
ATOM      7  C   UNL     1       9.169  16.112 -20.551  1.00  0.00     0.093 A 
ATOM      8  C   UNL     1       9.908  16.282 -19.381  1.00  0.00     0.123 A 
ATOM      9  C   UNL     1      10.075  15.208 -18.506  1.00  0.00     0.094 A 
ATOM     10  C   UNL     1       9.482  13.972 -18.779  1.00  0.00     0.146 A 
ATOM     11  O   UNL     1       9.656  12.980 -17.916  1.00  0.00    -0.452 OA
ENDROOT
BRANCH   1  12
ATOM     12  C   UNL     1       9.414  10.745 -17.044  1.00  0.00     0.025 A 
ATOM     13  C   UNL     1      10.531   9.899 -17.156  1.00  0.00     0.016 A 
ATOM     14  C   UNL     1      10.802   8.952 -16.166  1.00  0.00     0.051 A 
ATOM     15  C   UNL     1       9.970   8.845 -15.044  1.00  0.00     0.157 A 
ATOM     16  C   UNL     1       8.595  10.648 -15.906  1.00  0.00     0.062 A 
ATOM     17  C   UNL     1       8.867   9.697 -14.912  1.00  0.00     0.158 A 
BRANCH  15  18
ATOM     18  O   UNL     1      10.237   7.900 -14.055  1.00  0.00    -0.504 OA
ATOM     19  H   UNL     1       9.779   7.934 -13.152  1.00  0.00     0.293 HD
ENDBRANCH  15  18
BRANCH  17  20
ATOM     20  O   UNL     1       8.045   9.593 -13.792  1.00  0.00    -0.504 OA
ATOM     21  H   UNL     1       8.313   9.037 -12.988  1.00  0.00     0.293 HD
ENDBRANCH  17  20
ENDBRANCH   1  12
BRANCH   2  22
ATOM     22  O   UNL     1       7.634  10.286 -19.284  1.00  0.00    -0.502 OA
ATOM     23  H   UNL     1       6.913  10.113 -19.973  1.00  0.00     0.293 HD
ENDBRANCH   2  22
BRANCH   6  24
ATOM     24  O   UNL     1       7.955  14.788 -22.112  1.00  0.00    -0.507 OA
ATOM     25  H   UNL     1       7.559  13.942 -22.496  1.00  0.00     0.293 HD
ENDBRANCH   6  24
BRANCH   8  26
ATOM     26  O   UNL     1      10.479  17.521 -19.103  1.00  0.00    -0.508 OA
ATOM     27  H   UNL     1      10.377  17.960 -18.195  1.00  0.00     0.293 HD
ENDBRANCH   8  26
TORSDOF 6
ENDMDL
MODEL 5
REMARK VINA RESULT:    -6.168      1.989      2.849
REMARK INTER + INTRA:          -7.750
REMARK INTER:                  -7.766
REMARK INTRA:                   0.016
REMARK UNBOUND:                -0.320
REMARK SMILES O=c1c(O)c(-c2ccc(O)c(O)c2)oc2cc(O)cc(O)c12
REMARK SMILES IDX 5 1 3 2 2 3 1 4 22 5 20 6 19 7 17 8 16 9 15 10 14 11 6 12
REMARK SMILES IDX 7 13 8 14 9 15 13 16 11 17 10 18 12 20 4 22 21 24 18 26
REMARK H PARENT 10 19 12 21 4 23 21 25 18 27
REMARK Flexibility Score: inf
ROOT
ATOM      1  C   UNL     1       8.547  11.427 -15.292  1.00  0.00     0.180 A 
ATOM      2  C   UNL     1       8.967  12.705 -14.880  1.00  0.00     0.208 A 
ATOM      3  C   UNL     1       9.310  13.655 -15.855  1.00  0.00     0.238 A 
ATOM      4  O   UNL     1       9.737  14.778 -15.480  1.00  0.00    -0.285 OA
ATOM      5  C   UNL     1       9.215  13.322 -17.228  1.00  0.00     0.111 A 
ATOM      6  C   UNL     1       9.499  14.219 -18.302  1.00  0.00     0.134 A 
ATOM      7  C   UNL     1       9.496  13.743 -19.618  1.00  0.00     0.093 A 
ATOM      8  C   UNL     1       9.157  12.421 -19.907  1.00  0.00     0.123 A 
ATOM      9  C   UNL     1       8.820  11.551 -18.869  1.00  0.00     0.094 A 
ATOM     10  C   UNL     1       8.848  11.987 -17.542  1.00  0.00     0.146 A 
ATOM     11  O   UNL     1       8.531  11.124 -16.584  1.00  0.00    -0.452 OA
ENDROOT
BRANCH   1  12
ATOM     12  C   UNL     1       8.145  10.380 -14.323  1.00  0.00     0.025 A 
ATOM     13  C   UNL     1       7.264  10.663 -13.264  1.00  0.00     0.016 A 
ATOM     14  C   UNL     1       6.879   9.654 -12.378  1.00  0.00     0.051 A 
ATOM     15  C   UNL     1       7.357   8.348 -12.544  1.00  0.00     0.157 A 
ATOM     16  C   UNL     1       8.604   9.065 -14.497  1.00  0.00     0.062 A 
ATOM     17  C   UNL     1       8.218   8.052 -13.607  1.00  0.00     0.158 A 
BRANCH  15  18
ATOM     18  O   UNL     1       6.976   7.339 -11.660  1.00  0.00    -0.504 OA
ATOM     19  H   UNL     1       6.012   7.040 -11.581  1.00  0.00     0.293 HD
ENDBRANCH  15  18
BRANCH  17  20
ATOM     20  O   UNL     1       8.686   6.750 -13.774  1.00  0.00    -0.504 OA
ATOM     21  H   UNL     1       9.227   6.481 -14.588  1.00  0.00     0.293 HD
ENDBRANCH  17  20
ENDBRANCH   1  12
BRANCH   2  22
ATOM     22  O   UNL     1       9.075  13.005 -13.520  1.00  0.00    -0.502 OA
ATOM     23  H   UNL     1       9.537  12.390 -12.862  1.00  0.00     0.293 HD
ENDBRANCH   2  22
BRANCH   6  24
ATOM     24  O   UNL     1       9.760  15.582 -18.131  1.00  0.00    -0.507 OA
ATOM     25  H   UNL     1      10.532  15.957 -17.600  1.00  0.00     0.293 HD
ENDBRANCH   6  24
BRANCH   8  26
ATOM     26  O   UNL     1       9.150  11.986 -21.229  1.00  0.00    -0.508 OA
ATOM     27  H   UNL     1       9.474  12.580 -21.984  1.00  0.00     0.293 HD
ENDBRANCH   8  26
TORSDOF 6
ENDMDL
MODEL 6
REMARK VINA RESULT:    -6.162      1.650      7.153
REMARK INTER + INTRA:          -7.744
REMARK INTER:                  -7.656
REMARK INTRA:                  -0.088
REMARK UNBOUND:                -0.320
REMARK SMILES O=c1c(O)c(-c2ccc(O)c(O)c2)oc2cc(O)cc(O)c12
REMARK SMILES IDX 5 1 3 2 2 3 1 4 22 5 20 6 19 7 17 8 16 9 15 10 14 11 6 12
REMARK SMILES IDX 7 13 8 14 9 15 13 16 11 17 10 18 12 20 4 22 21 24 18 26
REMARK H PARENT 10 19 12 21 4 23 21 25 18 27
REMARK Flexibility Score: inf
ROOT
ATOM      1  C   UNL     1       9.212  12.490 -17.886  1.00  0.00     0.180 A 
ATOM      2  C   UNL     1       9.574  11.208 -18.340  1.00  0.00     0.208 A 
ATOM      3  C   UNL     1       9.426  10.113 -17.474  1.00  0.00     0.238 A 
ATOM      4  O   UNL     1       9.802   8.978 -17.867  1.00  0.00    -0.285 OA
ATOM      5  C   UNL     1       8.904  10.309 -16.172  1.00  0.00     0.111 A 
ATOM      6  C   UNL     1       8.674   9.266 -15.225  1.00  0.00     0.134 A 
ATOM      7  C   UNL     1       8.278   9.591 -13.923  1.00  0.00     0.093 A 
ATOM      8  C   UNL     1       8.040  10.913 -13.550  1.00  0.00     0.123 A 
ATOM      9  C   UNL     1       8.204  11.936 -14.485  1.00  0.00     0.094 A 
ATOM     10  C   UNL     1       8.634  11.647 -15.783  1.00  0.00     0.146 A 
ATOM     11  O   UNL     1       8.788  12.650 -16.638  1.00  0.00    -0.452 OA
ENDROOT
BRANCH   1  12
ATOM     12  C   UNL     1       9.315  13.689 -18.749  1.00  0.00     0.025 A 
ATOM     13  C   UNL     1      10.140  14.773 -18.400  1.00  0.00     0.016 A 
ATOM     14  C   UNL     1      10.242  15.883 -19.242  1.00  0.00     0.051 A 
ATOM     15  C   UNL     1       9.532  15.921 -20.449  1.00  0.00     0.157 A 
ATOM     16  C   UNL     1       8.623  13.724 -19.970  1.00  0.00     0.062 A 
ATOM     17  C   UNL     1       8.724  14.838 -20.816  1.00  0.00     0.158 A 
BRANCH  15  18
ATOM     18  O   UNL     1       9.630  17.028 -21.291  1.00  0.00    -0.504 OA
ATOM     19  H   UNL     1       9.659  16.926 -22.299  1.00  0.00     0.293 HD
ENDBRANCH  15  18
BRANCH  17  20
ATOM     20  O   UNL     1       8.025  14.876 -22.021  1.00  0.00    -0.504 OA
ATOM     21  H   UNL     1       7.436  14.105 -22.316  1.00  0.00     0.293 HD
ENDBRANCH  17  20
ENDBRANCH   1  12
BRANCH   2  22
ATOM     22  O   UNL     1      10.107  11.041 -19.620  1.00  0.00    -0.502 OA
ATOM     23  H   UNL     1      11.048  10.702 -19.777  1.00  0.00     0.293 HD
ENDBRANCH   2  22
BRANCH   6  24
ATOM     24  O   UNL     1       8.794   7.904 -15.520  1.00  0.00    -0.507 OA
ATOM     25  H   UNL     1       9.149   7.534 -16.389  1.00  0.00     0.293 HD
ENDBRANCH   6  24
BRANCH   8  26
ATOM     26  O   UNL     1       7.631  11.198 -12.250  1.00  0.00    -0.508 OA
ATOM     27  H   UNL     1       6.888  11.860 -12.061  1.00  0.00     0.293 HD
ENDBRANCH   8  26
TORSDOF 6
ENDMDL
MODEL 7
REMARK VINA RESULT:    -5.820      1.723      2.164
REMARK INTER + INTRA:          -7.332
REMARK INTER:                  -7.009
REMARK INTRA:                  -0.323
REMARK UNBOUND:                -0.320
REMARK SMILES O=c1c(O)c(-c2ccc(O)c(O)c2)oc2cc(O)cc(O)c12
REMARK SMILES IDX 5 1 3 2 2 3 1 4 22 5 20 6 19 7 17 8 16 9 15 10 14 11 6 12
REMARK SMILES IDX 7 13 8 14 9 15 13 16 11 17 10 18 12 20 4 22 21 24 18 26
REMARK H PARENT 10 19 12 21 4 23 21 25 18 27
REMARK Flexibility Score: inf
ROOT
ATOM      1  C   UNL     1       9.146  13.489 -18.217  1.00  0.00     0.180 A 
ATOM      2  C   UNL     1       8.983  14.700 -17.520  1.00  0.00     0.208 A 
ATOM      3  C   UNL     1       8.803  15.886 -18.250  1.00  0.00     0.238 A 
ATOM      4  O   UNL     1       8.711  16.973 -17.622  1.00  0.00    -0.285 OA
ATOM      5  C   UNL     1       8.773  15.845 -19.665  1.00  0.00     0.111 A 
ATOM      6  C   UNL     1       8.557  16.979 -20.504  1.00  0.00     0.134 A 
ATOM      7  C   UNL     1       8.677  16.844 -21.892  1.00  0.00     0.093 A 
ATOM      8  C   UNL     1       8.941  15.605 -22.476  1.00  0.00     0.123 A 
ATOM      9  C   UNL     1       9.094  14.478 -21.668  1.00  0.00     0.094 A 
ATOM     10  C   UNL     1       9.016  14.587 -20.277  1.00  0.00     0.146 A 
ATOM     11  O   UNL     1       9.179  13.493 -19.544  1.00  0.00    -0.452 OA
ENDROOT
BRANCH   1  12
ATOM     12  C   UNL     1       9.316  12.194 -17.517  1.00  0.00     0.025 A 
ATOM     13  C   UNL     1      10.591  11.708 -17.177  1.00  0.00     0.016 A 
ATOM     14  C   UNL     1      10.725  10.496 -16.495  1.00  0.00     0.051 A 
ATOM     15  C   UNL     1       9.590   9.760 -16.131  1.00  0.00     0.157 A 
ATOM     16  C   UNL     1       8.181  11.462 -17.133  1.00  0.00     0.062 A 
ATOM     17  C   UNL     1       8.316  10.246 -16.448  1.00  0.00     0.158 A 
BRANCH  15  18
ATOM     18  O   UNL     1       9.720   8.550 -15.452  1.00  0.00    -0.504 OA
ATOM     19  H   UNL     1      10.390   8.434 -14.701  1.00  0.00     0.293 HD
ENDBRANCH  15  18
BRANCH  17  20
ATOM     20  O   UNL     1       7.188   9.515 -16.079  1.00  0.00    -0.504 OA
ATOM     21  H   UNL     1       6.259   9.783 -16.386  1.00  0.00     0.293 HD
ENDBRANCH  17  20
ENDBRANCH   1  12
BRANCH   2  22
ATOM     22  O   UNL     1       9.038  14.720 -16.124  1.00  0.00    -0.502 OA
ATOM     23  H   UNL     1       8.841  15.554 -15.585  1.00  0.00     0.293 HD
ENDBRANCH   2  22
BRANCH   6  24
ATOM     24  O   UNL     1       8.197  18.244 -20.029  1.00  0.00    -0.507 OA
ATOM     25  H   UNL     1       8.060  18.475 -19.056  1.00  0.00     0.293 HD
ENDBRANCH   6  24
BRANCH   8  26
ATOM     26  O   UNL     1       9.038  15.505 -23.862  1.00  0.00    -0.508 OA
ATOM     27  H   UNL     1       9.738  14.920 -24.303  1.00  0.00     0.293 HD
ENDBRANCH   8  26
TORSDOF 6
ENDMDL
MODEL 8
REMARK VINA RESULT:    -5.735      1.758      7.037
REMARK INTER + INTRA:          -7.229
REMARK INTER:                  -7.002
REMARK INTRA:                  -0.227
REMARK UNBOUND:                -0.320
REMARK SMILES O=c1c(O)c(-c2ccc(O)c(O)c2)oc2cc(O)cc(O)c12
REMARK SMILES IDX 5 1 3 2 2 3 1 4 22 5 20 6 19 7 17 8 16 9 15 10 14 11 6 12
REMARK SMILES IDX 7 13 8 14 9 15 13 16 11 17 10 18 12 20 4 22 21 24 18 26
REMARK H PARENT 10 19 12 21 4 23 21 25 18 27
REMARK Flexibility Score: inf
ROOT
ATOM      1  C   UNL     1       8.865  13.170 -18.288  1.00  0.00     0.180 A 
ATOM      2  C   UNL     1       7.864  13.263 -17.304  1.00  0.00     0.208 A 
ATOM      3  C   UNL     1       7.855  12.332 -16.253  1.00  0.00     0.238 A 
ATOM      4  O   UNL     1       6.926  12.387 -15.406  1.00  0.00    -0.285 OA
ATOM      5  C   UNL     1       8.854  11.331 -16.190  1.00  0.00     0.111 A 
ATOM      6  C   UNL     1       8.964  10.360 -15.148  1.00  0.00     0.134 A 
ATOM      7  C   UNL     1       9.913   9.337 -15.255  1.00  0.00     0.093 A 
ATOM      8  C   UNL     1      10.798   9.284 -16.332  1.00  0.00     0.123 A 
ATOM      9  C   UNL     1      10.738  10.262 -17.326  1.00  0.00     0.094 A 
ATOM     10  C   UNL     1       9.778  11.276 -17.265  1.00  0.00     0.146 A 
ATOM     11  O   UNL     1       9.748  12.180 -18.236  1.00  0.00    -0.452 OA
ENDROOT
BRANCH   1  12
ATOM     12  C   UNL     1       8.955  14.130 -19.412  1.00  0.00     0.025 A 
ATOM     13  C   UNL     1       8.603  13.758 -20.722  1.00  0.00     0.016 A 
ATOM     14  C   UNL     1       8.672  14.688 -21.763  1.00  0.00     0.051 A 
ATOM     15  C   UNL     1       9.081  16.003 -21.508  1.00  0.00     0.157 A 
ATOM     16  C   UNL     1       9.345  15.455 -19.160  1.00  0.00     0.062 A 
ATOM     17  C   UNL     1       9.415  16.389 -20.205  1.00  0.00     0.158 A 
BRANCH  15  18
ATOM     18  O   UNL     1       9.153  16.933 -22.544  1.00  0.00    -0.504 OA
ATOM     19  H   UNL     1       8.357  17.506 -22.799  1.00  0.00     0.293 HD
ENDBRANCH  15  18
BRANCH  17  20
ATOM     20  O   UNL     1       9.815  17.700 -19.954  1.00  0.00    -0.504 OA
ATOM     21  H   UNL     1      10.729  18.038 -20.231  1.00  0.00     0.293 HD
ENDBRANCH  17  20
ENDBRANCH   1  12
BRANCH   2  22
ATOM     22  O   UNL     1       6.875  14.245 -17.398  1.00  0.00    -0.502 OA
ATOM     23  H   UNL     1       7.089  15.234 -17.388  1.00  0.00     0.293 HD
ENDBRANCH   2  22
BRANCH   6  24
ATOM     24  O   UNL     1       8.191  10.374 -13.983  1.00  0.00    -0.507 OA
ATOM     25  H   UNL     1       8.559  10.482 -13.050  1.00  0.00     0.293 HD
ENDBRANCH   6  24
BRANCH   8  26
ATOM     26  O   UNL     1      11.740   8.260 -16.398  1.00  0.00    -0.508 OA
ATOM     27  H   UNL     1      11.975   7.813 -17.277  1.00  0.00     0.293 HD
ENDBRANCH   8  26
TORSDOF 6
ENDMDL
MODEL 9
REMARK VINA RESULT:    -5.515      2.126      7.150
REMARK INTER + INTRA:          -6.964
REMARK INTER:                  -6.781
REMARK INTRA:                  -0.183
REMARK UNBOUND:                -0.320
REMARK SMILES O=c1c(O)c(-c2ccc(O)c(O)c2)oc2cc(O)cc(O)c12
REMARK SMILES IDX 5 1 3 2 2 3 1 4 22 5 20 6 19 7 17 8 16 9 15 10 14 11 6 12
REMARK SMILES IDX 7 13 8 14 9 15 13 16 11 17 10 18 12 20 4 22 21 24 18 26
REMARK H PARENT 10 19 12 21 4 23 21 25 18 27
REMARK Flexibility Score: inf
ROOT
ATOM      1  C   UNL     1       8.651  11.433 -15.544  1.00  0.00     0.180 A 
ATOM      2  C   UNL     1       8.389  11.550 -14.167  1.00  0.00     0.208 A 
ATOM      3  C   UNL     1       7.902  10.433 -13.470  1.00  0.00     0.238 A 
ATOM      4  O   UNL     1       7.619  10.559 -12.250  1.00  0.00    -0.285 OA
ATOM      5  C   UNL     1       7.698   9.210 -14.153  1.00  0.00     0.111 A 
ATOM      6  C   UNL     1       7.246   8.003 -13.538  1.00  0.00     0.134 A 
ATOM      7  C   UNL     1       6.955   6.889 -14.334  1.00  0.00     0.093 A 
ATOM      8  C   UNL     1       7.161   6.915 -15.713  1.00  0.00     0.123 A 
ATOM      9  C   UNL     1       7.659   8.070 -16.317  1.00  0.00     0.094 A 
ATOM     10  C   UNL     1       7.925   9.211 -15.554  1.00  0.00     0.146 A 
ATOM     11  O   UNL     1       8.387  10.292 -16.169  1.00  0.00    -0.452 OA
ENDROOT
BRANCH   1  12
ATOM     12  C   UNL     1       9.189  12.559 -16.342  1.00  0.00     0.025 A 
ATOM     13  C   UNL     1      10.461  13.099 -16.080  1.00  0.00     0.016 A 
ATOM     14  C   UNL     1      10.958  14.145 -16.862  1.00  0.00     0.051 A 
ATOM     15  C   UNL     1      10.200  14.656 -17.923  1.00  0.00     0.157 A 
ATOM     16  C   UNL     1       8.442  13.062 -17.420  1.00  0.00     0.062 A 
ATOM     17  C   UNL     1       8.941  14.112 -18.204  1.00  0.00     0.158 A 
BRANCH  15  18
ATOM     18  O   UNL     1      10.692  15.701 -18.704  1.00  0.00    -0.504 OA
ATOM     19  H   UNL     1      11.672  15.761 -18.951  1.00  0.00     0.293 HD
ENDBRANCH  15  18
BRANCH  17  20
ATOM     20  O   UNL     1       8.192  14.618 -19.265  1.00  0.00    -0.504 OA
ATOM     21  H   UNL     1       8.072  14.096 -20.126  1.00  0.00     0.293 HD
ENDBRANCH  17  20
ENDBRANCH   1  12
BRANCH   2  22
ATOM     22  O   UNL     1       8.577  12.773 -13.517  1.00  0.00    -0.502 OA
ATOM     23  H   UNL     1       9.476  13.063 -13.154  1.00  0.00     0.293 HD
ENDBRANCH   2  22
BRANCH   6  24
ATOM     24  O   UNL     1       7.095   7.840 -12.157  1.00  0.00    -0.507 OA
ATOM     25  H   UNL     1       7.642   7.210 -11.590  1.00  0.00     0.293 HD
ENDBRANCH   6  24
BRANCH   8  26
ATOM     26  O   UNL     1       6.875   5.783 -16.472  1.00  0.00    -0.508 OA
ATOM     27  H   UNL     1       7.608   5.162 -16.794  1.00  0.00     0.293 HD
ENDBRANCH   8  26
TORSDOF 6
ENDMDL
