MODEL 1
REMARK VINA RESULT:    -3.865      0.000      0.000
REMARK INTER + INTRA:          -4.951
REMARK INTER:                  -4.656
REMARK INTRA:                  -0.295
REMARK UNBOUND:                -0.295
REMARK SMILES O=c1c(O)c(-c2ccc(O)c(O)c2)oc2cc(O)cc(O)c12
REMARK SMILES IDX 5 1 3 2 2 3 1 4 22 5 20 6 19 7 17 8 16 9 15 10 14 11 6 12
REMARK SMILES IDX 7 13 8 14 9 15 13 16 11 17 10 18 12 20 4 22 21 24 18 26
REMARK H PARENT 10 19 12 21 4 23 21 25 18 27
REMARK Flexibility Score: inf
ROOT
ATOM      1  C   UNL     1     -33.963  26.980  39.043  1.00  0.00     0.180 A 
ATOM      2  C   UNL     1     -34.908  27.037  38.000  1.00  0.00     0.208 A 
ATOM      3  C   UNL     1     -34.458  26.960  36.673  1.00  0.00     0.238 A 
ATOM      4  O   UNL     1     -35.295  26.999  35.731  1.00  0.00    -0.285 OA
ATOM      5  C   UNL     1     -33.077  26.846  36.410  1.00  0.00     0.111 A 
ATOM      6  C   UNL     1     -32.542  26.766  35.103  1.00  0.00     0.134 A 
ATOM      7  C   UNL     1     -31.154  26.664  34.924  1.00  0.00     0.093 A 
ATOM      8  C   UNL     1     -30.294  26.641  36.024  1.00  0.00     0.123 A 
ATOM      9  C   UNL     1     -30.816  26.720  37.318  1.00  0.00     0.094 A 
ATOM     10  C   UNL     1     -32.197  26.820  37.518  1.00  0.00     0.146 A 
ATOM     11  O   UNL     1     -32.667  26.887  38.758  1.00  0.00    -0.452 OA
ENDROOT
BRANCH   1  12
ATOM     12  C   UNL     1     -34.360  27.036  40.469  1.00  0.00     0.025 A 
ATOM     13  C   UNL     1     -34.420  25.875  41.260  1.00  0.00     0.016 A 
ATOM     14  C   UNL     1     -34.774  25.956  42.609  1.00  0.00     0.051 A 
ATOM     15  C   UNL     1     -35.062  27.198  43.190  1.00  0.00     0.157 A 
ATOM     16  C   UNL     1     -34.628  28.281  41.062  1.00  0.00     0.062 A 
ATOM     17  C   UNL     1     -34.984  28.363  42.417  1.00  0.00     0.158 A 
BRANCH  15  18
ATOM     18  O   UNL     1     -35.417  27.283  44.535  1.00  0.00    -0.504 OA
ATOM     19  H   UNL     1     -36.052  26.617  44.958  1.00  0.00     0.293 HD
ENDBRANCH  15  18
BRANCH  17  20
ATOM     20  O   UNL     1     -35.264  29.598  43.000  1.00  0.00    -0.504 OA
ATOM     21  H   UNL     1     -35.951  29.693  43.738  1.00  0.00     0.293 HD
ENDBRANCH  17  20
ENDBRANCH   1  12
BRANCH   2  22
ATOM     22  O   UNL     1     -36.265  27.199  38.286  1.00  0.00    -0.502 OA
ATOM     23  H   UNL     1     -36.793  28.007  37.975  1.00  0.00     0.293 HD
ENDBRANCH   2  22
BRANCH   6  24
ATOM     24  O   UNL     1     -33.374  26.788  33.983  1.00  0.00    -0.507 OA
ATOM     25  H   UNL     1     -34.384  26.793  34.069  1.00  0.00     0.293 HD
ENDBRANCH   6  24
BRANCH   8  26
ATOM     26  O   UNL     1     -28.920  26.541  35.819  1.00  0.00    -0.508 OA
ATOM     27  H   UNL     1     -28.267  26.535  36.594  1.00  0.00     0.293 HD
ENDBRANCH   8  26
TORSDOF 6
ENDMDL
MODEL 2
REMARK VINA RESULT:    -3.819      3.605      6.437
REMARK INTER + INTRA:          -4.896
REMARK INTER:                  -4.595
REMARK INTRA:                  -0.301
REMARK UNBOUND:                -0.295
REMARK SMILES O=c1c(O)c(-c2ccc(O)c(O)c2)oc2cc(O)cc(O)c12
REMARK SMILES IDX 5 1 3 2 2 3 1 4 22 5 20 6 19 7 17 8 16 9 15 10 14 11 6 12
REMARK SMILES IDX 7 13 8 14 9 15 13 16 11 17 10 18 12 20 4 22 21 24 18 26
REMARK H PARENT 10 19 12 21 4 23 21 25 18 27
REMARK Flexibility Score: inf
ROOT
ATOM      1  C   UNL     1     -30.429  27.855  34.553  1.00  0.00     0.180 A 
ATOM      2  C   UNL     1     -30.002  29.195  34.639  1.00  0.00     0.208 A 
ATOM      3  C   UNL     1     -28.973  29.634  33.790  1.00  0.00     0.238 A 
ATOM      4  O   UNL     1     -28.590  30.834  33.850  1.00  0.00    -0.285 OA
ATOM      5  C   UNL     1     -28.379  28.728  32.888  1.00  0.00     0.111 A 
ATOM      6  C   UNL     1     -27.336  29.089  32.003  1.00  0.00     0.134 A 
ATOM      7  C   UNL     1     -26.790  28.126  31.141  1.00  0.00     0.093 A 
ATOM      8  C   UNL     1     -27.265  26.812  31.148  1.00  0.00     0.123 A 
ATOM      9  C   UNL     1     -28.295  26.449  32.020  1.00  0.00     0.094 A 
ATOM     10  C   UNL     1     -28.854  27.394  32.886  1.00  0.00     0.146 A 
ATOM     11  O   UNL     1     -29.835  27.025  33.700  1.00  0.00    -0.452 OA
ENDROOT
BRANCH   1  12
ATOM     12  C   UNL     1     -31.520  27.322  35.400  1.00  0.00     0.025 A 
ATOM     13  C   UNL     1     -31.250  26.620  36.588  1.00  0.00     0.016 A 
ATOM     14  C   UNL     1     -32.296  26.148  37.384  1.00  0.00     0.051 A 
ATOM     15  C   UNL     1     -33.627  26.379  37.012  1.00  0.00     0.157 A 
ATOM     16  C   UNL     1     -32.856  27.570  35.043  1.00  0.00     0.062 A 
ATOM     17  C   UNL     1     -33.907  27.096  35.841  1.00  0.00     0.158 A 
BRANCH  15  18
ATOM     18  O   UNL     1     -34.674  25.909  37.802  1.00  0.00    -0.504 OA
ATOM     19  H   UNL     1     -34.580  25.068  38.360  1.00  0.00     0.293 HD
ENDBRANCH  15  18
BRANCH  17  20
ATOM     20  O   UNL     1     -35.232  27.332  35.477  1.00  0.00    -0.504 OA
ATOM     21  H   UNL     1     -35.966  27.415  36.171  1.00  0.00     0.293 HD
ENDBRANCH  17  20
ENDBRANCH   1  12
BRANCH   2  22
ATOM     22  O   UNL     1     -30.574  30.059  35.575  1.00  0.00    -0.502 OA
ATOM     23  H   UNL     1     -30.276  30.084  36.543  1.00  0.00     0.293 HD
ENDBRANCH   2  22
BRANCH   6  24
ATOM     24  O   UNL     1     -26.838  30.392  31.972  1.00  0.00    -0.507 OA
ATOM     25  H   UNL     1     -25.846  30.586  32.045  1.00  0.00     0.293 HD
ENDBRANCH   6  24
BRANCH   8  26
ATOM     26  O   UNL     1     -26.704  25.875  30.284  1.00  0.00    -0.508 OA
ATOM     27  H   UNL     1     -26.929  24.889  30.353  1.00  0.00     0.293 HD
ENDBRANCH   8  26
TORSDOF 6
ENDMDL
MODEL 3
REMARK VINA RESULT:    -3.817      3.518      8.839
REMARK INTER + INTRA:          -4.893
REMARK INTER:                  -4.568
REMARK INTRA:                  -0.325
REMARK UNBOUND:                -0.295
REMARK SMILES O=c1c(O)c(-c2ccc(O)c(O)c2)oc2cc(O)cc(O)c12
REMARK SMILES IDX 5 1 3 2 2 3 1 4 22 5 20 6 19 7 17 8 16 9 15 10 14 11 6 12
REMARK SMILES IDX 7 13 8 14 9 15 13 16 11 17 10 18 12 20 4 22 21 24 18 26
REMARK H PARENT 10 19 12 21 4 23 21 25 18 27
REMARK Flexibility Score: inf
ROOT
ATOM      1  C   UNL     1     -29.737  26.909  34.325  1.00  0.00     0.180 A 
ATOM      2  C   UNL     1     -29.251  26.548  35.598  1.00  0.00     0.208 A 
ATOM      3  C   UNL     1     -30.171  26.318  36.633  1.00  0.00     0.238 A 
ATOM      4  O   UNL     1     -29.749  25.984  37.774  1.00  0.00    -0.285 OA
ATOM      5  C   UNL     1     -31.550  26.468  36.387  1.00  0.00     0.111 A 
ATOM      6  C   UNL     1     -32.541  26.259  37.376  1.00  0.00     0.134 A 
ATOM      7  C   UNL     1     -33.895  26.439  37.055  1.00  0.00     0.093 A 
ATOM      8  C   UNL     1     -34.276  26.824  35.767  1.00  0.00     0.123 A 
ATOM      9  C   UNL     1     -33.303  27.033  34.786  1.00  0.00     0.094 A 
ATOM     10  C   UNL     1     -31.948  26.857  35.085  1.00  0.00     0.146 A 
ATOM     11  O   UNL     1     -31.044  27.056  34.134  1.00  0.00    -0.452 OA
ENDROOT
BRANCH   1  12
ATOM     12  C   UNL     1     -28.832  27.150  33.178  1.00  0.00     0.025 A 
ATOM     13  C   UNL     1     -28.525  26.131  32.259  1.00  0.00     0.016 A 
ATOM     14  C   UNL     1     -27.689  26.388  31.171  1.00  0.00     0.051 A 
ATOM     15  C   UNL     1     -27.156  27.669  30.977  1.00  0.00     0.157 A 
ATOM     16  C   UNL     1     -28.313  28.438  32.967  1.00  0.00     0.062 A 
ATOM     17  C   UNL     1     -27.472  28.697  31.874  1.00  0.00     0.158 A 
BRANCH  15  18
ATOM     18  O   UNL     1     -26.320  27.931  29.893  1.00  0.00    -0.504 OA
ATOM     19  H   UNL     1     -25.483  28.493  29.994  1.00  0.00     0.293 HD
ENDBRANCH  15  18
BRANCH  17  20
ATOM     20  O   UNL     1     -26.947  29.973  31.675  1.00  0.00    -0.504 OA
ATOM     21  H   UNL     1     -26.476  30.475  32.419  1.00  0.00     0.293 HD
ENDBRANCH  17  20
ENDBRANCH   1  12
BRANCH   2  22
ATOM     22  O   UNL     1     -27.877  26.453  35.828  1.00  0.00    -0.502 OA
ATOM     23  H   UNL     1     -27.451  25.632  36.241  1.00  0.00     0.293 HD
ENDBRANCH   2  22
BRANCH   6  24
ATOM     24  O   UNL     1     -32.193  25.875  38.671  1.00  0.00    -0.507 OA
ATOM     25  H   UNL     1     -31.865  26.546  39.357  1.00  0.00     0.293 HD
ENDBRANCH   6  24
BRANCH   8  26
ATOM     26  O   UNL     1     -35.627  26.997  35.475  1.00  0.00    -0.508 OA
ATOM     27  H   UNL     1     -36.345  26.468  35.956  1.00  0.00     0.293 HD
ENDBRANCH   8  26
TORSDOF 6
ENDMDL
MODEL 4
REMARK VINA RESULT:    -3.783     17.714     19.621
REMARK INTER + INTRA:          -4.853
REMARK INTER:                  -4.525
REMARK INTRA:                  -0.327
REMARK UNBOUND:                -0.295
REMARK SMILES O=c1c(O)c(-c2ccc(O)c(O)c2)oc2cc(O)cc(O)c12
REMARK SMILES IDX 5 1 3 2 2 3 1 4 22 5 20 6 19 7 17 8 16 9 15 10 14 11 6 12
REMARK SMILES IDX 7 13 8 14 9 15 13 16 11 17 10 18 12 20 4 22 21 24 18 26
REMARK H PARENT 10 19 12 21 4 23 21 25 18 27
REMARK Flexibility Score: inf
ROOT
ATOM      1  C   UNL     1     -30.003  44.447  34.489  1.00  0.00     0.180 A 
ATOM      2  C   UNL     1     -29.368  44.949  35.642  1.00  0.00     0.208 A 
ATOM      3  C   UNL     1     -30.158  45.345  36.732  1.00  0.00     0.238 A 
ATOM      4  O   UNL     1     -29.601  45.786  37.775  1.00  0.00    -0.285 OA
ATOM      5  C   UNL     1     -31.562  45.252  36.646  1.00  0.00     0.111 A 
ATOM      6  C   UNL     1     -32.430  45.633  37.698  1.00  0.00     0.134 A 
ATOM      7  C   UNL     1     -33.818  45.519  37.531  1.00  0.00     0.093 A 
ATOM      8  C   UNL     1     -34.354  45.033  36.336  1.00  0.00     0.123 A 
ATOM      9  C   UNL     1     -33.503  44.654  35.294  1.00  0.00     0.094 A 
ATOM     10  C   UNL     1     -32.116  44.759  35.440  1.00  0.00     0.146 A 
ATOM     11  O   UNL     1     -31.330  44.388  34.438  1.00  0.00    -0.452 OA
ENDROOT
BRANCH   1  12
ATOM     12  C   UNL     1     -29.238  43.992  33.305  1.00  0.00     0.025 A 
ATOM     13  C   UNL     1     -28.870  42.644  33.144  1.00  0.00     0.016 A 
ATOM     14  C   UNL     1     -28.170  42.233  32.007  1.00  0.00     0.051 A 
ATOM     15  C   UNL     1     -27.837  43.159  31.010  1.00  0.00     0.157 A 
ATOM     16  C   UNL     1     -28.921  44.911  32.292  1.00  0.00     0.062 A 
ATOM     17  C   UNL     1     -28.217  44.500  31.151  1.00  0.00     0.158 A 
BRANCH  15  18
ATOM     18  O   UNL     1     -27.137  42.754  29.875  1.00  0.00    -0.504 OA
ATOM     19  H   UNL     1     -26.618  41.885  29.855  1.00  0.00     0.293 HD
ENDBRANCH  15  18
BRANCH  17  20
ATOM     20  O   UNL     1     -27.891  45.418  30.153  1.00  0.00    -0.504 OA
ATOM     21  H   UNL     1     -28.578  45.733  29.478  1.00  0.00     0.293 HD
ENDBRANCH  17  20
ENDBRANCH   1  12
BRANCH   2  22
ATOM     22  O   UNL     1     -27.978  45.077  35.683  1.00  0.00    -0.502 OA
ATOM     23  H   UNL     1     -27.468  45.669  35.037  1.00  0.00     0.293 HD
ENDBRANCH   2  22
BRANCH   6  24
ATOM     24  O   UNL     1     -31.925  46.123  38.903  1.00  0.00    -0.507 OA
ATOM     25  H   UNL     1     -32.124  45.671  39.788  1.00  0.00     0.293 HD
ENDBRANCH   6  24
BRANCH   8  26
ATOM     26  O   UNL     1     -35.736  44.931  36.196  1.00  0.00    -0.508 OA
ATOM     27  H   UNL     1     -36.366  45.573  36.664  1.00  0.00     0.293 HD
ENDBRANCH   8  26
TORSDOF 6
ENDMDL
MODEL 5
REMARK VINA RESULT:    -3.756      3.781      8.602
REMARK INTER + INTRA:          -4.820
REMARK INTER:                  -4.489
REMARK INTRA:                  -0.331
REMARK UNBOUND:                -0.295
REMARK SMILES O=c1c(O)c(-c2ccc(O)c(O)c2)oc2cc(O)cc(O)c12
REMARK SMILES IDX 5 1 3 2 2 3 1 4 22 5 20 6 19 7 17 8 16 9 15 10 14 11 6 12
REMARK SMILES IDX 7 13 8 14 9 15 13 16 11 17 10 18 12 20 4 22 21 24 18 26
REMARK H PARENT 10 19 12 21 4 23 21 25 18 27
REMARK Flexibility Score: inf
ROOT
ATOM      1  C   UNL     1     -29.876  27.526  34.623  1.00  0.00     0.180 A 
ATOM      2  C   UNL     1     -29.814  28.487  35.651  1.00  0.00     0.208 A 
ATOM      3  C   UNL     1     -30.962  28.734  36.420  1.00  0.00     0.238 A 
ATOM      4  O   UNL     1     -30.915  29.584  37.350  1.00  0.00    -0.285 OA
ATOM      5  C   UNL     1     -32.153  28.035  36.137  1.00  0.00     0.111 A 
ATOM      6  C   UNL     1     -33.354  28.228  36.861  1.00  0.00     0.134 A 
ATOM      7  C   UNL     1     -34.502  27.499  36.512  1.00  0.00     0.093 A 
ATOM      8  C   UNL     1     -34.471  26.585  35.456  1.00  0.00     0.123 A 
ATOM      9  C   UNL     1     -33.288  26.390  34.738  1.00  0.00     0.094 A 
ATOM     10  C   UNL     1     -32.133  27.105  35.070  1.00  0.00     0.146 A 
ATOM     11  O   UNL     1     -31.022  26.896  34.376  1.00  0.00    -0.452 OA
ENDROOT
BRANCH   1  12
ATOM     12  C   UNL     1     -28.703  27.195  33.783  1.00  0.00     0.025 A 
ATOM     13  C   UNL     1     -27.778  26.210  34.170  1.00  0.00     0.016 A 
ATOM     14  C   UNL     1     -26.691  25.898  33.349  1.00  0.00     0.051 A 
ATOM     15  C   UNL     1     -26.520  26.557  32.124  1.00  0.00     0.157 A 
ATOM     16  C   UNL     1     -28.538  27.837  32.545  1.00  0.00     0.062 A 
ATOM     17  C   UNL     1     -27.447  27.525  31.719  1.00  0.00     0.158 A 
BRANCH  15  18
ATOM     18  O   UNL     1     -25.437  26.250  31.303  1.00  0.00    -0.504 OA
ATOM     19  H   UNL     1     -25.055  25.313  31.257  1.00  0.00     0.293 HD
ENDBRANCH  15  18
BRANCH  17  20
ATOM     20  O   UNL     1     -27.278  28.174  30.497  1.00  0.00    -0.504 OA
ATOM     21  H   UNL     1     -28.071  28.454  29.932  1.00  0.00     0.293 HD
ENDBRANCH  17  20
ENDBRANCH   1  12
BRANCH   2  22
ATOM     22  O   UNL     1     -28.634  29.201  35.879  1.00  0.00    -0.502 OA
ATOM     23  H   UNL     1     -28.595  30.212  35.831  1.00  0.00     0.293 HD
ENDBRANCH   2  22
BRANCH   6  24
ATOM     24  O   UNL     1     -33.418  29.134  37.919  1.00  0.00    -0.507 OA
ATOM     25  H   UNL     1     -34.218  29.742  38.054  1.00  0.00     0.293 HD
ENDBRANCH   6  24
BRANCH   8  26
ATOM     26  O   UNL     1     -35.625  25.876  35.129  1.00  0.00    -0.508 OA
ATOM     27  H   UNL     1     -36.293  25.595  35.838  1.00  0.00     0.293 HD
ENDBRANCH   8  26
TORSDOF 6
ENDMDL
MODEL 6
REMARK VINA RESULT:    -3.754      3.707      6.280
REMARK INTER + INTRA:          -4.817
REMARK INTER:                  -4.496
REMARK INTRA:                  -0.321
REMARK UNBOUND:                -0.295
REMARK SMILES O=c1c(O)c(-c2ccc(O)c(O)c2)oc2cc(O)cc(O)c12
REMARK SMILES IDX 5 1 3 2 2 3 1 4 22 5 20 6 19 7 17 8 16 9 15 10 14 11 6 12
REMARK SMILES IDX 7 13 8 14 9 15 13 16 11 17 10 18 12 20 4 22 21 24 18 26
REMARK H PARENT 10 19 12 21 4 23 21 25 18 27
REMARK Flexibility Score: inf
ROOT
ATOM      1  C   UNL     1     -30.305  27.065  35.130  1.00  0.00     0.180 A 
ATOM      2  C   UNL     1     -29.191  27.444  35.905  1.00  0.00     0.208 A 
ATOM      3  C   UNL     1     -27.922  27.460  35.305  1.00  0.00     0.238 A 
ATOM      4  O   UNL     1     -26.919  27.808  35.985  1.00  0.00    -0.285 OA
ATOM      5  C   UNL     1     -27.785  27.079  33.954  1.00  0.00     0.111 A 
ATOM      6  C   UNL     1     -26.542  27.063  33.277  1.00  0.00     0.134 A 
ATOM      7  C   UNL     1     -26.487  26.662  31.933  1.00  0.00     0.093 A 
ATOM      8  C   UNL     1     -27.647  26.277  31.257  1.00  0.00     0.123 A 
ATOM      9  C   UNL     1     -28.877  26.290  31.920  1.00  0.00     0.094 A 
ATOM     10  C   UNL     1     -28.954  26.688  33.259  1.00  0.00     0.146 A 
ATOM     11  O   UNL     1     -30.136  26.698  33.863  1.00  0.00    -0.452 OA
ENDROOT
BRANCH   1  12
ATOM     12  C   UNL     1     -31.678  27.042  35.686  1.00  0.00     0.025 A 
ATOM     13  C   UNL     1     -32.219  25.876  36.255  1.00  0.00     0.016 A 
ATOM     14  C   UNL     1     -33.508  25.885  36.795  1.00  0.00     0.051 A 
ATOM     15  C   UNL     1     -34.269  27.060  36.785  1.00  0.00     0.157 A 
ATOM     16  C   UNL     1     -32.437  28.223  35.698  1.00  0.00     0.062 A 
ATOM     17  C   UNL     1     -33.732  28.233  36.240  1.00  0.00     0.158 A 
BRANCH  15  18
ATOM     18  O   UNL     1     -35.555  27.074  37.321  1.00  0.00    -0.504 OA
ATOM     19  H   UNL     1     -36.358  26.773  36.780  1.00  0.00     0.293 HD
ENDBRANCH  15  18
BRANCH  17  20
ATOM     20  O   UNL     1     -34.489  29.404  36.238  1.00  0.00    -0.504 OA
ATOM     21  H   UNL     1     -34.453  30.057  35.463  1.00  0.00     0.293 HD
ENDBRANCH  17  20
ENDBRANCH   1  12
BRANCH   2  22
ATOM     22  O   UNL     1     -29.348  27.770  37.254  1.00  0.00    -0.502 OA
ATOM     23  H   UNL     1     -29.076  27.139  37.999  1.00  0.00     0.293 HD
ENDBRANCH   2  22
BRANCH   6  24
ATOM     24  O   UNL     1     -25.366  27.441  33.925  1.00  0.00    -0.507 OA
ATOM     25  H   UNL     1     -25.334  27.593  34.927  1.00  0.00     0.293 HD
ENDBRANCH   6  24
BRANCH   8  26
ATOM     26  O   UNL     1     -27.564  25.882  29.924  1.00  0.00    -0.508 OA
ATOM     27  H   UNL     1     -28.365  25.935  29.304  1.00  0.00     0.293 HD
ENDBRANCH   8  26
TORSDOF 6
ENDMDL
MODEL 7
REMARK VINA RESULT:    -3.711     17.773     18.653
REMARK INTER + INTRA:          -4.765
REMARK INTER:                  -4.434
REMARK INTRA:                  -0.331
REMARK UNBOUND:                -0.295
REMARK SMILES O=c1c(O)c(-c2ccc(O)c(O)c2)oc2cc(O)cc(O)c12
REMARK SMILES IDX 5 1 3 2 2 3 1 4 22 5 20 6 19 7 17 8 16 9 15 10 14 11 6 12
REMARK SMILES IDX 7 13 8 14 9 15 13 16 11 17 10 18 12 20 4 22 21 24 18 26
REMARK H PARENT 10 19 12 21 4 23 21 25 18 27
REMARK Flexibility Score: inf
ROOT
ATOM      1  C   UNL     1     -30.480  44.623  34.918  1.00  0.00     0.180 A 
ATOM      2  C   UNL     1     -29.460  44.387  35.861  1.00  0.00     0.208 A 
ATOM      3  C   UNL     1     -28.133  44.287  35.414  1.00  0.00     0.238 A 
ATOM      4  O   UNL     1     -27.210  44.087  36.250  1.00  0.00    -0.285 OA
ATOM      5  C   UNL     1     -27.851  44.404  34.038  1.00  0.00     0.111 A 
ATOM      6  C   UNL     1     -26.542  44.312  33.506  1.00  0.00     0.134 A 
ATOM      7  C   UNL     1     -26.344  44.430  32.122  1.00  0.00     0.093 A 
ATOM      8  C   UNL     1     -27.426  44.637  31.262  1.00  0.00     0.123 A 
ATOM      9  C   UNL     1     -28.720  44.729  31.782  1.00  0.00     0.094 A 
ATOM     10  C   UNL     1     -28.939  44.616  33.158  1.00  0.00     0.146 A 
ATOM     11  O   UNL     1     -30.177  44.714  33.626  1.00  0.00    -0.452 OA
ENDROOT
BRANCH   1  12
ATOM     12  C   UNL     1     -31.900  44.760  35.314  1.00  0.00     0.025 A 
ATOM     13  C   UNL     1     -32.458  46.013  35.623  1.00  0.00     0.016 A 
ATOM     14  C   UNL     1     -33.807  46.121  35.970  1.00  0.00     0.051 A 
ATOM     15  C   UNL     1     -34.621  44.982  36.001  1.00  0.00     0.157 A 
ATOM     16  C   UNL     1     -32.726  43.624  35.325  1.00  0.00     0.062 A 
ATOM     17  C   UNL     1     -34.081  43.731  35.674  1.00  0.00     0.158 A 
BRANCH  15  18
ATOM     18  O   UNL     1     -35.966  45.084  36.348  1.00  0.00    -0.504 OA
ATOM     19  H   UNL     1     -36.366  45.958  36.668  1.00  0.00     0.293 HD
ENDBRANCH  15  18
BRANCH  17  20
ATOM     20  O   UNL     1     -34.895  42.600  35.699  1.00  0.00    -0.504 OA
ATOM     21  H   UNL     1     -35.499  42.364  34.919  1.00  0.00     0.293 HD
ENDBRANCH  17  20
ENDBRANCH   1  12
BRANCH   2  22
ATOM     22  O   UNL     1     -29.773  44.226  37.213  1.00  0.00    -0.502 OA
ATOM     23  H   UNL     1     -30.236  43.398  37.568  1.00  0.00     0.293 HD
ENDBRANCH   2  22
BRANCH   6  24
ATOM     24  O   UNL     1     -25.441  44.104  34.337  1.00  0.00    -0.507 OA
ATOM     25  H   UNL     1     -24.597  44.658  34.253  1.00  0.00     0.293 HD
ENDBRANCH   6  24
BRANCH   8  26
ATOM     26  O   UNL     1     -27.202  44.749  29.892  1.00  0.00    -0.508 OA
ATOM     27  H   UNL     1     -27.925  45.077  29.262  1.00  0.00     0.293 HD
ENDBRANCH   8  26
TORSDOF 6
ENDMDL
MODEL 8
REMARK VINA RESULT:    -3.687     17.645     19.379
REMARK INTER + INTRA:          -4.737
REMARK INTER:                  -4.407
REMARK INTRA:                  -0.330
REMARK UNBOUND:                -0.295
REMARK SMILES O=c1c(O)c(-c2ccc(O)c(O)c2)oc2cc(O)cc(O)c12
REMARK SMILES IDX 5 1 3 2 2 3 1 4 22 5 20 6 19 7 17 8 16 9 15 10 14 11 6 12
REMARK SMILES IDX 7 13 8 14 9 15 13 16 11 17 10 18 12 20 4 22 21 24 18 26
REMARK H PARENT 10 19 12 21 4 23 21 25 18 27
REMARK Flexibility Score: inf
ROOT
ATOM      1  C   UNL     1     -29.550  44.031  33.274  1.00  0.00     0.180 A 
ATOM      2  C   UNL     1     -29.911  42.670  33.241  1.00  0.00     0.208 A 
ATOM      3  C   UNL     1     -31.024  42.246  33.985  1.00  0.00     0.238 A 
ATOM      4  O   UNL     1     -31.364  41.032  33.954  1.00  0.00    -0.285 OA
ATOM      5  C   UNL     1     -31.741  43.180  34.760  1.00  0.00     0.111 A 
ATOM      6  C   UNL     1     -32.870  42.834  35.541  1.00  0.00     0.134 A 
ATOM      7  C   UNL     1     -33.524  43.821  36.294  1.00  0.00     0.093 A 
ATOM      8  C   UNL     1     -33.072  45.142  36.282  1.00  0.00     0.123 A 
ATOM      9  C   UNL     1     -31.958  45.490  35.514  1.00  0.00     0.094 A 
ATOM     10  C   UNL     1     -31.292  44.522  34.755  1.00  0.00     0.146 A 
ATOM     11  O   UNL     1     -30.240  44.881  34.029  1.00  0.00    -0.452 OA
ENDROOT
BRANCH   1  12
ATOM     12  C   UNL     1     -28.401  44.558  32.502  1.00  0.00     0.025 A 
ATOM     13  C   UNL     1     -28.546  44.982  31.169  1.00  0.00     0.016 A 
ATOM     14  C   UNL     1     -27.454  45.499  30.469  1.00  0.00     0.051 A 
ATOM     15  C   UNL     1     -26.204  45.612  31.092  1.00  0.00     0.157 A 
ATOM     16  C   UNL     1     -27.152  44.694  33.129  1.00  0.00     0.062 A 
ATOM     17  C   UNL     1     -26.054  45.212  32.426  1.00  0.00     0.158 A 
BRANCH  15  18
ATOM     18  O   UNL     1     -25.112  46.125  30.397  1.00  0.00    -0.504 OA
ATOM     19  H   UNL     1     -24.178  46.109  30.791  1.00  0.00     0.293 HD
ENDBRANCH  15  18
BRANCH  17  20
ATOM     20  O   UNL     1     -24.811  45.332  33.046  1.00  0.00    -0.504 OA
ATOM     21  H   UNL     1     -24.365  46.234  33.170  1.00  0.00     0.293 HD
ENDBRANCH  17  20
ENDBRANCH   1  12
BRANCH   2  22
ATOM     22  O   UNL     1     -29.155  41.756  32.503  1.00  0.00    -0.502 OA
ATOM     23  H   UNL     1     -28.220  41.479  32.778  1.00  0.00     0.293 HD
ENDBRANCH   2  22
BRANCH   6  24
ATOM     24  O   UNL     1     -33.345  41.522  35.575  1.00  0.00    -0.507 OA
ATOM     25  H   UNL     1     -33.467  41.022  36.448  1.00  0.00     0.293 HD
ENDBRANCH   6  24
BRANCH   8  26
ATOM     26  O   UNL     1     -33.739  46.102  37.040  1.00  0.00    -0.508 OA
ATOM     27  H   UNL     1     -34.672  46.416  36.795  1.00  0.00     0.293 HD
ENDBRANCH   8  26
TORSDOF 6
ENDMDL
MODEL 9
REMARK VINA RESULT:    -3.671      1.832      7.084
REMARK INTER + INTRA:          -4.718
REMARK INTER:                  -4.406
REMARK INTRA:                  -0.311
REMARK UNBOUND:                -0.295
REMARK SMILES O=c1c(O)c(-c2ccc(O)c(O)c2)oc2cc(O)cc(O)c12
REMARK SMILES IDX 5 1 3 2 2 3 1 4 22 5 20 6 19 7 17 8 16 9 15 10 14 11 6 12
REMARK SMILES IDX 7 13 8 14 9 15 13 16 11 17 10 18 12 20 4 22 21 24 18 26
REMARK H PARENT 10 19 12 21 4 23 21 25 18 27
REMARK Flexibility Score: inf
ROOT
ATOM      1  C   UNL     1     -34.829  28.150  39.410  1.00  0.00     0.180 A 
ATOM      2  C   UNL     1     -35.600  29.309  39.627  1.00  0.00     0.208 A 
ATOM      3  C   UNL     1     -35.990  29.629  40.937  1.00  0.00     0.238 A 
ATOM      4  O   UNL     1     -36.671  30.670  41.145  1.00  0.00    -0.285 OA
ATOM      5  C   UNL     1     -35.623  28.779  42.000  1.00  0.00     0.111 A 
ATOM      6  C   UNL     1     -35.979  29.027  43.348  1.00  0.00     0.134 A 
ATOM      7  C   UNL     1     -35.582  28.128  44.349  1.00  0.00     0.093 A 
ATOM      8  C   UNL     1     -34.840  26.989  44.030  1.00  0.00     0.123 A 
ATOM      9  C   UNL     1     -34.485  26.738  42.701  1.00  0.00     0.094 A 
ATOM     10  C   UNL     1     -34.869  27.623  41.688  1.00  0.00     0.146 A 
ATOM     11  O   UNL     1     -34.514  27.365  40.436  1.00  0.00    -0.452 OA
ENDROOT
BRANCH   1  12
ATOM     12  C   UNL     1     -34.364  27.757  38.061  1.00  0.00     0.025 A 
ATOM     13  C   UNL     1     -33.064  28.060  37.616  1.00  0.00     0.016 A 
ATOM     14  C   UNL     1     -32.639  27.657  36.348  1.00  0.00     0.051 A 
ATOM     15  C   UNL     1     -33.499  26.935  35.511  1.00  0.00     0.157 A 
ATOM     16  C   UNL     1     -35.214  27.015  37.226  1.00  0.00     0.062 A 
ATOM     17  C   UNL     1     -34.788  26.610  35.952  1.00  0.00     0.158 A 
BRANCH  15  18
ATOM     18  O   UNL     1     -33.080  26.533  34.245  1.00  0.00    -0.504 OA
ATOM     19  H   UNL     1     -32.655  27.185  33.595  1.00  0.00     0.293 HD
ENDBRANCH  15  18
BRANCH  17  20
ATOM     20  O   UNL     1     -35.640  25.886  35.119  1.00  0.00    -0.504 OA
ATOM     21  H   UNL     1     -35.933  26.246  34.218  1.00  0.00     0.293 HD
ENDBRANCH  17  20
ENDBRANCH   1  12
BRANCH   2  22
ATOM     22  O   UNL     1     -35.993  30.108  38.550  1.00  0.00    -0.502 OA
ATOM     23  H   UNL     1     -36.877  30.601  38.534  1.00  0.00     0.293 HD
ENDBRANCH   2  22
BRANCH   6  24
ATOM     24  O   UNL     1     -36.721  30.155  43.699  1.00  0.00    -0.507 OA
ATOM     25  H   UNL     1     -37.690  30.087  43.988  1.00  0.00     0.293 HD
ENDBRANCH   6  24
BRANCH   8  26
ATOM     26  O   UNL     1     -34.460  26.111  45.043  1.00  0.00    -0.508 OA
ATOM     27  H   UNL     1     -34.586  26.345  46.021  1.00  0.00     0.293 HD
ENDBRANCH   8  26
TORSDOF 6
ENDMDL
