MODEL 1
REMARK VINA RESULT:    -3.164      0.000      0.000
REMARK INTER + INTRA:          -7.840
REMARK INTER:                  -6.123
REMARK INTRA:                  -1.717
REMARK UNBOUND:                -1.717
REMARK SMILES CCCCCCCCCCCCCCCCCC(=O)[O-]
REMARK SMILES IDX 10 1 11 2 12 3 13 4 14 5 15 6 16 7 17 8 18 9 19 10 20 11
REMARK SMILES IDX 9 12 8 13 7 14 6 15 5 16 4 17 3 18 2 19 1 20
REMARK H PARENT
REMARK Flexibility Score: inf
ROOT
ATOM      1  C   UNL     1      15.472  -7.792   6.100  1.00  0.00     0.000 C 
ENDROOT
BRANCH   1   2
ATOM      2  C   UNL     1      13.928  -7.781   6.143  1.00  0.00     0.000 C 
BRANCH   2   3
ATOM      3  C   UNL     1      13.310  -7.731   4.734  1.00  0.00     0.000 C 
BRANCH   3   4
ATOM      4  C   UNL     1      12.008  -6.916   4.687  1.00  0.00     0.000 C 
BRANCH   4   5
ATOM      5  C   UNL     1      10.976  -7.383   5.724  1.00  0.00     0.000 C 
BRANCH   5   6
ATOM      6  C   UNL     1       9.551  -7.043   5.273  1.00  0.00     0.000 C 
BRANCH   6   7
ATOM      7  C   UNL     1       8.867  -8.264   4.639  1.00  0.00     0.006 C 
BRANCH   7   8
ATOM      8  C   UNL     1       8.885  -9.486   5.565  1.00  0.00     0.053 C 
BRANCH   8   9
ATOM      9  C   UNL     1       7.971  -9.307   6.739  1.00  0.00     0.041 C 
ATOM     10  O   UNL     1       8.444  -9.183   7.899  1.00  0.00    -0.550 OA
ATOM     11  O   UNL     1       6.596  -9.243   6.546  1.00  0.00    -0.550 OA
ENDBRANCH   8   9
ENDBRANCH   7   8
ENDBRANCH   6   7
ENDBRANCH   5   6
ENDBRANCH   4   5
ENDBRANCH   3   4
ENDBRANCH   2   3
ENDBRANCH   1   2
BRANCH   1  12
ATOM     12  C   UNL     1      16.092  -6.390   5.971  1.00  0.00     0.000 C 
BRANCH  12  13
ATOM     13  C   UNL     1      16.440  -6.023   4.519  1.00  0.00    -0.000 C 
BRANCH  13  14
ATOM     14  C   UNL     1      17.584  -6.878   3.952  1.00  0.00    -0.000 C 
BRANCH  14  15
ATOM     15  C   UNL     1      18.934  -6.146   3.968  1.00  0.00    -0.000 C 
BRANCH  15  16
ATOM     16  C   UNL     1      19.926  -6.846   4.910  1.00  0.00    -0.000 C 
BRANCH  16  17
ATOM     17  C   UNL     1      19.671  -6.523   6.391  1.00  0.00    -0.000 C 
BRANCH  17  18
ATOM     18  C   UNL     1      19.202  -7.751   7.191  1.00  0.00    -0.000 C 
BRANCH  18  19
ATOM     19  C   UNL     1      19.632  -9.075   6.542  1.00  0.00    -0.003 C 
ATOM     20  C   UNL     1      18.451  -9.997   6.238  1.00  0.00     0.004 C 
ENDBRANCH  18  19
ENDBRANCH  17  18
ENDBRANCH  16  17
ENDBRANCH  15  16
ENDBRANCH  14  15
ENDBRANCH  13  14
ENDBRANCH  12  13
ENDBRANCH   1  12
TORSDOF 16
ENDMDL
MODEL 2
REMARK VINA RESULT:    -3.053      1.990      4.073
REMARK INTER + INTRA:          -7.625
REMARK INTER:                  -6.648
REMARK INTRA:                  -0.978
REMARK UNBOUND:                -1.717
REMARK SMILES CCCCCCCCCCCCCCCCCC(=O)[O-]
REMARK SMILES IDX 10 1 11 2 12 3 13 4 14 5 15 6 16 7 17 8 18 9 19 10 20 11
REMARK SMILES IDX 9 12 8 13 7 14 6 15 5 16 4 17 3 18 2 19 1 20
REMARK H PARENT
REMARK Flexibility Score: inf
ROOT
ATOM      1  C   UNL     1      11.032  -7.220   5.745  1.00  0.00     0.000 C 
ENDROOT
BRANCH   1   2
ATOM      2  C   UNL     1       9.555  -7.543   5.434  1.00  0.00     0.000 C 
BRANCH   2   3
ATOM      3  C   UNL     1       9.183  -8.987   5.817  1.00  0.00     0.000 C 
BRANCH   3   4
ATOM      4  C   UNL     1       8.636  -9.099   7.249  1.00  0.00     0.000 C 
BRANCH   4   5
ATOM      5  C   UNL     1       7.106  -9.206   7.293  1.00  0.00     0.000 C 
BRANCH   5   6
ATOM      6  C   UNL     1       6.585 -10.091   6.155  1.00  0.00     0.000 C 
BRANCH   6   7
ATOM      7  C   UNL     1       5.408  -9.421   5.428  1.00  0.00     0.006 C 
BRANCH   7   8
ATOM      8  C   UNL     1       5.839  -8.161   4.667  1.00  0.00     0.053 C 
BRANCH   8   9
ATOM      9  C   UNL     1       4.971  -6.986   5.002  1.00  0.00     0.041 C 
ATOM     10  O   UNL     1       5.457  -5.988   5.597  1.00  0.00    -0.550 OA
ATOM     11  O   UNL     1       3.633  -6.979   4.626  1.00  0.00    -0.550 OA
ENDBRANCH   8   9
ENDBRANCH   7   8
ENDBRANCH   6   7
ENDBRANCH   5   6
ENDBRANCH   4   5
ENDBRANCH   3   4
ENDBRANCH   2   3
ENDBRANCH   1   2
BRANCH   1  12
ATOM     12  C   UNL     1      11.881  -6.964   4.489  1.00  0.00     0.000 C 
BRANCH  12  13
ATOM     13  C   UNL     1      13.378  -7.234   4.714  1.00  0.00    -0.000 C 
BRANCH  13  14
ATOM     14  C   UNL     1      13.680  -7.739   6.134  1.00  0.00    -0.000 C 
BRANCH  14  15
ATOM     15  C   UNL     1      15.074  -8.373   6.252  1.00  0.00    -0.000 C 
BRANCH  15  16
ATOM     16  C   UNL     1      16.152  -7.295   6.442  1.00  0.00    -0.000 C 
BRANCH  16  17
ATOM     17  C   UNL     1      17.350  -7.478   5.496  1.00  0.00    -0.000 C 
BRANCH  17  18
ATOM     18  C   UNL     1      18.631  -7.895   6.239  1.00  0.00    -0.000 C 
BRANCH  18  19
ATOM     19  C   UNL     1      19.339  -6.705   6.905  1.00  0.00    -0.003 C 
ATOM     20  C   UNL     1      19.005  -6.573   8.391  1.00  0.00     0.004 C 
ENDBRANCH  18  19
ENDBRANCH  17  18
ENDBRANCH  16  17
ENDBRANCH  15  16
ENDBRANCH  14  15
ENDBRANCH  13  14
ENDBRANCH  12  13
ENDBRANCH   1  12
TORSDOF 16
ENDMDL
MODEL 3
REMARK VINA RESULT:    -3.042      4.039     10.068
REMARK INTER + INTRA:          -7.604
REMARK INTER:                  -6.383
REMARK INTRA:                  -1.221
REMARK UNBOUND:                -1.717
REMARK SMILES CCCCCCCCCCCCCCCCCC(=O)[O-]
REMARK SMILES IDX 10 1 11 2 12 3 13 4 14 5 15 6 16 7 17 8 18 9 19 10 20 11
REMARK SMILES IDX 9 12 8 13 7 14 6 15 5 16 4 17 3 18 2 19 1 20
REMARK H PARENT
REMARK Flexibility Score: inf
ROOT
ATOM      1  C   UNL     1       9.817  -7.133   4.933  1.00  0.00     0.000 C 
ENDROOT
BRANCH   1   2
ATOM      2  C   UNL     1      11.146  -6.749   4.246  1.00  0.00     0.000 C 
BRANCH   2   3
ATOM      3  C   UNL     1      12.360  -7.416   4.917  1.00  0.00     0.000 C 
BRANCH   3   4
ATOM      4  C   UNL     1      13.679  -7.117   4.188  1.00  0.00     0.000 C 
BRANCH   4   5
ATOM      5  C   UNL     1      14.896  -7.156   5.123  1.00  0.00     0.000 C 
BRANCH   5   6
ATOM      6  C   UNL     1      16.011  -6.238   4.611  1.00  0.00     0.000 C 
BRANCH   6   7
ATOM      7  C   UNL     1      17.396  -6.788   4.986  1.00  0.00     0.006 C 
BRANCH   7   8
ATOM      8  C   UNL     1      17.512  -7.097   6.484  1.00  0.00     0.053 C 
BRANCH   8   9
ATOM      9  C   UNL     1      18.857  -6.721   7.026  1.00  0.00     0.041 C 
ATOM     10  O   UNL     1      19.827  -6.536   6.244  1.00  0.00    -0.550 OA
ATOM     11  O   UNL     1      19.031  -6.541   8.393  1.00  0.00    -0.550 OA
ENDBRANCH   8   9
ENDBRANCH   7   8
ENDBRANCH   6   7
ENDBRANCH   5   6
ENDBRANCH   4   5
ENDBRANCH   3   4
ENDBRANCH   2   3
ENDBRANCH   1   2
BRANCH   1  12
ATOM     12  C   UNL     1      10.008  -7.920   6.240  1.00  0.00     0.000 C 
BRANCH  12  13
ATOM     13  C   UNL     1       9.088  -9.149   6.337  1.00  0.00    -0.000 C 
BRANCH  13  14
ATOM     14  C   UNL     1       8.252  -9.161   7.625  1.00  0.00    -0.000 C 
BRANCH  14  15
ATOM     15  C   UNL     1       6.862  -9.782   7.422  1.00  0.00    -0.000 C 
BRANCH  15  16
ATOM     16  C   UNL     1       6.610 -10.088   5.938  1.00  0.00    -0.000 C 
BRANCH  16  17
ATOM     17  C   UNL     1       5.675  -9.067   5.270  1.00  0.00    -0.000 C 
BRANCH  17  18
ATOM     18  C   UNL     1       6.362  -8.291   4.133  1.00  0.00    -0.000 C 
BRANCH  18  19
ATOM     19  C   UNL     1       5.864  -6.842   4.024  1.00  0.00    -0.003 C 
ATOM     20  C   UNL     1       5.557  -6.217   5.385  1.00  0.00     0.004 C 
ENDBRANCH  18  19
ENDBRANCH  17  18
ENDBRANCH  16  17
ENDBRANCH  15  16
ENDBRANCH  14  15
ENDBRANCH  13  14
ENDBRANCH  12  13
ENDBRANCH   1  12
TORSDOF 16
ENDMDL
MODEL 4
REMARK VINA RESULT:    -2.991      3.613      8.950
REMARK INTER + INTRA:          -7.505
REMARK INTER:                  -6.149
REMARK INTRA:                  -1.356
REMARK UNBOUND:                -1.717
REMARK SMILES CCCCCCCCCCCCCCCCCC(=O)[O-]
REMARK SMILES IDX 10 1 11 2 12 3 13 4 14 5 15 6 16 7 17 8 18 9 19 10 20 11
REMARK SMILES IDX 9 12 8 13 7 14 6 15 5 16 4 17 3 18 2 19 1 20
REMARK H PARENT
REMARK Flexibility Score: inf
ROOT
ATOM      1  C   UNL     1      14.090  -7.882   6.337  1.00  0.00     0.000 C 
ENDROOT
BRANCH   1   2
ATOM      2  C   UNL     1      15.573  -7.486   6.505  1.00  0.00     0.000 C 
BRANCH   2   3
ATOM      3  C   UNL     1      16.019  -6.449   5.459  1.00  0.00     0.000 C 
BRANCH   3   4
ATOM      4  C   UNL     1      17.141  -6.972   4.547  1.00  0.00     0.000 C 
BRANCH   4   5
ATOM      5  C   UNL     1      17.527  -8.425   4.855  1.00  0.00     0.000 C 
BRANCH   5   6
ATOM      6  C   UNL     1      18.988  -8.520   5.309  1.00  0.00     0.000 C 
BRANCH   6   7
ATOM      7  C   UNL     1      19.410  -7.260   6.080  1.00  0.00     0.006 C 
BRANCH   7   8
ATOM      8  C   UNL     1      19.464  -7.497   7.594  1.00  0.00     0.053 C 
BRANCH   8   9
ATOM      9  C   UNL     1      18.906  -6.336   8.359  1.00  0.00     0.041 C 
ATOM     10  O   UNL     1      17.680  -6.295   8.645  1.00  0.00    -0.550 OA
ATOM     11  O   UNL     1      19.747  -5.315   8.786  1.00  0.00    -0.550 OA
ENDBRANCH   8   9
ENDBRANCH   7   8
ENDBRANCH   6   7
ENDBRANCH   5   6
ENDBRANCH   4   5
ENDBRANCH   3   4
ENDBRANCH   2   3
ENDBRANCH   1   2
BRANCH   1  12
ATOM     12  C   UNL     1      13.499  -7.478   4.976  1.00  0.00     0.000 C 
BRANCH  12  13
ATOM     13  C   UNL     1      12.891  -8.667   4.213  1.00  0.00    -0.000 C 
BRANCH  13  14
ATOM     14  C   UNL     1      11.365  -8.561   4.073  1.00  0.00    -0.000 C 
BRANCH  14  15
ATOM     15  C   UNL     1      10.816  -7.219   4.579  1.00  0.00    -0.000 C 
BRANCH  15  16
ATOM     16  C   UNL     1       9.864  -7.429   5.766  1.00  0.00    -0.000 C 
BRANCH  16  17
ATOM     17  C   UNL     1       9.147  -8.788   5.722  1.00  0.00    -0.000 C 
BRANCH  17  18
ATOM     18  C   UNL     1       7.623  -8.658   5.885  1.00  0.00    -0.000 C 
BRANCH  18  19
ATOM     19  C   UNL     1       7.063  -9.600   6.962  1.00  0.00    -0.003 C 
ATOM     20  C   UNL     1       7.665  -9.343   8.344  1.00  0.00     0.004 C 
ENDBRANCH  18  19
ENDBRANCH  17  18
ENDBRANCH  16  17
ENDBRANCH  15  16
ENDBRANCH  14  15
ENDBRANCH  13  14
ENDBRANCH  12  13
ENDBRANCH   1  12
TORSDOF 16
ENDMDL
MODEL 5
REMARK VINA RESULT:    -2.991      4.983      8.995
REMARK INTER + INTRA:          -7.505
REMARK INTER:                  -5.668
REMARK INTRA:                  -1.837
REMARK UNBOUND:                -1.717
REMARK SMILES CCCCCCCCCCCCCCCCCC(=O)[O-]
REMARK SMILES IDX 10 1 11 2 12 3 13 4 14 5 15 6 16 7 17 8 18 9 19 10 20 11
REMARK SMILES IDX 9 12 8 13 7 14 6 15 5 16 4 17 3 18 2 19 1 20
REMARK H PARENT
REMARK Flexibility Score: inf
ROOT
ATOM      1  C   UNL     1      17.270  -6.388   7.976  1.00  0.00     0.000 C 
ENDROOT
BRANCH   1   2
ATOM      2  C   UNL     1      18.809  -6.413   7.852  1.00  0.00     0.000 C 
BRANCH   2   3
ATOM      3  C   UNL     1      19.366  -7.848   7.842  1.00  0.00     0.000 C 
BRANCH   3   4
ATOM      4  C   UNL     1      20.077  -8.198   6.525  1.00  0.00     0.000 C 
BRANCH   4   5
ATOM      5  C   UNL     1      19.170  -8.954   5.543  1.00  0.00     0.000 C 
BRANCH   5   6
ATOM      6  C   UNL     1      18.827  -8.081   4.331  1.00  0.00     0.000 C 
BRANCH   6   7
ATOM      7  C   UNL     1      20.046  -7.264   3.875  1.00  0.00     0.006 C 
BRANCH   7   8
ATOM      8  C   UNL     1      19.808  -5.753   3.991  1.00  0.00     0.053 C 
BRANCH   8   9
ATOM      9  C   UNL     1      21.052  -5.025   4.402  1.00  0.00     0.041 C 
ATOM     10  O   UNL     1      21.988  -5.642   4.974  1.00  0.00    -0.550 OA
ATOM     11  O   UNL     1      21.191  -3.671   4.119  1.00  0.00    -0.550 OA
ENDBRANCH   8   9
ENDBRANCH   7   8
ENDBRANCH   6   7
ENDBRANCH   5   6
ENDBRANCH   4   5
ENDBRANCH   3   4
ENDBRANCH   2   3
ENDBRANCH   1   2
BRANCH   1  12
ATOM     12  C   UNL     1      16.543  -6.603   6.638  1.00  0.00     0.000 C 
BRANCH  12  13
ATOM     13  C   UNL     1      15.303  -7.502   6.770  1.00  0.00    -0.000 C 
BRANCH  13  14
ATOM     14  C   UNL     1      15.513  -8.894   6.155  1.00  0.00    -0.000 C 
BRANCH  14  15
ATOM     15  C   UNL     1      14.957  -9.000   4.727  1.00  0.00    -0.000 C 
BRANCH  15  16
ATOM     16  C   UNL     1      14.030  -7.816   4.411  1.00  0.00    -0.000 C 
BRANCH  16  17
ATOM     17  C   UNL     1      12.541  -8.193   4.472  1.00  0.00    -0.000 C 
BRANCH  17  18
ATOM     18  C   UNL     1      11.682  -7.103   5.137  1.00  0.00    -0.000 C 
BRANCH  18  19
ATOM     19  C   UNL     1      10.187  -7.458   5.148  1.00  0.00    -0.003 C 
ATOM     20  C   UNL     1       9.291  -6.258   4.839  1.00  0.00     0.004 C 
ENDBRANCH  18  19
ENDBRANCH  17  18
ENDBRANCH  16  17
ENDBRANCH  15  16
ENDBRANCH  14  15
ENDBRANCH  13  14
ENDBRANCH  12  13
ENDBRANCH   1  12
TORSDOF 16
ENDMDL
MODEL 6
REMARK VINA RESULT:    -2.965      4.909      9.980
REMARK INTER + INTRA:          -7.456
REMARK INTER:                  -6.512
REMARK INTRA:                  -0.943
REMARK UNBOUND:                -1.717
REMARK SMILES CCCCCCCCCCCCCCCCCC(=O)[O-]
REMARK SMILES IDX 10 1 11 2 12 3 13 4 14 5 15 6 16 7 17 8 18 9 19 10 20 11
REMARK SMILES IDX 9 12 8 13 7 14 6 15 5 16 4 17 3 18 2 19 1 20
REMARK H PARENT
REMARK Flexibility Score: inf
ROOT
ATOM      1  C   UNL     1      14.254  -7.370   4.942  1.00  0.00     0.000 C 
ENDROOT
BRANCH   1   2
ATOM      2  C   UNL     1      15.150  -6.592   3.955  1.00  0.00     0.000 C 
BRANCH   2   3
ATOM      3  C   UNL     1      16.564  -6.357   4.516  1.00  0.00     0.000 C 
BRANCH   3   4
ATOM      4  C   UNL     1      16.689  -6.756   5.995  1.00  0.00     0.000 C 
BRANCH   4   5
ATOM      5  C   UNL     1      17.903  -7.654   6.268  1.00  0.00     0.000 C 
BRANCH   5   6
ATOM      6  C   UNL     1      19.162  -6.815   6.513  1.00  0.00     0.000 C 
BRANCH   6   7
ATOM      7  C   UNL     1      20.207  -7.052   5.412  1.00  0.00     0.006 C 
BRANCH   7   8
ATOM      8  C   UNL     1      20.175  -5.959   4.336  1.00  0.00     0.053 C 
BRANCH   8   9
ATOM      9  C   UNL     1      21.378  -5.070   4.411  1.00  0.00     0.041 C 
ATOM     10  O   UNL     1      21.250  -3.821   4.319  1.00  0.00    -0.550 OA
ATOM     11  O   UNL     1      22.637  -5.619   4.620  1.00  0.00    -0.550 OA
ENDBRANCH   8   9
ENDBRANCH   7   8
ENDBRANCH   6   7
ENDBRANCH   5   6
ENDBRANCH   4   5
ENDBRANCH   3   4
ENDBRANCH   2   3
ENDBRANCH   1   2
BRANCH   1  12
ATOM     12  C   UNL     1      13.523  -8.561   4.299  1.00  0.00     0.000 C 
BRANCH  12  13
ATOM     13  C   UNL     1      11.994  -8.403   4.317  1.00  0.00    -0.000 C 
BRANCH  13  14
ATOM     14  C   UNL     1      11.516  -7.408   5.386  1.00  0.00    -0.000 C 
BRANCH  14  15
ATOM     15  C   UNL     1       9.985  -7.347   5.494  1.00  0.00    -0.000 C 
BRANCH  15  16
ATOM     16  C   UNL     1       9.450  -8.505   6.350  1.00  0.00    -0.000 C 
BRANCH  16  17
ATOM     17  C   UNL     1       8.486  -9.420   5.578  1.00  0.00    -0.000 C 
BRANCH  17  18
ATOM     18  C   UNL     1       7.117  -9.555   6.269  1.00  0.00    -0.000 C 
BRANCH  18  19
ATOM     19  C   UNL     1       7.130  -9.019   7.709  1.00  0.00    -0.003 C 
ATOM     20  C   UNL     1       7.379 -10.114   8.746  1.00  0.00     0.004 C 
ENDBRANCH  18  19
ENDBRANCH  17  18
ENDBRANCH  16  17
ENDBRANCH  15  16
ENDBRANCH  14  15
ENDBRANCH  13  14
ENDBRANCH  12  13
ENDBRANCH   1  12
TORSDOF 16
ENDMDL
MODEL 7
REMARK VINA RESULT:    -2.703      2.167      4.365
REMARK INTER + INTRA:          -6.948
REMARK INTER:                  -4.730
REMARK INTRA:                  -2.218
REMARK UNBOUND:                -1.717
REMARK SMILES CCCCCCCCCCCCCCCCCC(=O)[O-]
REMARK SMILES IDX 10 1 11 2 12 3 13 4 14 5 15 6 16 7 17 8 18 9 19 10 20 11
REMARK SMILES IDX 9 12 8 13 7 14 6 15 5 16 4 17 3 18 2 19 1 20
REMARK H PARENT
REMARK Flexibility Score: inf
ROOT
ATOM      1  C   UNL     1      19.000  -6.790   8.389  1.00  0.00     0.000 C 
ENDROOT
BRANCH   1   2
ATOM      2  C   UNL     1      18.170  -6.440   7.135  1.00  0.00     0.000 C 
BRANCH   2   3
ATOM      3  C   UNL     1      16.661  -6.400   7.430  1.00  0.00     0.000 C 
BRANCH   3   4
ATOM      4  C   UNL     1      15.878  -7.479   6.666  1.00  0.00     0.000 C 
BRANCH   4   5
ATOM      5  C   UNL     1      15.250  -6.951   5.369  1.00  0.00     0.000 C 
BRANCH   5   6
ATOM      6  C   UNL     1      14.846  -8.105   4.445  1.00  0.00     0.000 C 
BRANCH   6   7
ATOM      7  C   UNL     1      13.345  -8.408   4.563  1.00  0.00     0.006 C 
BRANCH   7   8
ATOM      8  C   UNL     1      12.481  -7.163   4.329  1.00  0.00     0.053 C 
BRANCH   8   9
ATOM      9  C   UNL     1      11.321  -7.105   5.276  1.00  0.00     0.041 C 
ATOM     10  O   UNL     1      11.504  -7.259   6.512  1.00  0.00    -0.550 OA
ATOM     11  O   UNL     1      10.043  -6.845   4.796  1.00  0.00    -0.550 OA
ENDBRANCH   8   9
ENDBRANCH   7   8
ENDBRANCH   6   7
ENDBRANCH   5   6
ENDBRANCH   4   5
ENDBRANCH   3   4
ENDBRANCH   2   3
ENDBRANCH   1   2
BRANCH   1  12
ATOM     12  C   UNL     1      19.349  -8.284   8.495  1.00  0.00     0.000 C 
BRANCH  12  13
ATOM     13  C   UNL     1      20.091  -8.813   7.257  1.00  0.00    -0.000 C 
BRANCH  13  14
ATOM     14  C   UNL     1      19.481 -10.114   6.714  1.00  0.00    -0.000 C 
BRANCH  14  15
ATOM     15  C   UNL     1      18.090  -9.903   6.097  1.00  0.00    -0.000 C 
BRANCH  15  16
ATOM     16  C   UNL     1      18.164  -9.912   4.562  1.00  0.00    -0.000 C 
BRANCH  16  17
ATOM     17  C   UNL     1      19.115  -8.840   4.006  1.00  0.00    -0.000 C 
BRANCH  17  18
ATOM     18  C   UNL     1      18.442  -7.463   3.875  1.00  0.00    -0.000 C 
BRANCH  18  19
ATOM     19  C   UNL     1      19.452  -6.307   3.925  1.00  0.00    -0.003 C 
ATOM     20  C   UNL     1      20.828  -6.744   4.429  1.00  0.00     0.004 C 
ENDBRANCH  18  19
ENDBRANCH  17  18
ENDBRANCH  16  17
ENDBRANCH  15  16
ENDBRANCH  14  15
ENDBRANCH  13  14
ENDBRANCH  12  13
ENDBRANCH   1  12
TORSDOF 16
ENDMDL
MODEL 8
REMARK VINA RESULT:    -2.668      1.842      2.943
REMARK INTER + INTRA:          -6.879
REMARK INTER:                  -5.955
REMARK INTRA:                  -0.924
REMARK UNBOUND:                -1.717
REMARK SMILES CCCCCCCCCCCCCCCCCC(=O)[O-]
REMARK SMILES IDX 10 1 11 2 12 3 13 4 14 5 15 6 16 7 17 8 18 9 19 10 20 11
REMARK SMILES IDX 9 12 8 13 7 14 6 15 5 16 4 17 3 18 2 19 1 20
REMARK H PARENT
REMARK Flexibility Score: inf
ROOT
ATOM      1  C   UNL     1      14.749  -7.943   4.879  1.00  0.00     0.000 C 
ENDROOT
BRANCH   1   2
ATOM      2  C   UNL     1      13.536  -7.504   5.727  1.00  0.00     0.000 C 
BRANCH   2   3
ATOM      3  C   UNL     1      12.209  -7.653   4.963  1.00  0.00     0.000 C 
BRANCH   3   4
ATOM      4  C   UNL     1      11.008  -7.100   5.746  1.00  0.00     0.000 C 
BRANCH   4   5
ATOM      5  C   UNL     1       9.749  -7.965   5.592  1.00  0.00     0.000 C 
BRANCH   5   6
ATOM      6  C   UNL     1       9.137  -7.800   4.197  1.00  0.00     0.000 C 
BRANCH   6   7
ATOM      7  C   UNL     1       7.772  -7.099   4.272  1.00  0.00     0.006 C 
BRANCH   7   8
ATOM      8  C   UNL     1       6.829  -7.771   5.278  1.00  0.00     0.053 C 
BRANCH   8   9
ATOM      9  C   UNL     1       5.507  -7.069   5.354  1.00  0.00     0.041 C 
ATOM     10  O   UNL     1       5.453  -5.849   5.661  1.00  0.00    -0.550 OA
ATOM     11  O   UNL     1       4.337  -7.755   5.051  1.00  0.00    -0.550 OA
ENDBRANCH   8   9
ENDBRANCH   7   8
ENDBRANCH   6   7
ENDBRANCH   5   6
ENDBRANCH   4   5
ENDBRANCH   3   4
ENDBRANCH   2   3
ENDBRANCH   1   2
BRANCH   1  12
ATOM     12  C   UNL     1      16.024  -7.132   5.165  1.00  0.00     0.000 C 
BRANCH  12  13
ATOM     13  C   UNL     1      16.920  -7.785   6.230  1.00  0.00    -0.000 C 
BRANCH  13  14
ATOM     14  C   UNL     1      17.549  -6.758   7.183  1.00  0.00    -0.000 C 
BRANCH  14  15
ATOM     15  C   UNL     1      19.081  -6.855   7.231  1.00  0.00    -0.000 C 
BRANCH  15  16
ATOM     16  C   UNL     1      19.589  -7.969   6.302  1.00  0.00    -0.000 C 
BRANCH  16  17
ATOM     17  C   UNL     1      20.389  -7.429   5.106  1.00  0.00    -0.000 C 
BRANCH  17  18
ATOM     18  C   UNL     1      19.582  -6.428   4.259  1.00  0.00    -0.000 C 
BRANCH  18  19
ATOM     19  C   UNL     1      20.401  -5.185   3.879  1.00  0.00    -0.003 C 
ATOM     20  C   UNL     1      21.778  -5.157   4.544  1.00  0.00     0.004 C 
ENDBRANCH  18  19
ENDBRANCH  17  18
ENDBRANCH  16  17
ENDBRANCH  15  16
ENDBRANCH  14  15
ENDBRANCH  13  14
ENDBRANCH  12  13
ENDBRANCH   1  12
TORSDOF 16
ENDMDL
MODEL 9
REMARK VINA RESULT:    -2.649      1.486      2.751
REMARK INTER + INTRA:          -6.843
REMARK INTER:                  -5.905
REMARK INTRA:                  -0.938
REMARK UNBOUND:                -1.717
REMARK SMILES CCCCCCCCCCCCCCCCCC(=O)[O-]
REMARK SMILES IDX 10 1 11 2 12 3 13 4 14 5 15 6 16 7 17 8 18 9 19 10 20 11
REMARK SMILES IDX 9 12 8 13 7 14 6 15 5 16 4 17 3 18 2 19 1 20
REMARK H PARENT
REMARK Flexibility Score: inf
ROOT
ATOM      1  C   UNL     1      15.686  -7.099   6.493  1.00  0.00     0.000 C 
ENDROOT
BRANCH   1   2
ATOM      2  C   UNL     1      14.540  -8.080   6.822  1.00  0.00     0.000 C 
BRANCH   2   3
ATOM      3  C   UNL     1      13.165  -7.526   6.407  1.00  0.00     0.000 C 
BRANCH   3   4
ATOM      4  C   UNL     1      12.863  -7.746   4.916  1.00  0.00     0.000 C 
BRANCH   4   5
ATOM      5  C   UNL     1      11.358  -7.809   4.618  1.00  0.00     0.000 C 
BRANCH   5   6
ATOM      6  C   UNL     1      10.537  -7.561   5.888  1.00  0.00     0.000 C 
BRANCH   6   7
ATOM      7  C   UNL     1       9.181  -8.281   5.818  1.00  0.00     0.006 C 
BRANCH   7   8
ATOM      8  C   UNL     1       8.971  -9.238   6.999  1.00  0.00     0.053 C 
BRANCH   8   9
ATOM      9  C   UNL     1       7.541  -9.263   7.445  1.00  0.00     0.041 C 
ATOM     10  O   UNL     1       6.613  -9.077   6.614  1.00  0.00    -0.550 OA
ATOM     11  O   UNL     1       7.231  -9.527   8.774  1.00  0.00    -0.550 OA
ENDBRANCH   8   9
ENDBRANCH   7   8
ENDBRANCH   6   7
ENDBRANCH   5   6
ENDBRANCH   4   5
ENDBRANCH   3   4
ENDBRANCH   2   3
ENDBRANCH   1   2
BRANCH   1  12
ATOM     12  C   UNL     1      16.575  -7.563   5.328  1.00  0.00     0.000 C 
BRANCH  12  13
ATOM     13  C   UNL     1      17.444  -8.779   5.688  1.00  0.00    -0.000 C 
BRANCH  13  14
ATOM     14  C   UNL     1      18.440  -9.143   4.576  1.00  0.00    -0.000 C 
BRANCH  14  15
ATOM     15  C   UNL     1      19.903  -9.008   5.025  1.00  0.00    -0.000 C 
BRANCH  15  16
ATOM     16  C   UNL     1      20.111  -7.719   5.834  1.00  0.00    -0.000 C 
BRANCH  16  17
ATOM     17  C   UNL     1      20.208  -6.468   4.947  1.00  0.00    -0.000 C 
BRANCH  17  18
ATOM     18  C   UNL     1      21.473  -6.462   4.070  1.00  0.00    -0.000 C 
BRANCH  18  19
ATOM     19  C   UNL     1      22.169  -5.092   4.051  1.00  0.00    -0.003 C 
ATOM     20  C   UNL     1      21.189  -3.932   3.875  1.00  0.00     0.004 C 
ENDBRANCH  18  19
ENDBRANCH  17  18
ENDBRANCH  16  17
ENDBRANCH  15  16
ENDBRANCH  14  15
ENDBRANCH  13  14
ENDBRANCH  12  13
ENDBRANCH   1  12
TORSDOF 16
ENDMDL
