MODEL 1
REMARK VINA RESULT:    -3.155      0.000      0.000
REMARK INTER + INTRA:          -9.939
REMARK INTER:                  -6.843
REMARK INTRA:                  -3.096
REMARK UNBOUND:                -3.096
REMARK SMILES CCCCCCCCCCCCCCCCCCCCCC(=O)[O-]
REMARK SMILES IDX 12 1 11 2 10 3 9 4 8 5 7 6 6 7 5 8 4 9 3 10 2 11 1 12 13 13
REMARK SMILES IDX 14 14 15 15 16 16 17 17 18 18 19 19 20 20 21 21 22 22 23 23
REMARK SMILES IDX 24 24
REMARK H PARENT
REMARK Flexibility Score: inf
ROOT
ATOM      1  C   UNL     1      63.236  32.102  58.836  1.00  0.00     0.000 C 
ENDROOT
BRANCH   1   2
ATOM      2  C   UNL     1      64.660  32.451  59.309  1.00  0.00     0.000 C 
BRANCH   2   3
ATOM      3  C   UNL     1      65.430  31.309  59.999  1.00  0.00     0.000 C 
BRANCH   3   4
ATOM      4  C   UNL     1      64.804  30.883  61.338  1.00  0.00    -0.000 C 
BRANCH   4   5
ATOM      5  C   UNL     1      64.508  29.374  61.409  1.00  0.00    -0.000 C 
BRANCH   5   6
ATOM      6  C   UNL     1      65.474  28.477  60.612  1.00  0.00    -0.000 C 
BRANCH   6   7
ATOM      7  C   UNL     1      65.018  27.011  60.547  1.00  0.00    -0.000 C 
BRANCH   7   8
ATOM      8  C   UNL     1      63.549  26.874  60.975  1.00  0.00    -0.000 C 
BRANCH   8   9
ATOM      9  C   UNL     1      63.236  25.503  61.595  1.00  0.00    -0.000 C 
BRANCH   9  10
ATOM     10  C   UNL     1      62.428  25.615  62.900  1.00  0.00    -0.000 C 
BRANCH  10  11
ATOM     11  C   UNL     1      60.912  25.549  62.661  1.00  0.00    -0.003 C 
ATOM     12  C   UNL     1      60.297  24.224  63.109  1.00  0.00     0.004 C 
ENDBRANCH  10  11
ENDBRANCH   9  10
ENDBRANCH   8   9
ENDBRANCH   7   8
ENDBRANCH   6   7
ENDBRANCH   5   6
ENDBRANCH   4   5
ENDBRANCH   3   4
ENDBRANCH   2   3
ENDBRANCH   1   2
BRANCH   1  13
ATOM     13  C   UNL     1      63.195  30.878  57.905  1.00  0.00     0.000 C 
BRANCH  13  14
ATOM     14  C   UNL     1      62.299  29.744  58.439  1.00  0.00     0.000 C 
BRANCH  14  15
ATOM     15  C   UNL     1      61.250  30.165  59.484  1.00  0.00     0.000 C 
BRANCH  15  16
ATOM     16  C   UNL     1      60.880  29.031  60.455  1.00  0.00     0.000 C 
BRANCH  16  17
ATOM     17  C   UNL     1      60.389  27.763  59.733  1.00  0.00     0.000 C 
BRANCH  17  18
ATOM     18  C   UNL     1      58.859  27.571  59.793  1.00  0.00     0.000 C 
BRANCH  18  19
ATOM     19  C   UNL     1      58.469  26.095  59.990  1.00  0.00     0.000 C 
BRANCH  19  20
ATOM     20  C   UNL     1      57.442  25.896  61.114  1.00  0.00     0.006 C 
BRANCH  20  21
ATOM     21  C   UNL     1      57.407  27.073  62.097  1.00  0.00     0.053 C 
BRANCH  21  22
ATOM     22  C   UNL     1      55.992  27.465  62.391  1.00  0.00     0.041 C 
ATOM     23  O   UNL     1      55.380  28.250  61.622  1.00  0.00    -0.550 OA
ATOM     24  O   UNL     1      55.335  26.922  63.488  1.00  0.00    -0.550 OA
ENDBRANCH  21  22
ENDBRANCH  20  21
ENDBRANCH  19  20
ENDBRANCH  18  19
ENDBRANCH  17  18
ENDBRANCH  16  17
ENDBRANCH  15  16
ENDBRANCH  14  15
ENDBRANCH  13  14
ENDBRANCH   1  13
TORSDOF 20
ENDMDL
MODEL 2
REMARK VINA RESULT:    -3.064      9.547     12.558
REMARK INTER + INTRA:          -9.743
REMARK INTER:                  -5.995
REMARK INTRA:                  -3.748
REMARK UNBOUND:                -3.096
REMARK SMILES CCCCCCCCCCCCCCCCCCCCCC(=O)[O-]
REMARK SMILES IDX 12 1 11 2 10 3 9 4 8 5 7 6 6 7 5 8 4 9 3 10 2 11 1 12 13 13
REMARK SMILES IDX 14 14 15 15 16 16 17 17 18 18 19 19 20 20 21 21 22 22 23 23
REMARK SMILES IDX 24 24
REMARK H PARENT
REMARK Flexibility Score: inf
ROOT
ATOM      1  C   UNL     1      63.318  25.021  50.941  1.00  0.00     0.000 C 
ENDROOT
BRANCH   1   2
ATOM      2  C   UNL     1      61.805  25.044  51.230  1.00  0.00     0.000 C 
BRANCH   2   3
ATOM      3  C   UNL     1      60.892  24.871  50.002  1.00  0.00     0.000 C 
BRANCH   3   4
ATOM      4  C   UNL     1      60.128  26.154  49.633  1.00  0.00    -0.000 C 
BRANCH   4   5
ATOM      5  C   UNL     1      61.057  27.359  49.399  1.00  0.00    -0.000 C 
BRANCH   5   6
ATOM      6  C   UNL     1      60.684  28.636  50.176  1.00  0.00    -0.000 C 
BRANCH   6   7
ATOM      7  C   UNL     1      61.738  29.035  51.219  1.00  0.00    -0.000 C 
BRANCH   7   8
ATOM      8  C   UNL     1      61.376  28.478  52.604  1.00  0.00    -0.000 C 
BRANCH   8   9
ATOM      9  C   UNL     1      59.860  28.319  52.805  1.00  0.00    -0.000 C 
BRANCH   9  10
ATOM     10  C   UNL     1      59.476  26.928  53.338  1.00  0.00    -0.000 C 
BRANCH  10  11
ATOM     11  C   UNL     1      58.170  26.402  52.721  1.00  0.00    -0.003 C 
ATOM     12  C   UNL     1      57.491  27.423  51.809  1.00  0.00     0.004 C 
ENDBRANCH  10  11
ENDBRANCH   9  10
ENDBRANCH   8   9
ENDBRANCH   7   8
ENDBRANCH   6   7
ENDBRANCH   5   6
ENDBRANCH   4   5
ENDBRANCH   3   4
ENDBRANCH   2   3
ENDBRANCH   1   2
BRANCH   1  13
ATOM     13  C   UNL     1      64.065  26.221  51.548  1.00  0.00     0.000 C 
BRANCH  13  14
ATOM     14  C   UNL     1      65.014  26.908  50.548  1.00  0.00     0.000 C 
BRANCH  14  15
ATOM     15  C   UNL     1      64.957  26.375  49.105  1.00  0.00     0.000 C 
BRANCH  15  16
ATOM     16  C   UNL     1      64.247  27.335  48.136  1.00  0.00     0.000 C 
BRANCH  16  17
ATOM     17  C   UNL     1      65.223  28.270  47.400  1.00  0.00     0.000 C 
BRANCH  17  18
ATOM     18  C   UNL     1      65.400  29.642  48.085  1.00  0.00     0.000 C 
BRANCH  18  19
ATOM     19  C   UNL     1      64.079  30.168  48.675  1.00  0.00     0.000 C 
BRANCH  19  20
ATOM     20  C   UNL     1      64.289  31.325  49.662  1.00  0.00     0.006 C 
BRANCH  20  21
ATOM     21  C   UNL     1      64.644  32.643  48.963  1.00  0.00     0.053 C 
BRANCH  21  22
ATOM     22  C   UNL     1      63.485  33.588  49.013  1.00  0.00     0.041 C 
ATOM     23  O   UNL     1      62.594  33.545  48.126  1.00  0.00    -0.550 OA
ATOM     24  O   UNL     1      63.366  34.485  50.068  1.00  0.00    -0.550 OA
ENDBRANCH  21  22
ENDBRANCH  20  21
ENDBRANCH  19  20
ENDBRANCH  18  19
ENDBRANCH  17  18
ENDBRANCH  16  17
ENDBRANCH  15  16
ENDBRANCH  14  15
ENDBRANCH  13  14
ENDBRANCH   1  13
TORSDOF 20
ENDMDL
MODEL 3
REMARK VINA RESULT:    -3.054     11.058     13.667
REMARK INTER + INTRA:          -9.721
REMARK INTER:                  -6.836
REMARK INTRA:                  -2.885
REMARK UNBOUND:                -3.096
REMARK SMILES CCCCCCCCCCCCCCCCCCCCCC(=O)[O-]
REMARK SMILES IDX 12 1 11 2 10 3 9 4 8 5 7 6 6 7 5 8 4 9 3 10 2 11 1 12 13 13
REMARK SMILES IDX 14 14 15 15 16 16 17 17 18 18 19 19 20 20 21 21 22 22 23 23
REMARK SMILES IDX 24 24
REMARK H PARENT
REMARK Flexibility Score: inf
ROOT
ATOM      1  C   UNL     1      60.696  19.624  52.232  1.00  0.00     0.000 C 
ENDROOT
BRANCH   1   2
ATOM      2  C   UNL     1      60.723  18.267  52.961  1.00  0.00     0.000 C 
BRANCH   2   3
ATOM      3  C   UNL     1      60.837  17.027  52.055  1.00  0.00     0.000 C 
BRANCH   3   4
ATOM      4  C   UNL     1      59.472  16.423  51.686  1.00  0.00    -0.000 C 
BRANCH   4   5
ATOM      5  C   UNL     1      59.314  16.174  50.175  1.00  0.00    -0.000 C 
BRANCH   5   6
ATOM      6  C   UNL     1      58.139  16.913  49.507  1.00  0.00    -0.000 C 
BRANCH   6   7
ATOM      7  C   UNL     1      57.762  18.217  50.226  1.00  0.00    -0.000 C 
BRANCH   7   8
ATOM      8  C   UNL     1      56.247  18.289  50.472  1.00  0.00    -0.000 C 
BRANCH   8   9
ATOM      9  C   UNL     1      55.896  18.644  51.926  1.00  0.00    -0.000 C 
BRANCH   9  10
ATOM     10  C   UNL     1      56.966  19.527  52.593  1.00  0.00    -0.000 C 
BRANCH  10  11
ATOM     11  C   UNL     1      57.339  19.036  54.000  1.00  0.00    -0.003 C 
ATOM     12  C   UNL     1      57.056  17.549  54.204  1.00  0.00     0.004 C 
ENDBRANCH  10  11
ENDBRANCH   9  10
ENDBRANCH   8   9
ENDBRANCH   7   8
ENDBRANCH   6   7
ENDBRANCH   5   6
ENDBRANCH   4   5
ENDBRANCH   3   4
ENDBRANCH   2   3
ENDBRANCH   1   2
BRANCH   1  13
ATOM     13  C   UNL     1      61.336  19.569  50.834  1.00  0.00     0.000 C 
BRANCH  13  14
ATOM     14  C   UNL     1      60.516  20.316  49.766  1.00  0.00     0.000 C 
BRANCH  14  15
ATOM     15  C   UNL     1      61.249  21.467  49.052  1.00  0.00     0.000 C 
BRANCH  15  16
ATOM     16  C   UNL     1      60.903  22.850  49.627  1.00  0.00     0.000 C 
BRANCH  16  17
ATOM     17  C   UNL     1      62.052  23.460  50.449  1.00  0.00     0.000 C 
BRANCH  17  18
ATOM     18  C   UNL     1      62.190  24.988  50.280  1.00  0.00     0.000 C 
BRANCH  18  19
ATOM     19  C   UNL     1      62.220  25.719  51.635  1.00  0.00     0.000 C 
BRANCH  19  20
ATOM     20  C   UNL     1      60.906  26.451  51.944  1.00  0.00     0.006 C 
BRANCH  20  21
ATOM     21  C   UNL     1      60.050  26.684  50.693  1.00  0.00     0.053 C 
BRANCH  21  22
ATOM     22  C   UNL     1      58.662  26.169  50.907  1.00  0.00     0.041 C 
ATOM     23  O   UNL     1      57.843  26.823  51.603  1.00  0.00    -0.550 OA
ATOM     24  O   UNL     1      58.257  24.988  50.296  1.00  0.00    -0.550 OA
ENDBRANCH  21  22
ENDBRANCH  20  21
ENDBRANCH  19  20
ENDBRANCH  18  19
ENDBRANCH  17  18
ENDBRANCH  16  17
ENDBRANCH  15  16
ENDBRANCH  14  15
ENDBRANCH  13  14
ENDBRANCH   1  13
TORSDOF 20
ENDMDL
MODEL 4
REMARK VINA RESULT:    -3.032      2.813      5.516
REMARK INTER + INTRA:          -9.673
REMARK INTER:                  -6.911
REMARK INTRA:                  -2.762
REMARK UNBOUND:                -3.096
REMARK SMILES CCCCCCCCCCCCCCCCCCCCCC(=O)[O-]
REMARK SMILES IDX 12 1 11 2 10 3 9 4 8 5 7 6 6 7 5 8 4 9 3 10 2 11 1 12 13 13
REMARK SMILES IDX 14 14 15 15 16 16 17 17 18 18 19 19 20 20 21 21 22 22 23 23
REMARK SMILES IDX 24 24
REMARK H PARENT
REMARK Flexibility Score: inf
ROOT
ATOM      1  C   UNL     1      65.127  31.531  60.650  1.00  0.00     0.000 C 
ENDROOT
BRANCH   1   2
ATOM      2  C   UNL     1      64.152  30.478  60.090  1.00  0.00     0.000 C 
BRANCH   2   3
ATOM      3  C   UNL     1      64.132  29.129  60.833  1.00  0.00     0.000 C 
BRANCH   3   4
ATOM      4  C   UNL     1      62.887  28.946  61.718  1.00  0.00    -0.000 C 
BRANCH   4   5
ATOM      5  C   UNL     1      61.571  29.214  60.966  1.00  0.00    -0.000 C 
BRANCH   5   6
ATOM      6  C   UNL     1      61.181  28.149  59.925  1.00  0.00    -0.000 C 
BRANCH   6   7
ATOM      7  C   UNL     1      59.699  27.753  59.995  1.00  0.00    -0.000 C 
BRANCH   7   8
ATOM      8  C   UNL     1      59.375  27.075  61.334  1.00  0.00    -0.000 C 
BRANCH   8   9
ATOM      9  C   UNL     1      59.945  25.651  61.433  1.00  0.00    -0.000 C 
BRANCH   9  10
ATOM     10  C   UNL     1      60.666  25.393  62.768  1.00  0.00    -0.000 C 
BRANCH  10  11
ATOM     11  C   UNL     1      62.192  25.524  62.647  1.00  0.00    -0.003 C 
ATOM     12  C   UNL     1      62.916  24.185  62.793  1.00  0.00     0.004 C 
ENDBRANCH  10  11
ENDBRANCH   9  10
ENDBRANCH   8   9
ENDBRANCH   7   8
ENDBRANCH   6   7
ENDBRANCH   5   6
ENDBRANCH   4   5
ENDBRANCH   3   4
ENDBRANCH   2   3
ENDBRANCH   1   2
BRANCH   1  13
ATOM     13  C   UNL     1      65.103  32.852  59.863  1.00  0.00     0.000 C 
BRANCH  13  14
ATOM     14  C   UNL     1      64.797  34.075  60.747  1.00  0.00     0.000 C 
BRANCH  14  15
ATOM     15  C   UNL     1      64.134  35.264  60.027  1.00  0.00     0.000 C 
BRANCH  15  16
ATOM     16  C   UNL     1      62.656  35.451  60.410  1.00  0.00     0.000 C 
BRANCH  16  17
ATOM     17  C   UNL     1      61.692  35.084  59.269  1.00  0.00     0.000 C 
BRANCH  17  18
ATOM     18  C   UNL     1      62.406  34.606  57.986  1.00  0.00     0.000 C 
BRANCH  18  19
ATOM     19  C   UNL     1      61.922  33.213  57.542  1.00  0.00     0.000 C 
BRANCH  19  20
ATOM     20  C   UNL     1      61.380  32.373  58.707  1.00  0.00     0.006 C 
BRANCH  20  21
ATOM     21  C   UNL     1      60.132  31.568  58.326  1.00  0.00     0.053 C 
BRANCH  21  22
ATOM     22  C   UNL     1      59.065  32.477  57.803  1.00  0.00     0.041 C 
ATOM     23  O   UNL     1      58.604  33.396  58.529  1.00  0.00    -0.550 OA
ATOM     24  O   UNL     1      58.614  32.339  56.496  1.00  0.00    -0.550 OA
ENDBRANCH  21  22
ENDBRANCH  20  21
ENDBRANCH  19  20
ENDBRANCH  18  19
ENDBRANCH  17  18
ENDBRANCH  16  17
ENDBRANCH  15  16
ENDBRANCH  14  15
ENDBRANCH  13  14
ENDBRANCH   1  13
TORSDOF 20
ENDMDL
MODEL 5
REMARK VINA RESULT:    -3.027     10.375     13.549
REMARK INTER + INTRA:          -9.663
REMARK INTER:                  -6.463
REMARK INTRA:                  -3.199
REMARK UNBOUND:                -3.096
REMARK SMILES CCCCCCCCCCCCCCCCCCCCCC(=O)[O-]
REMARK SMILES IDX 12 1 11 2 10 3 9 4 8 5 7 6 6 7 5 8 4 9 3 10 2 11 1 12 13 13
REMARK SMILES IDX 14 14 15 15 16 16 17 17 18 18 19 19 20 20 21 21 22 22 23 23
REMARK SMILES IDX 24 24
REMARK H PARENT
REMARK Flexibility Score: inf
ROOT
ATOM      1  C   UNL     1      62.236  24.588  50.563  1.00  0.00     0.000 C 
ENDROOT
BRANCH   1   2
ATOM      2  C   UNL     1      63.007  25.688  49.810  1.00  0.00     0.000 C 
BRANCH   2   3
ATOM      3  C   UNL     1      64.128  26.379  50.608  1.00  0.00     0.000 C 
BRANCH   3   4
ATOM      4  C   UNL     1      64.893  27.431  49.786  1.00  0.00    -0.000 C 
BRANCH   4   5
ATOM      5  C   UNL     1      64.532  27.403  48.290  1.00  0.00    -0.000 C 
BRANCH   5   6
ATOM      6  C   UNL     1      64.875  28.685  47.508  1.00  0.00    -0.000 C 
BRANCH   6   7
ATOM      7  C   UNL     1      66.185  28.571  46.713  1.00  0.00    -0.000 C 
BRANCH   7   8
ATOM      8  C   UNL     1      67.174  29.671  47.127  1.00  0.00    -0.000 C 
BRANCH   8   9
ATOM      9  C   UNL     1      66.717  30.444  48.374  1.00  0.00    -0.000 C 
BRANCH   9  10
ATOM     10  C   UNL     1      66.742  31.969  48.167  1.00  0.00    -0.000 C 
BRANCH  10  11
ATOM     11  C   UNL     1      67.259  32.365  46.775  1.00  0.00    -0.003 C 
ATOM     12  C   UNL     1      68.021  33.689  46.779  1.00  0.00     0.004 C 
ENDBRANCH  10  11
ENDBRANCH   9  10
ENDBRANCH   8   9
ENDBRANCH   7   8
ENDBRANCH   6   7
ENDBRANCH   5   6
ENDBRANCH   4   5
ENDBRANCH   3   4
ENDBRANCH   2   3
ENDBRANCH   1   2
BRANCH   1  13
ATOM     13  C   UNL     1      60.764  24.480  50.130  1.00  0.00     0.000 C 
BRANCH  13  14
ATOM     14  C   UNL     1      60.138  25.842  49.778  1.00  0.00     0.000 C 
BRANCH  14  15
ATOM     15  C   UNL     1      59.472  26.588  50.948  1.00  0.00     0.000 C 
BRANCH  15  16
ATOM     16  C   UNL     1      60.386  27.650  51.583  1.00  0.00     0.000 C 
BRANCH  16  17
ATOM     17  C   UNL     1      60.371  28.985  50.818  1.00  0.00     0.000 C 
BRANCH  17  18
ATOM     18  C   UNL     1      61.718  29.329  50.147  1.00  0.00     0.000 C 
BRANCH  18  19
ATOM     19  C   UNL     1      62.664  30.078  51.103  1.00  0.00     0.000 C 
BRANCH  19  20
ATOM     20  C   UNL     1      63.679  30.961  50.361  1.00  0.00     0.006 C 
BRANCH  20  21
ATOM     21  C   UNL     1      63.125  31.522  49.046  1.00  0.00     0.053 C 
BRANCH  21  22
ATOM     22  C   UNL     1      63.098  33.017  49.088  1.00  0.00     0.041 C 
ATOM     23  O   UNL     1      63.267  33.684  48.034  1.00  0.00    -0.550 OA
ATOM     24  O   UNL     1      62.837  33.674  50.284  1.00  0.00    -0.550 OA
ENDBRANCH  21  22
ENDBRANCH  20  21
ENDBRANCH  19  20
ENDBRANCH  18  19
ENDBRANCH  17  18
ENDBRANCH  16  17
ENDBRANCH  15  16
ENDBRANCH  14  15
ENDBRANCH  13  14
ENDBRANCH   1  13
TORSDOF 20
ENDMDL
MODEL 6
REMARK VINA RESULT:    -3.018      9.519     12.270
REMARK INTER + INTRA:          -9.643
REMARK INTER:                  -6.015
REMARK INTRA:                  -3.627
REMARK UNBOUND:                -3.096
REMARK SMILES CCCCCCCCCCCCCCCCCCCCCC(=O)[O-]
REMARK SMILES IDX 12 1 11 2 10 3 9 4 8 5 7 6 6 7 5 8 4 9 3 10 2 11 1 12 13 13
REMARK SMILES IDX 14 14 15 15 16 16 17 17 18 18 19 19 20 20 21 21 22 22 23 23
REMARK SMILES IDX 24 24
REMARK H PARENT
REMARK Flexibility Score: inf
ROOT
ATOM      1  C   UNL     1      60.882  29.198  52.685  1.00  0.00     0.000 C 
ENDROOT
BRANCH   1   2
ATOM      2  C   UNL     1      61.302  27.848  53.298  1.00  0.00     0.000 C 
BRANCH   2   3
ATOM      3  C   UNL     1      60.442  26.637  52.891  1.00  0.00     0.000 C 
BRANCH   3   4
ATOM      4  C   UNL     1      58.931  26.904  53.008  1.00  0.00    -0.000 C 
BRANCH   4   5
ATOM      5  C   UNL     1      58.237  27.034  51.640  1.00  0.00    -0.000 C 
BRANCH   5   6
ATOM      6  C   UNL     1      57.757  25.708  51.019  1.00  0.00    -0.000 C 
BRANCH   6   7
ATOM      7  C   UNL     1      58.697  25.182  49.924  1.00  0.00    -0.000 C 
BRANCH   7   8
ATOM      8  C   UNL     1      59.579  24.044  50.458  1.00  0.00    -0.000 C 
BRANCH   8   9
ATOM      9  C   UNL     1      61.057  24.203  50.067  1.00  0.00    -0.000 C 
BRANCH   9  10
ATOM     10  C   UNL     1      62.007  23.491  51.047  1.00  0.00    -0.000 C 
BRANCH  10  11
ATOM     11  C   UNL     1      63.423  24.088  51.031  1.00  0.00    -0.003 C 
ATOM     12  C   UNL     1      63.726  24.930  52.270  1.00  0.00     0.004 C 
ENDBRANCH  10  11
ENDBRANCH   9  10
ENDBRANCH   8   9
ENDBRANCH   7   8
ENDBRANCH   6   7
ENDBRANCH   5   6
ENDBRANCH   4   5
ENDBRANCH   3   4
ENDBRANCH   2   3
ENDBRANCH   1   2
BRANCH   1  13
ATOM     13  C   UNL     1      61.583  29.496  51.348  1.00  0.00     0.000 C 
BRANCH  13  14
ATOM     14  C   UNL     1      60.767  29.037  50.125  1.00  0.00     0.000 C 
BRANCH  14  15
ATOM     15  C   UNL     1      61.345  27.835  49.355  1.00  0.00     0.000 C 
BRANCH  15  16
ATOM     16  C   UNL     1      62.783  27.488  49.774  1.00  0.00     0.000 C 
BRANCH  16  17
ATOM     17  C   UNL     1      63.782  27.574  48.606  1.00  0.00     0.000 C 
BRANCH  17  18
ATOM     18  C   UNL     1      64.404  28.975  48.426  1.00  0.00     0.000 C 
BRANCH  18  19
ATOM     19  C   UNL     1      64.853  29.585  49.766  1.00  0.00     0.000 C 
BRANCH  19  20
ATOM     20  C   UNL     1      64.720  31.115  49.796  1.00  0.00     0.006 C 
BRANCH  20  21
ATOM     21  C   UNL     1      63.503  31.618  49.012  1.00  0.00     0.053 C 
BRANCH  21  22
ATOM     22  C   UNL     1      63.653  33.072  48.693  1.00  0.00     0.041 C 
ATOM     23  O   UNL     1      64.749  33.518  48.266  1.00  0.00    -0.550 OA
ATOM     24  O   UNL     1      62.565  33.927  48.822  1.00  0.00    -0.550 OA
ENDBRANCH  21  22
ENDBRANCH  20  21
ENDBRANCH  19  20
ENDBRANCH  18  19
ENDBRANCH  17  18
ENDBRANCH  16  17
ENDBRANCH  15  16
ENDBRANCH  14  15
ENDBRANCH  13  14
ENDBRANCH   1  13
TORSDOF 20
ENDMDL
MODEL 7
REMARK VINA RESULT:    -2.985      3.848      7.371
REMARK INTER + INTRA:          -9.572
REMARK INTER:                  -6.871
REMARK INTRA:                  -2.701
REMARK UNBOUND:                -3.096
REMARK SMILES CCCCCCCCCCCCCCCCCCCCCC(=O)[O-]
REMARK SMILES IDX 12 1 11 2 10 3 9 4 8 5 7 6 6 7 5 8 4 9 3 10 2 11 1 12 13 13
REMARK SMILES IDX 14 14 15 15 16 16 17 17 18 18 19 19 20 20 21 21 22 22 23 23
REMARK SMILES IDX 24 24
REMARK H PARENT
REMARK Flexibility Score: inf
ROOT
ATOM      1  C   UNL     1      59.910  27.485  61.022  1.00  0.00     0.000 C 
ENDROOT
BRANCH   1   2
ATOM      2  C   UNL     1      60.032  26.089  61.662  1.00  0.00     0.000 C 
BRANCH   2   3
ATOM      3  C   UNL     1      61.466  25.627  61.980  1.00  0.00     0.000 C 
BRANCH   3   4
ATOM      4  C   UNL     1      62.430  26.796  62.250  1.00  0.00    -0.000 C 
BRANCH   4   5
ATOM      5  C   UNL     1      63.630  26.819  61.287  1.00  0.00    -0.000 C 
BRANCH   5   6
ATOM      6  C   UNL     1      63.678  28.022  60.326  1.00  0.00    -0.000 C 
BRANCH   6   7
ATOM      7  C   UNL     1      63.732  29.372  61.056  1.00  0.00    -0.000 C 
BRANCH   7   8
ATOM      8  C   UNL     1      65.184  29.838  61.240  1.00  0.00    -0.000 C 
BRANCH   8   9
ATOM      9  C   UNL     1      65.880  30.158  59.907  1.00  0.00    -0.000 C 
BRANCH   9  10
ATOM     10  C   UNL     1      67.269  29.504  59.794  1.00  0.00    -0.000 C 
BRANCH  10  11
ATOM     11  C   UNL     1      67.424  28.289  60.722  1.00  0.00    -0.003 C 
ATOM     12  C   UNL     1      68.575  28.443  61.715  1.00  0.00     0.004 C 
ENDBRANCH  10  11
ENDBRANCH   9  10
ENDBRANCH   8   9
ENDBRANCH   7   8
ENDBRANCH   6   7
ENDBRANCH   5   6
ENDBRANCH   4   5
ENDBRANCH   3   4
ENDBRANCH   2   3
ENDBRANCH   1   2
BRANCH   1  13
ATOM     13  C   UNL     1      59.195  27.462  59.660  1.00  0.00     0.000 C 
BRANCH  13  14
ATOM     14  C   UNL     1      59.776  28.478  58.658  1.00  0.00     0.000 C 
BRANCH  14  15
ATOM     15  C   UNL     1      60.600  29.622  59.277  1.00  0.00     0.000 C 
BRANCH  15  16
ATOM     16  C   UNL     1      61.585  30.259  58.282  1.00  0.00     0.000 C 
BRANCH  16  17
ATOM     17  C   UNL     1      61.715  31.782  58.463  1.00  0.00     0.000 C 
BRANCH  17  18
ATOM     18  C   UNL     1      63.176  32.281  58.477  1.00  0.00     0.000 C 
BRANCH  18  19
ATOM     19  C   UNL     1      63.332  33.589  59.273  1.00  0.00     0.000 C 
BRANCH  19  20
ATOM     20  C   UNL     1      64.278  33.443  60.474  1.00  0.00     0.006 C 
BRANCH  20  21
ATOM     21  C   UNL     1      65.245  34.625  60.612  1.00  0.00     0.053 C 
BRANCH  21  22
ATOM     22  C   UNL     1      64.830  35.508  61.747  1.00  0.00     0.041 C 
ATOM     23  O   UNL     1      65.686  35.928  62.569  1.00  0.00    -0.550 OA
ATOM     24  O   UNL     1      63.505  35.908  61.867  1.00  0.00    -0.550 OA
ENDBRANCH  21  22
ENDBRANCH  20  21
ENDBRANCH  19  20
ENDBRANCH  18  19
ENDBRANCH  17  18
ENDBRANCH  16  17
ENDBRANCH  15  16
ENDBRANCH  14  15
ENDBRANCH  13  14
ENDBRANCH   1  13
TORSDOF 20
ENDMDL
MODEL 8
REMARK VINA RESULT:    -2.965     11.281     14.071
REMARK INTER + INTRA:          -9.528
REMARK INTER:                  -6.422
REMARK INTRA:                  -3.106
REMARK UNBOUND:                -3.096
REMARK SMILES CCCCCCCCCCCCCCCCCCCCCC(=O)[O-]
REMARK SMILES IDX 12 1 11 2 10 3 9 4 8 5 7 6 6 7 5 8 4 9 3 10 2 11 1 12 13 13
REMARK SMILES IDX 14 14 15 15 16 16 17 17 18 18 19 19 20 20 21 21 22 22 23 23
REMARK SMILES IDX 24 24
REMARK H PARENT
REMARK Flexibility Score: inf
ROOT
ATOM      1  C   UNL     1      63.297  29.415  51.537  1.00  0.00     0.000 C 
ENDROOT
BRANCH   1   2
ATOM      2  C   UNL     1      62.154  28.404  51.329  1.00  0.00     0.000 C 
BRANCH   2   3
ATOM      3  C   UNL     1      61.228  28.685  50.131  1.00  0.00     0.000 C 
BRANCH   3   4
ATOM      4  C   UNL     1      60.915  27.427  49.302  1.00  0.00    -0.000 C 
BRANCH   4   5
ATOM      5  C   UNL     1      61.516  26.145  49.907  1.00  0.00    -0.000 C 
BRANCH   5   6
ATOM      6  C   UNL     1      60.526  24.980  50.092  1.00  0.00    -0.000 C 
BRANCH   6   7
ATOM      7  C   UNL     1      59.086  25.346  49.703  1.00  0.00    -0.000 C 
BRANCH   7   8
ATOM      8  C   UNL     1      58.130  25.145  50.889  1.00  0.00    -0.000 C 
BRANCH   8   9
ATOM      9  C   UNL     1      57.456  26.451  51.339  1.00  0.00    -0.000 C 
BRANCH   9  10
ATOM     10  C   UNL     1      58.410  27.368  52.125  1.00  0.00    -0.000 C 
BRANCH  10  11
ATOM     11  C   UNL     1      57.779  28.730  52.453  1.00  0.00    -0.003 C 
ATOM     12  C   UNL     1      58.818  29.821  52.705  1.00  0.00     0.004 C 
ENDBRANCH  10  11
ENDBRANCH   9  10
ENDBRANCH   8   9
ENDBRANCH   7   8
ENDBRANCH   6   7
ENDBRANCH   5   6
ENDBRANCH   4   5
ENDBRANCH   3   4
ENDBRANCH   2   3
ENDBRANCH   1   2
BRANCH   1  13
ATOM     13  C   UNL     1      63.631  30.216  50.267  1.00  0.00     0.000 C 
BRANCH  13  14
ATOM     14  C   UNL     1      64.889  29.701  49.543  1.00  0.00     0.000 C 
BRANCH  14  15
ATOM     15  C   UNL     1      64.668  29.203  48.103  1.00  0.00     0.000 C 
BRANCH  15  16
ATOM     16  C   UNL     1      64.323  27.706  48.030  1.00  0.00     0.000 C 
BRANCH  16  17
ATOM     17  C   UNL     1      65.268  26.834  48.875  1.00  0.00     0.000 C 
BRANCH  17  18
ATOM     18  C   UNL     1      66.649  26.607  48.223  1.00  0.00     0.000 C 
BRANCH  18  19
ATOM     19  C   UNL     1      66.527  26.028  46.801  1.00  0.00     0.000 C 
BRANCH  19  20
ATOM     20  C   UNL     1      67.224  26.899  45.745  1.00  0.00     0.006 C 
BRANCH  20  21
ATOM     21  C   UNL     1      67.724  28.232  46.313  1.00  0.00     0.053 C 
BRANCH  21  22
ATOM     22  C   UNL     1      68.990  28.647  45.632  1.00  0.00     0.041 C 
ATOM     23  O   UNL     1      69.957  27.846  45.551  1.00  0.00    -0.550 OA
ATOM     24  O   UNL     1      69.083  29.902  45.043  1.00  0.00    -0.550 OA
ENDBRANCH  21  22
ENDBRANCH  20  21
ENDBRANCH  19  20
ENDBRANCH  18  19
ENDBRANCH  17  18
ENDBRANCH  16  17
ENDBRANCH  15  16
ENDBRANCH  14  15
ENDBRANCH  13  14
ENDBRANCH   1  13
TORSDOF 20
ENDMDL
MODEL 9
REMARK VINA RESULT:    -2.960      3.561      7.531
REMARK INTER + INTRA:          -9.517
REMARK INTER:                  -6.158
REMARK INTRA:                  -3.359
REMARK UNBOUND:                -3.096
REMARK SMILES CCCCCCCCCCCCCCCCCCCCCC(=O)[O-]
REMARK SMILES IDX 12 1 11 2 10 3 9 4 8 5 7 6 6 7 5 8 4 9 3 10 2 11 1 12 13 13
REMARK SMILES IDX 14 14 15 15 16 16 17 17 18 18 19 19 20 20 21 21 22 22 23 23
REMARK SMILES IDX 24 24
REMARK H PARENT
REMARK Flexibility Score: inf
ROOT
ATOM      1  C   UNL     1      60.912  25.752  60.172  1.00  0.00     0.000 C 
ENDROOT
BRANCH   1   2
ATOM      2  C   UNL     1      59.605  26.562  60.087  1.00  0.00     0.000 C 
BRANCH   2   3
ATOM      3  C   UNL     1      58.885  26.804  61.426  1.00  0.00     0.000 C 
BRANCH   3   4
ATOM      4  C   UNL     1      57.364  26.973  61.272  1.00  0.00    -0.000 C 
BRANCH   4   5
ATOM      5  C   UNL     1      56.705  27.630  62.498  1.00  0.00    -0.000 C 
BRANCH   5   6
ATOM      6  C   UNL     1      55.703  26.741  63.260  1.00  0.00    -0.000 C 
BRANCH   6   7
ATOM      7  C   UNL     1      55.375  25.435  62.521  1.00  0.00    -0.000 C 
BRANCH   7   8
ATOM      8  C   UNL     1      55.329  24.250  63.497  1.00  0.00    -0.000 C 
BRANCH   8   9
ATOM      9  C   UNL     1      56.286  23.114  63.099  1.00  0.00    -0.000 C 
BRANCH   9  10
ATOM     10  C   UNL     1      57.732  23.603  62.899  1.00  0.00    -0.000 C 
BRANCH  10  11
ATOM     11  C   UNL     1      58.387  23.004  61.644  1.00  0.00    -0.003 C 
ATOM     12  C   UNL     1      57.664  23.393  60.355  1.00  0.00     0.004 C 
ENDBRANCH  10  11
ENDBRANCH   9  10
ENDBRANCH   8   9
ENDBRANCH   7   8
ENDBRANCH   6   7
ENDBRANCH   5   6
ENDBRANCH   4   5
ENDBRANCH   3   4
ENDBRANCH   2   3
ENDBRANCH   1   2
BRANCH   1  13
ATOM     13  C   UNL     1      61.242  25.289  61.601  1.00  0.00     0.000 C 
BRANCH  13  14
ATOM     14  C   UNL     1      62.441  26.035  62.215  1.00  0.00     0.000 C 
BRANCH  14  15
ATOM     15  C   UNL     1      63.599  26.340  61.246  1.00  0.00     0.000 C 
BRANCH  15  16
ATOM     16  C   UNL     1      63.806  27.845  61.011  1.00  0.00     0.000 C 
BRANCH  16  17
ATOM     17  C   UNL     1      62.741  28.711  61.706  1.00  0.00     0.000 C 
BRANCH  17  18
ATOM     18  C   UNL     1      61.789  29.427  60.725  1.00  0.00     0.000 C 
BRANCH  18  19
ATOM     19  C   UNL     1      62.440  29.650  59.347  1.00  0.00     0.000 C 
BRANCH  19  20
ATOM     20  C   UNL     1      62.925  31.093  59.147  1.00  0.00     0.006 C 
BRANCH  20  21
ATOM     21  C   UNL     1      64.434  31.179  58.887  1.00  0.00     0.053 C 
BRANCH  21  22
ATOM     22  C   UNL     1      65.174  31.373  60.173  1.00  0.00     0.041 C 
ATOM     23  O   UNL     1      65.958  30.483  60.593  1.00  0.00    -0.550 OA
ATOM     24  O   UNL     1      65.035  32.560  60.882  1.00  0.00    -0.550 OA
ENDBRANCH  21  22
ENDBRANCH  20  21
ENDBRANCH  19  20
ENDBRANCH  18  19
ENDBRANCH  17  18
ENDBRANCH  16  17
ENDBRANCH  15  16
ENDBRANCH  14  15
ENDBRANCH  13  14
ENDBRANCH   1  13
TORSDOF 20
ENDMDL
