MODEL 1
REMARK VINA RESULT:    -3.230      0.000      0.000
REMARK INTER + INTRA:         -10.924
REMARK INTER:                  -7.384
REMARK INTRA:                  -3.540
REMARK UNBOUND:                -3.540
REMARK SMILES CCCCCCCCCCCCCCCCCCCCCCCC(=O)[O-]
REMARK SMILES IDX 13 1 14 2 15 3 16 4 17 5 18 6 19 7 20 8 21 9 22 10 23 11
REMARK SMILES IDX 24 12 25 13 26 14 12 15 11 16 10 17 9 18 8 19 7 20 6 21 5 22
REMARK SMILES IDX 4 23 3 24 2 25 1 26
REMARK H PARENT
REMARK Flexibility Score: inf
ROOT
ATOM      1  C   UNL     1      22.885  67.663  17.975  1.00  0.00     0.000 C 
ENDROOT
BRANCH   1   2
ATOM      2  C   UNL     1      22.054  68.689  18.762  1.00  0.00     0.000 C 
BRANCH   2   3
ATOM      3  C   UNL     1      22.361  70.140  18.359  1.00  0.00     0.000 C 
BRANCH   3   4
ATOM      4  C   UNL     1      22.418  70.338  16.833  1.00  0.00     0.000 C 
BRANCH   4   5
ATOM      5  C   UNL     1      21.335  71.292  16.285  1.00  0.00     0.000 C 
BRANCH   5   6
ATOM      6  C   UNL     1      21.863  72.183  15.146  1.00  0.00     0.000 C 
BRANCH   6   7
ATOM      7  C   UNL     1      23.336  72.591  15.330  1.00  0.00     0.000 C 
BRANCH   7   8
ATOM      8  C   UNL     1      24.186  72.566  14.048  1.00  0.00     0.000 C 
BRANCH   8   9
ATOM      9  C   UNL     1      23.515  71.810  12.893  1.00  0.00     0.000 C 
BRANCH   9  10
ATOM     10  C   UNL     1      24.546  71.420  11.823  1.00  0.00     0.006 C 
BRANCH  10  11
ATOM     11  C   UNL     1      25.802  72.298  11.878  1.00  0.00     0.053 C 
BRANCH  11  12
ATOM     12  C   UNL     1      27.057  71.482  11.942  1.00  0.00     0.041 C 
ATOM     13  O   UNL     1      27.615  71.263  13.049  1.00  0.00    -0.550 OA
ATOM     14  O   UNL     1      27.604  70.951  10.779  1.00  0.00    -0.550 OA
ENDBRANCH  11  12
ENDBRANCH  10  11
ENDBRANCH   9  10
ENDBRANCH   8   9
ENDBRANCH   7   8
ENDBRANCH   6   7
ENDBRANCH   5   6
ENDBRANCH   4   5
ENDBRANCH   3   4
ENDBRANCH   2   3
ENDBRANCH   1   2
BRANCH   1  15
ATOM     15  C   UNL     1      22.238  66.271  17.952  1.00  0.00     0.000 C 
BRANCH  15  16
ATOM     16  C   UNL     1      21.217  66.119  19.090  1.00  0.00     0.000 C 
BRANCH  16  17
ATOM     17  C   UNL     1      19.999  65.266  18.687  1.00  0.00     0.000 C 
BRANCH  17  18
ATOM     18  C   UNL     1      18.630  65.894  19.018  1.00  0.00    -0.000 C 
BRANCH  18  19
ATOM     19  C   UNL     1      18.655  67.407  19.310  1.00  0.00    -0.000 C 
BRANCH  19  20
ATOM     20  C   UNL     1      17.875  68.273  18.306  1.00  0.00    -0.000 C 
BRANCH  20  21
ATOM     21  C   UNL     1      18.763  68.809  17.169  1.00  0.00    -0.000 C 
BRANCH  21  22
ATOM     22  C   UNL     1      19.070  67.746  16.096  1.00  0.00    -0.000 C 
BRANCH  22  23
ATOM     23  C   UNL     1      19.921  68.244  14.912  1.00  0.00    -0.000 C 
BRANCH  23  24
ATOM     24  C   UNL     1      21.216  67.439  14.723  1.00  0.00    -0.000 C 
BRANCH  24  25
ATOM     25  C   UNL     1      20.913  65.951  14.515  1.00  0.00    -0.003 C 
ATOM     26  C   UNL     1      22.140  65.206  13.994  1.00  0.00     0.004 C 
ENDBRANCH  24  25
ENDBRANCH  23  24
ENDBRANCH  22  23
ENDBRANCH  21  22
ENDBRANCH  20  21
ENDBRANCH  19  20
ENDBRANCH  18  19
ENDBRANCH  17  18
ENDBRANCH  16  17
ENDBRANCH  15  16
ENDBRANCH   1  15
TORSDOF 22
ENDMDL
MODEL 2
REMARK VINA RESULT:    -3.132      1.331      3.831
REMARK INTER + INTRA:         -10.701
REMARK INTER:                  -7.670
REMARK INTRA:                  -3.031
REMARK UNBOUND:                -3.540
REMARK SMILES CCCCCCCCCCCCCCCCCCCCCCCC(=O)[O-]
REMARK SMILES IDX 13 1 14 2 15 3 16 4 17 5 18 6 19 7 20 8 21 9 22 10 23 11
REMARK SMILES IDX 24 12 25 13 26 14 12 15 11 16 10 17 9 18 8 19 7 20 6 21 5 22
REMARK SMILES IDX 4 23 3 24 2 25 1 26
REMARK H PARENT
REMARK Flexibility Score: inf
ROOT
ATOM      1  C   UNL     1      19.910  71.936  15.924  1.00  0.00     0.000 C 
ENDROOT
BRANCH   1   2
ATOM      2  C   UNL     1      21.029  72.276  14.925  1.00  0.00     0.000 C 
BRANCH   2   3
ATOM      3  C   UNL     1      21.391  73.770  14.924  1.00  0.00     0.000 C 
BRANCH   3   4
ATOM      4  C   UNL     1      22.896  74.021  14.715  1.00  0.00     0.000 C 
BRANCH   4   5
ATOM      5  C   UNL     1      23.783  72.794  15.019  1.00  0.00     0.000 C 
BRANCH   5   6
ATOM      6  C   UNL     1      24.642  72.380  13.811  1.00  0.00     0.000 C 
BRANCH   6   7
ATOM      7  C   UNL     1      24.046  72.827  12.463  1.00  0.00     0.000 C 
BRANCH   7   8
ATOM      8  C   UNL     1      23.812  71.696  11.446  1.00  0.00     0.000 C 
BRANCH   8   9
ATOM      9  C   UNL     1      24.902  71.619  10.368  1.00  0.00     0.000 C 
BRANCH   9  10
ATOM     10  C   UNL     1      25.934  70.534  10.713  1.00  0.00     0.006 C 
BRANCH  10  11
ATOM     11  C   UNL     1      27.370  71.072  10.701  1.00  0.00     0.053 C 
BRANCH  11  12
ATOM     12  C   UNL     1      27.708  71.799  11.967  1.00  0.00     0.041 C 
ATOM     13  O   UNL     1      27.833  73.052  11.963  1.00  0.00    -0.550 OA
ATOM     14  O   UNL     1      27.875  71.095  13.154  1.00  0.00    -0.550 OA
ENDBRANCH  11  12
ENDBRANCH  10  11
ENDBRANCH   9  10
ENDBRANCH   8   9
ENDBRANCH   7   8
ENDBRANCH   6   7
ENDBRANCH   5   6
ENDBRANCH   4   5
ENDBRANCH   3   4
ENDBRANCH   2   3
ENDBRANCH   1   2
BRANCH   1  15
ATOM     15  C   UNL     1      20.381  70.988  17.037  1.00  0.00     0.000 C 
BRANCH  15  16
ATOM     16  C   UNL     1      21.799  70.467  16.755  1.00  0.00     0.000 C 
BRANCH  16  17
ATOM     17  C   UNL     1      22.580  70.142  18.041  1.00  0.00     0.000 C 
BRANCH  17  18
ATOM     18  C   UNL     1      22.345  68.726  18.603  1.00  0.00    -0.000 C 
BRANCH  18  19
ATOM     19  C   UNL     1      22.895  67.576  17.737  1.00  0.00    -0.000 C 
BRANCH  19  20
ATOM     20  C   UNL     1      22.505  66.165  18.208  1.00  0.00    -0.000 C 
BRANCH  20  21
ATOM     21  C   UNL     1      21.335  66.175  19.208  1.00  0.00    -0.000 C 
BRANCH  21  22
ATOM     22  C   UNL     1      20.018  65.660  18.594  1.00  0.00    -0.000 C 
BRANCH  22  23
ATOM     23  C   UNL     1      19.254  66.689  17.738  1.00  0.00    -0.000 C 
BRANCH  23  24
ATOM     24  C   UNL     1      19.451  66.477  16.229  1.00  0.00    -0.000 C 
BRANCH  24  25
ATOM     25  C   UNL     1      19.426  67.814  15.478  1.00  0.00    -0.003 C 
ATOM     26  C   UNL     1      20.522  67.871  14.417  1.00  0.00     0.004 C 
ENDBRANCH  24  25
ENDBRANCH  23  24
ENDBRANCH  22  23
ENDBRANCH  21  22
ENDBRANCH  20  21
ENDBRANCH  19  20
ENDBRANCH  18  19
ENDBRANCH  17  18
ENDBRANCH  16  17
ENDBRANCH  15  16
ENDBRANCH   1  15
TORSDOF 22
ENDMDL
MODEL 3
REMARK VINA RESULT:    -3.117      2.515      7.006
REMARK INTER + INTRA:         -10.666
REMARK INTER:                  -7.384
REMARK INTRA:                  -3.282
REMARK UNBOUND:                -3.540
REMARK SMILES CCCCCCCCCCCCCCCCCCCCCCCC(=O)[O-]
REMARK SMILES IDX 13 1 14 2 15 3 16 4 17 5 18 6 19 7 20 8 21 9 22 10 23 11
REMARK SMILES IDX 24 12 25 13 26 14 12 15 11 16 10 17 9 18 8 19 7 20 6 21 5 22
REMARK SMILES IDX 4 23 3 24 2 25 1 26
REMARK H PARENT
REMARK Flexibility Score: inf
ROOT
ATOM      1  C   UNL     1      21.421  70.254  16.094  1.00  0.00     0.000 C 
ENDROOT
BRANCH   1   2
ATOM      2  C   UNL     1      22.473  70.570  17.170  1.00  0.00     0.000 C 
BRANCH   2   3
ATOM      3  C   UNL     1      22.365  69.650  18.396  1.00  0.00     0.000 C 
BRANCH   3   4
ATOM      4  C   UNL     1      22.731  68.188  18.083  1.00  0.00     0.000 C 
BRANCH   4   5
ATOM      5  C   UNL     1      21.824  67.152  18.783  1.00  0.00     0.000 C 
BRANCH   5   6
ATOM      6  C   UNL     1      20.426  67.716  19.096  1.00  0.00     0.000 C 
BRANCH   6   7
ATOM      7  C   UNL     1      19.324  67.139  18.188  1.00  0.00     0.000 C 
BRANCH   7   8
ATOM      8  C   UNL     1      19.815  66.161  17.106  1.00  0.00     0.000 C 
BRANCH   8   9
ATOM      9  C   UNL     1      19.979  66.818  15.728  1.00  0.00     0.000 C 
BRANCH   9  10
ATOM     10  C   UNL     1      21.153  66.190  14.961  1.00  0.00     0.006 C 
BRANCH  10  11
ATOM     11  C   UNL     1      21.893  65.135  15.792  1.00  0.00     0.053 C 
BRANCH  11  12
ATOM     12  C   UNL     1      23.378  65.210  15.602  1.00  0.00     0.041 C 
ATOM     13  O   UNL     1      23.866  65.264  14.443  1.00  0.00    -0.550 OA
ATOM     14  O   UNL     1      24.223  65.234  16.706  1.00  0.00    -0.550 OA
ENDBRANCH  11  12
ENDBRANCH  10  11
ENDBRANCH   9  10
ENDBRANCH   8   9
ENDBRANCH   7   8
ENDBRANCH   6   7
ENDBRANCH   5   6
ENDBRANCH   4   5
ENDBRANCH   3   4
ENDBRANCH   2   3
ENDBRANCH   1   2
BRANCH   1  15
ATOM     15  C   UNL     1      19.983  70.428  16.606  1.00  0.00     0.000 C 
BRANCH  15  16
ATOM     16  C   UNL     1      19.494  71.869  16.396  1.00  0.00     0.000 C 
BRANCH  16  17
ATOM     17  C   UNL     1      19.968  72.470  15.060  1.00  0.00     0.000 C 
BRANCH  17  18
ATOM     18  C   UNL     1      20.557  73.891  15.161  1.00  0.00    -0.000 C 
BRANCH  18  19
ATOM     19  C   UNL     1      21.755  74.172  14.234  1.00  0.00    -0.000 C 
BRANCH  19  20
ATOM     20  C   UNL     1      23.106  74.337  14.951  1.00  0.00    -0.000 C 
BRANCH  20  21
ATOM     21  C   UNL     1      23.876  73.011  15.079  1.00  0.00    -0.000 C 
BRANCH  21  22
ATOM     22  C   UNL     1      23.757  72.124  13.824  1.00  0.00    -0.000 C 
BRANCH  22  23
ATOM     23  C   UNL     1      25.076  71.894  13.063  1.00  0.00    -0.000 C 
BRANCH  23  24
ATOM     24  C   UNL     1      24.879  71.765  11.544  1.00  0.00    -0.000 C 
BRANCH  24  25
ATOM     25  C   UNL     1      25.973  70.890  10.920  1.00  0.00    -0.003 C 
ATOM     26  C   UNL     1      27.288  71.657  10.795  1.00  0.00     0.004 C 
ENDBRANCH  24  25
ENDBRANCH  23  24
ENDBRANCH  22  23
ENDBRANCH  21  22
ENDBRANCH  20  21
ENDBRANCH  19  20
ENDBRANCH  18  19
ENDBRANCH  17  18
ENDBRANCH  16  17
ENDBRANCH  15  16
ENDBRANCH   1  15
TORSDOF 22
ENDMDL
MODEL 4
REMARK VINA RESULT:    -3.113      1.359      2.754
REMARK INTER + INTRA:         -10.656
REMARK INTER:                  -7.243
REMARK INTRA:                  -3.413
REMARK UNBOUND:                -3.540
REMARK SMILES CCCCCCCCCCCCCCCCCCCCCCCC(=O)[O-]
REMARK SMILES IDX 13 1 14 2 15 3 16 4 17 5 18 6 19 7 20 8 21 9 22 10 23 11
REMARK SMILES IDX 24 12 25 13 26 14 12 15 11 16 10 17 9 18 8 19 7 20 6 21 5 22
REMARK SMILES IDX 4 23 3 24 2 25 1 26
REMARK H PARENT
REMARK Flexibility Score: inf
ROOT
ATOM      1  C   UNL     1      21.900  70.495  16.988  1.00  0.00     0.000 C 
ENDROOT
BRANCH   1   2
ATOM      2  C   UNL     1      20.388  70.693  17.187  1.00  0.00     0.000 C 
BRANCH   2   3
ATOM      3  C   UNL     1      19.758  71.585  16.106  1.00  0.00     0.000 C 
BRANCH   3   4
ATOM      4  C   UNL     1      18.932  70.788  15.079  1.00  0.00     0.000 C 
BRANCH   4   5
ATOM      5  C   UNL     1      19.676  70.516  13.754  1.00  0.00     0.000 C 
BRANCH   5   6
ATOM      6  C   UNL     1      20.734  71.591  13.446  1.00  0.00     0.000 C 
BRANCH   6   7
ATOM      7  C   UNL     1      22.174  71.045  13.463  1.00  0.00     0.000 C 
BRANCH   7   8
ATOM      8  C   UNL     1      23.266  72.092  13.748  1.00  0.00     0.000 C 
BRANCH   8   9
ATOM      9  C   UNL     1      24.286  72.224  12.609  1.00  0.00     0.000 C 
BRANCH   9  10
ATOM     10  C   UNL     1      25.714  71.992  13.126  1.00  0.00     0.006 C 
BRANCH  10  11
ATOM     11  C   UNL     1      26.757  72.054  12.004  1.00  0.00     0.053 C 
BRANCH  11  12
ATOM     12  C   UNL     1      28.156  72.089  12.538  1.00  0.00     0.041 C 
ATOM     13  O   UNL     1      29.131  71.860  11.775  1.00  0.00    -0.550 OA
ATOM     14  O   UNL     1      28.386  72.385  13.877  1.00  0.00    -0.550 OA
ENDBRANCH  11  12
ENDBRANCH  10  11
ENDBRANCH   9  10
ENDBRANCH   8   9
ENDBRANCH   7   8
ENDBRANCH   6   7
ENDBRANCH   5   6
ENDBRANCH   4   5
ENDBRANCH   3   4
ENDBRANCH   2   3
ENDBRANCH   1   2
BRANCH   1  15
ATOM     15  C   UNL     1      22.612  70.049  18.275  1.00  0.00     0.000 C 
BRANCH  15  16
ATOM     16  C   UNL     1      22.197  68.623  18.667  1.00  0.00     0.000 C 
BRANCH  16  17
ATOM     17  C   UNL     1      23.081  67.544  18.015  1.00  0.00     0.000 C 
BRANCH  17  18
ATOM     18  C   UNL     1      22.677  66.092  18.337  1.00  0.00    -0.000 C 
BRANCH  18  19
ATOM     19  C   UNL     1      21.298  65.927  19.004  1.00  0.00    -0.000 C 
BRANCH  19  20
ATOM     20  C   UNL     1      20.327  64.991  18.264  1.00  0.00    -0.000 C 
BRANCH  20  21
ATOM     21  C   UNL     1      18.991  65.672  17.920  1.00  0.00    -0.000 C 
BRANCH  21  22
ATOM     22  C   UNL     1      19.170  67.098  17.365  1.00  0.00    -0.000 C 
BRANCH  22  23
ATOM     23  C   UNL     1      19.314  67.187  15.833  1.00  0.00    -0.000 C 
BRANCH  23  24
ATOM     24  C   UNL     1      20.761  67.430  15.379  1.00  0.00    -0.000 C 
BRANCH  24  25
ATOM     25  C   UNL     1      21.159  66.454  14.264  1.00  0.00    -0.003 C 
ATOM     26  C   UNL     1      20.549  66.868  12.926  1.00  0.00     0.004 C 
ENDBRANCH  24  25
ENDBRANCH  23  24
ENDBRANCH  22  23
ENDBRANCH  21  22
ENDBRANCH  20  21
ENDBRANCH  19  20
ENDBRANCH  18  19
ENDBRANCH  17  18
ENDBRANCH  16  17
ENDBRANCH  15  16
ENDBRANCH   1  15
TORSDOF 22
ENDMDL
MODEL 5
REMARK VINA RESULT:    -3.089      1.487      4.125
REMARK INTER + INTRA:         -10.603
REMARK INTER:                  -7.287
REMARK INTRA:                  -3.316
REMARK UNBOUND:                -3.540
REMARK SMILES CCCCCCCCCCCCCCCCCCCCCCCC(=O)[O-]
REMARK SMILES IDX 13 1 14 2 15 3 16 4 17 5 18 6 19 7 20 8 21 9 22 10 23 11
REMARK SMILES IDX 24 12 25 13 26 14 12 15 11 16 10 17 9 18 8 19 7 20 6 21 5 22
REMARK SMILES IDX 4 23 3 24 2 25 1 26
REMARK H PARENT
REMARK Flexibility Score: inf
ROOT
ATOM      1  C   UNL     1      21.991  70.654  14.784  1.00  0.00     0.000 C 
ENDROOT
BRANCH   1   2
ATOM      2  C   UNL     1      22.107  71.870  15.718  1.00  0.00     0.000 C 
BRANCH   2   3
ATOM      3  C   UNL     1      23.411  72.657  15.510  1.00  0.00     0.000 C 
BRANCH   3   4
ATOM      4  C   UNL     1      23.170  74.096  15.020  1.00  0.00     0.000 C 
BRANCH   4   5
ATOM      5  C   UNL     1      22.015  74.226  14.004  1.00  0.00     0.000 C 
BRANCH   5   6
ATOM      6  C   UNL     1      22.515  74.584  12.592  1.00  0.00     0.000 C 
BRANCH   6   7
ATOM      7  C   UNL     1      22.427  73.407  11.603  1.00  0.00     0.000 C 
BRANCH   7   8
ATOM      8  C   UNL     1      23.781  72.823  11.162  1.00  0.00     0.000 C 
BRANCH   8   9
ATOM      9  C   UNL     1      24.227  71.625  12.011  1.00  0.00     0.000 C 
BRANCH   9  10
ATOM     10  C   UNL     1      25.520  71.950  12.775  1.00  0.00     0.006 C 
BRANCH  10  11
ATOM     11  C   UNL     1      26.757  71.328  12.116  1.00  0.00     0.053 C 
BRANCH  11  12
ATOM     12  C   UNL     1      28.030  71.809  12.744  1.00  0.00     0.041 C 
ATOM     13  O   UNL     1      29.085  71.882  12.061  1.00  0.00    -0.550 OA
ATOM     14  O   UNL     1      28.049  72.188  14.082  1.00  0.00    -0.550 OA
ENDBRANCH  11  12
ENDBRANCH  10  11
ENDBRANCH   9  10
ENDBRANCH   8   9
ENDBRANCH   7   8
ENDBRANCH   6   7
ENDBRANCH   5   6
ENDBRANCH   4   5
ENDBRANCH   3   4
ENDBRANCH   2   3
ENDBRANCH   1   2
BRANCH   1  15
ATOM     15  C   UNL     1      20.535  70.220  14.558  1.00  0.00     0.000 C 
BRANCH  15  16
ATOM     16  C   UNL     1      19.970  69.516  15.801  1.00  0.00     0.000 C 
BRANCH  16  17
ATOM     17  C   UNL     1      19.470  68.090  15.501  1.00  0.00     0.000 C 
BRANCH  17  18
ATOM     18  C   UNL     1      20.411  67.244  14.623  1.00  0.00    -0.000 C 
BRANCH  18  19
ATOM     19  C   UNL     1      21.438  66.390  15.393  1.00  0.00    -0.000 C 
BRANCH  19  20
ATOM     20  C   UNL     1      22.629  67.174  15.971  1.00  0.00    -0.000 C 
BRANCH  20  21
ATOM     21  C   UNL     1      23.390  66.386  17.052  1.00  0.00    -0.000 C 
BRANCH  21  22
ATOM     22  C   UNL     1      22.739  66.497  18.444  1.00  0.00    -0.000 C 
BRANCH  22  23
ATOM     23  C   UNL     1      22.119  67.870  18.765  1.00  0.00    -0.000 C 
BRANCH  23  24
ATOM     24  C   UNL     1      20.618  67.792  19.084  1.00  0.00    -0.000 C 
BRANCH  24  25
ATOM     25  C   UNL     1      20.068  66.390  18.796  1.00  0.00    -0.003 C 
ATOM     26  C   UNL     1      18.551  66.346  18.974  1.00  0.00     0.004 C 
ENDBRANCH  24  25
ENDBRANCH  23  24
ENDBRANCH  22  23
ENDBRANCH  21  22
ENDBRANCH  20  21
ENDBRANCH  19  20
ENDBRANCH  18  19
ENDBRANCH  17  18
ENDBRANCH  16  17
ENDBRANCH  15  16
ENDBRANCH   1  15
TORSDOF 22
ENDMDL
MODEL 6
REMARK VINA RESULT:    -3.040      1.611      3.656
REMARK INTER + INTRA:         -10.490
REMARK INTER:                  -7.067
REMARK INTRA:                  -3.423
REMARK UNBOUND:                -3.540
REMARK SMILES CCCCCCCCCCCCCCCCCCCCCCCC(=O)[O-]
REMARK SMILES IDX 13 1 14 2 15 3 16 4 17 5 18 6 19 7 20 8 21 9 22 10 23 11
REMARK SMILES IDX 24 12 25 13 26 14 12 15 11 16 10 17 9 18 8 19 7 20 6 21 5 22
REMARK SMILES IDX 4 23 3 24 2 25 1 26
REMARK H PARENT
REMARK Flexibility Score: inf
ROOT
ATOM      1  C   UNL     1      21.898  69.994  16.906  1.00  0.00     0.000 C 
ENDROOT
BRANCH   1   2
ATOM      2  C   UNL     1      20.459  69.527  16.632  1.00  0.00     0.000 C 
BRANCH   2   3
ATOM      3  C   UNL     1      19.607  70.600  15.936  1.00  0.00     0.000 C 
BRANCH   3   4
ATOM      4  C   UNL     1      20.262  71.993  15.960  1.00  0.00     0.000 C 
BRANCH   4   5
ATOM      5  C   UNL     1      19.443  73.082  15.235  1.00  0.00     0.000 C 
BRANCH   5   6
ATOM      6  C   UNL     1      19.969  73.362  13.815  1.00  0.00     0.000 C 
BRANCH   6   7
ATOM      7  C   UNL     1      20.910  74.579  13.748  1.00  0.00     0.000 C 
BRANCH   7   8
ATOM      8  C   UNL     1      22.404  74.243  13.598  1.00  0.00     0.000 C 
BRANCH   8   9
ATOM      9  C   UNL     1      23.093  73.945  14.937  1.00  0.00     0.000 C 
BRANCH   9  10
ATOM     10  C   UNL     1      24.032  72.735  14.811  1.00  0.00     0.006 C 
BRANCH  10  11
ATOM     11  C   UNL     1      23.825  71.973  13.497  1.00  0.00     0.053 C 
BRANCH  11  12
ATOM     12  C   UNL     1      25.099  71.836  12.720  1.00  0.00     0.041 C 
ATOM     13  O   UNL     1      25.065  71.653  11.475  1.00  0.00    -0.550 OA
ATOM     14  O   UNL     1      26.326  71.922  13.369  1.00  0.00    -0.550 OA
ENDBRANCH  11  12
ENDBRANCH  10  11
ENDBRANCH   9  10
ENDBRANCH   8   9
ENDBRANCH   7   8
ENDBRANCH   6   7
ENDBRANCH   5   6
ENDBRANCH   4   5
ENDBRANCH   3   4
ENDBRANCH   2   3
ENDBRANCH   1   2
BRANCH   1  15
ATOM     15  C   UNL     1      22.365  69.665  18.332  1.00  0.00     0.000 C 
BRANCH  15  16
ATOM     16  C   UNL     1      22.010  68.218  18.708  1.00  0.00     0.000 C 
BRANCH  16  17
ATOM     17  C   UNL     1      23.120  67.217  18.338  1.00  0.00     0.000 C 
BRANCH  17  18
ATOM     18  C   UNL     1      22.680  65.740  18.315  1.00  0.00    -0.000 C 
BRANCH  18  19
ATOM     19  C   UNL     1      22.567  65.109  16.914  1.00  0.00    -0.000 C 
BRANCH  19  20
ATOM     20  C   UNL     1      22.724  66.097  15.744  1.00  0.00    -0.000 C 
BRANCH  20  21
ATOM     21  C   UNL     1      21.420  66.291  14.951  1.00  0.00    -0.000 C 
BRANCH  21  22
ATOM     22  C   UNL     1      20.251  65.453  15.506  1.00  0.00    -0.000 C 
BRANCH  22  23
ATOM     23  C   UNL     1      19.320  66.201  16.480  1.00  0.00    -0.000 C 
BRANCH  23  24
ATOM     24  C   UNL     1      18.912  65.351  17.693  1.00  0.00    -0.000 C 
BRANCH  24  25
ATOM     25  C   UNL     1      19.005  66.162  18.990  1.00  0.00    -0.003 C 
ATOM     26  C   UNL     1      18.194  67.453  18.893  1.00  0.00     0.004 C 
ENDBRANCH  24  25
ENDBRANCH  23  24
ENDBRANCH  22  23
ENDBRANCH  21  22
ENDBRANCH  20  21
ENDBRANCH  19  20
ENDBRANCH  18  19
ENDBRANCH  17  18
ENDBRANCH  16  17
ENDBRANCH  15  16
ENDBRANCH   1  15
TORSDOF 22
ENDMDL
MODEL 7
REMARK VINA RESULT:    -3.038      1.522      2.381
REMARK INTER + INTRA:         -10.485
REMARK INTER:                  -6.623
REMARK INTRA:                  -3.862
REMARK UNBOUND:                -3.540
REMARK SMILES CCCCCCCCCCCCCCCCCCCCCCCC(=O)[O-]
REMARK SMILES IDX 13 1 14 2 15 3 16 4 17 5 18 6 19 7 20 8 21 9 22 10 23 11
REMARK SMILES IDX 24 12 25 13 26 14 12 15 11 16 10 17 9 18 8 19 7 20 6 21 5 22
REMARK SMILES IDX 4 23 3 24 2 25 1 26
REMARK H PARENT
REMARK Flexibility Score: inf
ROOT
ATOM      1  C   UNL     1      22.507  68.299  17.353  1.00  0.00     0.000 C 
ENDROOT
BRANCH   1   2
ATOM      2  C   UNL     1      22.536  69.680  18.027  1.00  0.00     0.000 C 
BRANCH   2   3
ATOM      3  C   UNL     1      21.311  70.539  17.676  1.00  0.00     0.000 C 
BRANCH   3   4
ATOM      4  C   UNL     1      20.186  69.732  17.002  1.00  0.00     0.000 C 
BRANCH   4   5
ATOM      5  C   UNL     1      19.347  70.547  15.995  1.00  0.00     0.000 C 
BRANCH   5   6
ATOM      6  C   UNL     1      20.069  71.826  15.532  1.00  0.00     0.000 C 
BRANCH   6   7
ATOM      7  C   UNL     1      20.732  71.680  14.150  1.00  0.00     0.000 C 
BRANCH   7   8
ATOM      8  C   UNL     1      22.198  71.214  14.176  1.00  0.00     0.000 C 
BRANCH   8   9
ATOM      9  C   UNL     1      23.097  72.099  15.050  1.00  0.00     0.000 C 
BRANCH   9  10
ATOM     10  C   UNL     1      24.243  72.701  14.221  1.00  0.00     0.006 C 
BRANCH  10  11
ATOM     11  C   UNL     1      24.337  72.080  12.822  1.00  0.00     0.053 C 
BRANCH  11  12
ATOM     12  C   UNL     1      25.735  71.654  12.490  1.00  0.00     0.041 C 
ATOM     13  O   UNL     1      25.968  71.020  11.428  1.00  0.00    -0.550 OA
ATOM     14  O   UNL     1      26.783  71.967  13.348  1.00  0.00    -0.550 OA
ENDBRANCH  11  12
ENDBRANCH  10  11
ENDBRANCH   9  10
ENDBRANCH   8   9
ENDBRANCH   7   8
ENDBRANCH   6   7
ENDBRANCH   5   6
ENDBRANCH   4   5
ENDBRANCH   3   4
ENDBRANCH   2   3
ENDBRANCH   1   2
BRANCH   1  15
ATOM     15  C   UNL     1      22.758  67.152  18.343  1.00  0.00     0.000 C 
BRANCH  15  16
ATOM     16  C   UNL     1      21.511  66.880  19.199  1.00  0.00     0.000 C 
BRANCH  16  17
ATOM     17  C   UNL     1      21.126  65.390  19.233  1.00  0.00     0.000 C 
BRANCH  17  18
ATOM     18  C   UNL     1      19.977  64.995  18.285  1.00  0.00    -0.000 C 
BRANCH  18  19
ATOM     19  C   UNL     1      19.283  66.170  17.570  1.00  0.00    -0.000 C 
BRANCH  19  20
ATOM     20  C   UNL     1      19.365  66.134  16.034  1.00  0.00    -0.000 C 
BRANCH  20  21
ATOM     21  C   UNL     1      20.703  65.570  15.524  1.00  0.00    -0.000 C 
BRANCH  21  22
ATOM     22  C   UNL     1      21.202  66.272  14.246  1.00  0.00    -0.000 C 
BRANCH  22  23
ATOM     23  C   UNL     1      20.824  67.761  14.133  1.00  0.00    -0.000 C 
BRANCH  23  24
ATOM     24  C   UNL     1      20.402  68.168  12.712  1.00  0.00    -0.000 C 
BRANCH  24  25
ATOM     25  C   UNL     1      19.225  67.315  12.223  1.00  0.00    -0.003 C 
ATOM     26  C   UNL     1      19.652  66.383  11.091  1.00  0.00     0.004 C 
ENDBRANCH  24  25
ENDBRANCH  23  24
ENDBRANCH  22  23
ENDBRANCH  21  22
ENDBRANCH  20  21
ENDBRANCH  19  20
ENDBRANCH  18  19
ENDBRANCH  17  18
ENDBRANCH  16  17
ENDBRANCH  15  16
ENDBRANCH   1  15
TORSDOF 22
ENDMDL
MODEL 8
REMARK VINA RESULT:    -3.030      2.966      6.507
REMARK INTER + INTRA:         -10.468
REMARK INTER:                  -6.147
REMARK INTRA:                  -4.322
REMARK UNBOUND:                -3.540
REMARK SMILES CCCCCCCCCCCCCCCCCCCCCCCC(=O)[O-]
REMARK SMILES IDX 13 1 14 2 15 3 16 4 17 5 18 6 19 7 20 8 21 9 22 10 23 11
REMARK SMILES IDX 24 12 25 13 26 14 12 15 11 16 10 17 9 18 8 19 7 20 6 21 5 22
REMARK SMILES IDX 4 23 3 24 2 25 1 26
REMARK H PARENT
REMARK Flexibility Score: inf
ROOT
ATOM      1  C   UNL     1      21.577  70.887  16.118  1.00  0.00     0.000 C 
ENDROOT
BRANCH   1   2
ATOM      2  C   UNL     1      22.688  70.868  17.180  1.00  0.00     0.000 C 
BRANCH   2   3
ATOM      3  C   UNL     1      22.338  69.990  18.392  1.00  0.00     0.000 C 
BRANCH   3   4
ATOM      4  C   UNL     1      22.582  68.492  18.136  1.00  0.00     0.000 C 
BRANCH   4   5
ATOM      5  C   UNL     1      21.780  67.558  19.069  1.00  0.00     0.000 C 
BRANCH   5   6
ATOM      6  C   UNL     1      20.271  67.861  19.042  1.00  0.00     0.000 C 
BRANCH   6   7
ATOM      7  C   UNL     1      19.408  66.612  18.786  1.00  0.00     0.000 C 
BRANCH   7   8
ATOM      8  C   UNL     1      20.098  65.494  17.984  1.00  0.00     0.000 C 
BRANCH   8   9
ATOM      9  C   UNL     1      19.703  65.485  16.500  1.00  0.00     0.000 C 
BRANCH   9  10
ATOM     10  C   UNL     1      20.926  65.211  15.612  1.00  0.00     0.006 C 
BRANCH  10  11
ATOM     11  C   UNL     1      22.204  64.996  16.431  1.00  0.00     0.053 C 
BRANCH  11  12
ATOM     12  C   UNL     1      23.428  65.446  15.693  1.00  0.00     0.041 C 
ATOM     13  O   UNL     1      24.318  66.110  16.286  1.00  0.00    -0.550 OA
ATOM     14  O   UNL     1      23.592  65.122  14.350  1.00  0.00    -0.550 OA
ENDBRANCH  11  12
ENDBRANCH  10  11
ENDBRANCH   9  10
ENDBRANCH   8   9
ENDBRANCH   7   8
ENDBRANCH   6   7
ENDBRANCH   5   6
ENDBRANCH   4   5
ENDBRANCH   3   4
ENDBRANCH   2   3
ENDBRANCH   1   2
BRANCH   1  15
ATOM     15  C   UNL     1      20.201  71.232  16.708  1.00  0.00     0.000 C 
BRANCH  15  16
ATOM     16  C   UNL     1      19.156  70.174  16.324  1.00  0.00     0.000 C 
BRANCH  16  17
ATOM     17  C   UNL     1      19.789  68.890  15.756  1.00  0.00     0.000 C 
BRANCH  17  18
ATOM     18  C   UNL     1      19.351  68.530  14.322  1.00  0.00    -0.000 C 
BRANCH  18  19
ATOM     19  C   UNL     1      20.473  68.559  13.266  1.00  0.00    -0.000 C 
BRANCH  19  20
ATOM     20  C   UNL     1      20.733  69.937  12.633  1.00  0.00    -0.000 C 
BRANCH  20  21
ATOM     21  C   UNL     1      19.439  70.737  12.400  1.00  0.00    -0.000 C 
BRANCH  21  22
ATOM     22  C   UNL     1      19.451  72.113  13.093  1.00  0.00    -0.000 C 
BRANCH  22  23
ATOM     23  C   UNL     1      20.808  72.843  13.066  1.00  0.00    -0.000 C 
BRANCH  23  24
ATOM     24  C   UNL     1      20.941  73.905  14.167  1.00  0.00    -0.000 C 
BRANCH  24  25
ATOM     25  C   UNL     1      22.314  74.587  14.111  1.00  0.00    -0.003 C 
ATOM     26  C   UNL     1      23.254  74.021  15.173  1.00  0.00     0.004 C 
ENDBRANCH  24  25
ENDBRANCH  23  24
ENDBRANCH  22  23
ENDBRANCH  21  22
ENDBRANCH  20  21
ENDBRANCH  19  20
ENDBRANCH  18  19
ENDBRANCH  17  18
ENDBRANCH  16  17
ENDBRANCH  15  16
ENDBRANCH   1  15
TORSDOF 22
ENDMDL
MODEL 9
REMARK VINA RESULT:    -2.961      2.853      6.652
REMARK INTER + INTRA:         -10.309
REMARK INTER:                  -6.059
REMARK INTRA:                  -4.250
REMARK UNBOUND:                -3.540
REMARK SMILES CCCCCCCCCCCCCCCCCCCCCCCC(=O)[O-]
REMARK SMILES IDX 13 1 14 2 15 3 16 4 17 5 18 6 19 7 20 8 21 9 22 10 23 11
REMARK SMILES IDX 24 12 25 13 26 14 12 15 11 16 10 17 9 18 8 19 7 20 6 21 5 22
REMARK SMILES IDX 4 23 3 24 2 25 1 26
REMARK H PARENT
REMARK Flexibility Score: inf
ROOT
ATOM      1  C   UNL     1      21.820  70.609  16.875  1.00  0.00     0.000 C 
ENDROOT
BRANCH   1   2
ATOM      2  C   UNL     1      22.402  69.766  18.021  1.00  0.00     0.000 C 
BRANCH   2   3
ATOM      3  C   UNL     1      22.762  68.337  17.584  1.00  0.00     0.000 C 
BRANCH   3   4
ATOM      4  C   UNL     1      22.689  67.321  18.739  1.00  0.00     0.000 C 
BRANCH   4   5
ATOM      5  C   UNL     1      22.723  65.847  18.280  1.00  0.00     0.000 C 
BRANCH   5   6
ATOM      6  C   UNL     1      21.543  65.033  18.841  1.00  0.00     0.000 C 
BRANCH   6   7
ATOM      7  C   UNL     1      20.246  65.854  18.964  1.00  0.00     0.000 C 
BRANCH   7   8
ATOM      8  C   UNL     1      19.328  65.814  17.730  1.00  0.00     0.000 C 
BRANCH   8   9
ATOM      9  C   UNL     1      19.335  67.124  16.929  1.00  0.00     0.000 C 
BRANCH   9  10
ATOM     10  C   UNL     1      19.509  66.844  15.428  1.00  0.00     0.006 C 
BRANCH  10  11
ATOM     11  C   UNL     1      20.975  66.606  15.047  1.00  0.00     0.053 C 
BRANCH  11  12
ATOM     12  C   UNL     1      21.107  65.955  13.704  1.00  0.00     0.041 C 
ATOM     13  O   UNL     1      20.131  65.939  12.908  1.00  0.00    -0.550 OA
ATOM     14  O   UNL     1      22.312  65.374  13.325  1.00  0.00    -0.550 OA
ENDBRANCH  11  12
ENDBRANCH  10  11
ENDBRANCH   9  10
ENDBRANCH   8   9
ENDBRANCH   7   8
ENDBRANCH   6   7
ENDBRANCH   5   6
ENDBRANCH   4   5
ENDBRANCH   3   4
ENDBRANCH   2   3
ENDBRANCH   1   2
BRANCH   1  15
ATOM     15  C   UNL     1      20.284  70.628  16.876  1.00  0.00     0.000 C 
BRANCH  15  16
ATOM     16  C   UNL     1      19.749  71.985  16.396  1.00  0.00     0.000 C 
BRANCH  16  17
ATOM     17  C   UNL     1      18.525  71.850  15.471  1.00  0.00     0.000 C 
BRANCH  17  18
ATOM     18  C   UNL     1      18.284  70.432  14.917  1.00  0.00    -0.000 C 
BRANCH  18  19
ATOM     19  C   UNL     1      18.165  70.338  13.384  1.00  0.00    -0.000 C 
BRANCH  19  20
ATOM     20  C   UNL     1      19.266  69.512  12.697  1.00  0.00    -0.000 C 
BRANCH  20  21
ATOM     21  C   UNL     1      20.646  69.703  13.349  1.00  0.00    -0.000 C 
BRANCH  21  22
ATOM     22  C   UNL     1      21.546  70.684  12.573  1.00  0.00    -0.000 C 
BRANCH  22  23
ATOM     23  C   UNL     1      21.971  71.939  13.360  1.00  0.00    -0.000 C 
BRANCH  23  24
ATOM     24  C   UNL     1      23.493  72.057  13.526  1.00  0.00    -0.000 C 
BRANCH  24  25
ATOM     25  C   UNL     1      23.849  72.850  14.790  1.00  0.00    -0.003 C 
ATOM     26  C   UNL     1      22.876  74.007  15.007  1.00  0.00     0.004 C 
ENDBRANCH  24  25
ENDBRANCH  23  24
ENDBRANCH  22  23
ENDBRANCH  21  22
ENDBRANCH  20  21
ENDBRANCH  19  20
ENDBRANCH  18  19
ENDBRANCH  17  18
ENDBRANCH  16  17
ENDBRANCH  15  16
ENDBRANCH   1  15
TORSDOF 22
ENDMDL
