MODEL 1
REMARK VINA RESULT:     3.148      0.000      0.000
REMARK INTER + INTRA:           5.274
REMARK INTER:                   5.724
REMARK INTRA:                  -0.449
REMARK UNBOUND:                -0.449
REMARK SMILES CCCCCCCCCCCCCCCC(=O)[O-]
REMARK SMILES IDX 9 1 10 2 11 3 12 4 13 5 14 6 15 7 16 8 17 9 18 10 8 11 7 12
REMARK SMILES IDX 6 13 5 14 4 15 3 16 2 17 1 18
REMARK H PARENT
REMARK Flexibility Score: inf
ROOT
ATOM      1  C   UNL     1      -5.774   5.281   9.502  1.00  0.00     0.000 C 
ENDROOT
BRANCH   1   2
ATOM      2  C   UNL     1      -4.520   5.924  10.124  1.00  0.00     0.000 C 
BRANCH   2   3
ATOM      3  C   UNL     1      -3.218   5.480   9.441  1.00  0.00     0.000 C 
BRANCH   3   4
ATOM      4  C   UNL     1      -2.088   6.486   9.710  1.00  0.00     0.000 C 
BRANCH   4   5
ATOM      5  C   UNL     1      -1.978   7.560   8.616  1.00  0.00     0.000 C 
BRANCH   5   6
ATOM      6  C   UNL     1      -0.830   8.553   8.873  1.00  0.00     0.006 C 
BRANCH   6   7
ATOM      7  C   UNL     1       0.121   8.066   9.973  1.00  0.00     0.053 C 
BRANCH   7   8
ATOM      8  C   UNL     1       1.456   8.740   9.892  1.00  0.00     0.041 C 
ATOM      9  O   UNL     1       1.529   9.981   9.689  1.00  0.00    -0.550 OA
ATOM     10  O   UNL     1       2.621   7.993  10.012  1.00  0.00    -0.550 OA
ENDBRANCH   7   8
ENDBRANCH   6   7
ENDBRANCH   5   6
ENDBRANCH   4   5
ENDBRANCH   3   4
ENDBRANCH   2   3
ENDBRANCH   1   2
BRANCH   1  11
ATOM     11  C   UNL     1      -6.114   3.875  10.028  1.00  0.00     0.000 C 
BRANCH  11  12
ATOM     12  C   UNL     1      -5.226   2.777   9.427  1.00  0.00    -0.000 C 
BRANCH  12  13
ATOM     13  C   UNL     1      -5.813   2.256   8.107  1.00  0.00    -0.000 C 
BRANCH  13  14
ATOM     14  C   UNL     1      -5.040   2.754   6.876  1.00  0.00    -0.000 C 
BRANCH  14  15
ATOM     15  C   UNL     1      -3.869   3.682   7.245  1.00  0.00    -0.000 C 
BRANCH  15  16
ATOM     16  C   UNL     1      -3.071   4.133   6.005  1.00  0.00    -0.000 C 
BRANCH  16  17
ATOM     17  C   UNL     1      -2.821   5.650   5.952  1.00  0.00    -0.003 C 
ATOM     18  C   UNL     1      -4.078   6.474   6.224  1.00  0.00     0.004 C 
ENDBRANCH  16  17
ENDBRANCH  15  16
ENDBRANCH  14  15
ENDBRANCH  13  14
ENDBRANCH  12  13
ENDBRANCH  11  12
ENDBRANCH   1  11
TORSDOF 14
ENDMDL
MODEL 2
REMARK VINA RESULT:     3.159      4.958      7.268
REMARK INTER + INTRA:           5.294
REMARK INTER:                   6.063
REMARK INTRA:                  -0.768
REMARK UNBOUND:                -0.449
REMARK SMILES CCCCCCCCCCCCCCCC(=O)[O-]
REMARK SMILES IDX 9 1 10 2 11 3 12 4 13 5 14 6 15 7 16 8 17 9 18 10 8 11 7 12
REMARK SMILES IDX 6 13 5 14 4 15 3 16 2 17 1 18
REMARK H PARENT
REMARK Flexibility Score: inf
ROOT
ATOM      1  C   UNL     1      -6.123   3.417   8.594  1.00  0.00     0.000 C 
ENDROOT
BRANCH   1   2
ATOM      2  C   UNL     1      -5.381   2.282   7.864  1.00  0.00     0.000 C 
BRANCH   2   3
ATOM      3  C   UNL     1      -3.853   2.440   7.908  1.00  0.00     0.000 C 
BRANCH   3   4
ATOM      4  C   UNL     1      -3.235   1.496   8.951  1.00  0.00     0.000 C 
BRANCH   4   5
ATOM      5  C   UNL     1      -1.941   0.830   8.455  1.00  0.00     0.000 C 
BRANCH   5   6
ATOM      6  C   UNL     1      -1.622  -0.477   9.203  1.00  0.00     0.006 C 
BRANCH   6   7
ATOM      7  C   UNL     1      -1.388  -1.650   8.243  1.00  0.00     0.053 C 
BRANCH   7   8
ATOM      8  C   UNL     1      -1.744  -2.962   8.872  1.00  0.00     0.041 C 
ATOM      9  O   UNL     1      -1.875  -3.053  10.121  1.00  0.00    -0.550 OA
ATOM     10  O   UNL     1      -1.904  -4.092   8.079  1.00  0.00    -0.550 OA
ENDBRANCH   7   8
ENDBRANCH   6   7
ENDBRANCH   5   6
ENDBRANCH   4   5
ENDBRANCH   3   4
ENDBRANCH   2   3
ENDBRANCH   1   2
BRANCH   1  11
ATOM     11  C   UNL     1      -5.410   3.963   9.844  1.00  0.00     0.000 C 
BRANCH  11  12
ATOM     12  C   UNL     1      -5.734   5.437  10.125  1.00  0.00    -0.000 C 
BRANCH  12  13
ATOM     13  C   UNL     1      -4.563   6.345   9.719  1.00  0.00    -0.000 C 
BRANCH  13  14
ATOM     14  C   UNL     1      -3.193   5.714  10.018  1.00  0.00    -0.000 C 
BRANCH  14  15
ATOM     15  C   UNL     1      -2.079   6.252   9.102  1.00  0.00    -0.000 C 
BRANCH  15  16
ATOM     16  C   UNL     1      -1.547   7.620   9.577  1.00  0.00    -0.000 C 
BRANCH  16  17
ATOM     17  C   UNL     1      -0.047   7.611   9.922  1.00  0.00    -0.003 C 
ATOM     18  C   UNL     1       0.558   9.010   9.999  1.00  0.00     0.004 C 
ENDBRANCH  16  17
ENDBRANCH  15  16
ENDBRANCH  14  15
ENDBRANCH  13  14
ENDBRANCH  12  13
ENDBRANCH  11  12
ENDBRANCH   1  11
TORSDOF 14
ENDMDL
MODEL 3
REMARK VINA RESULT:     3.311      2.585      5.137
REMARK INTER + INTRA:           5.572
REMARK INTER:                   4.317
REMARK INTRA:                   1.255
REMARK UNBOUND:                -0.449
REMARK SMILES CCCCCCCCCCCCCCCC(=O)[O-]
REMARK SMILES IDX 9 1 10 2 11 3 12 4 13 5 14 6 15 7 16 8 17 9 18 10 8 11 7 12
REMARK SMILES IDX 6 13 5 14 4 15 3 16 2 17 1 18
REMARK H PARENT
REMARK Flexibility Score: inf
ROOT
ATOM      1  C   UNL     1      -6.036   3.125   8.905  1.00  0.00     0.000 C 
ENDROOT
BRANCH   1   2
ATOM      2  C   UNL     1      -4.619   2.815   9.424  1.00  0.00     0.000 C 
BRANCH   2   3
ATOM      3  C   UNL     1      -3.636   2.451   8.301  1.00  0.00     0.000 C 
BRANCH   3   4
ATOM      4  C   UNL     1      -4.386   2.129   7.000  1.00  0.00     0.000 C 
BRANCH   4   5
ATOM      5  C   UNL     1      -3.599   2.541   5.745  1.00  0.00     0.000 C 
BRANCH   5   6
ATOM      6  C   UNL     1      -2.997   3.953   5.859  1.00  0.00     0.006 C 
BRANCH   6   7
ATOM      7  C   UNL     1      -3.916   4.913   6.625  1.00  0.00     0.053 C 
BRANCH   7   8
ATOM      8  C   UNL     1      -3.737   6.330   6.176  1.00  0.00     0.041 C 
ATOM      9  O   UNL     1      -2.713   6.980   6.516  1.00  0.00    -0.550 OA
ATOM     10  O   UNL     1      -4.715   6.943   5.403  1.00  0.00    -0.550 OA
ENDBRANCH   7   8
ENDBRANCH   6   7
ENDBRANCH   5   6
ENDBRANCH   4   5
ENDBRANCH   3   4
ENDBRANCH   2   3
ENDBRANCH   1   2
BRANCH   1  11
ATOM     11  C   UNL     1      -6.870   4.055   9.804  1.00  0.00     0.000 C 
BRANCH  11  12
ATOM     12  C   UNL     1      -6.185   5.402  10.075  1.00  0.00    -0.000 C 
BRANCH  12  13
ATOM     13  C   UNL     1      -4.658   5.242  10.125  1.00  0.00    -0.000 C 
BRANCH  13  14
ATOM     14  C   UNL     1      -3.914   6.515   9.693  1.00  0.00    -0.000 C 
BRANCH  14  15
ATOM     15  C   UNL     1      -2.454   6.242   9.289  1.00  0.00    -0.000 C 
BRANCH  15  16
ATOM     16  C   UNL     1      -1.455   7.070  10.124  1.00  0.00    -0.000 C 
BRANCH  16  17
ATOM     17  C   UNL     1      -1.539   8.584   9.860  1.00  0.00    -0.003 C 
ATOM     18  C   UNL     1      -0.174   9.268   9.859  1.00  0.00     0.004 C 
ENDBRANCH  16  17
ENDBRANCH  15  16
ENDBRANCH  14  15
ENDBRANCH  13  14
ENDBRANCH  12  13
ENDBRANCH  11  12
ENDBRANCH   1  11
TORSDOF 14
ENDMDL
MODEL 4
REMARK VINA RESULT:     3.334      3.544      4.730
REMARK INTER + INTRA:           5.614
REMARK INTER:                   6.010
REMARK INTRA:                  -0.396
REMARK UNBOUND:                -0.449
REMARK SMILES CCCCCCCCCCCCCCCC(=O)[O-]
REMARK SMILES IDX 9 1 10 2 11 3 12 4 13 5 14 6 15 7 16 8 17 9 18 10 8 11 7 12
REMARK SMILES IDX 6 13 5 14 4 15 3 16 2 17 1 18
REMARK H PARENT
REMARK Flexibility Score: inf
ROOT
ATOM      1  C   UNL     1      -5.399   3.520   8.280  1.00  0.00     0.000 C 
ENDROOT
BRANCH   1   2
ATOM      2  C   UNL     1      -5.814   3.880   9.719  1.00  0.00     0.000 C 
BRANCH   2   3
ATOM      3  C   UNL     1      -5.657   5.376  10.031  1.00  0.00     0.000 C 
BRANCH   3   4
ATOM      4  C   UNL     1      -4.174   5.766  10.114  1.00  0.00     0.000 C 
BRANCH   4   5
ATOM      5  C   UNL     1      -3.491   5.800   8.737  1.00  0.00     0.000 C 
BRANCH   5   6
ATOM      6  C   UNL     1      -2.028   6.269   8.812  1.00  0.00     0.006 C 
BRANCH   6   7
ATOM      7  C   UNL     1      -1.729   7.028  10.111  1.00  0.00     0.053 C 
BRANCH   7   8
ATOM      8  C   UNL     1      -0.694   8.091   9.909  1.00  0.00     0.041 C 
ATOM      9  O   UNL     1      -1.017   9.308   9.949  1.00  0.00    -0.550 OA
ATOM     10  O   UNL     1       0.624   7.738   9.647  1.00  0.00    -0.550 OA
ENDBRANCH   7   8
ENDBRANCH   6   7
ENDBRANCH   5   6
ENDBRANCH   4   5
ENDBRANCH   3   4
ENDBRANCH   2   3
ENDBRANCH   1   2
BRANCH   1  11
ATOM     11  C   UNL     1      -4.730   2.143   8.120  1.00  0.00     0.000 C 
BRANCH  11  12
ATOM     12  C   UNL     1      -3.204   2.195   8.279  1.00  0.00    -0.000 C 
BRANCH  12  13
ATOM     13  C   UNL     1      -2.565   0.851   7.897  1.00  0.00    -0.000 C 
BRANCH  13  14
ATOM     14  C   UNL     1      -1.416   0.451   8.837  1.00  0.00    -0.000 C 
BRANCH  14  15
ATOM     15  C   UNL     1      -1.569  -0.978   9.387  1.00  0.00    -0.000 C 
BRANCH  15  16
ATOM     16  C   UNL     1      -1.660  -2.028   8.260  1.00  0.00    -0.000 C 
BRANCH  16  17
ATOM     17  C   UNL     1      -1.798  -3.471   8.775  1.00  0.00    -0.003 C 
ATOM     18  C   UNL     1      -0.805  -3.809   9.885  1.00  0.00     0.004 C 
ENDBRANCH  16  17
ENDBRANCH  15  16
ENDBRANCH  14  15
ENDBRANCH  13  14
ENDBRANCH  12  13
ENDBRANCH  11  12
ENDBRANCH   1  11
TORSDOF 14
ENDMDL
MODEL 5
REMARK VINA RESULT:     3.813      4.168      5.668
REMARK INTER + INTRA:           6.485
REMARK INTER:                   7.657
REMARK INTRA:                  -1.172
REMARK UNBOUND:                -0.449
REMARK SMILES CCCCCCCCCCCCCCCC(=O)[O-]
REMARK SMILES IDX 9 1 10 2 11 3 12 4 13 5 14 6 15 7 16 8 17 9 18 10 8 11 7 12
REMARK SMILES IDX 6 13 5 14 4 15 3 16 2 17 1 18
REMARK H PARENT
REMARK Flexibility Score: inf
ROOT
ATOM      1  C   UNL     1      -5.054   2.612   8.623  1.00  0.00     0.000 C 
ENDROOT
BRANCH   1   2
ATOM      2  C   UNL     1      -6.364   3.404   8.788  1.00  0.00     0.000 C 
BRANCH   2   3
ATOM      3  C   UNL     1      -6.287   4.466   9.896  1.00  0.00     0.000 C 
BRANCH   3   4
ATOM      4  C   UNL     1      -4.835   4.914  10.125  1.00  0.00     0.000 C 
BRANCH   4   5
ATOM      5  C   UNL     1      -4.552   6.318   9.567  1.00  0.00     0.000 C 
BRANCH   5   6
ATOM      6  C   UNL     1      -3.112   6.470   9.045  1.00  0.00     0.006 C 
BRANCH   6   7
ATOM      7  C   UNL     1      -2.725   5.342   8.080  1.00  0.00     0.053 C 
BRANCH   7   8
ATOM      8  C   UNL     1      -3.231   5.598   6.694  1.00  0.00     0.041 C 
ATOM      9  O   UNL     1      -2.761   4.956   5.718  1.00  0.00    -0.550 OA
ATOM     10  O   UNL     1      -4.203   6.566   6.477  1.00  0.00    -0.550 OA
ENDBRANCH   7   8
ENDBRANCH   6   7
ENDBRANCH   5   6
ENDBRANCH   4   5
ENDBRANCH   3   4
ENDBRANCH   2   3
ENDBRANCH   1   2
BRANCH   1  11
ATOM     11  C   UNL     1      -4.660   2.300   7.168  1.00  0.00     0.000 C 
BRANCH  11  12
ATOM     12  C   UNL     1      -3.461   1.348   7.061  1.00  0.00    -0.000 C 
BRANCH  12  13
ATOM     13  C   UNL     1      -2.352   1.748   8.046  1.00  0.00    -0.000 C 
BRANCH  13  14
ATOM     14  C   UNL     1      -1.922   0.589   8.959  1.00  0.00    -0.000 C 
BRANCH  14  15
ATOM     15  C   UNL     1      -1.880  -0.763   8.223  1.00  0.00    -0.000 C 
BRANCH  15  16
ATOM     16  C   UNL     1      -1.106  -1.834   9.018  1.00  0.00    -0.000 C 
BRANCH  16  17
ATOM     17  C   UNL     1      -1.892  -3.142   9.214  1.00  0.00    -0.003 C 
ATOM     18  C   UNL     1      -1.752  -4.106   8.037  1.00  0.00     0.004 C 
ENDBRANCH  16  17
ENDBRANCH  15  16
ENDBRANCH  14  15
ENDBRANCH  13  14
ENDBRANCH  12  13
ENDBRANCH  11  12
ENDBRANCH   1  11
TORSDOF 14
ENDMDL
MODEL 6
REMARK VINA RESULT:     3.923     10.350     12.403
REMARK INTER + INTRA:           6.685
REMARK INTER:                   7.172
REMARK INTRA:                  -0.487
REMARK UNBOUND:                -0.449
REMARK SMILES CCCCCCCCCCCCCCCC(=O)[O-]
REMARK SMILES IDX 9 1 10 2 11 3 12 4 13 5 14 6 15 7 16 8 17 9 18 10 8 11 7 12
REMARK SMILES IDX 6 13 5 14 4 15 3 16 2 17 1 18
REMARK H PARENT
REMARK Flexibility Score: inf
ROOT
ATOM      1  C   UNL     1       2.585   6.695  -1.450  1.00  0.00     0.000 C 
ENDROOT
BRANCH   1   2
ATOM      2  C   UNL     1       1.424   7.690  -1.261  1.00  0.00     0.000 C 
BRANCH   2   3
ATOM      3  C   UNL     1       0.063   7.108  -1.671  1.00  0.00     0.000 C 
BRANCH   3   4
ATOM      4  C   UNL     1      -0.987   8.221  -1.815  1.00  0.00     0.000 C 
BRANCH   4   5
ATOM      5  C   UNL     1      -1.641   8.594  -0.475  1.00  0.00     0.000 C 
BRANCH   5   6
ATOM      6  C   UNL     1      -3.102   8.119  -0.375  1.00  0.00     0.006 C 
BRANCH   6   7
ATOM      7  C   UNL     1      -4.092   9.290  -0.359  1.00  0.00     0.053 C 
BRANCH   7   8
ATOM      8  C   UNL     1      -4.924   9.332  -1.604  1.00  0.00     0.041 C 
ATOM      9  O   UNL     1      -6.161   9.557  -1.533  1.00  0.00    -0.550 OA
ATOM     10  O   UNL     1      -4.337   9.094  -2.840  1.00  0.00    -0.550 OA
ENDBRANCH   7   8
ENDBRANCH   6   7
ENDBRANCH   5   6
ENDBRANCH   4   5
ENDBRANCH   3   4
ENDBRANCH   2   3
ENDBRANCH   1   2
BRANCH   1  11
ATOM     11  C   UNL     1       2.431   5.364  -0.691  1.00  0.00     0.000 C 
BRANCH  11  12
ATOM     12  C   UNL     1       3.451   4.302  -1.128  1.00  0.00    -0.000 C 
BRANCH  12  13
ATOM     13  C   UNL     1       3.145   2.945  -0.475  1.00  0.00    -0.000 C 
BRANCH  13  14
ATOM     14  C   UNL     1       4.022   1.811  -1.027  1.00  0.00    -0.000 C 
BRANCH  14  15
ATOM     15  C   UNL     1       4.362   0.751   0.037  1.00  0.00    -0.000 C 
BRANCH  15  16
ATOM     16  C   UNL     1       5.876   0.676   0.320  1.00  0.00    -0.000 C 
BRANCH  16  17
ATOM     17  C   UNL     1       6.247  -0.345   1.410  1.00  0.00    -0.003 C 
ATOM     18  C   UNL     1       5.755  -1.757   1.100  1.00  0.00     0.004 C 
ENDBRANCH  16  17
ENDBRANCH  15  16
ENDBRANCH  14  15
ENDBRANCH  13  14
ENDBRANCH  12  13
ENDBRANCH  11  12
ENDBRANCH   1  11
TORSDOF 14
ENDMDL
MODEL 7
REMARK VINA RESULT:     4.184     10.163     12.129
REMARK INTER + INTRA:           7.158
REMARK INTER:                   7.649
REMARK INTRA:                  -0.491
REMARK UNBOUND:                -0.449
REMARK SMILES CCCCCCCCCCCCCCCC(=O)[O-]
REMARK SMILES IDX 9 1 10 2 11 3 12 4 13 5 14 6 15 7 16 8 17 9 18 10 8 11 7 12
REMARK SMILES IDX 6 13 5 14 4 15 3 16 2 17 1 18
REMARK H PARENT
REMARK Flexibility Score: inf
ROOT
ATOM      1  C   UNL     1       2.398   6.501  -1.430  1.00  0.00     0.000 C 
ENDROOT
BRANCH   1   2
ATOM      2  C   UNL     1       2.268   5.151  -0.700  1.00  0.00     0.000 C 
BRANCH   2   3
ATOM      3  C   UNL     1       3.421   4.186  -1.016  1.00  0.00     0.000 C 
BRANCH   3   4
ATOM      4  C   UNL     1       3.038   2.740  -0.664  1.00  0.00     0.000 C 
BRANCH   4   5
ATOM      5  C   UNL     1       4.175   1.742  -0.936  1.00  0.00     0.000 C 
BRANCH   5   6
ATOM      6  C   UNL     1       4.432   0.797   0.251  1.00  0.00     0.006 C 
BRANCH   6   7
ATOM      7  C   UNL     1       5.923   0.478   0.424  1.00  0.00     0.053 C 
BRANCH   7   8
ATOM      8  C   UNL     1       6.137  -0.708   1.312  1.00  0.00     0.041 C 
ATOM      9  O   UNL     1       7.045  -0.692   2.185  1.00  0.00    -0.550 OA
ATOM     10  O   UNL     1       5.353  -1.844   1.158  1.00  0.00    -0.550 OA
ENDBRANCH   7   8
ENDBRANCH   6   7
ENDBRANCH   5   6
ENDBRANCH   4   5
ENDBRANCH   3   4
ENDBRANCH   2   3
ENDBRANCH   1   2
BRANCH   1  11
ATOM     11  C   UNL     1       1.264   7.504  -1.150  1.00  0.00     0.000 C 
BRANCH  11  12
ATOM     12  C   UNL     1      -0.056   7.126  -1.836  1.00  0.00    -0.000 C 
BRANCH  12  13
ATOM     13  C   UNL     1      -1.055   8.292  -1.786  1.00  0.00    -0.000 C 
BRANCH  13  14
ATOM     14  C   UNL     1      -1.612   8.536  -0.375  1.00  0.00    -0.000 C 
BRANCH  14  15
ATOM     15  C   UNL     1      -3.105   8.179  -0.256  1.00  0.00    -0.000 C 
BRANCH  15  16
ATOM     16  C   UNL     1      -3.986   9.428  -0.048  1.00  0.00    -0.000 C 
BRANCH  16  17
ATOM     17  C   UNL     1      -4.959   9.694  -1.210  1.00  0.00    -0.003 C 
ATOM     18  C   UNL     1      -4.510   9.060  -2.524  1.00  0.00     0.004 C 
ENDBRANCH  16  17
ENDBRANCH  15  16
ENDBRANCH  14  15
ENDBRANCH  13  14
ENDBRANCH  12  13
ENDBRANCH  11  12
ENDBRANCH   1  11
TORSDOF 14
ENDMDL
MODEL 8
REMARK VINA RESULT:     4.705      5.253      7.273
REMARK INTER + INTRA:           8.106
REMARK INTER:                   9.291
REMARK INTRA:                  -1.186
REMARK UNBOUND:                -0.449
REMARK SMILES CCCCCCCCCCCCCCCC(=O)[O-]
REMARK SMILES IDX 9 1 10 2 11 3 12 4 13 5 14 6 15 7 16 8 17 9 18 10 8 11 7 12
REMARK SMILES IDX 6 13 5 14 4 15 3 16 2 17 1 18
REMARK H PARENT
REMARK Flexibility Score: inf
ROOT
ATOM      1  C   UNL     1      -5.382   2.650   7.600  1.00  0.00     0.000 C 
ENDROOT
BRANCH   1   2
ATOM      2  C   UNL     1      -4.123   1.920   7.093  1.00  0.00     0.000 C 
BRANCH   2   3
ATOM      3  C   UNL     1      -2.865   2.265   7.903  1.00  0.00     0.000 C 
BRANCH   3   4
ATOM      4  C   UNL     1      -2.460   1.093   8.811  1.00  0.00     0.000 C 
BRANCH   4   5
ATOM      5  C   UNL     1      -1.917  -0.109   8.021  1.00  0.00     0.000 C 
BRANCH   5   6
ATOM      6  C   UNL     1      -1.236  -1.153   8.924  1.00  0.00     0.006 C 
BRANCH   6   7
ATOM      7  C   UNL     1      -2.179  -2.308   9.285  1.00  0.00     0.053 C 
BRANCH   7   8
ATOM      8  C   UNL     1      -1.514  -3.640   9.123  1.00  0.00     0.041 C 
ATOM      9  O   UNL     1      -0.846  -4.136  10.069  1.00  0.00    -0.550 OA
ATOM     10  O   UNL     1      -1.608  -4.321   7.916  1.00  0.00    -0.550 OA
ENDBRANCH   7   8
ENDBRANCH   6   7
ENDBRANCH   5   6
ENDBRANCH   4   5
ENDBRANCH   3   4
ENDBRANCH   2   3
ENDBRANCH   1   2
BRANCH   1  11
ATOM     11  C   UNL     1      -5.402   2.938   9.111  1.00  0.00     0.000 C 
BRANCH  11  12
ATOM     12  C   UNL     1      -6.394   4.045   9.498  1.00  0.00    -0.000 C 
BRANCH  12  13
ATOM     13  C   UNL     1      -5.664   5.243  10.125  1.00  0.00    -0.000 C 
BRANCH  13  14
ATOM     14  C   UNL     1      -4.137   5.072  10.125  1.00  0.00    -0.000 C 
BRANCH  14  15
ATOM     15  C   UNL     1      -3.391   6.400   9.904  1.00  0.00    -0.000 C 
BRANCH  15  16
ATOM     16  C   UNL     1      -2.583   6.401   8.590  1.00  0.00    -0.000 C 
BRANCH  16  17
ATOM     17  C   UNL     1      -3.143   5.445   7.523  1.00  0.00    -0.003 C 
ATOM     18  C   UNL     1      -3.627   6.167   6.267  1.00  0.00     0.004 C 
ENDBRANCH  16  17
ENDBRANCH  15  16
ENDBRANCH  14  15
ENDBRANCH  13  14
ENDBRANCH  12  13
ENDBRANCH  11  12
ENDBRANCH   1  11
TORSDOF 14
ENDMDL
