MODEL 1
REMARK VINA RESULT:    -3.245      0.000      0.000
REMARK INTER + INTRA:          -8.822
REMARK INTER:                  -6.090
REMARK INTRA:                  -2.732
REMARK UNBOUND:                -2.732
REMARK SMILES CCCCCCCCC=CCCCCCCCC(=O)[O-]
REMARK SMILES IDX 10 1 9 2 11 3 12 4 13 5 14 6 15 7 16 8 17 9 18 10 19 11
REMARK SMILES IDX 20 12 8 13 7 14 6 15 5 16 4 17 3 18 2 19 1 20
REMARK H PARENT
REMARK Flexibility Score: inf
ROOT
ATOM      1  C   UNL     1     -31.086   0.800 -35.377  1.00  0.00    -0.031 C 
ATOM      2  C   UNL     1     -31.662  -0.116 -36.179  1.00  0.00    -0.031 C 
ENDROOT
BRANCH   1   3
ATOM      3  C   UNL     1     -29.661   1.284 -35.491  1.00  0.00     0.027 C 
BRANCH   3   4
ATOM      4  C   UNL     1     -29.596   2.680 -36.124  1.00  0.00     0.004 C 
BRANCH   4   5
ATOM      5  C   UNL     1     -28.399   2.823 -37.079  1.00  0.00     0.000 C 
BRANCH   5   6
ATOM      6  C   UNL     1     -28.476   4.098 -37.932  1.00  0.00     0.000 C 
BRANCH   6   7
ATOM      7  C   UNL     1     -27.529   5.202 -37.427  1.00  0.00     0.000 C 
BRANCH   7   8
ATOM      8  C   UNL     1     -26.452   4.659 -36.473  1.00  0.00     0.006 C 
BRANCH   8   9
ATOM      9  C   UNL     1     -26.481   5.350 -35.103  1.00  0.00     0.053 C 
BRANCH   9  10
ATOM     10  C   UNL     1     -25.407   4.805 -34.214  1.00  0.00     0.041 C 
ATOM     11  O   UNL     1     -24.948   3.647 -34.412  1.00  0.00    -0.550 OA
ATOM     12  O   UNL     1     -24.944   5.557 -33.142  1.00  0.00    -0.550 OA
ENDBRANCH   9  10
ENDBRANCH   8   9
ENDBRANCH   7   8
ENDBRANCH   6   7
ENDBRANCH   5   6
ENDBRANCH   4   5
ENDBRANCH   3   4
ENDBRANCH   1   3
BRANCH   2  13
ATOM     13  C   UNL     1     -30.962  -0.860 -37.288  1.00  0.00     0.027 C 
BRANCH  13  14
ATOM     14  C   UNL     1     -31.416  -0.403 -38.686  1.00  0.00     0.004 C 
BRANCH  14  15
ATOM     15  C   UNL     1     -30.532   0.691 -39.312  1.00  0.00     0.000 C 
BRANCH  15  16
ATOM     16  C   UNL     1     -31.250   2.044 -39.434  1.00  0.00     0.000 C 
BRANCH  16  17
ATOM     17  C   UNL     1     -32.737   1.910 -39.073  1.00  0.00    -0.000 C 
BRANCH  17  18
ATOM     18  C   UNL     1     -33.158   2.886 -37.953  1.00  0.00    -0.000 C 
BRANCH  18  19
ATOM     19  C   UNL     1     -32.423   4.236 -38.005  1.00  0.00    -0.003 C 
ATOM     20  C   UNL     1     -32.418   4.968 -36.664  1.00  0.00     0.004 C 
ENDBRANCH  18  19
ENDBRANCH  17  18
ENDBRANCH  16  17
ENDBRANCH  15  16
ENDBRANCH  14  15
ENDBRANCH  13  14
ENDBRANCH   2  13
TORSDOF 15
ENDMDL
MODEL 2
REMARK VINA RESULT:    -3.219      1.238      2.621
REMARK INTER + INTRA:          -8.773
REMARK INTER:                  -6.110
REMARK INTRA:                  -2.663
REMARK UNBOUND:                -2.732
REMARK SMILES CCCCCCCCC=CCCCCCCCC(=O)[O-]
REMARK SMILES IDX 10 1 9 2 11 3 12 4 13 5 14 6 15 7 16 8 17 9 18 10 19 11
REMARK SMILES IDX 20 12 8 13 7 14 6 15 5 16 4 17 3 18 2 19 1 20
REMARK H PARENT
REMARK Flexibility Score: inf
ROOT
ATOM      1  C   UNL     1     -29.815   3.546 -35.471  1.00  0.00    -0.031 C 
ATOM      2  C   UNL     1     -30.289   2.469 -34.816  1.00  0.00    -0.031 C 
ENDROOT
BRANCH   1   3
ATOM      3  C   UNL     1     -30.240   3.983 -36.853  1.00  0.00     0.027 C 
BRANCH   3   4
ATOM      4  C   UNL     1     -29.032   4.391 -37.704  1.00  0.00     0.004 C 
BRANCH   4   5
ATOM      5  C   UNL     1     -27.867   3.396 -37.562  1.00  0.00     0.000 C 
BRANCH   5   6
ATOM      6  C   UNL     1     -26.574   4.070 -37.080  1.00  0.00     0.000 C 
BRANCH   6   7
ATOM      7  C   UNL     1     -26.789   5.542 -36.685  1.00  0.00     0.000 C 
BRANCH   7   8
ATOM      8  C   UNL     1     -26.464   5.805 -35.205  1.00  0.00     0.006 C 
BRANCH   8   9
ATOM      9  C   UNL     1     -26.125   4.519 -34.442  1.00  0.00     0.053 C 
BRANCH   9  10
ATOM     10  C   UNL     1     -24.740   4.588 -33.879  1.00  0.00     0.041 C 
ATOM     11  O   UNL     1     -23.800   3.948 -34.427  1.00  0.00    -0.550 OA
ATOM     12  O   UNL     1     -24.492   5.324 -32.727  1.00  0.00    -0.550 OA
ENDBRANCH   9  10
ENDBRANCH   8   9
ENDBRANCH   7   8
ENDBRANCH   6   7
ENDBRANCH   5   6
ENDBRANCH   4   5
ENDBRANCH   3   4
ENDBRANCH   1   3
BRANCH   2  13
ATOM     13  C   UNL     1     -31.280   1.480 -35.378  1.00  0.00     0.027 C 
BRANCH  13  14
ATOM     14  C   UNL     1     -30.639   0.119 -35.702  1.00  0.00     0.004 C 
BRANCH  14  15
ATOM     15  C   UNL     1     -29.554   0.174 -36.793  1.00  0.00     0.000 C 
BRANCH  15  16
ATOM     16  C   UNL     1     -29.734  -0.904 -37.872  1.00  0.00     0.000 C 
BRANCH  16  17
ATOM     17  C   UNL     1     -30.804  -0.486 -38.893  1.00  0.00    -0.000 C 
BRANCH  17  18
ATOM     18  C   UNL     1     -30.756   1.026 -39.205  1.00  0.00    -0.000 C 
BRANCH  18  19
ATOM     19  C   UNL     1     -32.122   1.723 -39.081  1.00  0.00    -0.003 C 
ATOM     20  C   UNL     1     -33.222   0.797 -38.566  1.00  0.00     0.004 C 
ENDBRANCH  18  19
ENDBRANCH  17  18
ENDBRANCH  16  17
ENDBRANCH  15  16
ENDBRANCH  14  15
ENDBRANCH  13  14
ENDBRANCH   2  13
TORSDOF 15
ENDMDL
MODEL 3
REMARK VINA RESULT:    -3.217      1.265      2.946
REMARK INTER + INTRA:          -8.770
REMARK INTER:                  -5.923
REMARK INTRA:                  -2.847
REMARK UNBOUND:                -2.732
REMARK SMILES CCCCCCCCC=CCCCCCCCC(=O)[O-]
REMARK SMILES IDX 10 1 9 2 11 3 12 4 13 5 14 6 15 7 16 8 17 9 18 10 19 11
REMARK SMILES IDX 20 12 8 13 7 14 6 15 5 16 4 17 3 18 2 19 1 20
REMARK H PARENT
REMARK Flexibility Score: inf
ROOT
ATOM      1  C   UNL     1     -31.202   3.187 -38.644  1.00  0.00    -0.031 C 
ATOM      2  C   UNL     1     -32.377   2.648 -38.267  1.00  0.00    -0.031 C 
ENDROOT
BRANCH   1   3
ATOM      3  C   UNL     1     -30.437   2.824 -39.894  1.00  0.00     0.027 C 
BRANCH   3   4
ATOM      4  C   UNL     1     -29.029   2.319 -39.558  1.00  0.00     0.004 C 
BRANCH   4   5
ATOM      5  C   UNL     1     -28.770   2.305 -38.043  1.00  0.00     0.000 C 
BRANCH   5   6
ATOM      6  C   UNL     1     -27.524   3.114 -37.651  1.00  0.00     0.000 C 
BRANCH   6   7
ATOM      7  C   UNL     1     -27.870   4.543 -37.196  1.00  0.00     0.000 C 
BRANCH   7   8
ATOM      8  C   UNL     1     -26.640   5.307 -36.678  1.00  0.00     0.006 C 
BRANCH   8   9
ATOM      9  C   UNL     1     -26.623   5.422 -35.149  1.00  0.00     0.053 C 
BRANCH   9  10
ATOM     10  C   UNL     1     -25.956   4.229 -34.537  1.00  0.00     0.041 C 
ATOM     11  O   UNL     1     -26.506   3.616 -33.582  1.00  0.00    -0.550 OA
ATOM     12  O   UNL     1     -24.709   3.819 -34.993  1.00  0.00    -0.550 OA
ENDBRANCH   9  10
ENDBRANCH   8   9
ENDBRANCH   7   8
ENDBRANCH   6   7
ENDBRANCH   5   6
ENDBRANCH   4   5
ENDBRANCH   3   4
ENDBRANCH   1   3
BRANCH   2  13
ATOM     13  C   UNL     1     -33.097   1.543 -38.999  1.00  0.00     0.027 C 
BRANCH  13  14
ATOM     14  C   UNL     1     -32.967   0.182 -38.291  1.00  0.00     0.004 C 
BRANCH  14  15
ATOM     15  C   UNL     1     -31.673  -0.583 -38.623  1.00  0.00     0.000 C 
BRANCH  15  16
ATOM     16  C   UNL     1     -30.768  -0.787 -37.399  1.00  0.00     0.000 C 
BRANCH  16  17
ATOM     17  C   UNL     1     -31.447  -0.269 -36.121  1.00  0.00    -0.000 C 
BRANCH  17  18
ATOM     18  C   UNL     1     -30.516   0.639 -35.290  1.00  0.00    -0.000 C 
BRANCH  18  19
ATOM     19  C   UNL     1     -31.088   2.046 -35.045  1.00  0.00    -0.003 C 
ATOM     20  C   UNL     1     -30.038   3.044 -34.561  1.00  0.00     0.004 C 
ENDBRANCH  18  19
ENDBRANCH  17  18
ENDBRANCH  16  17
ENDBRANCH  15  16
ENDBRANCH  14  15
ENDBRANCH  13  14
ENDBRANCH   2  13
TORSDOF 15
ENDMDL
MODEL 4
REMARK VINA RESULT:    -3.206      1.667      3.437
REMARK INTER + INTRA:          -8.750
REMARK INTER:                  -6.103
REMARK INTRA:                  -2.647
REMARK UNBOUND:                -2.732
REMARK SMILES CCCCCCCCC=CCCCCCCCC(=O)[O-]
REMARK SMILES IDX 10 1 9 2 11 3 12 4 13 5 14 6 15 7 16 8 17 9 18 10 19 11
REMARK SMILES IDX 20 12 8 13 7 14 6 15 5 16 4 17 3 18 2 19 1 20
REMARK H PARENT
REMARK Flexibility Score: inf
ROOT
ATOM      1  C   UNL     1     -31.550   3.254 -39.550  1.00  0.00    -0.031 C 
ATOM      2  C   UNL     1     -32.508   2.317 -39.426  1.00  0.00    -0.031 C 
ENDROOT
BRANCH   1   3
ATOM      3  C   UNL     1     -30.864   3.957 -38.404  1.00  0.00     0.027 C 
BRANCH   3   4
ATOM      4  C   UNL     1     -30.589   5.429 -38.736  1.00  0.00     0.004 C 
BRANCH   4   5
ATOM      5  C   UNL     1     -29.085   5.746 -38.744  1.00  0.00     0.000 C 
BRANCH   5   6
ATOM      6  C   UNL     1     -28.225   4.526 -38.379  1.00  0.00     0.000 C 
BRANCH   6   7
ATOM      7  C   UNL     1     -27.433   4.733 -37.075  1.00  0.00     0.000 C 
BRANCH   7   8
ATOM      8  C   UNL     1     -26.457   3.579 -36.793  1.00  0.00     0.006 C 
BRANCH   8   9
ATOM      9  C   UNL     1     -25.413   3.941 -35.730  1.00  0.00     0.053 C 
BRANCH   9  10
ATOM     10  C   UNL     1     -24.173   3.122 -35.905  1.00  0.00     0.041 C 
ATOM     11  O   UNL     1     -23.825   2.299 -35.015  1.00  0.00    -0.550 OA
ATOM     12  O   UNL     1     -23.377   3.297 -37.031  1.00  0.00    -0.550 OA
ENDBRANCH   9  10
ENDBRANCH   8   9
ENDBRANCH   7   8
ENDBRANCH   6   7
ENDBRANCH   5   6
ENDBRANCH   4   5
ENDBRANCH   3   4
ENDBRANCH   1   3
BRANCH   2  13
ATOM     13  C   UNL     1     -33.104   1.855 -38.119  1.00  0.00     0.027 C 
BRANCH  13  14
ATOM     14  C   UNL     1     -32.668   0.428 -37.742  1.00  0.00     0.004 C 
BRANCH  14  15
ATOM     15  C   UNL     1     -32.003  -0.354 -38.890  1.00  0.00     0.000 C 
BRANCH  15  16
ATOM     16  C   UNL     1     -30.574  -0.808 -38.556  1.00  0.00     0.000 C 
BRANCH  16  17
ATOM     17  C   UNL     1     -29.537   0.115 -39.215  1.00  0.00    -0.000 C 
BRANCH  17  18
ATOM     18  C   UNL     1     -28.697   0.889 -38.175  1.00  0.00    -0.000 C 
BRANCH  18  19
ATOM     19  C   UNL     1     -29.030   0.520 -36.719  1.00  0.00    -0.003 C 
ATOM     20  C   UNL     1     -29.583   1.694 -35.915  1.00  0.00     0.004 C 
ENDBRANCH  18  19
ENDBRANCH  17  18
ENDBRANCH  16  17
ENDBRANCH  15  16
ENDBRANCH  14  15
ENDBRANCH  13  14
ENDBRANCH   2  13
TORSDOF 15
ENDMDL
MODEL 5
REMARK VINA RESULT:    -3.156      1.755      3.816
REMARK INTER + INTRA:          -8.655
REMARK INTER:                  -5.548
REMARK INTRA:                  -3.107
REMARK UNBOUND:                -2.732
REMARK SMILES CCCCCCCCC=CCCCCCCCC(=O)[O-]
REMARK SMILES IDX 10 1 9 2 11 3 12 4 13 5 14 6 15 7 16 8 17 9 18 10 19 11
REMARK SMILES IDX 20 12 8 13 7 14 6 15 5 16 4 17 3 18 2 19 1 20
REMARK H PARENT
REMARK Flexibility Score: inf
ROOT
ATOM      1  C   UNL     1     -32.534   0.364 -38.230  1.00  0.00    -0.031 C 
ATOM      2  C   UNL     1     -33.131   1.551 -38.449  1.00  0.00    -0.031 C 
ENDROOT
BRANCH   1   3
ATOM      3  C   UNL     1     -31.347  -0.169 -38.996  1.00  0.00     0.027 C 
BRANCH   3   4
ATOM      4  C   UNL     1     -30.068  -0.111 -38.151  1.00  0.00     0.004 C 
BRANCH   4   5
ATOM      5  C   UNL     1     -28.900   0.530 -38.919  1.00  0.00     0.000 C 
BRANCH   5   6
ATOM      6  C   UNL     1     -29.377   1.445 -40.057  1.00  0.00     0.000 C 
BRANCH   6   7
ATOM      7  C   UNL     1     -28.813   2.872 -39.940  1.00  0.00     0.000 C 
BRANCH   7   8
ATOM      8  C   UNL     1     -28.141   3.128 -38.581  1.00  0.00     0.006 C 
BRANCH   8   9
ATOM      9  C   UNL     1     -28.195   4.604 -38.168  1.00  0.00     0.053 C 
BRANCH   9  10
ATOM     10  C   UNL     1     -27.344   4.847 -36.961  1.00  0.00     0.041 C 
ATOM     11  O   UNL     1     -26.800   5.971 -36.784  1.00  0.00    -0.550 OA
ATOM     12  O   UNL     1     -27.118   3.821 -36.052  1.00  0.00    -0.550 OA
ENDBRANCH   9  10
ENDBRANCH   8   9
ENDBRANCH   7   8
ENDBRANCH   6   7
ENDBRANCH   5   6
ENDBRANCH   4   5
ENDBRANCH   3   4
ENDBRANCH   1   3
BRANCH   2  13
ATOM     13  C   UNL     1     -32.754   2.523 -39.539  1.00  0.00     0.027 C 
BRANCH  13  14
ATOM     14  C   UNL     1     -32.785   3.986 -39.063  1.00  0.00     0.004 C 
BRANCH  14  15
ATOM     15  C   UNL     1     -31.725   4.328 -37.998  1.00  0.00     0.000 C 
BRANCH  15  16
ATOM     16  C   UNL     1     -32.337   4.639 -36.624  1.00  0.00     0.000 C 
BRANCH  16  17
ATOM     17  C   UNL     1     -31.867   3.623 -35.572  1.00  0.00    -0.000 C 
BRANCH  17  18
ATOM     18  C   UNL     1     -30.632   2.823 -36.040  1.00  0.00    -0.000 C 
BRANCH  18  19
ATOM     19  C   UNL     1     -30.055   1.894 -34.958  1.00  0.00    -0.003 C 
ATOM     20  C   UNL     1     -31.126   1.078 -34.236  1.00  0.00     0.004 C 
ENDBRANCH  18  19
ENDBRANCH  17  18
ENDBRANCH  16  17
ENDBRANCH  15  16
ENDBRANCH  14  15
ENDBRANCH  13  14
ENDBRANCH   2  13
TORSDOF 15
ENDMDL
MODEL 6
REMARK VINA RESULT:    -3.153      1.497      2.890
REMARK INTER + INTRA:          -8.649
REMARK INTER:                  -6.728
REMARK INTRA:                  -1.921
REMARK UNBOUND:                -2.732
REMARK SMILES CCCCCCCCC=CCCCCCCCC(=O)[O-]
REMARK SMILES IDX 10 1 9 2 11 3 12 4 13 5 14 6 15 7 16 8 17 9 18 10 19 11
REMARK SMILES IDX 20 12 8 13 7 14 6 15 5 16 4 17 3 18 2 19 1 20
REMARK H PARENT
REMARK Flexibility Score: inf
ROOT
ATOM      1  C   UNL     1     -28.955   3.376 -39.424  1.00  0.00    -0.031 C 
ATOM      2  C   UNL     1     -29.378   2.283 -40.088  1.00  0.00    -0.031 C 
ENDROOT
BRANCH   1   3
ATOM      3  C   UNL     1     -27.981   3.372 -38.270  1.00  0.00     0.027 C 
BRANCH   3   4
ATOM      4  C   UNL     1     -28.027   4.696 -37.498  1.00  0.00     0.004 C 
BRANCH   4   5
ATOM      5  C   UNL     1     -26.632   5.129 -37.016  1.00  0.00     0.000 C 
BRANCH   5   6
ATOM      6  C   UNL     1     -26.612   5.492 -35.524  1.00  0.00     0.000 C 
BRANCH   6   7
ATOM      7  C   UNL     1     -27.171   4.366 -34.637  1.00  0.00     0.000 C 
BRANCH   7   8
ATOM      8  C   UNL     1     -26.146   3.870 -33.603  1.00  0.00     0.006 C 
BRANCH   8   9
ATOM      9  C   UNL     1     -25.915   4.882 -32.474  1.00  0.00     0.053 C 
BRANCH   9  10
ATOM     10  C   UNL     1     -24.483   5.314 -32.436  1.00  0.00     0.041 C 
ATOM     11  O   UNL     1     -23.659   4.853 -33.273  1.00  0.00    -0.550 OA
ATOM     12  O   UNL     1     -24.047   6.192 -31.451  1.00  0.00    -0.550 OA
ENDBRANCH   9  10
ENDBRANCH   8   9
ENDBRANCH   7   8
ENDBRANCH   6   7
ENDBRANCH   5   6
ENDBRANCH   4   5
ENDBRANCH   3   4
ENDBRANCH   1   3
BRANCH   2  13
ATOM     13  C   UNL     1     -28.998   0.863 -39.750  1.00  0.00     0.027 C 
BRANCH  13  14
ATOM     14  C   UNL     1     -29.869   0.268 -38.630  1.00  0.00     0.004 C 
BRANCH  14  15
ATOM     15  C   UNL     1     -31.105  -0.503 -39.131  1.00  0.00     0.000 C 
BRANCH  15  16
ATOM     16  C   UNL     1     -32.408  -0.047 -38.458  1.00  0.00     0.000 C 
BRANCH  16  17
ATOM     17  C   UNL     1     -32.843   1.330 -38.981  1.00  0.00    -0.000 C 
BRANCH  17  18
ATOM     18  C   UNL     1     -33.181   2.311 -37.838  1.00  0.00    -0.000 C 
BRANCH  18  19
ATOM     19  C   UNL     1     -32.044   3.298 -37.518  1.00  0.00    -0.003 C 
ATOM     20  C   UNL     1     -31.145   2.826 -36.378  1.00  0.00     0.004 C 
ENDBRANCH  18  19
ENDBRANCH  17  18
ENDBRANCH  16  17
ENDBRANCH  15  16
ENDBRANCH  14  15
ENDBRANCH  13  14
ENDBRANCH   2  13
TORSDOF 15
ENDMDL
MODEL 7
REMARK VINA RESULT:    -3.112      6.193      9.037
REMARK INTER + INTRA:          -8.573
REMARK INTER:                  -6.024
REMARK INTRA:                  -2.549
REMARK UNBOUND:                -2.732
REMARK SMILES CCCCCCCCC=CCCCCCCCC(=O)[O-]
REMARK SMILES IDX 10 1 9 2 11 3 12 4 13 5 14 6 15 7 16 8 17 9 18 10 19 11
REMARK SMILES IDX 20 12 8 13 7 14 6 15 5 16 4 17 3 18 2 19 1 20
REMARK H PARENT
REMARK Flexibility Score: inf
ROOT
ATOM      1  C   UNL     1     -26.362   2.861 -31.768  1.00  0.00    -0.031 C 
ATOM      2  C   UNL     1     -25.588   2.863 -30.666  1.00  0.00    -0.031 C 
ENDROOT
BRANCH   1   3
ATOM      3  C   UNL     1     -27.006   4.081 -32.383  1.00  0.00     0.027 C 
BRANCH   3   4
ATOM      4  C   UNL     1     -26.360   4.433 -33.729  1.00  0.00     0.004 C 
BRANCH   4   5
ATOM      5  C   UNL     1     -25.083   5.271 -33.552  1.00  0.00     0.000 C 
BRANCH   5   6
ATOM      6  C   UNL     1     -23.804   4.445 -33.754  1.00  0.00     0.000 C 
BRANCH   6   7
ATOM      7  C   UNL     1     -24.035   3.211 -34.645  1.00  0.00     0.000 C 
BRANCH   7   8
ATOM      8  C   UNL     1     -23.315   1.961 -34.113  1.00  0.00     0.006 C 
BRANCH   8   9
ATOM      9  C   UNL     1     -22.560   2.230 -32.805  1.00  0.00     0.053 C 
BRANCH   9  10
ATOM     10  C   UNL     1     -21.874   0.990 -32.325  1.00  0.00     0.041 C 
ATOM     11  O   UNL     1     -21.714   0.012 -33.105  1.00  0.00    -0.550 OA
ATOM     12  O   UNL     1     -21.448   0.897 -31.006  1.00  0.00    -0.550 OA
ENDBRANCH   9  10
ENDBRANCH   8   9
ENDBRANCH   7   8
ENDBRANCH   6   7
ENDBRANCH   5   6
ENDBRANCH   4   5
ENDBRANCH   3   4
ENDBRANCH   1   3
BRANCH   2  13
ATOM     13  C   UNL     1     -25.285   4.076 -29.823  1.00  0.00     0.027 C 
BRANCH  13  14
ATOM     14  C   UNL     1     -23.851   4.597 -30.030  1.00  0.00     0.004 C 
BRANCH  14  15
ATOM     15  C   UNL     1     -23.756   6.116 -30.262  1.00  0.00     0.000 C 
BRANCH  15  16
ATOM     16  C   UNL     1     -23.785   6.924 -28.956  1.00  0.00     0.000 C 
BRANCH  16  17
ATOM     17  C   UNL     1     -24.847   8.032 -29.019  1.00  0.00    -0.000 C 
BRANCH  17  18
ATOM     18  C   UNL     1     -25.674   8.124 -27.718  1.00  0.00    -0.000 C 
BRANCH  18  19
ATOM     19  C   UNL     1     -26.998   7.343 -27.775  1.00  0.00    -0.003 C 
ATOM     20  C   UNL     1     -27.480   7.082 -29.201  1.00  0.00     0.004 C 
ENDBRANCH  18  19
ENDBRANCH  17  18
ENDBRANCH  16  17
ENDBRANCH  15  16
ENDBRANCH  14  15
ENDBRANCH  13  14
ENDBRANCH   2  13
TORSDOF 15
ENDMDL
MODEL 8
REMARK VINA RESULT:    -3.105      3.060      7.481
REMARK INTER + INTRA:          -8.560
REMARK INTER:                  -6.309
REMARK INTRA:                  -2.251
REMARK UNBOUND:                -2.732
REMARK SMILES CCCCCCCCC=CCCCCCCCC(=O)[O-]
REMARK SMILES IDX 10 1 9 2 11 3 12 4 13 5 14 6 15 7 16 8 17 9 18 10 19 11
REMARK SMILES IDX 20 12 8 13 7 14 6 15 5 16 4 17 3 18 2 19 1 20
REMARK H PARENT
REMARK Flexibility Score: inf
ROOT
ATOM      1  C   UNL     1     -26.886   5.162 -36.762  1.00  0.00    -0.031 C 
ATOM      2  C   UNL     1     -26.549   5.483 -35.498  1.00  0.00    -0.031 C 
ENDROOT
BRANCH   1   3
ATOM      3  C   UNL     1     -27.950   4.166 -37.154  1.00  0.00     0.027 C 
BRANCH   3   4
ATOM      4  C   UNL     1     -28.395   4.370 -38.607  1.00  0.00     0.004 C 
BRANCH   4   5
ATOM      5  C   UNL     1     -29.199   5.669 -38.785  1.00  0.00     0.000 C 
BRANCH   5   6
ATOM      6  C   UNL     1     -30.672   5.509 -38.382  1.00  0.00     0.000 C 
BRANCH   6   7
ATOM      7  C   UNL     1     -31.419   4.498 -39.271  1.00  0.00     0.000 C 
BRANCH   7   8
ATOM      8  C   UNL     1     -32.006   3.329 -38.463  1.00  0.00     0.006 C 
BRANCH   8   9
ATOM      9  C   UNL     1     -32.214   2.072 -39.318  1.00  0.00     0.053 C 
BRANCH   9  10
ATOM     10  C   UNL     1     -31.366   0.946 -38.818  1.00  0.00     0.041 C 
ATOM     11  O   UNL     1     -31.754  -0.247 -38.948  1.00  0.00    -0.550 OA
ATOM     12  O   UNL     1     -30.166   1.213 -38.170  1.00  0.00    -0.550 OA
ENDBRANCH   9  10
ENDBRANCH   8   9
ENDBRANCH   7   8
ENDBRANCH   6   7
ENDBRANCH   5   6
ENDBRANCH   4   5
ENDBRANCH   3   4
ENDBRANCH   1   3
BRANCH   2  13
ATOM     13  C   UNL     1     -27.137   4.855 -34.259  1.00  0.00     0.027 C 
BRANCH  13  14
ATOM     14  C   UNL     1     -26.059   4.384 -33.267  1.00  0.00     0.004 C 
BRANCH  14  15
ATOM     15  C   UNL     1     -24.754   5.201 -33.315  1.00  0.00     0.000 C 
BRANCH  15  16
ATOM     16  C   UNL     1     -23.541   4.366 -33.749  1.00  0.00     0.000 C 
BRANCH  16  17
ATOM     17  C   UNL     1     -23.981   2.992 -34.278  1.00  0.00    -0.000 C 
BRANCH  17  18
ATOM     18  C   UNL     1     -23.771   2.856 -35.802  1.00  0.00    -0.000 C 
BRANCH  18  19
ATOM     19  C   UNL     1     -24.908   2.104 -36.514  1.00  0.00    -0.003 C 
ATOM     20  C   UNL     1     -25.884   1.437 -35.547  1.00  0.00     0.004 C 
ENDBRANCH  18  19
ENDBRANCH  17  18
ENDBRANCH  16  17
ENDBRANCH  15  16
ENDBRANCH  14  15
ENDBRANCH  13  14
ENDBRANCH   2  13
TORSDOF 15
ENDMDL
MODEL 9
REMARK VINA RESULT:    -3.062      9.469     12.091
REMARK INTER + INTRA:          -8.480
REMARK INTER:                  -5.511
REMARK INTRA:                  -2.969
REMARK UNBOUND:                -2.732
REMARK SMILES CCCCCCCCC=CCCCCCCCC(=O)[O-]
REMARK SMILES IDX 10 1 9 2 11 3 12 4 13 5 14 6 15 7 16 8 17 9 18 10 19 11
REMARK SMILES IDX 20 12 8 13 7 14 6 15 5 16 4 17 3 18 2 19 1 20
REMARK H PARENT
REMARK Flexibility Score: inf
ROOT
ATOM      1  C   UNL     1     -22.525  -3.575 -33.001  1.00  0.00    -0.031 C 
ATOM      2  C   UNL     1     -22.915  -2.357 -33.423  1.00  0.00    -0.031 C 
ENDROOT
BRANCH   1   3
ATOM      3  C   UNL     1     -21.460  -4.424 -33.654  1.00  0.00     0.027 C 
BRANCH   3   4
ATOM      4  C   UNL     1     -20.333  -4.756 -32.669  1.00  0.00     0.004 C 
BRANCH   4   5
ATOM      5  C   UNL     1     -19.245  -3.669 -32.653  1.00  0.00     0.000 C 
BRANCH   5   6
ATOM      6  C   UNL     1     -18.865  -3.197 -34.064  1.00  0.00     0.000 C 
BRANCH   6   7
ATOM      7  C   UNL     1     -18.018  -4.232 -34.824  1.00  0.00     0.000 C 
BRANCH   7   8
ATOM      8  C   UNL     1     -18.552  -4.502 -36.240  1.00  0.00     0.006 C 
BRANCH   8   9
ATOM      9  C   UNL     1     -19.544  -3.430 -36.707  1.00  0.00     0.053 C 
BRANCH   9  10
ATOM     10  C   UNL     1     -19.317  -3.090 -38.147  1.00  0.00     0.041 C 
ATOM     11  O   UNL     1     -18.835  -3.951 -38.933  1.00  0.00    -0.550 OA
ATOM     12  O   UNL     1     -19.597  -1.811 -38.612  1.00  0.00    -0.550 OA
ENDBRANCH   9  10
ENDBRANCH   8   9
ENDBRANCH   7   8
ENDBRANCH   6   7
ENDBRANCH   5   6
ENDBRANCH   4   5
ENDBRANCH   3   4
ENDBRANCH   1   3
BRANCH   2  13
ATOM     13  C   UNL     1     -22.397  -1.660 -34.657  1.00  0.00     0.027 C 
BRANCH  13  14
ATOM     14  C   UNL     1     -21.924  -0.224 -34.370  1.00  0.00     0.004 C 
BRANCH  14  15
ATOM     15  C   UNL     1     -20.404  -0.088 -34.161  1.00  0.00     0.000 C 
BRANCH  15  16
ATOM     16  C   UNL     1     -20.042   0.672 -32.876  1.00  0.00     0.000 C 
BRANCH  16  17
ATOM     17  C   UNL     1     -20.973   0.272 -31.721  1.00  0.00    -0.000 C 
BRANCH  17  18
ATOM     18  C   UNL     1     -20.448  -0.954 -30.943  1.00  0.00    -0.000 C 
BRANCH  18  19
ATOM     19  C   UNL     1     -21.514  -1.625 -30.060  1.00  0.00    -0.003 C 
ATOM     20  C   UNL     1     -21.052  -2.955 -29.469  1.00  0.00     0.004 C 
ENDBRANCH  18  19
ENDBRANCH  17  18
ENDBRANCH  16  17
ENDBRANCH  15  16
ENDBRANCH  14  15
ENDBRANCH  13  14
ENDBRANCH   2  13
TORSDOF 15
ENDMDL
