MODEL 1
REMARK VINA RESULT:    -3.459      0.000      0.000
REMARK INTER + INTRA:          -3.662
REMARK INTER:                  -3.662
REMARK INTRA:                   0.000
REMARK UNBOUND:                 0.000
REMARK SMILES O=c1ccc2cc(O)c(O)cc2o1
REMARK SMILES IDX 4 1 3 2 2 3 1 4 13 5 12 6 11 7 9 8 7 9 6 10 5 11 8 12 10 14
REMARK H PARENT 8 13 10 15
REMARK Flexibility Score: inf
ROOT
ATOM      1  C   UNL     1      14.958  28.344  25.051  1.00  0.00     0.019 A 
ATOM      2  C   UNL     1      13.879  27.625  24.538  1.00  0.00     0.094 A 
ATOM      3  C   UNL     1      13.087  26.873  25.413  1.00  0.00     0.336 A 
ATOM      4  O   UNL     1      12.109  26.218  24.968  1.00  0.00    -0.246 OA
ATOM      5  O   UNL     1      13.360  26.848  26.715  1.00  0.00    -0.423 OA
ATOM      6  C   UNL     1      14.379  27.519  27.245  1.00  0.00     0.142 A 
ATOM      7  C   UNL     1      14.618  27.454  28.622  1.00  0.00     0.098 A 
ATOM      8  C   UNL     1      15.690  28.161  29.186  1.00  0.00     0.161 A 
ATOM      9  C   UNL     1      16.529  28.934  28.370  1.00  0.00     0.158 A 
ATOM     10  C   UNL     1      16.293  29.003  26.988  1.00  0.00     0.062 A 
ATOM     11  C   UNL     1      15.222  28.299  26.423  1.00  0.00     0.022 A 
ENDROOT
BRANCH   9  12
ATOM     12  O   UNL     1      17.592  29.632  28.938  1.00  0.00    -0.504 OA
ATOM     13  H   UNL     1      18.484  29.187  29.118  1.00  0.00     0.293 HD
ENDBRANCH   9  12
BRANCH   8  14
ATOM     14  O   UNL     1      15.931  28.097  30.557  1.00  0.00    -0.504 OA
ATOM     15  H   UNL     1      16.127  28.930  31.101  1.00  0.00     0.293 HD
ENDBRANCH   8  14
TORSDOF 2
ENDMDL
MODEL 2
REMARK VINA RESULT:    -3.299     18.671     19.886
REMARK INTER + INTRA:          -3.492
REMARK INTER:                  -3.492
REMARK INTRA:                   0.000
REMARK UNBOUND:                 0.000
REMARK SMILES O=c1ccc2cc(O)c(O)cc2o1
REMARK SMILES IDX 4 1 3 2 2 3 1 4 13 5 12 6 11 7 9 8 7 9 6 10 5 11 8 12 10 14
REMARK H PARENT 8 13 10 15
REMARK Flexibility Score: inf
ROOT
ATOM      1  C   UNL     1      18.665  10.242  16.446  1.00  0.00     0.019 A 
ATOM      2  C   UNL     1      17.428  10.575  16.996  1.00  0.00     0.094 A 
ATOM      3  C   UNL     1      17.366  11.581  17.967  1.00  0.00     0.336 A 
ATOM      4  O   UNL     1      16.259  11.895  18.475  1.00  0.00    -0.246 OA
ATOM      5  O   UNL     1      18.472  12.210  18.355  1.00  0.00    -0.423 OA
ATOM      6  C   UNL     1      19.671  11.924  17.856  1.00  0.00     0.142 A 
ATOM      7  C   UNL     1      20.800  12.618  18.304  1.00  0.00     0.098 A 
ATOM      8  C   UNL     1      22.066  12.321  17.780  1.00  0.00     0.161 A 
ATOM      9  C   UNL     1      22.206  11.323  16.805  1.00  0.00     0.158 A 
ATOM     10  C   UNL     1      21.077  10.623  16.351  1.00  0.00     0.062 A 
ATOM     11  C   UNL     1      19.811  10.919  16.873  1.00  0.00     0.022 A 
ENDROOT
BRANCH   9  12
ATOM     12  O   UNL     1      23.467  11.033  16.289  1.00  0.00    -0.504 OA
ATOM     13  H   UNL     1      24.111  11.767  16.016  1.00  0.00     0.293 HD
ENDBRANCH   9  12
BRANCH   8  14
ATOM     14  O   UNL     1      23.192  13.012  18.225  1.00  0.00    -0.504 OA
ATOM     15  H   UNL     1      23.782  12.646  18.964  1.00  0.00     0.293 HD
ENDBRANCH   8  14
TORSDOF 2
ENDMDL
MODEL 3
REMARK VINA RESULT:    -3.255     18.903     20.117
REMARK INTER + INTRA:          -3.445
REMARK INTER:                  -3.445
REMARK INTRA:                   0.000
REMARK UNBOUND:                 0.000
REMARK SMILES O=c1ccc2cc(O)c(O)cc2o1
REMARK SMILES IDX 4 1 3 2 2 3 1 4 13 5 12 6 11 7 9 8 7 9 6 10 5 11 8 12 10 14
REMARK H PARENT 8 13 10 15
REMARK Flexibility Score: inf
ROOT
ATOM      1  C   UNL     1      18.427  12.258  18.265  1.00  0.00     0.019 A 
ATOM      2  C   UNL     1      17.330  11.553  17.772  1.00  0.00     0.094 A 
ATOM      3  C   UNL     1      17.539  10.555  16.815  1.00  0.00     0.336 A 
ATOM      4  O   UNL     1      16.561   9.908  16.358  1.00  0.00    -0.246 OA
ATOM      5  O   UNL     1      18.769  10.283  16.385  1.00  0.00    -0.423 OA
ATOM      6  C   UNL     1      19.842  10.930  16.829  1.00  0.00     0.142 A 
ATOM      7  C   UNL     1      21.110  10.601  16.338  1.00  0.00     0.098 A 
ATOM      8  C   UNL     1      22.245  11.281  16.804  1.00  0.00     0.161 A 
ATOM      9  C   UNL     1      22.112  12.295  17.763  1.00  0.00     0.158 A 
ATOM     10  C   UNL     1      20.842  12.630  18.259  1.00  0.00     0.062 A 
ATOM     11  C   UNL     1      19.708  11.951  17.795  1.00  0.00     0.022 A 
ENDROOT
BRANCH   9  12
ATOM     12  O   UNL     1      23.245  12.966  18.220  1.00  0.00    -0.504 OA
ATOM     13  H   UNL     1      23.463  13.908  17.917  1.00  0.00     0.293 HD
ENDBRANCH   9  12
BRANCH   8  14
ATOM     14  O   UNL     1      23.510  10.955  16.317  1.00  0.00    -0.504 OA
ATOM     15  H   UNL     1      23.631  10.314  15.541  1.00  0.00     0.293 HD
ENDBRANCH   8  14
TORSDOF 2
ENDMDL
MODEL 4
REMARK VINA RESULT:    -3.189      1.633      2.281
REMARK INTER + INTRA:          -3.375
REMARK INTER:                  -3.375
REMARK INTRA:                   0.000
REMARK UNBOUND:                 0.000
REMARK SMILES O=c1ccc2cc(O)c(O)cc2o1
REMARK SMILES IDX 4 1 3 2 2 3 1 4 13 5 12 6 11 7 9 8 7 9 6 10 5 11 8 12 10 14
REMARK H PARENT 8 13 10 15
REMARK Flexibility Score: inf
ROOT
ATOM      1  C   UNL     1      14.565  24.620  26.934  1.00  0.00     0.019 A 
ATOM      2  C   UNL     1      13.455  24.684  26.092  1.00  0.00     0.094 A 
ATOM      3  C   UNL     1      12.862  25.927  25.846  1.00  0.00     0.336 A 
ATOM      4  O   UNL     1      11.859  26.005  25.089  1.00  0.00    -0.246 OA
ATOM      5  O   UNL     1      13.352  27.030  26.406  1.00  0.00    -0.423 OA
ATOM      6  C   UNL     1      14.409  27.013  27.214  1.00  0.00     0.142 A 
ATOM      7  C   UNL     1      14.879  28.205  27.774  1.00  0.00     0.098 A 
ATOM      8  C   UNL     1      15.993  28.193  28.626  1.00  0.00     0.161 A 
ATOM      9  C   UNL     1      16.639  26.983  28.920  1.00  0.00     0.158 A 
ATOM     10  C   UNL     1      16.172  25.784  28.361  1.00  0.00     0.062 A 
ATOM     11  C   UNL     1      15.059  25.795  27.509  1.00  0.00     0.022 A 
ENDROOT
BRANCH   9  12
ATOM     12  O   UNL     1      17.745  26.980  29.768  1.00  0.00    -0.504 OA
ATOM     13  H   UNL     1      18.202  26.118  30.042  1.00  0.00     0.293 HD
ENDBRANCH   9  12
BRANCH   8  14
ATOM     14  O   UNL     1      16.464  29.379  29.186  1.00  0.00    -0.504 OA
ATOM     15  H   UNL     1      16.914  30.091  28.622  1.00  0.00     0.293 HD
ENDBRANCH   8  14
TORSDOF 2
ENDMDL
MODEL 5
REMARK VINA RESULT:    -3.184      1.320      2.272
REMARK INTER + INTRA:          -3.370
REMARK INTER:                  -3.370
REMARK INTRA:                   0.000
REMARK UNBOUND:                 0.000
REMARK SMILES O=c1ccc2cc(O)c(O)cc2o1
REMARK SMILES IDX 4 1 3 2 2 3 1 4 13 5 12 6 11 7 9 8 7 9 6 10 5 11 8 12 10 14
REMARK H PARENT 8 13 10 15
REMARK Flexibility Score: inf
ROOT
ATOM      1  C   UNL     1      13.499  26.723  26.339  1.00  0.00     0.019 A 
ATOM      2  C   UNL     1      13.023  27.135  25.096  1.00  0.00     0.094 A 
ATOM      3  C   UNL     1      13.552  28.295  24.518  1.00  0.00     0.336 A 
ATOM      4  O   UNL     1      13.134  28.683  23.396  1.00  0.00    -0.246 OA
ATOM      5  O   UNL     1      14.495  28.990  25.147  1.00  0.00    -0.423 OA
ATOM      6  C   UNL     1      14.977  28.632  26.334  1.00  0.00     0.142 A 
ATOM      7  C   UNL     1      15.969  29.404  26.948  1.00  0.00     0.098 A 
ATOM      8  C   UNL     1      16.481  29.029  28.199  1.00  0.00     0.161 A 
ATOM      9  C   UNL     1      15.998  27.880  28.839  1.00  0.00     0.158 A 
ATOM     10  C   UNL     1      15.003  27.101  28.228  1.00  0.00     0.062 A 
ATOM     11  C   UNL     1      14.491  27.473  26.978  1.00  0.00     0.022 A 
ENDROOT
BRANCH   9  12
ATOM     12  O   UNL     1      16.512  27.515  30.082  1.00  0.00    -0.504 OA
ATOM     13  H   UNL     1      16.079  27.819  30.946  1.00  0.00     0.293 HD
ENDBRANCH   9  12
BRANCH   8  14
ATOM     14  O   UNL     1      17.469  29.797  28.813  1.00  0.00    -0.504 OA
ATOM     15  H   UNL     1      17.489  29.932  29.817  1.00  0.00     0.293 HD
ENDBRANCH   8  14
TORSDOF 2
ENDMDL
MODEL 6
REMARK VINA RESULT:    -3.174      1.570      4.525
REMARK INTER + INTRA:          -3.360
REMARK INTER:                  -3.360
REMARK INTRA:                   0.000
REMARK UNBOUND:                 0.000
REMARK SMILES O=c1ccc2cc(O)c(O)cc2o1
REMARK SMILES IDX 4 1 3 2 2 3 1 4 13 5 12 6 11 7 9 8 7 9 6 10 5 11 8 12 10 14
REMARK H PARENT 8 13 10 15
REMARK Flexibility Score: inf
ROOT
ATOM      1  C   UNL     1      17.696  28.229  26.182  1.00  0.00     0.019 A 
ATOM      2  C   UNL     1      18.833  28.885  26.651  1.00  0.00     0.094 A 
ATOM      3  C   UNL     1      18.810  29.453  27.930  1.00  0.00     0.336 A 
ATOM      4  O   UNL     1      19.827  30.049  28.371  1.00  0.00    -0.246 OA
ATOM      5  O   UNL     1      17.718  29.365  28.685  1.00  0.00    -0.423 OA
ATOM      6  C   UNL     1      16.612  28.749  28.277  1.00  0.00     0.142 A 
ATOM      7  C   UNL     1      15.494  28.689  29.115  1.00  0.00     0.098 A 
ATOM      8  C   UNL     1      14.327  28.039  28.689  1.00  0.00     0.161 A 
ATOM      9  C   UNL     1      14.276  27.448  27.418  1.00  0.00     0.158 A 
ATOM     10  C   UNL     1      15.395  27.505  26.573  1.00  0.00     0.062 A 
ATOM     11  C   UNL     1      16.562  28.153  26.997  1.00  0.00     0.022 A 
ENDROOT
BRANCH   9  12
ATOM     12  O   UNL     1      13.112  26.805  27.003  1.00  0.00    -0.504 OA
ATOM     13  H   UNL     1      12.698  26.989  26.096  1.00  0.00     0.293 HD
ENDBRANCH   9  12
BRANCH   8  14
ATOM     14  O   UNL     1      13.211  27.978  29.522  1.00  0.00    -0.504 OA
ATOM     15  H   UNL     1      12.641  28.796  29.706  1.00  0.00     0.293 HD
ENDBRANCH   8  14
TORSDOF 2
ENDMDL
MODEL 7
REMARK VINA RESULT:    -3.105      2.314      2.847
REMARK INTER + INTRA:          -3.286
REMARK INTER:                  -3.286
REMARK INTRA:                   0.000
REMARK UNBOUND:                 0.000
REMARK SMILES O=c1ccc2cc(O)c(O)cc2o1
REMARK SMILES IDX 4 1 3 2 2 3 1 4 13 5 12 6 11 7 9 8 7 9 6 10 5 11 8 12 10 14
REMARK H PARENT 8 13 10 15
REMARK Flexibility Score: inf
ROOT
ATOM      1  C   UNL     1      16.309  24.710  27.994  1.00  0.00     0.019 A 
ATOM      2  C   UNL     1      15.444  23.784  27.412  1.00  0.00     0.094 A 
ATOM      3  C   UNL     1      14.246  24.236  26.847  1.00  0.00     0.336 A 
ATOM      4  O   UNL     1      13.453  23.415  26.318  1.00  0.00    -0.246 OA
ATOM      5  O   UNL     1      13.941  25.531  26.866  1.00  0.00    -0.423 OA
ATOM      6  C   UNL     1      14.737  26.447  27.410  1.00  0.00     0.142 A 
ATOM      7  C   UNL     1      14.362  27.794  27.400  1.00  0.00     0.098 A 
ATOM      8  C   UNL     1      15.199  28.764  27.972  1.00  0.00     0.161 A 
ATOM      9  C   UNL     1      16.415  28.385  28.558  1.00  0.00     0.158 A 
ATOM     10  C   UNL     1      16.796  27.034  28.571  1.00  0.00     0.062 A 
ATOM     11  C   UNL     1      15.962  26.064  27.999  1.00  0.00     0.022 A 
ENDROOT
BRANCH   9  12
ATOM     12  O   UNL     1      17.240  29.354  29.124  1.00  0.00    -0.504 OA
ATOM     13  H   UNL     1      18.089  29.106  29.617  1.00  0.00     0.293 HD
ENDBRANCH   9  12
BRANCH   8  14
ATOM     14  O   UNL     1      14.827  30.107  27.964  1.00  0.00    -0.504 OA
ATOM     15  H   UNL     1      14.841  30.657  27.112  1.00  0.00     0.293 HD
ENDBRANCH   8  14
TORSDOF 2
ENDMDL
MODEL 8
REMARK VINA RESULT:    -3.020      2.041      4.364
REMARK INTER + INTRA:          -3.196
REMARK INTER:                  -3.196
REMARK INTRA:                   0.000
REMARK UNBOUND:                 0.000
REMARK SMILES O=c1ccc2cc(O)c(O)cc2o1
REMARK SMILES IDX 4 1 3 2 2 3 1 4 13 5 12 6 11 7 9 8 7 9 6 10 5 11 8 12 10 14
REMARK H PARENT 8 13 10 15
REMARK Flexibility Score: inf
ROOT
ATOM      1  C   UNL     1      17.865  29.410  28.334  1.00  0.00     0.019 A 
ATOM      2  C   UNL     1      18.863  29.466  27.363  1.00  0.00     0.094 A 
ATOM      3  C   UNL     1      18.632  28.871  26.117  1.00  0.00     0.336 A 
ATOM      4  O   UNL     1      19.522  28.912  25.228  1.00  0.00    -0.246 OA
ATOM      5  O   UNL     1      17.476  28.263  25.867  1.00  0.00    -0.423 OA
ATOM      6  C   UNL     1      16.497  28.187  26.764  1.00  0.00     0.142 A 
ATOM      7  C   UNL     1      15.303  27.533  26.444  1.00  0.00     0.098 A 
ATOM      8  C   UNL     1      14.268  27.451  27.387  1.00  0.00     0.161 A 
ATOM      9  C   UNL     1      14.429  28.023  28.657  1.00  0.00     0.158 A 
ATOM     10  C   UNL     1      15.625  28.680  28.985  1.00  0.00     0.062 A 
ATOM     11  C   UNL     1      16.659  28.764  28.043  1.00  0.00     0.022 A 
ENDROOT
BRANCH   9  12
ATOM     12  O   UNL     1      13.396  27.936  29.588  1.00  0.00    -0.504 OA
ATOM     13  H   UNL     1      13.217  27.084  30.106  1.00  0.00     0.293 HD
ENDBRANCH   9  12
BRANCH   8  14
ATOM     14  O   UNL     1      13.077  26.800  27.070  1.00  0.00    -0.504 OA
ATOM     15  H   UNL     1      13.064  25.970  26.488  1.00  0.00     0.293 HD
ENDBRANCH   8  14
TORSDOF 2
ENDMDL
MODEL 9
REMARK VINA RESULT:    -3.006      2.003      2.355
REMARK INTER + INTRA:          -3.182
REMARK INTER:                  -3.182
REMARK INTRA:                   0.000
REMARK UNBOUND:                 0.000
REMARK SMILES O=c1ccc2cc(O)c(O)cc2o1
REMARK SMILES IDX 4 1 3 2 2 3 1 4 13 5 12 6 11 7 9 8 7 9 6 10 5 11 8 12 10 14
REMARK H PARENT 8 13 10 15
REMARK Flexibility Score: inf
ROOT
ATOM      1  C   UNL     1      13.106  26.428  25.961  1.00  0.00     0.019 A 
ATOM      2  C   UNL     1      12.988  25.051  25.777  1.00  0.00     0.094 A 
ATOM      3  C   UNL     1      13.858  24.198  26.465  1.00  0.00     0.336 A 
ATOM      4  O   UNL     1      13.767  22.952  26.312  1.00  0.00    -0.246 OA
ATOM      5  O   UNL     1      14.781  24.696  27.284  1.00  0.00    -0.423 OA
ATOM      6  C   UNL     1      14.927  26.002  27.489  1.00  0.00     0.142 A 
ATOM      7  C   UNL     1      15.916  26.467  28.361  1.00  0.00     0.098 A 
ATOM      8  C   UNL     1      16.073  27.843  28.580  1.00  0.00     0.161 A 
ATOM      9  C   UNL     1      15.239  28.759  27.923  1.00  0.00     0.158 A 
ATOM     10  C   UNL     1      14.244  28.298  27.046  1.00  0.00     0.062 A 
ATOM     11  C   UNL     1      14.086  26.923  26.827  1.00  0.00     0.022 A 
ENDROOT
BRANCH   9  12
ATOM     12  O   UNL     1      15.403  30.124  28.146  1.00  0.00    -0.504 OA
ATOM     13  H   UNL     1      14.666  30.688  28.553  1.00  0.00     0.293 HD
ENDBRANCH   9  12
BRANCH   8  14
ATOM     14  O   UNL     1      17.059  28.309  29.449  1.00  0.00    -0.504 OA
ATOM     15  H   UNL     1      16.839  28.938  30.213  1.00  0.00     0.293 HD
ENDBRANCH   8  14
TORSDOF 2
ENDMDL
