MODEL 1
REMARK VINA RESULT:    -3.026      0.000      0.000
REMARK INTER + INTRA:          -6.206
REMARK INTER:                  -4.796
REMARK INTRA:                  -1.410
REMARK UNBOUND:                -1.410
REMARK SMILES CCCCCCCCCCCC(=O)[O-]
REMARK SMILES IDX 7 1 8 2 9 3 10 4 11 5 12 6 13 7 14 8 6 9 5 10 4 11 3 12 2 13
REMARK SMILES IDX 1 14
REMARK H PARENT
REMARK Flexibility Score: inf
ROOT
ATOM      1  C   UNL     1     -48.264 -48.756  70.785  1.00  0.00     0.000 C 
ENDROOT
BRANCH   1   2
ATOM      2  C   UNL     1     -49.125 -48.891  69.517  1.00  0.00     0.000 C 
BRANCH   2   3
ATOM      3  C   UNL     1     -48.307 -49.327  68.290  1.00  0.00     0.000 C 
BRANCH   3   4
ATOM      4  C   UNL     1     -48.225 -48.230  67.215  1.00  0.00     0.006 C 
BRANCH   4   5
ATOM      5  C   UNL     1     -49.179 -47.064  67.504  1.00  0.00     0.053 C 
BRANCH   5   6
ATOM      6  C   UNL     1     -50.131 -46.831  66.371  1.00  0.00     0.041 C 
ATOM      7  O   UNL     1     -51.364 -46.702  66.595  1.00  0.00    -0.550 OA
ATOM      8  O   UNL     1     -49.653 -46.725  65.071  1.00  0.00    -0.550 OA
ENDBRANCH   5   6
ENDBRANCH   4   5
ENDBRANCH   3   4
ENDBRANCH   2   3
ENDBRANCH   1   2
BRANCH   1   9
ATOM      9  C   UNL     1     -47.590 -47.379  70.899  1.00  0.00     0.000 C 
BRANCH   9  10
ATOM     10  C   UNL     1     -46.063 -47.453  70.737  1.00  0.00    -0.000 C 
BRANCH  10  11
ATOM     11  C   UNL     1     -45.540 -48.899  70.726  1.00  0.00    -0.000 C 
BRANCH  11  12
ATOM     12  C   UNL     1     -44.458 -49.131  69.657  1.00  0.00    -0.000 C 
BRANCH  12  13
ATOM     13  C   UNL     1     -44.648 -48.231  68.425  1.00  0.00    -0.003 C 
ATOM     14  C   UNL     1     -44.631 -49.015  67.113  1.00  0.00     0.004 C 
ENDBRANCH  12  13
ENDBRANCH  11  12
ENDBRANCH  10  11
ENDBRANCH   9  10
ENDBRANCH   1   9
TORSDOF 10
ENDMDL
MODEL 2
REMARK VINA RESULT:    -2.964      1.213      2.945
REMARK INTER + INTRA:          -6.107
REMARK INTER:                  -4.732
REMARK INTRA:                  -1.375
REMARK UNBOUND:                -1.410
REMARK SMILES CCCCCCCCCCCC(=O)[O-]
REMARK SMILES IDX 7 1 8 2 9 3 10 4 11 5 12 6 13 7 14 8 6 9 5 10 4 11 3 12 2 13
REMARK SMILES IDX 1 14
REMARK H PARENT
REMARK Flexibility Score: inf
ROOT
ATOM      1  C   UNL     1     -45.012 -49.964  69.018  1.00  0.00     0.000 C 
ENDROOT
BRANCH   1   2
ATOM      2  C   UNL     1     -46.300 -50.150  68.197  1.00  0.00     0.000 C 
BRANCH   2   3
ATOM      3  C   UNL     1     -46.688 -48.887  67.411  1.00  0.00     0.000 C 
BRANCH   3   4
ATOM      4  C   UNL     1     -48.159 -48.898  66.964  1.00  0.00     0.006 C 
BRANCH   4   5
ATOM      5  C   UNL     1     -48.839 -47.540  67.178  1.00  0.00     0.053 C 
BRANCH   5   6
ATOM      6  C   UNL     1     -50.332 -47.646  67.101  1.00  0.00     0.041 C 
ATOM      7  O   UNL     1     -50.924 -48.636  67.605  1.00  0.00    -0.550 OA
ATOM      8  O   UNL     1     -51.071 -46.636  66.498  1.00  0.00    -0.550 OA
ENDBRANCH   5   6
ENDBRANCH   4   5
ENDBRANCH   3   4
ENDBRANCH   2   3
ENDBRANCH   1   2
BRANCH   1   9
ATOM      9  C   UNL     1     -45.286 -49.456  70.443  1.00  0.00     0.000 C 
BRANCH   9  10
ATOM     10  C   UNL     1     -44.824 -48.004  70.652  1.00  0.00    -0.000 C 
BRANCH  10  11
ATOM     11  C   UNL     1     -45.923 -47.115  71.255  1.00  0.00    -0.000 C 
BRANCH  11  12
ATOM     12  C   UNL     1     -47.219 -47.130  70.426  1.00  0.00    -0.000 C 
BRANCH  12  13
ATOM     13  C   UNL     1     -48.407 -47.718  71.204  1.00  0.00    -0.003 C 
ATOM     14  C   UNL     1     -48.919 -49.025  70.600  1.00  0.00     0.004 C 
ENDBRANCH  12  13
ENDBRANCH  11  12
ENDBRANCH  10  11
ENDBRANCH   9  10
ENDBRANCH   1   9
TORSDOF 10
ENDMDL
MODEL 3
REMARK VINA RESULT:    -2.960      1.383      2.922
REMARK INTER + INTRA:          -6.101
REMARK INTER:                  -4.658
REMARK INTRA:                  -1.443
REMARK UNBOUND:                -1.410
REMARK SMILES CCCCCCCCCCCC(=O)[O-]
REMARK SMILES IDX 7 1 8 2 9 3 10 4 11 5 12 6 13 7 14 8 6 9 5 10 4 11 3 12 2 13
REMARK SMILES IDX 1 14
REMARK H PARENT
REMARK Flexibility Score: inf
ROOT
ATOM      1  C   UNL     1     -46.792 -48.618  67.188  1.00  0.00     0.000 C 
ENDROOT
BRANCH   1   2
ATOM      2  C   UNL     1     -48.061 -49.475  67.031  1.00  0.00     0.000 C 
BRANCH   2   3
ATOM      3  C   UNL     1     -49.329 -48.746  67.504  1.00  0.00     0.000 C 
BRANCH   3   4
ATOM      4  C   UNL     1     -49.273 -47.232  67.240  1.00  0.00     0.006 C 
BRANCH   4   5
ATOM      5  C   UNL     1     -50.400 -46.765  66.309  1.00  0.00     0.053 C 
BRANCH   5   6
ATOM      6  C   UNL     1     -49.891 -46.439  64.939  1.00  0.00     0.041 C 
ATOM      7  O   UNL     1     -50.402 -45.495  64.280  1.00  0.00    -0.550 OA
ATOM      8  O   UNL     1     -48.832 -47.158  64.400  1.00  0.00    -0.550 OA
ENDBRANCH   5   6
ENDBRANCH   4   5
ENDBRANCH   3   4
ENDBRANCH   2   3
ENDBRANCH   1   2
BRANCH   1   9
ATOM      9  C   UNL     1     -45.603 -49.417  67.745  1.00  0.00     0.000 C 
BRANCH   9  10
ATOM     10  C   UNL     1     -46.000 -50.326  68.920  1.00  0.00    -0.000 C 
BRANCH  10  11
ATOM     11  C   UNL     1     -46.038 -49.574  70.261  1.00  0.00    -0.000 C 
BRANCH  11  12
ATOM     12  C   UNL     1     -47.470 -49.361  70.780  1.00  0.00    -0.000 C 
BRANCH  12  13
ATOM     13  C   UNL     1     -47.879 -47.880  70.783  1.00  0.00    -0.003 C 
ATOM     14  C   UNL     1     -46.682 -46.936  70.686  1.00  0.00     0.004 C 
ENDBRANCH  12  13
ENDBRANCH  11  12
ENDBRANCH  10  11
ENDBRANCH   9  10
ENDBRANCH   1   9
TORSDOF 10
ENDMDL
MODEL 4
REMARK VINA RESULT:    -2.932      4.777      6.713
REMARK INTER + INTRA:          -6.056
REMARK INTER:                  -5.155
REMARK INTRA:                  -0.902
REMARK UNBOUND:                -1.410
REMARK SMILES CCCCCCCCCCCC(=O)[O-]
REMARK SMILES IDX 7 1 8 2 9 3 10 4 11 5 12 6 13 7 14 8 6 9 5 10 4 11 3 12 2 13
REMARK SMILES IDX 1 14
REMARK H PARENT
REMARK Flexibility Score: inf
ROOT
ATOM      1  C   UNL     1     -44.628 -47.938  69.873  1.00  0.00     0.000 C 
ENDROOT
BRANCH   1   2
ATOM      2  C   UNL     1     -43.458 -47.341  70.676  1.00  0.00     0.000 C 
BRANCH   2   3
ATOM      3  C   UNL     1     -43.210 -45.860  70.348  1.00  0.00     0.000 C 
BRANCH   3   4
ATOM      4  C   UNL     1     -43.173 -44.975  71.605  1.00  0.00     0.006 C 
BRANCH   4   5
ATOM      5  C   UNL     1     -43.806 -45.667  72.819  1.00  0.00     0.053 C 
BRANCH   5   6
ATOM      6  C   UNL     1     -43.908 -44.744  73.995  1.00  0.00     0.041 C 
ATOM      7  O   UNL     1     -43.672 -43.515  73.860  1.00  0.00    -0.550 OA
ATOM      8  O   UNL     1     -44.295 -45.238  75.234  1.00  0.00    -0.550 OA
ENDBRANCH   5   6
ENDBRANCH   4   5
ENDBRANCH   3   4
ENDBRANCH   2   3
ENDBRANCH   1   2
BRANCH   1   9
ATOM      9  C   UNL     1     -45.773 -48.430  70.773  1.00  0.00     0.000 C 
BRANCH   9  10
ATOM     10  C   UNL     1     -46.696 -47.288  71.232  1.00  0.00    -0.000 C 
BRANCH  10  11
ATOM     11  C   UNL     1     -48.179 -47.577  70.951  1.00  0.00    -0.000 C 
BRANCH  11  12
ATOM     12  C   UNL     1     -48.406 -48.974  70.348  1.00  0.00    -0.000 C 
BRANCH  12  13
ATOM     13  C   UNL     1     -49.085 -48.916  68.970  1.00  0.00    -0.003 C 
ATOM     14  C   UNL     1     -48.361 -47.988  67.995  1.00  0.00     0.004 C 
ENDBRANCH  12  13
ENDBRANCH  11  12
ENDBRANCH  10  11
ENDBRANCH   9  10
ENDBRANCH   1   9
TORSDOF 10
ENDMDL
MODEL 5
REMARK VINA RESULT:    -2.896      5.299      7.021
REMARK INTER + INTRA:          -5.999
REMARK INTER:                  -5.088
REMARK INTRA:                  -0.911
REMARK UNBOUND:                -1.410
REMARK SMILES CCCCCCCCCCCC(=O)[O-]
REMARK SMILES IDX 7 1 8 2 9 3 10 4 11 5 12 6 13 7 14 8 6 9 5 10 4 11 3 12 2 13
REMARK SMILES IDX 1 14
REMARK H PARENT
REMARK Flexibility Score: inf
ROOT
ATOM      1  C   UNL     1     -42.420 -44.428  70.699  1.00  0.00     0.000 C 
ENDROOT
BRANCH   1   2
ATOM      2  C   UNL     1     -43.367 -45.262  71.581  1.00  0.00     0.000 C 
BRANCH   2   3
ATOM      3  C   UNL     1     -43.085 -46.770  71.490  1.00  0.00     0.000 C 
BRANCH   3   4
ATOM      4  C   UNL     1     -44.221 -47.542  70.798  1.00  0.00     0.006 C 
BRANCH   4   5
ATOM      5  C   UNL     1     -45.547 -46.771  70.829  1.00  0.00     0.053 C 
BRANCH   5   6
ATOM      6  C   UNL     1     -46.723 -47.692  70.951  1.00  0.00     0.041 C 
ATOM      7  O   UNL     1     -46.569 -48.937  70.845  1.00  0.00    -0.550 OA
ATOM      8  O   UNL     1     -47.986 -47.175  71.211  1.00  0.00    -0.550 OA
ENDBRANCH   5   6
ENDBRANCH   4   5
ENDBRANCH   3   4
ENDBRANCH   2   3
ENDBRANCH   1   2
BRANCH   1   9
ATOM      9  C   UNL     1     -43.036 -44.079  69.335  1.00  0.00     0.000 C 
BRANCH   9  10
ATOM     10  C   UNL     1     -43.554 -42.632  69.273  1.00  0.00    -0.000 C 
BRANCH  10  11
ATOM     11  C   UNL     1     -42.416 -41.599  69.247  1.00  0.00    -0.000 C 
BRANCH  11  12
ATOM     12  C   UNL     1     -42.609 -40.477  70.283  1.00  0.00    -0.000 C 
BRANCH  12  13
ATOM     13  C   UNL     1     -43.811 -40.732  71.206  1.00  0.00    -0.003 C 
ATOM     14  C   UNL     1     -43.395 -41.102  72.629  1.00  0.00     0.004 C 
ENDBRANCH  12  13
ENDBRANCH  11  12
ENDBRANCH  10  11
ENDBRANCH   9  10
ENDBRANCH   1   9
TORSDOF 10
ENDMDL
MODEL 6
REMARK VINA RESULT:    -2.883      3.877      5.517
REMARK INTER + INTRA:          -5.979
REMARK INTER:                  -4.545
REMARK INTRA:                  -1.434
REMARK UNBOUND:                -1.410
REMARK SMILES CCCCCCCCCCCC(=O)[O-]
REMARK SMILES IDX 7 1 8 2 9 3 10 4 11 5 12 6 13 7 14 8 6 9 5 10 4 11 3 12 2 13
REMARK SMILES IDX 1 14
REMARK H PARENT
REMARK Flexibility Score: inf
ROOT
ATOM      1  C   UNL     1     -42.390 -44.638  71.094  1.00  0.00     0.000 C 
ENDROOT
BRANCH   1   2
ATOM      2  C   UNL     1     -42.820 -46.041  71.557  1.00  0.00     0.000 C 
BRANCH   2   3
ATOM      3  C   UNL     1     -44.302 -46.331  71.271  1.00  0.00     0.000 C 
BRANCH   3   4
ATOM      4  C   UNL     1     -44.538 -47.768  70.775  1.00  0.00     0.006 C 
BRANCH   4   5
ATOM      5  C   UNL     1     -45.664 -47.843  69.737  1.00  0.00     0.053 C 
BRANCH   5   6
ATOM      6  C   UNL     1     -47.016 -47.709  70.370  1.00  0.00     0.041 C 
ATOM      7  O   UNL     1     -47.654 -46.627  70.280  1.00  0.00    -0.550 OA
ATOM      8  O   UNL     1     -47.583 -48.789  71.034  1.00  0.00    -0.550 OA
ENDBRANCH   5   6
ENDBRANCH   4   5
ENDBRANCH   3   4
ENDBRANCH   2   3
ENDBRANCH   1   2
BRANCH   1   9
ATOM      9  C   UNL     1     -43.396 -44.002  70.122  1.00  0.00     0.000 C 
BRANCH   9  10
ATOM     10  C   UNL     1     -42.725 -43.462  68.847  1.00  0.00    -0.000 C 
BRANCH  10  11
ATOM     11  C   UNL     1     -41.733 -44.463  68.233  1.00  0.00    -0.000 C 
BRANCH  11  12
ATOM     12  C   UNL     1     -42.352 -45.288  67.091  1.00  0.00    -0.000 C 
BRANCH  12  13
ATOM     13  C   UNL     1     -42.732 -46.710  67.533  1.00  0.00    -0.003 C 
ATOM     14  C   UNL     1     -41.628 -47.393  68.339  1.00  0.00     0.004 C 
ENDBRANCH  12  13
ENDBRANCH  11  12
ENDBRANCH  10  11
ENDBRANCH   9  10
ENDBRANCH   1   9
TORSDOF 10
ENDMDL
MODEL 7
REMARK VINA RESULT:    -2.872      3.597      4.781
REMARK INTER + INTRA:          -5.961
REMARK INTER:                  -5.330
REMARK INTRA:                  -0.632
REMARK UNBOUND:                -1.410
REMARK SMILES CCCCCCCCCCCC(=O)[O-]
REMARK SMILES IDX 7 1 8 2 9 3 10 4 11 5 12 6 13 7 14 8 6 9 5 10 4 11 3 12 2 13
REMARK SMILES IDX 1 14
REMARK H PARENT
REMARK Flexibility Score: inf
ROOT
ATOM      1  C   UNL     1     -44.654 -46.465  70.960  1.00  0.00     0.000 C 
ENDROOT
BRANCH   1   2
ATOM      2  C   UNL     1     -44.627 -47.976  70.669  1.00  0.00     0.000 C 
BRANCH   2   3
ATOM      3  C   UNL     1     -46.005 -48.636  70.836  1.00  0.00     0.000 C 
BRANCH   3   4
ATOM      4  C   UNL     1     -47.142 -47.607  70.955  1.00  0.00     0.006 C 
BRANCH   4   5
ATOM      5  C   UNL     1     -48.525 -48.251  70.793  1.00  0.00     0.053 C 
BRANCH   5   6
ATOM      6  C   UNL     1     -48.864 -48.486  69.353  1.00  0.00     0.041 C 
ATOM      7  O   UNL     1     -49.602 -49.453  69.024  1.00  0.00    -0.550 OA
ATOM      8  O   UNL     1     -48.390 -47.619  68.376  1.00  0.00    -0.550 OA
ENDBRANCH   5   6
ENDBRANCH   4   5
ENDBRANCH   3   4
ENDBRANCH   2   3
ENDBRANCH   1   2
BRANCH   1   9
ATOM      9  C   UNL     1     -43.412 -45.988  71.729  1.00  0.00     0.000 C 
BRANCH   9  10
ATOM     10  C   UNL     1     -42.480 -45.120  70.867  1.00  0.00    -0.000 C 
BRANCH  10  11
ATOM     11  C   UNL     1     -42.877 -45.125  69.381  1.00  0.00    -0.000 C 
BRANCH  11  12
ATOM     12  C   UNL     1     -42.674 -43.756  68.709  1.00  0.00    -0.000 C 
BRANCH  12  13
ATOM     13  C   UNL     1     -43.543 -42.657  69.339  1.00  0.00    -0.003 C 
ATOM     14  C   UNL     1     -42.737 -41.421  69.735  1.00  0.00     0.004 C 
ENDBRANCH  12  13
ENDBRANCH  11  12
ENDBRANCH  10  11
ENDBRANCH   9  10
ENDBRANCH   1   9
TORSDOF 10
ENDMDL
MODEL 8
REMARK VINA RESULT:    -2.833      4.119      5.854
REMARK INTER + INTRA:          -5.899
REMARK INTER:                  -4.870
REMARK INTRA:                  -1.028
REMARK UNBOUND:                -1.410
REMARK SMILES CCCCCCCCCCCC(=O)[O-]
REMARK SMILES IDX 7 1 8 2 9 3 10 4 11 5 12 6 13 7 14 8 6 9 5 10 4 11 3 12 2 13
REMARK SMILES IDX 1 14
REMARK H PARENT
REMARK Flexibility Score: inf
ROOT
ATOM      1  C   UNL     1     -47.018 -47.471  70.830  1.00  0.00     0.000 C 
ENDROOT
BRANCH   1   2
ATOM      2  C   UNL     1     -45.898 -48.524  70.767  1.00  0.00     0.000 C 
BRANCH   2   3
ATOM      3  C   UNL     1     -44.495 -47.894  70.747  1.00  0.00     0.000 C 
BRANCH   3   4
ATOM      4  C   UNL     1     -44.519 -46.390  71.064  1.00  0.00     0.006 C 
BRANCH   4   5
ATOM      5  C   UNL     1     -43.337 -45.966  71.946  1.00  0.00     0.053 C 
BRANCH   5   6
ATOM      6  C   UNL     1     -42.470 -44.952  71.264  1.00  0.00     0.041 C 
ATOM      7  O   UNL     1     -41.293 -45.247  70.926  1.00  0.00    -0.550 OA
ATOM      8  O   UNL     1     -42.971 -43.688  70.977  1.00  0.00    -0.550 OA
ENDBRANCH   5   6
ENDBRANCH   4   5
ENDBRANCH   3   4
ENDBRANCH   2   3
ENDBRANCH   1   2
BRANCH   1   9
ATOM      9  C   UNL     1     -48.422 -48.097  70.796  1.00  0.00     0.000 C 
BRANCH   9  10
ATOM     10  C   UNL     1     -48.767 -48.698  69.422  1.00  0.00    -0.000 C 
BRANCH  10  11
ATOM     11  C   UNL     1     -48.700 -47.660  68.291  1.00  0.00    -0.000 C 
BRANCH  11  12
ATOM     12  C   UNL     1     -47.997 -48.199  67.032  1.00  0.00    -0.000 C 
BRANCH  12  13
ATOM     13  C   UNL     1     -46.913 -49.236  67.364  1.00  0.00    -0.003 C 
ATOM     14  C   UNL     1     -45.504 -48.742  67.040  1.00  0.00     0.004 C 
ENDBRANCH  12  13
ENDBRANCH  11  12
ENDBRANCH  10  11
ENDBRANCH   9  10
ENDBRANCH   1   9
TORSDOF 10
ENDMDL
MODEL 9
REMARK VINA RESULT:    -2.782      2.647      4.355
REMARK INTER + INTRA:          -5.818
REMARK INTER:                  -4.858
REMARK INTRA:                  -0.960
REMARK UNBOUND:                -1.410
REMARK SMILES CCCCCCCCCCCC(=O)[O-]
REMARK SMILES IDX 7 1 8 2 9 3 10 4 11 5 12 6 13 7 14 8 6 9 5 10 4 11 3 12 2 13
REMARK SMILES IDX 1 14
REMARK H PARENT
REMARK Flexibility Score: inf
ROOT
ATOM      1  C   UNL     1     -44.646 -48.393  69.683  1.00  0.00     0.000 C 
ENDROOT
BRANCH   1   2
ATOM      2  C   UNL     1     -45.731 -48.611  70.752  1.00  0.00     0.000 C 
BRANCH   2   3
ATOM      3  C   UNL     1     -46.482 -47.317  71.105  1.00  0.00     0.000 C 
BRANCH   3   4
ATOM      4  C   UNL     1     -48.010 -47.493  71.071  1.00  0.00     0.006 C 
BRANCH   4   5
ATOM      5  C   UNL     1     -48.427 -48.790  70.366  1.00  0.00     0.053 C 
BRANCH   5   6
ATOM      6  C   UNL     1     -49.003 -48.524  69.008  1.00  0.00     0.041 C 
ATOM      7  O   UNL     1     -50.003 -49.175  68.605  1.00  0.00    -0.550 OA
ATOM      8  O   UNL     1     -48.453 -47.538  68.200  1.00  0.00    -0.550 OA
ENDBRANCH   5   6
ENDBRANCH   4   5
ENDBRANCH   3   4
ENDBRANCH   2   3
ENDBRANCH   1   2
BRANCH   1   9
ATOM      9  C   UNL     1     -43.227 -48.635  70.222  1.00  0.00     0.000 C 
BRANCH   9  10
ATOM     10  C   UNL     1     -42.741 -47.498  71.137  1.00  0.00    -0.000 C 
BRANCH  10  11
ATOM     11  C   UNL     1     -43.053 -46.106  70.565  1.00  0.00    -0.000 C 
BRANCH  11  12
ATOM     12  C   UNL     1     -43.092 -45.015  71.649  1.00  0.00    -0.000 C 
BRANCH  12  13
ATOM     13  C   UNL     1     -43.028 -45.596  73.070  1.00  0.00    -0.003 C 
ATOM     14  C   UNL     1     -44.269 -45.266  73.899  1.00  0.00     0.004 C 
ENDBRANCH  12  13
ENDBRANCH  11  12
ENDBRANCH  10  11
ENDBRANCH   9  10
ENDBRANCH   1   9
TORSDOF 10
ENDMDL
