MODEL 1
REMARK VINA RESULT:    -3.184      0.000      0.000
REMARK INTER + INTRA:          -8.325
REMARK INTER:                  -5.975
REMARK INTRA:                  -2.349
REMARK UNBOUND:                -2.349
REMARK SMILES CCCCCCCCC=CCCCCCCCC(=O)[O-]
REMARK SMILES IDX 10 1 9 2 11 3 12 4 13 5 14 6 15 7 16 8 17 9 18 10 19 11
REMARK SMILES IDX 20 12 8 13 7 14 6 15 5 16 4 17 3 18 2 19 1 20
REMARK H PARENT
REMARK Flexibility Score: inf
ROOT
ATOM      1  C   UNL     1      59.909  25.148  49.673  1.00  0.00    -0.031 C 
ATOM      2  C   UNL     1      58.700  25.024  50.255  1.00  0.00    -0.031 C 
ENDROOT
BRANCH   1   3
ATOM      3  C   UNL     1      61.235  25.066  50.388  1.00  0.00     0.027 C 
BRANCH   3   4
ATOM      4  C   UNL     1      61.734  26.470  50.745  1.00  0.00     0.004 C 
BRANCH   4   5
ATOM      5  C   UNL     1      61.316  27.491  49.674  1.00  0.00     0.000 C 
BRANCH   5   6
ATOM      6  C   UNL     1      60.689  28.759  50.275  1.00  0.00     0.000 C 
BRANCH   6   7
ATOM      7  C   UNL     1      61.243  29.087  51.672  1.00  0.00     0.000 C 
BRANCH   7   8
ATOM      8  C   UNL     1      60.131  29.304  52.717  1.00  0.00     0.006 C 
BRANCH   8   9
ATOM      9  C   UNL     1      60.035  30.742  53.250  1.00  0.00     0.053 C 
BRANCH   9  10
ATOM     10  C   UNL     1      58.679  31.336  53.020  1.00  0.00     0.041 C 
ATOM     11  O   UNL     1      58.337  32.387  53.622  1.00  0.00    -0.550 OA
ATOM     12  O   UNL     1      57.805  30.746  52.116  1.00  0.00    -0.550 OA
ENDBRANCH   9  10
ENDBRANCH   8   9
ENDBRANCH   7   8
ENDBRANCH   6   7
ENDBRANCH   5   6
ENDBRANCH   4   5
ENDBRANCH   3   4
ENDBRANCH   1   3
BRANCH   2  13
ATOM     13  C   UNL     1      58.468  24.766  51.724  1.00  0.00     0.027 C 
BRANCH  13  14
ATOM     14  C   UNL     1      58.198  26.074  52.485  1.00  0.00     0.004 C 
BRANCH  14  15
ATOM     15  C   UNL     1      57.495  27.132  51.619  1.00  0.00     0.000 C 
BRANCH  15  16
ATOM     16  C   UNL     1      56.182  27.688  52.208  1.00  0.00     0.000 C 
BRANCH  16  17
ATOM     17  C   UNL     1      54.893  27.089  51.613  1.00  0.00    -0.000 C 
BRANCH  17  18
ATOM     18  C   UNL     1      54.427  27.728  50.289  1.00  0.00    -0.000 C 
BRANCH  18  19
ATOM     19  C   UNL     1      54.202  26.734  49.136  1.00  0.00    -0.003 C 
ATOM     20  C   UNL     1      55.040  25.464  49.274  1.00  0.00     0.004 C 
ENDBRANCH  18  19
ENDBRANCH  17  18
ENDBRANCH  16  17
ENDBRANCH  15  16
ENDBRANCH  14  15
ENDBRANCH  13  14
ENDBRANCH   2  13
TORSDOF 15
ENDMDL
MODEL 2
REMARK VINA RESULT:    -3.134      2.723      5.768
REMARK INTER + INTRA:          -8.232
REMARK INTER:                  -6.063
REMARK INTRA:                  -2.168
REMARK UNBOUND:                -2.349
REMARK SMILES CCCCCCCCC=CCCCCCCCC(=O)[O-]
REMARK SMILES IDX 10 1 9 2 11 3 12 4 13 5 14 6 15 7 16 8 17 9 18 10 19 11
REMARK SMILES IDX 20 12 8 13 7 14 6 15 5 16 4 17 3 18 2 19 1 20
REMARK H PARENT
REMARK Flexibility Score: inf
ROOT
ATOM      1  C   UNL     1      61.168  28.392  49.964  1.00  0.00    -0.031 C 
ATOM      2  C   UNL     1      60.974  27.272  49.240  1.00  0.00    -0.031 C 
ENDROOT
BRANCH   1   3
ATOM      3  C   UNL     1      61.046  28.493  51.465  1.00  0.00     0.027 C 
BRANCH   3   4
ATOM      4  C   UNL     1      59.711  29.142  51.846  1.00  0.00     0.004 C 
BRANCH   4   5
ATOM      5  C   UNL     1      58.639  28.075  52.120  1.00  0.00     0.000 C 
BRANCH   5   6
ATOM      6  C   UNL     1      57.211  28.638  52.055  1.00  0.00     0.000 C 
BRANCH   6   7
ATOM      7  C   UNL     1      56.138  27.536  52.100  1.00  0.00     0.000 C 
BRANCH   7   8
ATOM      8  C   UNL     1      54.792  27.991  51.506  1.00  0.00     0.006 C 
BRANCH   8   9
ATOM      9  C   UNL     1      54.532  27.499  50.073  1.00  0.00     0.053 C 
BRANCH   9  10
ATOM     10  C   UNL     1      54.639  26.009  49.964  1.00  0.00     0.041 C 
ATOM     11  O   UNL     1      55.430  25.490  49.133  1.00  0.00    -0.550 OA
ATOM     12  O   UNL     1      53.888  25.194  50.801  1.00  0.00    -0.550 OA
ENDBRANCH   9  10
ENDBRANCH   8   9
ENDBRANCH   7   8
ENDBRANCH   6   7
ENDBRANCH   5   6
ENDBRANCH   4   5
ENDBRANCH   3   4
ENDBRANCH   1   3
BRANCH   2  13
ATOM     13  C   UNL     1      60.614  25.923  49.810  1.00  0.00     0.027 C 
BRANCH  13  14
ATOM     14  C   UNL     1      59.148  25.566  49.520  1.00  0.00     0.004 C 
BRANCH  14  15
ATOM     15  C   UNL     1      58.476  24.817  50.684  1.00  0.00     0.000 C 
BRANCH  15  16
ATOM     16  C   UNL     1      59.444  24.289  51.762  1.00  0.00     0.000 C 
BRANCH  16  17
ATOM     17  C   UNL     1      59.849  22.810  51.608  1.00  0.00    -0.000 C 
BRANCH  17  18
ATOM     18  C   UNL     1      61.369  22.547  51.597  1.00  0.00    -0.000 C 
BRANCH  18  19
ATOM     19  C   UNL     1      61.997  22.445  50.196  1.00  0.00    -0.003 C 
ATOM     20  C   UNL     1      61.051  21.830  49.164  1.00  0.00     0.004 C 
ENDBRANCH  18  19
ENDBRANCH  17  18
ENDBRANCH  16  17
ENDBRANCH  15  16
ENDBRANCH  14  15
ENDBRANCH  13  14
ENDBRANCH   2  13
TORSDOF 15
ENDMDL
MODEL 3
REMARK VINA RESULT:    -3.109      4.249      5.713
REMARK INTER + INTRA:          -8.184
REMARK INTER:                  -6.632
REMARK INTRA:                  -1.552
REMARK UNBOUND:                -2.349
REMARK SMILES CCCCCCCCC=CCCCCCCCC(=O)[O-]
REMARK SMILES IDX 10 1 9 2 11 3 12 4 13 5 14 6 15 7 16 8 17 9 18 10 19 11
REMARK SMILES IDX 20 12 8 13 7 14 6 15 5 16 4 17 3 18 2 19 1 20
REMARK H PARENT
REMARK Flexibility Score: inf
ROOT
ATOM      1  C   UNL     1      60.814  28.662  50.055  1.00  0.00    -0.031 C 
ATOM      2  C   UNL     1      60.796  27.486  49.397  1.00  0.00    -0.031 C 
ENDROOT
BRANCH   1   3
ATOM      3  C   UNL     1      61.535  28.925  51.354  1.00  0.00     0.027 C 
BRANCH   3   4
ATOM      4  C   UNL     1      62.389  30.193  51.239  1.00  0.00     0.004 C 
BRANCH   4   5
ATOM      5  C   UNL     1      62.742  30.488  49.773  1.00  0.00     0.000 C 
BRANCH   5   6
ATOM      6  C   UNL     1      64.250  30.389  49.494  1.00  0.00     0.000 C 
BRANCH   6   7
ATOM      7  C   UNL     1      64.782  28.951  49.622  1.00  0.00     0.000 C 
BRANCH   7   8
ATOM      8  C   UNL     1      64.378  28.059  48.433  1.00  0.00     0.006 C 
BRANCH   8   9
ATOM      9  C   UNL     1      65.069  28.418  47.108  1.00  0.00     0.053 C 
BRANCH   9  10
ATOM     10  C   UNL     1      66.239  27.527  46.826  1.00  0.00     0.041 C 
ATOM     11  O   UNL     1      67.224  27.961  46.172  1.00  0.00    -0.550 OA
ATOM     12  O   UNL     1      66.255  26.225  47.311  1.00  0.00    -0.550 OA
ENDBRANCH   9  10
ENDBRANCH   8   9
ENDBRANCH   7   8
ENDBRANCH   6   7
ENDBRANCH   5   6
ENDBRANCH   4   5
ENDBRANCH   3   4
ENDBRANCH   1   3
BRANCH   2  13
ATOM     13  C   UNL     1      61.508  26.233  49.842  1.00  0.00     0.027 C 
BRANCH  13  14
ATOM     14  C   UNL     1      60.532  25.229  50.475  1.00  0.00     0.004 C 
BRANCH  14  15
ATOM     15  C   UNL     1      59.173  25.186  49.755  1.00  0.00     0.000 C 
BRANCH  15  16
ATOM     16  C   UNL     1      57.944  25.334  50.674  1.00  0.00     0.000 C 
BRANCH  16  17
ATOM     17  C   UNL     1      56.607  25.567  49.944  1.00  0.00    -0.000 C 
BRANCH  17  18
ATOM     18  C   UNL     1      55.607  26.475  50.688  1.00  0.00    -0.000 C 
BRANCH  18  19
ATOM     19  C   UNL     1      54.459  27.020  49.820  1.00  0.00    -0.003 C 
ATOM     20  C   UNL     1      54.029  28.431  50.218  1.00  0.00     0.004 C 
ENDBRANCH  18  19
ENDBRANCH  17  18
ENDBRANCH  16  17
ENDBRANCH  15  16
ENDBRANCH  14  15
ENDBRANCH  13  14
ENDBRANCH   2  13
TORSDOF 15
ENDMDL
MODEL 4
REMARK VINA RESULT:    -3.102      3.093      6.007
REMARK INTER + INTRA:          -8.172
REMARK INTER:                  -5.683
REMARK INTRA:                  -2.489
REMARK UNBOUND:                -2.349
REMARK SMILES CCCCCCCCC=CCCCCCCCC(=O)[O-]
REMARK SMILES IDX 10 1 9 2 11 3 12 4 13 5 14 6 15 7 16 8 17 9 18 10 19 11
REMARK SMILES IDX 20 12 8 13 7 14 6 15 5 16 4 17 3 18 2 19 1 20
REMARK H PARENT
REMARK Flexibility Score: inf
ROOT
ATOM      1  C   UNL     1      62.176  26.360  49.794  1.00  0.00    -0.031 C 
ATOM      2  C   UNL     1      62.288  25.201  50.472  1.00  0.00    -0.031 C 
ENDROOT
BRANCH   1   3
ATOM      3  C   UNL     1      60.880  27.065  49.477  1.00  0.00     0.027 C 
BRANCH   3   4
ATOM      4  C   UNL     1      60.697  28.277  50.396  1.00  0.00     0.004 C 
BRANCH   4   5
ATOM      5  C   UNL     1      60.116  27.854  51.755  1.00  0.00     0.000 C 
BRANCH   5   6
ATOM      6  C   UNL     1      58.636  27.449  51.667  1.00  0.00     0.000 C 
BRANCH   6   7
ATOM      7  C   UNL     1      58.316  26.194  52.498  1.00  0.00     0.000 C 
BRANCH   7   8
ATOM      8  C   UNL     1      57.534  25.135  51.698  1.00  0.00     0.006 C 
BRANCH   8   9
ATOM      9  C   UNL     1      57.276  25.511  50.231  1.00  0.00     0.053 C 
BRANCH   9  10
ATOM     10  C   UNL     1      55.836  25.838  49.980  1.00  0.00     0.041 C 
ATOM     11  O   UNL     1      55.216  25.287  49.033  1.00  0.00    -0.550 OA
ATOM     12  O   UNL     1      55.170  26.728  50.813  1.00  0.00    -0.550 OA
ENDBRANCH   9  10
ENDBRANCH   8   9
ENDBRANCH   7   8
ENDBRANCH   6   7
ENDBRANCH   5   6
ENDBRANCH   4   5
ENDBRANCH   3   4
ENDBRANCH   1   3
BRANCH   2  13
ATOM     13  C   UNL     1      61.133  24.416  51.043  1.00  0.00     0.027 C 
BRANCH  13  14
ATOM     14  C   UNL     1      60.497  23.505  49.981  1.00  0.00     0.004 C 
BRANCH  14  15
ATOM     15  C   UNL     1      61.405  22.329  49.585  1.00  0.00     0.000 C 
BRANCH  15  16
ATOM     16  C   UNL     1      60.681  20.979  49.408  1.00  0.00     0.000 C 
BRANCH  16  17
ATOM     17  C   UNL     1      61.019  19.912  50.467  1.00  0.00    -0.000 C 
BRANCH  17  18
ATOM     18  C   UNL     1      60.587  20.261  51.907  1.00  0.00    -0.000 C 
BRANCH  18  19
ATOM     19  C   UNL     1      59.103  20.638  52.062  1.00  0.00    -0.003 C 
ATOM     20  C   UNL     1      58.894  21.899  52.900  1.00  0.00     0.004 C 
ENDBRANCH  18  19
ENDBRANCH  17  18
ENDBRANCH  16  17
ENDBRANCH  15  16
ENDBRANCH  14  15
ENDBRANCH  13  14
ENDBRANCH   2  13
TORSDOF 15
ENDMDL
MODEL 5
REMARK VINA RESULT:    -3.101      3.308      4.624
REMARK INTER + INTRA:          -8.170
REMARK INTER:                  -5.912
REMARK INTRA:                  -2.258
REMARK UNBOUND:                -2.349
REMARK SMILES CCCCCCCCC=CCCCCCCCC(=O)[O-]
REMARK SMILES IDX 10 1 9 2 11 3 12 4 13 5 14 6 15 7 16 8 17 9 18 10 19 11
REMARK SMILES IDX 20 12 8 13 7 14 6 15 5 16 4 17 3 18 2 19 1 20
REMARK H PARENT
REMARK Flexibility Score: inf
ROOT
ATOM      1  C   UNL     1      61.682  27.264  49.348  1.00  0.00    -0.031 C 
ATOM      2  C   UNL     1      61.028  28.374  49.744  1.00  0.00    -0.031 C 
ENDROOT
BRANCH   1   3
ATOM      3  C   UNL     1      62.434  26.323  50.257  1.00  0.00     0.027 C 
BRANCH   3   4
ATOM      4  C   UNL     1      63.927  26.671  50.262  1.00  0.00     0.004 C 
BRANCH   4   5
ATOM      5  C   UNL     1      64.430  26.957  48.839  1.00  0.00     0.000 C 
BRANCH   5   6
ATOM      6  C   UNL     1      65.288  28.230  48.757  1.00  0.00     0.000 C 
BRANCH   6   7
ATOM      7  C   UNL     1      64.468  29.472  48.372  1.00  0.00     0.000 C 
BRANCH   7   8
ATOM      8  C   UNL     1      64.244  30.429  49.558  1.00  0.00     0.006 C 
BRANCH   8   9
ATOM      9  C   UNL     1      63.053  31.385  49.386  1.00  0.00     0.053 C 
BRANCH   9  10
ATOM     10  C   UNL     1      63.491  32.766  49.008  1.00  0.00     0.041 C 
ATOM     11  O   UNL     1      62.881  33.402  48.109  1.00  0.00    -0.550 OA
ATOM     12  O   UNL     1      64.555  33.364  49.672  1.00  0.00    -0.550 OA
ENDBRANCH   9  10
ENDBRANCH   8   9
ENDBRANCH   7   8
ENDBRANCH   6   7
ENDBRANCH   5   6
ENDBRANCH   4   5
ENDBRANCH   3   4
ENDBRANCH   1   3
BRANCH   2  13
ATOM     13  C   UNL     1      60.925  28.858  51.169  1.00  0.00     0.027 C 
BRANCH  13  14
ATOM     14  C   UNL     1      59.489  28.729  51.701  1.00  0.00     0.004 C 
BRANCH  14  15
ATOM     15  C   UNL     1      59.123  27.284  52.081  1.00  0.00     0.000 C 
BRANCH  15  16
ATOM     16  C   UNL     1      57.658  26.891  51.807  1.00  0.00     0.000 C 
BRANCH  16  17
ATOM     17  C   UNL     1      57.470  25.697  50.850  1.00  0.00    -0.000 C 
BRANCH  17  18
ATOM     18  C   UNL     1      58.718  25.318  50.027  1.00  0.00    -0.000 C 
BRANCH  18  19
ATOM     19  C   UNL     1      59.567  24.183  50.626  1.00  0.00    -0.003 C 
ATOM     20  C   UNL     1      58.919  23.537  51.850  1.00  0.00     0.004 C 
ENDBRANCH  18  19
ENDBRANCH  17  18
ENDBRANCH  16  17
ENDBRANCH  15  16
ENDBRANCH  14  15
ENDBRANCH  13  14
ENDBRANCH   2  13
TORSDOF 15
ENDMDL
MODEL 6
REMARK VINA RESULT:    -3.091      4.260      6.583
REMARK INTER + INTRA:          -8.151
REMARK INTER:                  -5.676
REMARK INTRA:                  -2.475
REMARK UNBOUND:                -2.349
REMARK SMILES CCCCCCCCC=CCCCCCCCC(=O)[O-]
REMARK SMILES IDX 10 1 9 2 11 3 12 4 13 5 14 6 15 7 16 8 17 9 18 10 19 11
REMARK SMILES IDX 20 12 8 13 7 14 6 15 5 16 4 17 3 18 2 19 1 20
REMARK H PARENT
REMARK Flexibility Score: inf
ROOT
ATOM      1  C   UNL     1      59.898  25.927  49.765  1.00  0.00    -0.031 C 
ATOM      2  C   UNL     1      60.289  24.679  50.090  1.00  0.00    -0.031 C 
ENDROOT
BRANCH   1   3
ATOM      3  C   UNL     1      60.819  27.056  49.371  1.00  0.00     0.027 C 
BRANCH   3   4
ATOM      4  C   UNL     1      60.712  28.204  50.381  1.00  0.00     0.004 C 
BRANCH   4   5
ATOM      5  C   UNL     1      61.585  29.395  49.955  1.00  0.00     0.000 C 
BRANCH   5   6
ATOM      6  C   UNL     1      62.358  30.014  51.131  1.00  0.00     0.000 C 
BRANCH   6   7
ATOM      7  C   UNL     1      63.320  31.129  50.684  1.00  0.00     0.000 C 
BRANCH   7   8
ATOM      8  C   UNL     1      63.180  31.471  49.188  1.00  0.00     0.006 C 
BRANCH   8   9
ATOM      9  C   UNL     1      62.983  32.966  48.896  1.00  0.00     0.053 C 
BRANCH   9  10
ATOM     10  C   UNL     1      64.240  33.612  48.399  1.00  0.00     0.041 C 
ATOM     11  O   UNL     1      64.239  34.252  47.316  1.00  0.00    -0.550 OA
ATOM     12  O   UNL     1      65.406  33.532  49.150  1.00  0.00    -0.550 OA
ENDBRANCH   9  10
ENDBRANCH   8   9
ENDBRANCH   7   8
ENDBRANCH   6   7
ENDBRANCH   5   6
ENDBRANCH   4   5
ENDBRANCH   3   4
ENDBRANCH   1   3
BRANCH   2  13
ATOM     13  C   UNL     1      61.718  24.194  50.103  1.00  0.00     0.027 C 
BRANCH  13  14
ATOM     14  C   UNL     1      62.412  24.533  51.432  1.00  0.00     0.004 C 
BRANCH  14  15
ATOM     15  C   UNL     1      63.804  25.158  51.234  1.00  0.00     0.000 C 
BRANCH  15  16
ATOM     16  C   UNL     1      63.903  26.654  51.597  1.00  0.00     0.000 C 
BRANCH  16  17
ATOM     17  C   UNL     1      64.887  27.471  50.738  1.00  0.00    -0.000 C 
BRANCH  17  18
ATOM     18  C   UNL     1      65.125  26.920  49.316  1.00  0.00    -0.000 C 
BRANCH  18  19
ATOM     19  C   UNL     1      64.186  27.489  48.238  1.00  0.00    -0.003 C 
ATOM     20  C   UNL     1      64.834  28.596  47.408  1.00  0.00     0.004 C 
ENDBRANCH  18  19
ENDBRANCH  17  18
ENDBRANCH  16  17
ENDBRANCH  15  16
ENDBRANCH  14  15
ENDBRANCH  13  14
ENDBRANCH   2  13
TORSDOF 15
ENDMDL
MODEL 7
REMARK VINA RESULT:    -3.077      5.428      7.562
REMARK INTER + INTRA:          -8.123
REMARK INTER:                  -6.603
REMARK INTRA:                  -1.520
REMARK UNBOUND:                -2.349
REMARK SMILES CCCCCCCCC=CCCCCCCCC(=O)[O-]
REMARK SMILES IDX 10 1 9 2 11 3 12 4 13 5 14 6 15 7 16 8 17 9 18 10 19 11
REMARK SMILES IDX 20 12 8 13 7 14 6 15 5 16 4 17 3 18 2 19 1 20
REMARK H PARENT
REMARK Flexibility Score: inf
ROOT
ATOM      1  C   UNL     1      62.572  25.324  50.475  1.00  0.00    -0.031 C 
ATOM      2  C   UNL     1      61.820  26.405  50.192  1.00  0.00    -0.031 C 
ENDROOT
BRANCH   1   3
ATOM      3  C   UNL     1      62.074  24.065  51.143  1.00  0.00     0.027 C 
BRANCH   3   4
ATOM      4  C   UNL     1      61.890  22.952  50.107  1.00  0.00     0.004 C 
BRANCH   4   5
ATOM      5  C   UNL     1      60.497  22.314  50.225  1.00  0.00     0.000 C 
BRANCH   5   6
ATOM      6  C   UNL     1      60.215  21.759  51.630  1.00  0.00     0.000 C 
BRANCH   6   7
ATOM      7  C   UNL     1      59.742  20.295  51.603  1.00  0.00     0.000 C 
BRANCH   7   8
ATOM      8  C   UNL     1      60.267  19.522  50.378  1.00  0.00     0.006 C 
BRANCH   8   9
ATOM      9  C   UNL     1      59.177  18.804  49.567  1.00  0.00     0.053 C 
BRANCH   9  10
ATOM     10  C   UNL     1      58.918  17.420  50.077  1.00  0.00     0.041 C 
ATOM     11  O   UNL     1      58.053  17.226  50.971  1.00  0.00    -0.550 OA
ATOM     12  O   UNL     1      59.610  16.341  49.542  1.00  0.00    -0.550 OA
ENDBRANCH   9  10
ENDBRANCH   8   9
ENDBRANCH   7   8
ENDBRANCH   6   7
ENDBRANCH   5   6
ENDBRANCH   4   5
ENDBRANCH   3   4
ENDBRANCH   1   3
BRANCH   2  13
ATOM     13  C   UNL     1      60.345  26.537  50.483  1.00  0.00     0.027 C 
BRANCH  13  14
ATOM     14  C   UNL     1      59.502  25.753  49.465  1.00  0.00     0.004 C 
BRANCH  14  15
ATOM     15  C   UNL     1      58.193  25.214  50.067  1.00  0.00     0.000 C 
BRANCH  15  16
ATOM     16  C   UNL     1      57.626  26.041  51.238  1.00  0.00     0.000 C 
BRANCH  16  17
ATOM     17  C   UNL     1      56.090  26.019  51.370  1.00  0.00    -0.000 C 
BRANCH  17  18
ATOM     18  C   UNL     1      55.358  27.181  50.669  1.00  0.00    -0.000 C 
BRANCH  18  19
ATOM     19  C   UNL     1      54.284  26.750  49.656  1.00  0.00    -0.003 C 
ATOM     20  C   UNL     1      54.649  25.467  48.911  1.00  0.00     0.004 C 
ENDBRANCH  18  19
ENDBRANCH  17  18
ENDBRANCH  16  17
ENDBRANCH  15  16
ENDBRANCH  14  15
ENDBRANCH  13  14
ENDBRANCH   2  13
TORSDOF 15
ENDMDL
MODEL 8
REMARK VINA RESULT:    -3.075      2.955      3.428
REMARK INTER + INTRA:          -8.121
REMARK INTER:                  -6.090
REMARK INTRA:                  -2.031
REMARK UNBOUND:                -2.349
REMARK SMILES CCCCCCCCC=CCCCCCCCC(=O)[O-]
REMARK SMILES IDX 10 1 9 2 11 3 12 4 13 5 14 6 15 7 16 8 17 9 18 10 19 11
REMARK SMILES IDX 20 12 8 13 7 14 6 15 5 16 4 17 3 18 2 19 1 20
REMARK H PARENT
REMARK Flexibility Score: inf
ROOT
ATOM      1  C   UNL     1      60.097  25.039  49.728  1.00  0.00    -0.031 C 
ATOM      2  C   UNL     1      58.982  24.983  50.482  1.00  0.00    -0.031 C 
ENDROOT
BRANCH   1   3
ATOM      3  C   UNL     1      61.509  25.082  50.259  1.00  0.00     0.027 C 
BRANCH   3   4
ATOM      4  C   UNL     1      61.986  26.534  50.380  1.00  0.00     0.004 C 
BRANCH   4   5
ATOM      5  C   UNL     1      61.216  27.449  49.415  1.00  0.00     0.000 C 
BRANCH   5   6
ATOM      6  C   UNL     1      60.720  28.738  50.087  1.00  0.00     0.000 C 
BRANCH   6   7
ATOM      7  C   UNL     1      61.733  29.307  51.095  1.00  0.00     0.000 C 
BRANCH   7   8
ATOM      8  C   UNL     1      62.675  30.352  50.467  1.00  0.00     0.006 C 
BRANCH   8   9
ATOM      9  C   UNL     1      64.152  29.930  50.426  1.00  0.00     0.053 C 
BRANCH   9  10
ATOM     10  C   UNL     1      64.633  29.709  49.025  1.00  0.00     0.041 C 
ATOM     11  O   UNL     1      65.313  30.593  48.441  1.00  0.00    -0.550 OA
ATOM     12  O   UNL     1      64.357  28.512  48.375  1.00  0.00    -0.550 OA
ENDBRANCH   9  10
ENDBRANCH   8   9
ENDBRANCH   7   8
ENDBRANCH   6   7
ENDBRANCH   5   6
ENDBRANCH   4   5
ENDBRANCH   3   4
ENDBRANCH   1   3
BRANCH   2  13
ATOM     13  C   UNL     1      58.956  24.940  51.990  1.00  0.00     0.027 C 
BRANCH  13  14
ATOM     14  C   UNL     1      58.586  26.309  52.582  1.00  0.00     0.004 C 
BRANCH  14  15
ATOM     15  C   UNL     1      57.706  27.147  51.638  1.00  0.00     0.000 C 
BRANCH  15  16
ATOM     16  C   UNL     1      56.442  27.746  52.288  1.00  0.00     0.000 C 
BRANCH  16  17
ATOM     17  C   UNL     1      55.108  27.177  51.766  1.00  0.00    -0.000 C 
BRANCH  17  18
ATOM     18  C   UNL     1      54.612  27.789  50.440  1.00  0.00    -0.000 C 
BRANCH  18  19
ATOM     19  C   UNL     1      54.272  26.764  49.343  1.00  0.00    -0.003 C 
ATOM     20  C   UNL     1      55.197  25.548  49.358  1.00  0.00     0.004 C 
ENDBRANCH  18  19
ENDBRANCH  17  18
ENDBRANCH  16  17
ENDBRANCH  15  16
ENDBRANCH  14  15
ENDBRANCH  13  14
ENDBRANCH   2  13
TORSDOF 15
ENDMDL
MODEL 9
REMARK VINA RESULT:    -3.044      9.568     11.647
REMARK INTER + INTRA:          -8.062
REMARK INTER:                  -6.023
REMARK INTRA:                  -2.039
REMARK UNBOUND:                -2.349
REMARK SMILES CCCCCCCCC=CCCCCCCCC(=O)[O-]
REMARK SMILES IDX 10 1 9 2 11 3 12 4 13 5 14 6 15 7 16 8 17 9 18 10 19 11
REMARK SMILES IDX 20 12 8 13 7 14 6 15 5 16 4 17 3 18 2 19 1 20
REMARK H PARENT
REMARK Flexibility Score: inf
ROOT
ATOM      1  C   UNL     1      64.105  26.979  59.800  1.00  0.00    -0.031 C 
ATOM      2  C   UNL     1      64.719  28.178  59.753  1.00  0.00    -0.031 C 
ENDROOT
BRANCH   1   3
ATOM      3  C   UNL     1      64.030  26.084  61.012  1.00  0.00     0.027 C 
BRANCH   3   4
ATOM      4  C   UNL     1      62.871  26.513  61.918  1.00  0.00     0.004 C 
BRANCH   4   5
ATOM      5  C   UNL     1      62.087  25.293  62.426  1.00  0.00     0.000 C 
BRANCH   5   6
ATOM      6  C   UNL     1      60.599  25.598  62.660  1.00  0.00     0.000 C 
BRANCH   6   7
ATOM      7  C   UNL     1      59.896  26.119  61.394  1.00  0.00     0.000 C 
BRANCH   7   8
ATOM      8  C   UNL     1      58.645  26.961  61.712  1.00  0.00     0.006 C 
BRANCH   8   9
ATOM      9  C   UNL     1      57.328  26.170  61.692  1.00  0.00     0.053 C 
BRANCH   9  10
ATOM     10  C   UNL     1      56.299  26.770  62.599  1.00  0.00     0.041 C 
ATOM     11  O   UNL     1      56.287  28.011  62.812  1.00  0.00    -0.550 OA
ATOM     12  O   UNL     1      55.333  25.963  63.186  1.00  0.00    -0.550 OA
ENDBRANCH   9  10
ENDBRANCH   8   9
ENDBRANCH   7   8
ENDBRANCH   6   7
ENDBRANCH   5   6
ENDBRANCH   4   5
ENDBRANCH   3   4
ENDBRANCH   1   3
BRANCH   2  13
ATOM     13  C   UNL     1      65.425  28.836  60.913  1.00  0.00     0.027 C 
BRANCH  13  14
ATOM     14  C   UNL     1      64.728  30.144  61.323  1.00  0.00     0.004 C 
BRANCH  14  15
ATOM     15  C   UNL     1      65.213  31.356  60.510  1.00  0.00     0.000 C 
BRANCH  15  16
ATOM     16  C   UNL     1      64.102  32.132  59.774  1.00  0.00     0.000 C 
BRANCH  16  17
ATOM     17  C   UNL     1      63.423  31.365  58.623  1.00  0.00    -0.000 C 
BRANCH  17  18
ATOM     18  C   UNL     1      61.901  31.170  58.777  1.00  0.00    -0.000 C 
BRANCH  18  19
ATOM     19  C   UNL     1      61.459  29.719  59.040  1.00  0.00    -0.003 C 
ATOM     20  C   UNL     1      61.239  29.424  60.523  1.00  0.00     0.004 C 
ENDBRANCH  18  19
ENDBRANCH  17  18
ENDBRANCH  16  17
ENDBRANCH  15  16
ENDBRANCH  14  15
ENDBRANCH  13  14
ENDBRANCH   2  13
TORSDOF 15
ENDMDL
