MODEL 1
REMARK VINA RESULT:    -4.616      0.000      0.000
REMARK INTER + INTRA:          -8.489
REMARK INTER:                  -7.315
REMARK INTRA:                  -1.174
REMARK UNBOUND:                -1.174
REMARK SMILES CCCCCCCCCCCC(=O)[O-]
REMARK SMILES IDX 7 1 8 2 9 3 10 4 11 5 12 6 13 7 14 8 6 9 5 10 4 11 3 12 2 13
REMARK SMILES IDX 1 14
REMARK H PARENT
REMARK Flexibility Score: inf
ROOT
ATOM      1  C   UNL     1     162.417 167.881 159.792  1.00  0.00     0.000 C 
ENDROOT
BRANCH   1   2
ATOM      2  C   UNL     1     161.138 167.995 160.635  1.00  0.00     0.000 C 
BRANCH   2   3
ATOM      3  C   UNL     1     160.015 167.124 160.053  1.00  0.00     0.000 C 
BRANCH   3   4
ATOM      4  C   UNL     1     159.401 166.162 161.087  1.00  0.00     0.006 C 
BRANCH   4   5
ATOM      5  C   UNL     1     160.192 166.071 162.404  1.00  0.00     0.053 C 
BRANCH   5   6
ATOM      6  C   UNL     1     160.934 164.776 162.546  1.00  0.00     0.041 C 
ATOM      7  O   UNL     1     161.215 164.327 163.689  1.00  0.00    -0.550 OA
ATOM      8  O   UNL     1     161.341 164.080 161.415  1.00  0.00    -0.550 OA
ENDBRANCH   5   6
ENDBRANCH   4   5
ENDBRANCH   3   4
ENDBRANCH   2   3
ENDBRANCH   1   2
BRANCH   1   9
ATOM      9  C   UNL     1     163.203 166.592 160.080  1.00  0.00     0.000 C 
BRANCH   9  10
ATOM     10  C   UNL     1     163.864 166.007 158.823  1.00  0.00    -0.000 C 
BRANCH  10  11
ATOM     11  C   UNL     1     162.832 165.801 157.706  1.00  0.00    -0.000 C 
BRANCH  11  12
ATOM     12  C   UNL     1     161.964 164.565 157.983  1.00  0.00    -0.000 C 
BRANCH  12  13
ATOM     13  C   UNL     1     162.798 163.288 158.171  1.00  0.00    -0.003 C 
ATOM     14  C   UNL     1     161.942 162.063 158.491  1.00  0.00     0.004 C 
ENDBRANCH  12  13
ENDBRANCH  11  12
ENDBRANCH  10  11
ENDBRANCH   9  10
ENDBRANCH   1   9
TORSDOF 10
ENDMDL
MODEL 2
REMARK VINA RESULT:    -4.606      2.146      2.928
REMARK INTER + INTRA:          -8.473
REMARK INTER:                  -7.291
REMARK INTRA:                  -1.182
REMARK UNBOUND:                -1.174
REMARK SMILES CCCCCCCCCCCC(=O)[O-]
REMARK SMILES IDX 7 1 8 2 9 3 10 4 11 5 12 6 13 7 14 8 6 9 5 10 4 11 3 12 2 13
REMARK SMILES IDX 1 14
REMARK H PARENT
REMARK Flexibility Score: inf
ROOT
ATOM      1  C   UNL     1     162.333 167.729 159.872  1.00  0.00     0.000 C 
ENDROOT
BRANCH   1   2
ATOM      2  C   UNL     1     161.086 167.812 160.765  1.00  0.00     0.000 C 
BRANCH   2   3
ATOM      3  C   UNL     1     159.843 167.295 160.025  1.00  0.00     0.000 C 
BRANCH   3   4
ATOM      4  C   UNL     1     159.068 166.229 160.821  1.00  0.00     0.006 C 
BRANCH   4   5
ATOM      5  C   UNL     1     159.503 164.784 160.519  1.00  0.00     0.053 C 
BRANCH   5   6
ATOM      6  C   UNL     1     158.403 163.962 159.916  1.00  0.00     0.041 C 
ATOM      7  O   UNL     1     158.676 162.981 159.175  1.00  0.00    -0.550 OA
ATOM      8  O   UNL     1     157.075 164.299 160.148  1.00  0.00    -0.550 OA
ENDBRANCH   5   6
ENDBRANCH   4   5
ENDBRANCH   3   4
ENDBRANCH   2   3
ENDBRANCH   1   2
BRANCH   1   9
ATOM      9  C   UNL     1     163.013 166.352 159.930  1.00  0.00     0.000 C 
BRANCH   9  10
ATOM     10  C   UNL     1     163.474 165.861 158.549  1.00  0.00    -0.000 C 
BRANCH  10  11
ATOM     11  C   UNL     1     162.523 164.789 158.002  1.00  0.00    -0.000 C 
BRANCH  11  12
ATOM     12  C   UNL     1     161.302 165.431 157.326  1.00  0.00    -0.000 C 
BRANCH  12  13
ATOM     13  C   UNL     1     161.691 166.560 156.358  1.00  0.00    -0.003 C 
ATOM     14  C   UNL     1     160.838 166.571 155.089  1.00  0.00     0.004 C 
ENDBRANCH  12  13
ENDBRANCH  11  12
ENDBRANCH  10  11
ENDBRANCH   9  10
ENDBRANCH   1   9
TORSDOF 10
ENDMDL
MODEL 3
REMARK VINA RESULT:    -4.595      2.177      3.568
REMARK INTER + INTRA:          -8.455
REMARK INTER:                  -7.013
REMARK INTRA:                  -1.442
REMARK UNBOUND:                -1.174
REMARK SMILES CCCCCCCCCCCC(=O)[O-]
REMARK SMILES IDX 7 1 8 2 9 3 10 4 11 5 12 6 13 7 14 8 6 9 5 10 4 11 3 12 2 13
REMARK SMILES IDX 1 14
REMARK H PARENT
REMARK Flexibility Score: inf
ROOT
ATOM      1  C   UNL     1     160.054 167.235 159.974  1.00  0.00     0.000 C 
ENDROOT
BRANCH   1   2
ATOM      2  C   UNL     1     159.178 166.310 160.832  1.00  0.00     0.000 C 
BRANCH   2   3
ATOM      3  C   UNL     1     159.989 165.117 161.360  1.00  0.00     0.000 C 
BRANCH   3   4
ATOM      4  C   UNL     1     160.408 164.134 160.252  1.00  0.00     0.006 C 
BRANCH   4   5
ATOM      5  C   UNL     1     159.260 163.726 159.312  1.00  0.00     0.053 C 
BRANCH   5   6
ATOM      6  C   UNL     1     159.730 162.919 158.139  1.00  0.00     0.041 C 
ATOM      7  O   UNL     1     159.005 162.800 157.116  1.00  0.00    -0.550 OA
ATOM      8  O   UNL     1     160.959 162.271 158.189  1.00  0.00    -0.550 OA
ENDBRANCH   5   6
ENDBRANCH   4   5
ENDBRANCH   3   4
ENDBRANCH   2   3
ENDBRANCH   1   2
BRANCH   1   9
ATOM      9  C   UNL     1     161.195 167.881 160.776  1.00  0.00     0.000 C 
BRANCH   9  10
ATOM     10  C   UNL     1     162.498 167.992 159.969  1.00  0.00    -0.000 C 
BRANCH  10  11
ATOM     11  C   UNL     1     163.113 166.608 159.728  1.00  0.00    -0.000 C 
BRANCH  11  12
ATOM     12  C   UNL     1     163.462 166.413 158.245  1.00  0.00    -0.000 C 
BRANCH  12  13
ATOM     13  C   UNL     1     162.490 165.459 157.531  1.00  0.00    -0.003 C 
ATOM     14  C   UNL     1     161.391 166.197 156.766  1.00  0.00     0.004 C 
ENDBRANCH  12  13
ENDBRANCH  11  12
ENDBRANCH  10  11
ENDBRANCH   9  10
ENDBRANCH   1   9
TORSDOF 10
ENDMDL
MODEL 4
REMARK VINA RESULT:    -4.580      2.486      4.446
REMARK INTER + INTRA:          -8.431
REMARK INTER:                  -7.015
REMARK INTRA:                  -1.416
REMARK UNBOUND:                -1.174
REMARK SMILES CCCCCCCCCCCC(=O)[O-]
REMARK SMILES IDX 7 1 8 2 9 3 10 4 11 5 12 6 13 7 14 8 6 9 5 10 4 11 3 12 2 13
REMARK SMILES IDX 1 14
REMARK H PARENT
REMARK Flexibility Score: inf
ROOT
ATOM      1  C   UNL     1     161.452 167.567 160.685  1.00  0.00     0.000 C 
ENDROOT
BRANCH   1   2
ATOM      2  C   UNL     1     162.601 167.741 159.682  1.00  0.00     0.000 C 
BRANCH   2   3
ATOM      3  C   UNL     1     163.397 166.436 159.524  1.00  0.00     0.000 C 
BRANCH   3   4
ATOM      4  C   UNL     1     163.485 165.957 158.063  1.00  0.00     0.006 C 
BRANCH   4   5
ATOM      5  C   UNL     1     162.845 166.922 157.049  1.00  0.00     0.053 C 
BRANCH   5   6
ATOM      6  C   UNL     1     161.584 166.377 156.448  1.00  0.00     0.041 C 
ATOM      7  O   UNL     1     160.850 165.595 157.109  1.00  0.00    -0.550 OA
ATOM      8  O   UNL     1     161.235 166.709 155.144  1.00  0.00    -0.550 OA
ENDBRANCH   5   6
ENDBRANCH   4   5
ENDBRANCH   3   4
ENDBRANCH   2   3
ENDBRANCH   1   2
BRANCH   1   9
ATOM      9  C   UNL     1     160.071 167.578 160.012  1.00  0.00     0.000 C 
BRANCH   9  10
ATOM     10  C   UNL     1     159.220 166.354 160.382  1.00  0.00    -0.000 C 
BRANCH  10  11
ATOM     11  C   UNL     1     160.097 165.226 160.942  1.00  0.00    -0.000 C 
BRANCH  11  12
ATOM     12  C   UNL     1     160.157 164.042 159.966  1.00  0.00    -0.000 C 
BRANCH  12  13
ATOM     13  C   UNL     1     161.521 163.332 159.982  1.00  0.00    -0.003 C 
ATOM     14  C   UNL     1     161.749 162.459 158.749  1.00  0.00     0.004 C 
ENDBRANCH  12  13
ENDBRANCH  11  12
ENDBRANCH  10  11
ENDBRANCH   9  10
ENDBRANCH   1   9
TORSDOF 10
ENDMDL
MODEL 5
REMARK VINA RESULT:    -4.484      1.719      3.415
REMARK INTER + INTRA:          -8.279
REMARK INTER:                  -6.881
REMARK INTRA:                  -1.398
REMARK UNBOUND:                -1.174
REMARK SMILES CCCCCCCCCCCC(=O)[O-]
REMARK SMILES IDX 7 1 8 2 9 3 10 4 11 5 12 6 13 7 14 8 6 9 5 10 4 11 3 12 2 13
REMARK SMILES IDX 1 14
REMARK H PARENT
REMARK Flexibility Score: inf
ROOT
ATOM      1  C   UNL     1     159.964 163.350 158.183  1.00  0.00     0.000 C 
ENDROOT
BRANCH   1   2
ATOM      2  C   UNL     1     158.734 163.262 159.099  1.00  0.00     0.000 C 
BRANCH   2   3
ATOM      3  C   UNL     1     158.892 164.179 160.322  1.00  0.00     0.000 C 
BRANCH   3   4
ATOM      4  C   UNL     1     159.723 165.440 160.027  1.00  0.00     0.006 C 
BRANCH   4   5
ATOM      5  C   UNL     1     160.874 165.677 161.021  1.00  0.00     0.053 C 
BRANCH   5   6
ATOM      6  C   UNL     1     160.423 165.641 162.450  1.00  0.00     0.041 C 
ATOM      7  O   UNL     1     159.613 166.503 162.883  1.00  0.00    -0.550 OA
ATOM      8  O   UNL     1     160.922 164.673 163.313  1.00  0.00    -0.550 OA
ENDBRANCH   5   6
ENDBRANCH   4   5
ENDBRANCH   3   4
ENDBRANCH   2   3
ENDBRANCH   1   2
BRANCH   1   9
ATOM      9  C   UNL     1     161.005 162.260 158.485  1.00  0.00     0.000 C 
BRANCH   9  10
ATOM     10  C   UNL     1     162.358 162.840 158.924  1.00  0.00    -0.000 C 
BRANCH  10  11
ATOM     11  C   UNL     1     162.943 163.752 157.838  1.00  0.00    -0.000 C 
BRANCH  11  12
ATOM     12  C   UNL     1     163.204 165.162 158.388  1.00  0.00    -0.000 C 
BRANCH  12  13
ATOM     13  C   UNL     1     163.038 166.252 157.316  1.00  0.00    -0.003 C 
ATOM     14  C   UNL     1     161.583 166.442 156.885  1.00  0.00     0.004 C 
ENDBRANCH  12  13
ENDBRANCH  11  12
ENDBRANCH  10  11
ENDBRANCH   9  10
ENDBRANCH   1   9
TORSDOF 10
ENDMDL
MODEL 6
REMARK VINA RESULT:    -4.447      3.006      5.444
REMARK INTER + INTRA:          -8.221
REMARK INTER:                  -6.778
REMARK INTRA:                  -1.443
REMARK UNBOUND:                -1.174
REMARK SMILES CCCCCCCCCCCC(=O)[O-]
REMARK SMILES IDX 7 1 8 2 9 3 10 4 11 5 12 6 13 7 14 8 6 9 5 10 4 11 3 12 2 13
REMARK SMILES IDX 1 14
REMARK H PARENT
REMARK Flexibility Score: inf
ROOT
ATOM      1  C   UNL     1     160.981 162.361 158.305  1.00  0.00     0.000 C 
ENDROOT
BRANCH   1   2
ATOM      2  C   UNL     1     162.340 162.820 158.853  1.00  0.00     0.000 C 
BRANCH   2   3
ATOM      3  C   UNL     1     162.967 163.888 157.943  1.00  0.00     0.000 C 
BRANCH   3   4
ATOM      4  C   UNL     1     163.281 165.202 158.683  1.00  0.00     0.006 C 
BRANCH   4   5
ATOM      5  C   UNL     1     162.325 166.357 158.338  1.00  0.00     0.053 C 
BRANCH   5   6
ATOM      6  C   UNL     1     162.355 166.720 156.884  1.00  0.00     0.041 C 
ATOM      7  O   UNL     1     163.384 167.244 156.380  1.00  0.00    -0.550 OA
ATOM      8  O   UNL     1     161.234 166.508 156.091  1.00  0.00    -0.550 OA
ENDBRANCH   5   6
ENDBRANCH   4   5
ENDBRANCH   3   4
ENDBRANCH   2   3
ENDBRANCH   1   2
BRANCH   1   9
ATOM      9  C   UNL     1     159.940 163.491 158.277  1.00  0.00     0.000 C 
BRANCH   9  10
ATOM     10  C   UNL     1     158.635 163.112 158.994  1.00  0.00    -0.000 C 
BRANCH  10  11
ATOM     11  C   UNL     1     158.326 164.099 160.128  1.00  0.00    -0.000 C 
BRANCH  11  12
ATOM     12  C   UNL     1     159.433 165.156 160.253  1.00  0.00    -0.000 C 
BRANCH  12  13
ATOM     13  C   UNL     1     159.948 165.303 161.694  1.00  0.00    -0.003 C 
ATOM     14  C   UNL     1     161.297 164.617 161.912  1.00  0.00     0.004 C 
ENDBRANCH  12  13
ENDBRANCH  11  12
ENDBRANCH  10  11
ENDBRANCH   9  10
ENDBRANCH   1   9
TORSDOF 10
ENDMDL
MODEL 7
REMARK VINA RESULT:    -4.439      2.486      4.137
REMARK INTER + INTRA:          -8.208
REMARK INTER:                  -6.767
REMARK INTRA:                  -1.441
REMARK UNBOUND:                -1.174
REMARK SMILES CCCCCCCCCCCC(=O)[O-]
REMARK SMILES IDX 7 1 8 2 9 3 10 4 11 5 12 6 13 7 14 8 6 9 5 10 4 11 3 12 2 13
REMARK SMILES IDX 1 14
REMARK H PARENT
REMARK Flexibility Score: inf
ROOT
ATOM      1  C   UNL     1     159.650 165.864 160.187  1.00  0.00     0.000 C 
ENDROOT
BRANCH   1   2
ATOM      2  C   UNL     1     159.949 164.367 160.352  1.00  0.00     0.000 C 
BRANCH   2   3
ATOM      3  C   UNL     1     159.702 163.608 159.038  1.00  0.00     0.000 C 
BRANCH   3   4
ATOM      4  C   UNL     1     161.004 163.184 158.334  1.00  0.00     0.006 C 
BRANCH   4   5
ATOM      5  C   UNL     1     162.013 162.478 159.257  1.00  0.00     0.053 C 
BRANCH   5   6
ATOM      6  C   UNL     1     163.212 161.963 158.519  1.00  0.00     0.041 C 
ATOM      7  O   UNL     1     163.428 160.725 158.441  1.00  0.00    -0.550 OA
ATOM      8  O   UNL     1     164.111 162.854 157.944  1.00  0.00    -0.550 OA
ENDBRANCH   5   6
ENDBRANCH   4   5
ENDBRANCH   3   4
ENDBRANCH   2   3
ENDBRANCH   1   2
BRANCH   1   9
ATOM      9  C   UNL     1     160.742 166.757 160.797  1.00  0.00     0.000 C 
BRANCH   9  10
ATOM     10  C   UNL     1     162.138 166.120 160.722  1.00  0.00    -0.000 C 
BRANCH  10  11
ATOM     11  C   UNL     1     163.051 166.910 159.775  1.00  0.00    -0.000 C 
BRANCH  11  12
ATOM     12  C   UNL     1     163.478 166.047 158.578  1.00  0.00    -0.000 C 
BRANCH  12  13
ATOM     13  C   UNL     1     163.059 166.659 157.231  1.00  0.00    -0.003 C 
ATOM     14  C   UNL     1     161.556 166.550 156.973  1.00  0.00     0.004 C 
ENDBRANCH  12  13
ENDBRANCH  11  12
ENDBRANCH  10  11
ENDBRANCH   9  10
ENDBRANCH   1   9
TORSDOF 10
ENDMDL
MODEL 8
REMARK VINA RESULT:    -4.433      2.056      5.197
REMARK INTER + INTRA:          -8.199
REMARK INTER:                  -7.029
REMARK INTRA:                  -1.170
REMARK UNBOUND:                -1.174
REMARK SMILES CCCCCCCCCCCC(=O)[O-]
REMARK SMILES IDX 7 1 8 2 9 3 10 4 11 5 12 6 13 7 14 8 6 9 5 10 4 11 3 12 2 13
REMARK SMILES IDX 1 14
REMARK H PARENT
REMARK Flexibility Score: inf
ROOT
ATOM      1  C   UNL     1     161.527 162.297 159.461  1.00  0.00     0.000 C 
ENDROOT
BRANCH   1   2
ATOM      2  C   UNL     1     162.615 161.748 158.526  1.00  0.00     0.000 C 
BRANCH   2   3
ATOM      3  C   UNL     1     163.644 162.836 158.180  1.00  0.00     0.000 C 
BRANCH   3   4
ATOM      4  C   UNL     1     163.030 164.246 158.113  1.00  0.00     0.006 C 
BRANCH   4   5
ATOM      5  C   UNL     1     164.018 165.374 158.460  1.00  0.00     0.053 C 
BRANCH   5   6
ATOM      6  C   UNL     1     163.340 166.585 159.028  1.00  0.00     0.041 C 
ATOM      7  O   UNL     1     162.683 167.356 158.280  1.00  0.00    -0.550 OA
ATOM      8  O   UNL     1     163.460 166.878 160.381  1.00  0.00    -0.550 OA
ENDBRANCH   5   6
ENDBRANCH   4   5
ENDBRANCH   3   4
ENDBRANCH   2   3
ENDBRANCH   1   2
BRANCH   1   9
ATOM      9  C   UNL     1     160.118 162.195 158.855  1.00  0.00     0.000 C 
BRANCH   9  10
ATOM     10  C   UNL     1     159.436 163.564 158.707  1.00  0.00    -0.000 C 
BRANCH  10  11
ATOM     11  C   UNL     1     159.178 164.199 160.080  1.00  0.00    -0.000 C 
BRANCH  11  12
ATOM     12  C   UNL     1     159.957 165.515 160.231  1.00  0.00    -0.000 C 
BRANCH  12  13
ATOM     13  C   UNL     1     160.374 165.789 161.684  1.00  0.00    -0.003 C 
ATOM     14  C   UNL     1     161.294 164.708 162.251  1.00  0.00     0.004 C 
ENDBRANCH  12  13
ENDBRANCH  11  12
ENDBRANCH  10  11
ENDBRANCH   9  10
ENDBRANCH   1   9
TORSDOF 10
ENDMDL
MODEL 9
REMARK VINA RESULT:    -4.423      2.359      4.476
REMARK INTER + INTRA:          -8.183
REMARK INTER:                  -6.910
REMARK INTRA:                  -1.273
REMARK UNBOUND:                -1.174
REMARK SMILES CCCCCCCCCCCC(=O)[O-]
REMARK SMILES IDX 7 1 8 2 9 3 10 4 11 5 12 6 13 7 14 8 6 9 5 10 4 11 3 12 2 13
REMARK SMILES IDX 1 14
REMARK H PARENT
REMARK Flexibility Score: inf
ROOT
ATOM      1  C   UNL     1     163.277 165.538 158.333  1.00  0.00     0.000 C 
ENDROOT
BRANCH   1   2
ATOM      2  C   UNL     1     162.244 164.439 158.041  1.00  0.00     0.000 C 
BRANCH   2   3
ATOM      3  C   UNL     1     161.565 163.964 159.334  1.00  0.00     0.000 C 
BRANCH   3   4
ATOM      4  C   UNL     1     160.617 162.771 159.114  1.00  0.00     0.006 C 
BRANCH   4   5
ATOM      5  C   UNL     1     159.558 163.007 158.023  1.00  0.00     0.053 C 
BRANCH   5   6
ATOM      6  C   UNL     1     158.157 162.836 158.527  1.00  0.00     0.041 C 
ATOM      7  O   UNL     1     157.376 162.020 157.971  1.00  0.00    -0.550 OA
ATOM      8  O   UNL     1     157.704 163.602 159.594  1.00  0.00    -0.550 OA
ENDBRANCH   5   6
ENDBRANCH   4   5
ENDBRANCH   3   4
ENDBRANCH   2   3
ENDBRANCH   1   2
BRANCH   1   9
ATOM      9  C   UNL     1     163.098 166.164 159.725  1.00  0.00     0.000 C 
BRANCH   9  10
ATOM     10  C   UNL     1     162.635 167.627 159.661  1.00  0.00    -0.000 C 
BRANCH  10  11
ATOM     11  C   UNL     1     161.372 167.840 160.506  1.00  0.00    -0.000 C 
BRANCH  11  12
ATOM     12  C   UNL     1     160.111 167.475 159.709  1.00  0.00    -0.000 C 
BRANCH  12  13
ATOM     13  C   UNL     1     159.176 166.532 160.484  1.00  0.00    -0.003 C 
ATOM     14  C   UNL     1     159.750 166.111 161.837  1.00  0.00     0.004 C 
ENDBRANCH  12  13
ENDBRANCH  11  12
ENDBRANCH  10  11
ENDBRANCH   9  10
ENDBRANCH   1   9
TORSDOF 10
ENDMDL
