MODEL 1
REMARK VINA RESULT:    -4.967      0.000      0.000
REMARK INTER + INTRA:         -11.472
REMARK INTER:                  -8.161
REMARK INTRA:                  -3.311
REMARK UNBOUND:                -3.311
REMARK SMILES C[C@H]1O[C@@H](OC[C@H]2O[C@@H](Oc3c(-c4ccc(O)c(O)c4)oc4cc(O)cc(O)c4c3=O)[C@@H](O)[C@@H](O)[C@H]2O)[C@@H](O)[C@@H](O)[C@H]1O
REMARK SMILES IDX 7 1 36 2 34 3 32 4 9 5 8 6 6 7 5 8 4 9 1 10 2 11 42 12 3 13
REMARK SMILES IDX 40 14 38 15 43 16 41 18 39 20 37 22 35 24 10 26 11 27 12 28
REMARK SMILES IDX 30 29 21 30 29 31 31 32 22 33 27 34 23 35 26 36 24 37 13 38
REMARK SMILES IDX 20 39 14 40 18 41 15 42 16 43 19 44 17 46 28 48 25 50 33 52
REMARK H PARENT 43 17 41 19 39 21 37 23 35 25 19 45 17 47 28 49 25 51 33 53
REMARK Flexibility Score: inf
ROOT
ATOM      1  C   UNL     1      30.286 165.824 168.980  1.00  0.00     0.180 C 
ATOM      2  C   UNL     1      31.636 165.928 168.200  1.00  0.00     0.177 C 
ATOM      3  C   UNL     1      31.506 165.060 166.946  1.00  0.00     0.180 C 
ATOM      4  C   UNL     1      30.334 165.554 166.043  1.00  0.00     0.214 C 
ATOM      5  C   UNL     1      29.235 166.276 166.881  1.00  0.00     0.339 C 
ATOM      6  O   UNL     1      29.111 165.696 168.169  1.00  0.00    -0.332 OA
ENDROOT
BRANCH   1   7
ATOM      7  C   UNL     1      30.085 166.912 170.067  1.00  0.00     0.198 C 
BRANCH   7   8
ATOM      8  O   UNL     1      31.338 167.458 170.452  1.00  0.00    -0.347 OA
BRANCH   8   9
ATOM      9  C   UNL     1      31.702 167.093 171.779  1.00  0.00     0.281 C 
ATOM     10  C   UNL     1      31.364 170.186 171.372  1.00  0.00     0.041 C 
ATOM     11  C   UNL     1      32.098 169.360 172.429  1.00  0.00     0.150 C 
ATOM     12  C   UNL     1      33.636 169.212 172.212  1.00  0.00     0.174 C 
ATOM     13  O   UNL     1      31.412 168.138 172.698  1.00  0.00    -0.344 OA
ATOM     14  C   UNL     1      34.042 167.963 171.406  1.00  0.00     0.179 C 
ATOM     15  C   UNL     1      33.199 166.757 171.846  1.00  0.00     0.202 C 
BRANCH  12  16
ATOM     16  O   UNL     1      34.155 170.374 171.599  1.00  0.00    -0.388 OA
ATOM     17  H   UNL     1      33.510 170.636 170.886  1.00  0.00     0.211 HD
ENDBRANCH  12  16
BRANCH  14  18
ATOM     18  O   UNL     1      33.895 168.223 170.023  1.00  0.00    -0.387 OA
ATOM     19  H   UNL     1      34.673 168.768 169.758  1.00  0.00     0.211 HD
ENDBRANCH  14  18
BRANCH  15  20
ATOM     20  O   UNL     1      33.512 165.600 171.108  1.00  0.00    -0.385 OA
ATOM     21  H   UNL     1      33.428 164.813 171.714  1.00  0.00     0.211 HD
ENDBRANCH  15  20
ENDBRANCH   8   9
ENDBRANCH   7   8
ENDBRANCH   1   7
BRANCH   2  22
ATOM     22  O   UNL     1      31.939 167.257 167.858  1.00  0.00    -0.387 OA
ATOM     23  H   UNL     1      32.700 167.535 168.435  1.00  0.00     0.211 HD
ENDBRANCH   2  22
BRANCH   3  24
ATOM     24  O   UNL     1      32.749 164.907 166.299  1.00  0.00    -0.387 OA
ATOM     25  H   UNL     1      32.659 165.117 165.328  1.00  0.00     0.211 HD
ENDBRANCH   3  24
BRANCH   5  26
ATOM     26  O   UNL     1      29.441 167.695 167.007  1.00  0.00    -0.454 OA
BRANCH  26  27
ATOM     27  C   UNL     1      28.571 168.683 166.510  1.00  0.00     0.214 A 
ATOM     28  C   UNL     1      27.466 169.166 167.242  1.00  0.00     0.180 A 
ATOM     29  C   UNL     1      28.825 169.222 165.242  1.00  0.00     0.239 A 
ATOM     30  O   UNL     1      26.608 170.002 166.667  1.00  0.00    -0.452 OA
ATOM     31  C   UNL     1      27.886 170.099 164.644  1.00  0.00     0.111 A 
ATOM     32  O   UNL     1      29.898 168.892 164.664  1.00  0.00    -0.285 OA
ATOM     33  C   UNL     1      26.758 170.466 165.431  1.00  0.00     0.146 A 
ATOM     34  C   UNL     1      27.986 170.617 163.313  1.00  0.00     0.134 A 
ATOM     35  C   UNL     1      25.781 171.321 164.916  1.00  0.00     0.094 A 
ATOM     36  C   UNL     1      26.989 171.474 162.838  1.00  0.00     0.093 A 
ATOM     37  C   UNL     1      25.892 171.824 163.624  1.00  0.00     0.123 A 
BRANCH  28  38
ATOM     38  C   UNL     1      27.240 168.797 168.654  1.00  0.00     0.025 A 
ATOM     39  C   UNL     1      27.727 169.638 169.672  1.00  0.00     0.062 A 
ATOM     40  C   UNL     1      26.542 167.631 168.993  1.00  0.00     0.016 A 
ATOM     41  C   UNL     1      27.500 169.318 171.016  1.00  0.00     0.158 A 
ATOM     42  C   UNL     1      26.323 167.309 170.334  1.00  0.00     0.051 A 
ATOM     43  C   UNL     1      26.794 168.146 171.349  1.00  0.00     0.157 A 
BRANCH  41  44
ATOM     44  O   UNL     1      27.969 170.163 172.019  1.00  0.00    -0.504 OA
ATOM     45  H   UNL     1      28.785 169.926 172.574  1.00  0.00     0.293 HD
ENDBRANCH  41  44
BRANCH  43  46
ATOM     46  O   UNL     1      26.541 167.813 172.685  1.00  0.00    -0.504 OA
ATOM     47  H   UNL     1      26.629 168.494 173.422  1.00  0.00     0.293 HD
ENDBRANCH  43  46
ENDBRANCH  28  38
BRANCH  34  48
ATOM     48  O   UNL     1      29.013 170.309 162.410  1.00  0.00    -0.507 OA
ATOM     49  H   UNL     1      28.908 169.869 161.511  1.00  0.00     0.293 HD
ENDBRANCH  34  48
BRANCH  37  50
ATOM     50  O   UNL     1      24.910 172.684 163.135  1.00  0.00    -0.508 OA
ATOM     51  H   UNL     1      23.995 172.347 162.855  1.00  0.00     0.293 HD
ENDBRANCH  37  50
ENDBRANCH  26  27
ENDBRANCH   5  26
BRANCH   4  52
ATOM     52  O   UNL     1      30.742 166.352 164.956  1.00  0.00    -0.384 OA
ATOM     53  H   UNL     1      31.534 165.913 164.564  1.00  0.00     0.211 HD
ENDBRANCH   4  52
TORSDOF 16
ENDMDL
MODEL 2
REMARK VINA RESULT:    -4.965      3.861      7.044
REMARK INTER + INTRA:         -11.468
REMARK INTER:                  -9.060
REMARK INTRA:                  -2.408
REMARK UNBOUND:                -3.311
REMARK SMILES C[C@H]1O[C@@H](OC[C@H]2O[C@@H](Oc3c(-c4ccc(O)c(O)c4)oc4cc(O)cc(O)c4c3=O)[C@@H](O)[C@@H](O)[C@H]2O)[C@@H](O)[C@@H](O)[C@H]1O
REMARK SMILES IDX 7 1 36 2 34 3 32 4 9 5 8 6 6 7 5 8 4 9 1 10 2 11 42 12 3 13
REMARK SMILES IDX 40 14 38 15 43 16 41 18 39 20 37 22 35 24 10 26 11 27 12 28
REMARK SMILES IDX 30 29 21 30 29 31 31 32 22 33 27 34 23 35 26 36 24 37 13 38
REMARK SMILES IDX 20 39 14 40 18 41 15 42 16 43 19 44 17 46 28 48 25 50 33 52
REMARK H PARENT 43 17 41 19 39 21 37 23 35 25 19 45 17 47 28 49 25 51 33 53
REMARK Flexibility Score: inf
ROOT
ATOM      1  C   UNL     1      28.745 166.491 165.597  1.00  0.00     0.180 C 
ATOM      2  C   UNL     1      29.997 167.254 166.136  1.00  0.00     0.177 C 
ATOM      3  C   UNL     1      31.159 166.258 166.171  1.00  0.00     0.180 C 
ATOM      4  C   UNL     1      31.455 165.695 164.747  1.00  0.00     0.214 C 
ATOM      5  C   UNL     1      30.181 165.719 163.848  1.00  0.00     0.339 C 
ATOM      6  O   UNL     1      29.011 165.482 164.614  1.00  0.00    -0.332 OA
ENDROOT
BRANCH   1   7
ATOM      7  C   UNL     1      27.580 167.406 165.138  1.00  0.00     0.198 C 
BRANCH   7   8
ATOM      8  O   UNL     1      27.456 168.518 166.014  1.00  0.00    -0.347 OA
BRANCH   8   9
ATOM      9  C   UNL     1      26.097 168.829 166.303  1.00  0.00     0.281 C 
ATOM     10  C   UNL     1      28.012 171.313 166.424  1.00  0.00     0.041 C 
ATOM     11  C   UNL     1      26.627 171.050 167.016  1.00  0.00     0.150 C 
ATOM     12  C   UNL     1      26.611 170.631 168.519  1.00  0.00     0.174 C 
ATOM     13  O   UNL     1      25.846 170.221 166.156  1.00  0.00    -0.344 OA
ATOM     14  C   UNL     1      26.653 169.108 168.750  1.00  0.00     0.179 C 
ATOM     15  C   UNL     1      25.746 168.397 167.734  1.00  0.00     0.202 C 
BRANCH  12  16
ATOM     16  O   UNL     1      27.673 171.256 169.209  1.00  0.00    -0.388 OA
ATOM     17  H   UNL     1      28.142 170.542 169.723  1.00  0.00     0.211 HD
ENDBRANCH  12  16
BRANCH  14  18
ATOM     18  O   UNL     1      27.990 168.653 168.660  1.00  0.00    -0.387 OA
ATOM     19  H   UNL     1      28.365 168.710 169.571  1.00  0.00     0.211 HD
ENDBRANCH  14  18
BRANCH  15  20
ATOM     20  O   UNL     1      25.784 166.999 167.886  1.00  0.00    -0.385 OA
ATOM     21  H   UNL     1      26.737 166.720 167.972  1.00  0.00     0.211 HD
ENDBRANCH  15  20
ENDBRANCH   8   9
ENDBRANCH   7   8
ENDBRANCH   1   7
BRANCH   2  22
ATOM     22  O   UNL     1      30.315 168.364 165.335  1.00  0.00    -0.387 OA
ATOM     23  H   UNL     1      29.455 168.816 165.117  1.00  0.00     0.211 HD
ENDBRANCH   2  22
BRANCH   3  24
ATOM     24  O   UNL     1      32.268 166.790 166.858  1.00  0.00    -0.387 OA
ATOM     25  H   UNL     1      33.079 166.756 166.279  1.00  0.00     0.211 HD
ENDBRANCH   3  24
BRANCH   5  26
ATOM     26  O   UNL     1      30.027 166.934 163.093  1.00  0.00    -0.454 OA
BRANCH  26  27
ATOM     27  C   UNL     1      30.019 167.016 161.688  1.00  0.00     0.214 A 
ATOM     28  C   UNL     1      29.024 167.710 160.969  1.00  0.00     0.180 A 
ATOM     29  C   UNL     1      31.053 166.395 160.976  1.00  0.00     0.239 A 
ATOM     30  O   UNL     1      28.997 167.639 159.642  1.00  0.00    -0.452 OA
ATOM     31  C   UNL     1      30.994 166.319 159.562  1.00  0.00     0.111 A 
ATOM     32  O   UNL     1      32.014 165.908 161.635  1.00  0.00    -0.285 OA
ATOM     33  C   UNL     1      29.906 166.982 158.928  1.00  0.00     0.146 A 
ATOM     34  C   UNL     1      31.933 165.613 158.743  1.00  0.00     0.134 A 
ATOM     35  C   UNL     1      29.767 166.951 157.539  1.00  0.00     0.094 A 
ATOM     36  C   UNL     1      31.760 165.612 157.356  1.00  0.00     0.093 A 
ATOM     37  C   UNL     1      30.689 166.269 156.752  1.00  0.00     0.123 A 
BRANCH  28  38
ATOM     38  C   UNL     1      28.013 168.551 161.642  1.00  0.00     0.025 A 
ATOM     39  C   UNL     1      28.372 169.837 162.087  1.00  0.00     0.062 A 
ATOM     40  C   UNL     1      26.704 168.091 161.836  1.00  0.00     0.016 A 
ATOM     41  C   UNL     1      27.420 170.657 162.705  1.00  0.00     0.158 A 
ATOM     42  C   UNL     1      25.758 168.908 162.458  1.00  0.00     0.051 A 
ATOM     43  C   UNL     1      26.106 170.191 162.891  1.00  0.00     0.157 A 
BRANCH  41  44
ATOM     44  O   UNL     1      27.778 171.936 163.127  1.00  0.00    -0.504 OA
ATOM     45  H   UNL     1      27.152 172.726 163.012  1.00  0.00     0.293 HD
ENDBRANCH  41  44
BRANCH  43  46
ATOM     46  O   UNL     1      25.133 170.999 163.492  1.00  0.00    -0.504 OA
ATOM     47  H   UNL     1      25.337 171.942 163.777  1.00  0.00     0.293 HD
ENDBRANCH  43  46
ENDBRANCH  28  38
BRANCH  34  48
ATOM     48  O   UNL     1      33.024 164.880 159.228  1.00  0.00    -0.507 OA
ATOM     49  H   UNL     1      33.982 165.187 159.267  1.00  0.00     0.293 HD
ENDBRANCH  34  48
BRANCH  37  50
ATOM     50  O   UNL     1      30.536 166.261 155.367  1.00  0.00    -0.508 OA
ATOM     51  H   UNL     1      30.667 167.098 154.808  1.00  0.00     0.293 HD
ENDBRANCH  37  50
ENDBRANCH  26  27
ENDBRANCH   5  26
BRANCH   4  52
ATOM     52  O   UNL     1      32.540 166.317 164.097  1.00  0.00    -0.384 OA
ATOM     53  H   UNL     1      32.525 167.266 164.367  1.00  0.00     0.211 HD
ENDBRANCH   4  52
TORSDOF 16
ENDMDL
MODEL 3
REMARK VINA RESULT:    -4.494      4.365      8.608
REMARK INTER + INTRA:         -10.694
REMARK INTER:                  -7.295
REMARK INTRA:                  -3.399
REMARK UNBOUND:                -3.311
REMARK SMILES C[C@H]1O[C@@H](OC[C@H]2O[C@@H](Oc3c(-c4ccc(O)c(O)c4)oc4cc(O)cc(O)c4c3=O)[C@@H](O)[C@@H](O)[C@H]2O)[C@@H](O)[C@@H](O)[C@H]1O
REMARK SMILES IDX 7 1 36 2 34 3 32 4 9 5 8 6 6 7 5 8 4 9 1 10 2 11 42 12 3 13
REMARK SMILES IDX 40 14 38 15 43 16 41 18 39 20 37 22 35 24 10 26 11 27 12 28
REMARK SMILES IDX 30 29 21 30 29 31 31 32 22 33 27 34 23 35 26 36 24 37 13 38
REMARK SMILES IDX 20 39 14 40 18 41 15 42 16 43 19 44 17 46 28 48 25 50 33 52
REMARK H PARENT 43 17 41 19 39 21 37 23 35 25 19 45 17 47 28 49 25 51 33 53
REMARK Flexibility Score: inf
ROOT
ATOM      1  C   UNL     1      29.042 170.465 172.023  1.00  0.00     0.180 C 
ATOM      2  C   UNL     1      27.829 171.242 171.421  1.00  0.00     0.177 C 
ATOM      3  C   UNL     1      27.034 171.826 172.592  1.00  0.00     0.180 C 
ATOM      4  C   UNL     1      27.916 172.796 173.438  1.00  0.00     0.214 C 
ATOM      5  C   UNL     1      29.427 172.425 173.336  1.00  0.00     0.339 C 
ATOM      6  O   UNL     1      29.603 171.023 173.219  1.00  0.00    -0.332 OA
ENDROOT
BRANCH   1   7
ATOM      7  C   UNL     1      30.159 170.124 171.003  1.00  0.00     0.198 C 
BRANCH   7   8
ATOM      8  O   UNL     1      30.632 168.801 171.217  1.00  0.00    -0.347 OA
BRANCH   8   9
ATOM      9  C   UNL     1      30.385 167.952 170.102  1.00  0.00     0.281 C 
ATOM     10  C   UNL     1      29.068 166.947 172.768  1.00  0.00     0.041 C 
ATOM     11  C   UNL     1      29.426 166.235 171.463  1.00  0.00     0.150 C 
ATOM     12  C   UNL     1      30.763 165.430 171.487  1.00  0.00     0.174 C 
ATOM     13  O   UNL     1      29.270 167.101 170.341  1.00  0.00    -0.344 OA
ATOM     14  C   UNL     1      31.992 166.234 171.018  1.00  0.00     0.179 C 
ATOM     15  C   UNL     1      31.623 167.095 169.801  1.00  0.00     0.202 C 
BRANCH  12  16
ATOM     16  O   UNL     1      30.992 164.904 172.778  1.00  0.00    -0.388 OA
ATOM     17  H   UNL     1      31.723 164.232 172.689  1.00  0.00     0.211 HD
ENDBRANCH  12  16
BRANCH  14  18
ATOM     18  O   UNL     1      32.475 167.026 172.087  1.00  0.00    -0.387 OA
ATOM     19  H   UNL     1      33.145 167.637 171.699  1.00  0.00     0.211 HD
ENDBRANCH  14  18
BRANCH  15  20
ATOM     20  O   UNL     1      32.708 167.875 169.362  1.00  0.00    -0.385 OA
ATOM     21  H   UNL     1      32.356 168.590 168.762  1.00  0.00     0.211 HD
ENDBRANCH  15  20
ENDBRANCH   8   9
ENDBRANCH   7   8
ENDBRANCH   1   7
BRANCH   2  22
ATOM     22  O   UNL     1      28.244 172.258 170.543  1.00  0.00    -0.387 OA
ATOM     23  H   UNL     1      27.930 173.119 170.932  1.00  0.00     0.211 HD
ENDBRANCH   2  22
BRANCH   3  24
ATOM     24  O   UNL     1      25.798 172.348 172.161  1.00  0.00    -0.387 OA
ATOM     25  H   UNL     1      25.735 173.316 172.392  1.00  0.00     0.211 HD
ENDBRANCH   3  24
BRANCH   5  26
ATOM     26  O   UNL     1      30.117 173.090 172.263  1.00  0.00    -0.454 OA
BRANCH  26  27
ATOM     27  C   UNL     1      31.084 174.099 172.428  1.00  0.00     0.214 A 
ATOM     28  C   UNL     1      32.365 173.849 172.965  1.00  0.00     0.180 A 
ATOM     29  C   UNL     1      30.767 175.402 172.025  1.00  0.00     0.239 A 
ATOM     30  O   UNL     1      33.184 174.864 173.219  1.00  0.00    -0.452 OA
ATOM     31  C   UNL     1      31.650 176.471 172.321  1.00  0.00     0.111 A 
ATOM     32  O   UNL     1      29.679 175.583 171.410  1.00  0.00    -0.285 OA
ATOM     33  C   UNL     1      32.886 176.130 172.939  1.00  0.00     0.146 A 
ATOM     34  C   UNL     1      31.377 177.852 172.059  1.00  0.00     0.134 A 
ATOM     35  C   UNL     1      33.812 177.121 173.272  1.00  0.00     0.094 A 
ATOM     36  C   UNL     1      32.334 178.812 172.402  1.00  0.00     0.093 A 
ATOM     37  C   UNL     1      33.540 178.459 173.006  1.00  0.00     0.123 A 
BRANCH  28  38
ATOM     38  C   UNL     1      32.848 172.480 173.233  1.00  0.00     0.025 A 
ATOM     39  C   UNL     1      33.098 171.614 172.152  1.00  0.00     0.062 A 
ATOM     40  C   UNL     1      33.070 172.035 174.543  1.00  0.00     0.016 A 
ATOM     41  C   UNL     1      33.581 170.321 172.385  1.00  0.00     0.158 A 
ATOM     42  C   UNL     1      33.546 170.743 174.774  1.00  0.00     0.051 A 
ATOM     43  C   UNL     1      33.806 169.882 173.704  1.00  0.00     0.157 A 
BRANCH  41  44
ATOM     44  O   UNL     1      33.842 169.474 171.310  1.00  0.00    -0.504 OA
ATOM     45  H   UNL     1      34.778 169.128 171.123  1.00  0.00     0.293 HD
ENDBRANCH  41  44
BRANCH  43  46
ATOM     46  O   UNL     1      34.304 168.599 173.961  1.00  0.00    -0.504 OA
ATOM     47  H   UNL     1      34.694 168.030 173.228  1.00  0.00     0.293 HD
ENDBRANCH  43  46
ENDBRANCH  28  38
BRANCH  34  48
ATOM     48  O   UNL     1      30.189 178.340 171.498  1.00  0.00    -0.507 OA
ATOM     49  H   UNL     1      29.957 178.367 170.519  1.00  0.00     0.293 HD
ENDBRANCH  34  48
BRANCH  37  50
ATOM     50  O   UNL     1      34.483 179.430 173.337  1.00  0.00    -0.508 OA
ATOM     51  H   UNL     1      34.730 180.177 172.696  1.00  0.00     0.293 HD
ENDBRANCH  37  50
ENDBRANCH  26  27
ENDBRANCH   5  26
BRANCH   4  52
ATOM     52  O   UNL     1      27.713 174.159 173.147  1.00  0.00    -0.384 OA
ATOM     53  H   UNL     1      27.457 174.594 173.995  1.00  0.00     0.211 HD
ENDBRANCH   4  52
TORSDOF 16
ENDMDL
MODEL 4
REMARK VINA RESULT:    -4.320      2.408      4.670
REMARK INTER + INTRA:         -10.409
REMARK INTER:                  -6.993
REMARK INTRA:                  -3.416
REMARK UNBOUND:                -3.311
REMARK SMILES C[C@H]1O[C@@H](OC[C@H]2O[C@@H](Oc3c(-c4ccc(O)c(O)c4)oc4cc(O)cc(O)c4c3=O)[C@@H](O)[C@@H](O)[C@H]2O)[C@@H](O)[C@@H](O)[C@H]1O
REMARK SMILES IDX 7 1 36 2 34 3 32 4 9 5 8 6 6 7 5 8 4 9 1 10 2 11 42 12 3 13
REMARK SMILES IDX 40 14 38 15 43 16 41 18 39 20 37 22 35 24 10 26 11 27 12 28
REMARK SMILES IDX 30 29 21 30 29 31 31 32 22 33 27 34 23 35 26 36 24 37 13 38
REMARK SMILES IDX 20 39 14 40 18 41 15 42 16 43 19 44 17 46 28 48 25 50 33 52
REMARK H PARENT 43 17 41 19 39 21 37 23 35 25 19 45 17 47 28 49 25 51 33 53
REMARK Flexibility Score: inf
ROOT
ATOM      1  C   UNL     1      29.925 167.703 169.911  1.00  0.00     0.180 C 
ATOM      2  C   UNL     1      31.419 167.256 170.015  1.00  0.00     0.177 C 
ATOM      3  C   UNL     1      31.445 165.728 169.936  1.00  0.00     0.180 C 
ATOM      4  C   UNL     1      30.836 165.227 168.590  1.00  0.00     0.214 C 
ATOM      5  C   UNL     1      29.799 166.243 168.022  1.00  0.00     0.339 C 
ATOM      6  O   UNL     1      29.096 166.894 169.067  1.00  0.00    -0.332 OA
ENDROOT
BRANCH   1   7
ATOM      7  C   UNL     1      29.722 169.207 169.597  1.00  0.00     0.198 C 
BRANCH   7   8
ATOM      8  O   UNL     1      28.857 169.796 170.558  1.00  0.00    -0.347 OA
BRANCH   8   9
ATOM      9  C   UNL     1      29.483 170.859 171.270  1.00  0.00     0.281 C 
ATOM     10  C   UNL     1      28.727 168.406 173.075  1.00  0.00     0.041 C 
ATOM     11  C   UNL     1      29.023 169.871 173.398  1.00  0.00     0.150 C 
ATOM     12  C   UNL     1      27.769 170.775 173.610  1.00  0.00     0.174 C 
ATOM     13  O   UNL     1      30.005 170.407 172.513  1.00  0.00    -0.344 OA
ATOM     14  C   UNL     1      27.280 171.483 172.331  1.00  0.00     0.179 C 
ATOM     15  C   UNL     1      28.480 171.994 171.520  1.00  0.00     0.202 C 
BRANCH  12  16
ATOM     16  O   UNL     1      26.718 170.025 174.181  1.00  0.00    -0.388 OA
ATOM     17  H   UNL     1      26.434 170.509 175.005  1.00  0.00     0.211 HD
ENDBRANCH  12  16
BRANCH  14  18
ATOM     18  O   UNL     1      26.482 170.593 171.573  1.00  0.00    -0.387 OA
ATOM     19  H   UNL     1      26.643 169.692 171.943  1.00  0.00     0.211 HD
ENDBRANCH  14  18
BRANCH  15  20
ATOM     20  O   UNL     1      28.079 172.616 170.324  1.00  0.00    -0.385 OA
ATOM     21  H   UNL     1      27.353 173.264 170.538  1.00  0.00     0.211 HD
ENDBRANCH  15  20
ENDBRANCH   8   9
ENDBRANCH   7   8
ENDBRANCH   1   7
BRANCH   2  22
ATOM     22  O   UNL     1      32.204 167.823 168.996  1.00  0.00    -0.387 OA
ATOM     23  H   UNL     1      32.895 168.382 169.444  1.00  0.00     0.211 HD
ENDBRANCH   2  22
BRANCH   3  24
ATOM     24  O   UNL     1      32.722 165.222 170.252  1.00  0.00    -0.387 OA
ATOM     25  H   UNL     1      33.401 165.951 170.207  1.00  0.00     0.211 HD
ENDBRANCH   3  24
BRANCH   5  26
ATOM     26  O   UNL     1      30.372 167.225 167.140  1.00  0.00    -0.454 OA
BRANCH  26  27
ATOM     27  C   UNL     1      30.042 167.380 165.781  1.00  0.00     0.214 A 
ATOM     28  C   UNL     1      28.917 168.112 165.347  1.00  0.00     0.180 A 
ATOM     29  C   UNL     1      30.877 166.797 164.819  1.00  0.00     0.239 A 
ATOM     30  O   UNL     1      28.584 168.110 164.060  1.00  0.00    -0.452 OA
ATOM     31  C   UNL     1      30.492 166.795 163.454  1.00  0.00     0.111 A 
ATOM     32  O   UNL     1      31.957 166.276 165.212  1.00  0.00    -0.285 OA
ATOM     33  C   UNL     1      29.296 167.491 163.123  1.00  0.00     0.146 A 
ATOM     34  C   UNL     1      31.208 166.132 162.406  1.00  0.00     0.134 A 
ATOM     35  C   UNL     1      28.840 167.533 161.803  1.00  0.00     0.094 A 
ATOM     36  C   UNL     1      30.720 166.204 161.098  1.00  0.00     0.093 A 
ATOM     37  C   UNL     1      29.547 166.892 160.791  1.00  0.00     0.123 A 
BRANCH  28  38
ATOM     38  C   UNL     1      28.099 168.917 166.277  1.00  0.00     0.025 A 
ATOM     39  C   UNL     1      28.391 170.283 166.445  1.00  0.00     0.062 A 
ATOM     40  C   UNL     1      27.035 168.343 166.984  1.00  0.00     0.016 A 
ATOM     41  C   UNL     1      27.611 171.067 167.304  1.00  0.00     0.158 A 
ATOM     42  C   UNL     1      26.262 169.125 167.845  1.00  0.00     0.051 A 
ATOM     43  C   UNL     1      26.540 170.485 168.008  1.00  0.00     0.157 A 
BRANCH  41  44
ATOM     44  O   UNL     1      27.895 172.423 167.453  1.00  0.00    -0.504 OA
ATOM     45  H   UNL     1      28.749 172.829 167.085  1.00  0.00     0.293 HD
ENDBRANCH  41  44
BRANCH  43  46
ATOM     46  O   UNL     1      25.736 171.252 168.859  1.00  0.00    -0.504 OA
ATOM     47  H   UNL     1      26.101 172.057 169.342  1.00  0.00     0.293 HD
ENDBRANCH  43  46
ENDBRANCH  28  38
BRANCH  34  48
ATOM     48  O   UNL     1      32.373 165.374 162.588  1.00  0.00    -0.507 OA
ATOM     49  H   UNL     1      33.299 165.731 162.757  1.00  0.00     0.293 HD
ENDBRANCH  34  48
BRANCH  37  50
ATOM     50  O   UNL     1      29.079 166.957 159.481  1.00  0.00    -0.508 OA
ATOM     51  H   UNL     1      28.103 167.136 159.268  1.00  0.00     0.293 HD
ENDBRANCH  37  50
ENDBRANCH  26  27
ENDBRANCH   5  26
BRANCH   4  52
ATOM     52  O   UNL     1      31.796 164.890 167.615  1.00  0.00    -0.384 OA
ATOM     53  H   UNL     1      32.680 164.988 168.042  1.00  0.00     0.211 HD
ENDBRANCH   4  52
TORSDOF 16
ENDMDL
MODEL 5
REMARK VINA RESULT:    -4.263      6.344     10.379
REMARK INTER + INTRA:         -10.316
REMARK INTER:                  -7.195
REMARK INTRA:                  -3.121
REMARK UNBOUND:                -3.311
REMARK SMILES C[C@H]1O[C@@H](OC[C@H]2O[C@@H](Oc3c(-c4ccc(O)c(O)c4)oc4cc(O)cc(O)c4c3=O)[C@@H](O)[C@@H](O)[C@H]2O)[C@@H](O)[C@@H](O)[C@H]1O
REMARK SMILES IDX 7 1 36 2 34 3 32 4 9 5 8 6 6 7 5 8 4 9 1 10 2 11 42 12 3 13
REMARK SMILES IDX 40 14 38 15 43 16 41 18 39 20 37 22 35 24 10 26 11 27 12 28
REMARK SMILES IDX 30 29 21 30 29 31 31 32 22 33 27 34 23 35 26 36 24 37 13 38
REMARK SMILES IDX 20 39 14 40 18 41 15 42 16 43 19 44 17 46 28 48 25 50 33 52
REMARK H PARENT 43 17 41 19 39 21 37 23 35 25 19 45 17 47 28 49 25 51 33 53
REMARK Flexibility Score: inf
ROOT
ATOM      1  C   UNL     1      28.184 174.430 172.085  1.00  0.00     0.180 C 
ATOM      2  C   UNL     1      27.748 175.076 170.731  1.00  0.00     0.177 C 
ATOM      3  C   UNL     1      26.977 176.356 171.062  1.00  0.00     0.180 C 
ATOM      4  C   UNL     1      27.870 177.355 171.861  1.00  0.00     0.214 C 
ATOM      5  C   UNL     1      28.972 176.610 172.673  1.00  0.00     0.339 C 
ATOM      6  O   UNL     1      28.505 175.353 173.134  1.00  0.00    -0.332 OA
ENDROOT
BRANCH   1   7
ATOM      7  C   UNL     1      29.283 173.343 171.957  1.00  0.00     0.198 C 
BRANCH   7   8
ATOM      8  O   UNL     1      28.720 172.053 172.145  1.00  0.00    -0.347 OA
BRANCH   8   9
ATOM      9  C   UNL     1      28.587 171.338 170.921  1.00  0.00     0.281 C 
ATOM     10  C   UNL     1      26.148 170.975 172.862  1.00  0.00     0.041 C 
ATOM     11  C   UNL     1      26.655 170.150 171.678  1.00  0.00     0.150 C 
ATOM     12  C   UNL     1      27.504 168.895 172.053  1.00  0.00     0.174 C 
ATOM     13  O   UNL     1      27.231 170.985 170.675  1.00  0.00    -0.344 OA
ATOM     14  C   UNL     1      29.021 169.157 172.116  1.00  0.00     0.179 C 
ATOM     15  C   UNL     1      29.447 170.066 170.953  1.00  0.00     0.202 C 
BRANCH  12  16
ATOM     16  O   UNL     1      27.054 168.351 173.276  1.00  0.00    -0.388 OA
ATOM     17  H   UNL     1      26.089 168.132 173.156  1.00  0.00     0.211 HD
ENDBRANCH  12  16
BRANCH  14  18
ATOM     18  O   UNL     1      29.352 169.727 173.368  1.00  0.00    -0.387 OA
ATOM     19  H   UNL     1      29.928 169.071 173.828  1.00  0.00     0.211 HD
ENDBRANCH  14  18
BRANCH  15  20
ATOM     20  O   UNL     1      30.822 170.361 170.993  1.00  0.00    -0.385 OA
ATOM     21  H   UNL     1      30.998 171.111 170.361  1.00  0.00     0.211 HD
ENDBRANCH  15  20
ENDBRANCH   8   9
ENDBRANCH   7   8
ENDBRANCH   1   7
BRANCH   2  22
ATOM     22  O   UNL     1      28.853 175.356 169.908  1.00  0.00    -0.387 OA
ATOM     23  H   UNL     1      28.553 175.220 168.969  1.00  0.00     0.211 HD
ENDBRANCH   2  22
BRANCH   3  24
ATOM     24  O   UNL     1      26.347 176.884 169.917  1.00  0.00    -0.387 OA
ATOM     25  H   UNL     1      27.032 177.174 169.252  1.00  0.00     0.211 HD
ENDBRANCH   3  24
BRANCH   5  26
ATOM     26  O   UNL     1      30.204 176.432 171.951  1.00  0.00    -0.454 OA
BRANCH  26  27
ATOM     27  C   UNL     1      31.450 176.959 172.339  1.00  0.00     0.214 A 
ATOM     28  C   UNL     1      32.333 176.276 173.201  1.00  0.00     0.180 A 
ATOM     29  C   UNL     1      31.836 178.207 171.834  1.00  0.00     0.239 A 
ATOM     30  O   UNL     1      33.433 176.882 173.636  1.00  0.00    -0.452 OA
ATOM     31  C   UNL     1      33.005 178.840 172.325  1.00  0.00     0.111 A 
ATOM     32  O   UNL     1      31.107 178.737 170.950  1.00  0.00    -0.285 OA
ATOM     33  C   UNL     1      33.791 178.104 173.255  1.00  0.00     0.146 A 
ATOM     34  C   UNL     1      33.431 180.159 171.966  1.00  0.00     0.134 A 
ATOM     35  C   UNL     1      34.956 178.656 173.795  1.00  0.00     0.094 A 
ATOM     36  C   UNL     1      34.605 180.671 172.524  1.00  0.00     0.093 A 
ATOM     37  C   UNL     1      35.364 179.936 173.433  1.00  0.00     0.123 A 
BRANCH  28  38
ATOM     38  C   UNL     1      32.095 174.880 173.622  1.00  0.00     0.025 A 
ATOM     39  C   UNL     1      32.692 173.831 172.898  1.00  0.00     0.062 A 
ATOM     40  C   UNL     1      31.293 174.588 174.733  1.00  0.00     0.016 A 
ATOM     41  C   UNL     1      32.497 172.503 173.297  1.00  0.00     0.158 A 
ATOM     42  C   UNL     1      31.094 173.262 175.125  1.00  0.00     0.051 A 
ATOM     43  C   UNL     1      31.694 172.217 174.417  1.00  0.00     0.157 A 
BRANCH  41  44
ATOM     44  O   UNL     1      33.105 171.470 172.586  1.00  0.00    -0.504 OA
ATOM     45  H   UNL     1      32.560 170.816 172.034  1.00  0.00     0.293 HD
ENDBRANCH  41  44
BRANCH  43  46
ATOM     46  O   UNL     1      31.498 170.898 174.844  1.00  0.00    -0.504 OA
ATOM     47  H   UNL     1      31.568 170.123 174.206  1.00  0.00     0.293 HD
ENDBRANCH  43  46
ENDBRANCH  28  38
BRANCH  34  48
ATOM     48  O   UNL     1      32.737 181.015 171.099  1.00  0.00    -0.507 OA
ATOM     49  H   UNL     1      31.746 181.190 171.096  1.00  0.00     0.293 HD
ENDBRANCH  34  48
BRANCH  37  50
ATOM     50  O   UNL     1      36.535 180.461 173.976  1.00  0.00    -0.508 OA
ATOM     51  H   UNL     1      36.521 181.232 174.635  1.00  0.00     0.293 HD
ENDBRANCH  37  50
ENDBRANCH  26  27
ENDBRANCH   5  26
BRANCH   4  52
ATOM     52  O   UNL     1      28.432 178.380 171.074  1.00  0.00    -0.384 OA
ATOM     53  H   UNL     1      29.354 178.101 170.862  1.00  0.00     0.211 HD
ENDBRANCH   4  52
TORSDOF 16
ENDMDL
MODEL 6
REMARK VINA RESULT:    -4.254      1.983      2.678
REMARK INTER + INTRA:         -10.301
REMARK INTER:                  -8.267
REMARK INTRA:                  -2.034
REMARK UNBOUND:                -3.311
REMARK SMILES C[C@H]1O[C@@H](OC[C@H]2O[C@@H](Oc3c(-c4ccc(O)c(O)c4)oc4cc(O)cc(O)c4c3=O)[C@@H](O)[C@@H](O)[C@H]2O)[C@@H](O)[C@@H](O)[C@H]1O
REMARK SMILES IDX 7 1 36 2 34 3 32 4 9 5 8 6 6 7 5 8 4 9 1 10 2 11 42 12 3 13
REMARK SMILES IDX 40 14 38 15 43 16 41 18 39 20 37 22 35 24 10 26 11 27 12 28
REMARK SMILES IDX 30 29 21 30 29 31 31 32 22 33 27 34 23 35 26 36 24 37 13 38
REMARK SMILES IDX 20 39 14 40 18 41 15 42 16 43 19 44 17 46 28 48 25 50 33 52
REMARK H PARENT 43 17 41 19 39 21 37 23 35 25 19 45 17 47 28 49 25 51 33 53
REMARK Flexibility Score: inf
ROOT
ATOM      1  C   UNL     1      29.748 168.136 170.420  1.00  0.00     0.180 C 
ATOM      2  C   UNL     1      30.292 167.086 169.399  1.00  0.00     0.177 C 
ATOM      3  C   UNL     1      29.131 166.157 169.037  1.00  0.00     0.180 C 
ATOM      4  C   UNL     1      27.954 166.956 168.397  1.00  0.00     0.214 C 
ATOM      5  C   UNL     1      27.939 168.437 168.886  1.00  0.00     0.339 C 
ATOM      6  O   UNL     1      28.385 168.536 170.229  1.00  0.00    -0.332 OA
ENDROOT
BRANCH   1   7
ATOM      7  C   UNL     1      30.659 169.375 170.618  1.00  0.00     0.198 C 
BRANCH   7   8
ATOM      8  O   UNL     1      32.005 168.968 170.819  1.00  0.00    -0.347 OA
BRANCH   8   9
ATOM      9  C   UNL     1      32.185 168.288 172.056  1.00  0.00     0.281 C 
ATOM     10  C   UNL     1      33.293 171.225 172.059  1.00  0.00     0.041 C 
ATOM     11  C   UNL     1      33.586 170.012 172.943  1.00  0.00     0.150 C 
ATOM     12  C   UNL     1      34.882 169.221 172.583  1.00  0.00     0.174 C 
ATOM     13  O   UNL     1      32.422 169.205 173.117  1.00  0.00    -0.344 OA
ATOM     14  C   UNL     1      34.657 168.055 171.600  1.00  0.00     0.179 C 
ATOM     15  C   UNL     1      33.364 167.308 171.958  1.00  0.00     0.202 C 
BRANCH  12  16
ATOM     16  O   UNL     1      35.864 170.100 172.076  1.00  0.00    -0.388 OA
ATOM     17  H   UNL     1      36.459 170.338 172.840  1.00  0.00     0.211 HD
ENDBRANCH  12  16
BRANCH  14  18
ATOM     18  O   UNL     1      34.620 168.553 170.276  1.00  0.00    -0.387 OA
ATOM     19  H   UNL     1      35.334 168.083 169.783  1.00  0.00     0.211 HD
ENDBRANCH  14  18
BRANCH  15  20
ATOM     20  O   UNL     1      33.100 166.256 171.062  1.00  0.00    -0.385 OA
ATOM     21  H   UNL     1      33.670 165.479 171.317  1.00  0.00     0.211 HD
ENDBRANCH  15  20
ENDBRANCH   8   9
ENDBRANCH   7   8
ENDBRANCH   1   7
BRANCH   2  22
ATOM     22  O   UNL     1      30.817 167.701 168.250  1.00  0.00    -0.387 OA
ATOM     23  H   UNL     1      31.395 168.449 168.563  1.00  0.00     0.211 HD
ENDBRANCH   2  22
BRANCH   3  24
ATOM     24  O   UNL     1      29.579 165.041 168.302  1.00  0.00    -0.387 OA
ATOM     25  H   UNL     1      29.933 165.333 167.416  1.00  0.00     0.211 HD
ENDBRANCH   3  24
BRANCH   5  26
ATOM     26  O   UNL     1      28.704 169.330 168.056  1.00  0.00    -0.454 OA
BRANCH  26  27
ATOM     27  C   UNL     1      28.211 169.995 166.918  1.00  0.00     0.214 A 
ATOM     28  C   UNL     1      27.343 171.104 166.997  1.00  0.00     0.180 A 
ATOM     29  C   UNL     1      28.613 169.545 165.653  1.00  0.00     0.239 A 
ATOM     30  O   UNL     1      26.807 171.604 165.889  1.00  0.00    -0.452 OA
ATOM     31  C   UNL     1      28.015 170.084 164.486  1.00  0.00     0.111 A 
ATOM     32  O   UNL     1      29.503 168.652 165.600  1.00  0.00    -0.285 OA
ATOM     33  C   UNL     1      27.088 171.147 164.672  1.00  0.00     0.146 A 
ATOM     34  C   UNL     1      28.265 169.622 163.154  1.00  0.00     0.134 A 
ATOM     35  C   UNL     1      26.447 171.731 163.577  1.00  0.00     0.094 A 
ATOM     36  C   UNL     1      27.607 170.238 162.086  1.00  0.00     0.093 A 
ATOM     37  C   UNL     1      26.703 171.280 162.286  1.00  0.00     0.123 A 
BRANCH  28  38
ATOM     38  C   UNL     1      27.025 171.760 168.282  1.00  0.00     0.025 A 
ATOM     39  C   UNL     1      27.798 172.858 168.704  1.00  0.00     0.062 A 
ATOM     40  C   UNL     1      25.964 171.312 169.079  1.00  0.00     0.016 A 
ATOM     41  C   UNL     1      27.496 173.508 169.906  1.00  0.00     0.158 A 
ATOM     42  C   UNL     1      25.669 171.958 170.282  1.00  0.00     0.051 A 
ATOM     43  C   UNL     1      26.425 173.056 170.700  1.00  0.00     0.157 A 
BRANCH  41  44
ATOM     44  O   UNL     1      28.254 174.606 170.310  1.00  0.00    -0.504 OA
ATOM     45  H   UNL     1      27.899 175.276 170.983  1.00  0.00     0.293 HD
ENDBRANCH  41  44
BRANCH  43  46
ATOM     46  O   UNL     1      26.095 173.700 171.898  1.00  0.00    -0.504 OA
ATOM     47  H   UNL     1      26.134 173.218 172.782  1.00  0.00     0.293 HD
ENDBRANCH  43  46
ENDBRANCH  28  38
BRANCH  34  48
ATOM     48  O   UNL     1      29.116 168.558 162.823  1.00  0.00    -0.507 OA
ATOM     49  H   UNL     1      30.115 168.603 162.714  1.00  0.00     0.293 HD
ENDBRANCH  34  48
BRANCH  37  50
ATOM     50  O   UNL     1      26.060 171.884 161.208  1.00  0.00    -0.508 OA
ATOM     51  H   UNL     1      25.063 172.073 161.216  1.00  0.00     0.293 HD
ENDBRANCH  37  50
ENDBRANCH  26  27
ENDBRANCH   5  26
BRANCH   4  52
ATOM     52  O   UNL     1      27.913 166.892 166.990  1.00  0.00    -0.384 OA
ATOM     53  H   UNL     1      28.742 166.439 166.703  1.00  0.00     0.211 HD
ENDBRANCH   4  52
TORSDOF 16
ENDMDL
MODEL 7
REMARK VINA RESULT:    -4.232      3.010      8.041
REMARK INTER + INTRA:         -10.264
REMARK INTER:                  -7.786
REMARK INTRA:                  -2.478
REMARK UNBOUND:                -3.311
REMARK SMILES C[C@H]1O[C@@H](OC[C@H]2O[C@@H](Oc3c(-c4ccc(O)c(O)c4)oc4cc(O)cc(O)c4c3=O)[C@@H](O)[C@@H](O)[C@H]2O)[C@@H](O)[C@@H](O)[C@H]1O
REMARK SMILES IDX 7 1 36 2 34 3 32 4 9 5 8 6 6 7 5 8 4 9 1 10 2 11 42 12 3 13
REMARK SMILES IDX 40 14 38 15 43 16 41 18 39 20 37 22 35 24 10 26 11 27 12 28
REMARK SMILES IDX 30 29 21 30 29 31 31 32 22 33 27 34 23 35 26 36 24 37 13 38
REMARK SMILES IDX 20 39 14 40 18 41 15 42 16 43 19 44 17 46 28 48 25 50 33 52
REMARK H PARENT 43 17 41 19 39 21 37 23 35 25 19 45 17 47 28 49 25 51 33 53
REMARK Flexibility Score: inf
ROOT
ATOM      1  C   UNL     1      27.743 169.411 170.199  1.00  0.00     0.180 C 
ATOM      2  C   UNL     1      27.098 170.830 170.304  1.00  0.00     0.177 C 
ATOM      3  C   UNL     1      26.608 171.004 171.744  1.00  0.00     0.180 C 
ATOM      4  C   UNL     1      27.789 170.885 172.755  1.00  0.00     0.214 C 
ATOM      5  C   UNL     1      28.937 169.996 172.187  1.00  0.00     0.339 C 
ATOM      6  O   UNL     1      28.422 168.953 171.376  1.00  0.00    -0.332 OA
ENDROOT
BRANCH   1   7
ATOM      7  C   UNL     1      28.622 169.194 168.941  1.00  0.00     0.198 C 
BRANCH   7   8
ATOM      8  O   UNL     1      29.383 168.002 169.074  1.00  0.00    -0.347 OA
BRANCH   8   9
ATOM      9  C   UNL     1      29.045 167.031 168.089  1.00  0.00     0.281 C 
ATOM     10  C   UNL     1      29.763 165.794 170.883  1.00  0.00     0.041 C 
ATOM     11  C   UNL     1      29.732 165.205 169.472  1.00  0.00     0.150 C 
ATOM     12  C   UNL     1      31.116 165.111 168.756  1.00  0.00     0.174 C 
ATOM     13  O   UNL     1      28.692 165.791 168.689  1.00  0.00    -0.344 OA
ATOM     14  C   UNL     1      31.465 166.342 167.896  1.00  0.00     0.179 C 
ATOM     15  C   UNL     1      30.223 166.816 167.128  1.00  0.00     0.202 C 
BRANCH  12  16
ATOM     16  O   UNL     1      32.138 164.875 169.702  1.00  0.00    -0.388 OA
ATOM     17  H   UNL     1      31.726 164.984 170.604  1.00  0.00     0.211 HD
ENDBRANCH  12  16
BRANCH  14  18
ATOM     18  O   UNL     1      31.986 167.365 168.723  1.00  0.00    -0.387 OA
ATOM     19  H   UNL     1      31.558 168.204 168.430  1.00  0.00     0.211 HD
ENDBRANCH  14  18
BRANCH  15  20
ATOM     20  O   UNL     1      30.488 167.962 166.356  1.00  0.00    -0.385 OA
ATOM     21  H   UNL     1      29.618 168.382 166.113  1.00  0.00     0.211 HD
ENDBRANCH  15  20
ENDBRANCH   8   9
ENDBRANCH   7   8
ENDBRANCH   1   7
BRANCH   2  22
ATOM     22  O   UNL     1      28.009 171.843 169.961  1.00  0.00    -0.387 OA
ATOM     23  H   UNL     1      28.147 172.394 170.778  1.00  0.00     0.211 HD
ENDBRANCH   2  22
BRANCH   3  24
ATOM     24  O   UNL     1      25.808 172.157 171.876  1.00  0.00    -0.387 OA
ATOM     25  H   UNL     1      25.164 172.216 171.116  1.00  0.00     0.211 HD
ENDBRANCH   3  24
BRANCH   5  26
ATOM     26  O   UNL     1      29.932 170.732 171.453  1.00  0.00    -0.454 OA
BRANCH  26  27
ATOM     27  C   UNL     1      31.313 170.717 171.725  1.00  0.00     0.214 A 
ATOM     28  C   UNL     1      32.026 171.868 172.121  1.00  0.00     0.180 A 
ATOM     29  C   UNL     1      32.003 169.503 171.614  1.00  0.00     0.239 A 
ATOM     30  O   UNL     1      33.349 171.818 172.234  1.00  0.00    -0.452 OA
ATOM     31  C   UNL     1      33.416 169.479 171.723  1.00  0.00     0.111 A 
ATOM     32  O   UNL     1      31.328 168.456 171.406  1.00  0.00    -0.285 OA
ATOM     33  C   UNL     1      34.056 170.708 172.046  1.00  0.00     0.146 A 
ATOM     34  C   UNL     1      34.230 168.320 171.514  1.00  0.00     0.134 A 
ATOM     35  C   UNL     1      35.447 170.775 172.165  1.00  0.00     0.094 A 
ATOM     36  C   UNL     1      35.618 168.429 171.650  1.00  0.00     0.093 A 
ATOM     37  C   UNL     1      36.228 169.641 171.968  1.00  0.00     0.123 A 
BRANCH  28  38
ATOM     38  C   UNL     1      31.346 173.137 172.449  1.00  0.00     0.025 A 
ATOM     39  C   UNL     1      30.743 173.882 171.418  1.00  0.00     0.062 A 
ATOM     40  C   UNL     1      31.284 173.603 173.768  1.00  0.00     0.016 A 
ATOM     41  C   UNL     1      30.072 175.075 171.714  1.00  0.00     0.158 A 
ATOM     42  C   UNL     1      30.620 174.797 174.060  1.00  0.00     0.051 A 
ATOM     43  C   UNL     1      30.010 175.535 173.042  1.00  0.00     0.157 A 
BRANCH  41  44
ATOM     44  O   UNL     1      29.463 175.799 170.691  1.00  0.00    -0.504 OA
ATOM     45  H   UNL     1      28.474 175.699 170.487  1.00  0.00     0.293 HD
ENDBRANCH  41  44
BRANCH  43  46
ATOM     46  O   UNL     1      29.332 176.716 173.364  1.00  0.00    -0.504 OA
ATOM     47  H   UNL     1      29.760 177.619 173.240  1.00  0.00     0.293 HD
ENDBRANCH  43  46
ENDBRANCH  28  38
BRANCH  34  48
ATOM     48  O   UNL     1      33.745 167.056 171.150  1.00  0.00    -0.507 OA
ATOM     49  H   UNL     1      33.699 166.679 170.218  1.00  0.00     0.293 HD
ENDBRANCH  34  48
BRANCH  37  50
ATOM     50  O   UNL     1      37.612 169.730 172.103  1.00  0.00    -0.508 OA
ATOM     51  H   UNL     1      38.155 170.429 171.608  1.00  0.00     0.293 HD
ENDBRANCH  37  50
ENDBRANCH  26  27
ENDBRANCH   5  26
BRANCH   4  52
ATOM     52  O   UNL     1      28.288 172.123 173.204  1.00  0.00    -0.384 OA
ATOM     53  H   UNL     1      28.675 172.576 172.417  1.00  0.00     0.211 HD
ENDBRANCH   4  52
TORSDOF 16
ENDMDL
MODEL 8
REMARK VINA RESULT:    -4.104      4.497      7.493
REMARK INTER + INTRA:         -10.054
REMARK INTER:                  -6.687
REMARK INTRA:                  -3.367
REMARK UNBOUND:                -3.311
REMARK SMILES C[C@H]1O[C@@H](OC[C@H]2O[C@@H](Oc3c(-c4ccc(O)c(O)c4)oc4cc(O)cc(O)c4c3=O)[C@@H](O)[C@@H](O)[C@H]2O)[C@@H](O)[C@@H](O)[C@H]1O
REMARK SMILES IDX 7 1 36 2 34 3 32 4 9 5 8 6 6 7 5 8 4 9 1 10 2 11 42 12 3 13
REMARK SMILES IDX 40 14 38 15 43 16 41 18 39 20 37 22 35 24 10 26 11 27 12 28
REMARK SMILES IDX 30 29 21 30 29 31 31 32 22 33 27 34 23 35 26 36 24 37 13 38
REMARK SMILES IDX 20 39 14 40 18 41 15 42 16 43 19 44 17 46 28 48 25 50 33 52
REMARK H PARENT 43 17 41 19 39 21 37 23 35 25 19 45 17 47 28 49 25 51 33 53
REMARK Flexibility Score: inf
ROOT
ATOM      1  C   UNL     1      31.816 173.021 172.923  1.00  0.00     0.180 C 
ATOM      2  C   UNL     1      33.052 172.078 172.768  1.00  0.00     0.177 C 
ATOM      3  C   UNL     1      32.924 170.979 173.825  1.00  0.00     0.180 C 
ATOM      4  C   UNL     1      31.609 170.163 173.628  1.00  0.00     0.214 C 
ATOM      5  C   UNL     1      30.507 171.020 172.933  1.00  0.00     0.339 C 
ATOM      6  O   UNL     1      30.597 172.381 173.322  1.00  0.00    -0.332 OA
ENDROOT
BRANCH   1   7
ATOM      7  C   UNL     1      31.569 173.965 171.719  1.00  0.00     0.198 C 
BRANCH   7   8
ATOM      8  O   UNL     1      30.977 175.179 172.160  1.00  0.00    -0.347 OA
BRANCH   8   9
ATOM      9  C   UNL     1      31.920 176.047 172.778  1.00  0.00     0.281 C 
ATOM     10  C   UNL     1      29.410 175.439 174.561  1.00  0.00     0.041 C 
ATOM     11  C   UNL     1      30.447 176.563 174.590  1.00  0.00     0.150 C 
ATOM     12  C   UNL     1      30.001 177.900 173.920  1.00  0.00     0.174 C 
ATOM     13  O   UNL     1      31.732 176.091 174.187  1.00  0.00    -0.344 OA
ATOM     14  C   UNL     1      30.379 178.015 172.430  1.00  0.00     0.179 C 
ATOM     15  C   UNL     1      31.795 177.465 172.203  1.00  0.00     0.202 C 
BRANCH  12  16
ATOM     16  O   UNL     1      28.611 178.087 174.083  1.00  0.00    -0.388 OA
ATOM     17  H   UNL     1      28.291 177.356 174.681  1.00  0.00     0.211 HD
ENDBRANCH  12  16
BRANCH  14  18
ATOM     18  O   UNL     1      29.423 177.329 171.645  1.00  0.00    -0.387 OA
ATOM     19  H   UNL     1      28.596 177.866 171.682  1.00  0.00     0.211 HD
ENDBRANCH  14  18
BRANCH  15  20
ATOM     20  O   UNL     1      32.167 177.517 170.847  1.00  0.00    -0.385 OA
ATOM     21  H   UNL     1      32.205 176.584 170.498  1.00  0.00     0.211 HD
ENDBRANCH  15  20
ENDBRANCH   8   9
ENDBRANCH   7   8
ENDBRANCH   1   7
BRANCH   2  22
ATOM     22  O   UNL     1      33.126 171.525 171.478  1.00  0.00    -0.387 OA
ATOM     23  H   UNL     1      33.559 172.207 170.898  1.00  0.00     0.211 HD
ENDBRANCH   2  22
BRANCH   3  24
ATOM     24  O   UNL     1      34.106 170.216 173.914  1.00  0.00    -0.387 OA
ATOM     25  H   UNL     1      34.891 170.766 173.640  1.00  0.00     0.211 HD
ENDBRANCH   3  24
BRANCH   5  26
ATOM     26  O   UNL     1      30.518 170.926 171.497  1.00  0.00    -0.454 OA
BRANCH  26  27
ATOM     27  C   UNL     1      29.536 170.281 170.723  1.00  0.00     0.214 A 
ATOM     28  C   UNL     1      28.242 170.811 170.534  1.00  0.00     0.180 A 
ATOM     29  C   UNL     1      29.864 169.070 170.100  1.00  0.00     0.239 A 
ATOM     30  O   UNL     1      27.320 170.091 169.904  1.00  0.00    -0.452 OA
ATOM     31  C   UNL     1      28.859 168.313 169.448  1.00  0.00     0.111 A 
ATOM     32  O   UNL     1      31.065 168.684 170.153  1.00  0.00    -0.285 OA
ATOM     33  C   UNL     1      27.561 168.894 169.378  1.00  0.00     0.146 A 
ATOM     34  C   UNL     1      29.055 167.014 168.879  1.00  0.00     0.134 A 
ATOM     35  C   UNL     1      26.510 168.214 168.759  1.00  0.00     0.094 A 
ATOM     36  C   UNL     1      27.977 166.370 168.264  1.00  0.00     0.093 A 
ATOM     37  C   UNL     1      26.713 166.955 168.203  1.00  0.00     0.123 A 
BRANCH  28  38
ATOM     38  C   UNL     1      27.877 172.167 170.990  1.00  0.00     0.025 A 
ATOM     39  C   UNL     1      28.224 173.277 170.197  1.00  0.00     0.062 A 
ATOM     40  C   UNL     1      27.184 172.363 172.192  1.00  0.00     0.016 A 
ATOM     41  C   UNL     1      27.864 174.568 170.600  1.00  0.00     0.158 A 
ATOM     42  C   UNL     1      26.832 173.653 172.596  1.00  0.00     0.051 A 
ATOM     43  C   UNL     1      27.164 174.758 171.807  1.00  0.00     0.157 A 
BRANCH  41  44
ATOM     44  O   UNL     1      28.195 175.661 169.802  1.00  0.00    -0.504 OA
ATOM     45  H   UNL     1      28.840 176.376 170.123  1.00  0.00     0.293 HD
ENDBRANCH  41  44
BRANCH  43  46
ATOM     46  O   UNL     1      26.779 176.038 172.223  1.00  0.00    -0.504 OA
ATOM     47  H   UNL     1      26.334 176.189 173.113  1.00  0.00     0.293 HD
ENDBRANCH  43  46
ENDBRANCH  28  38
BRANCH  34  48
ATOM     48  O   UNL     1      30.261 166.301 168.911  1.00  0.00    -0.507 OA
ATOM     49  H   UNL     1      31.147 166.638 169.249  1.00  0.00     0.293 HD
ENDBRANCH  34  48
BRANCH  37  50
ATOM     50  O   UNL     1      25.653 166.300 167.581  1.00  0.00    -0.508 OA
ATOM     51  H   UNL     1      25.641 166.130 166.581  1.00  0.00     0.293 HD
ENDBRANCH  37  50
ENDBRANCH  26  27
ENDBRANCH   5  26
BRANCH   4  52
ATOM     52  O   UNL     1      31.789 168.937 172.958  1.00  0.00    -0.384 OA
ATOM     53  H   UNL     1      31.349 168.246 173.508  1.00  0.00     0.211 HD
ENDBRANCH   4  52
TORSDOF 16
ENDMDL
MODEL 9
REMARK VINA RESULT:    -4.075      2.399      3.755
REMARK INTER + INTRA:         -10.006
REMARK INTER:                  -7.351
REMARK INTRA:                  -2.655
REMARK UNBOUND:                -3.311
REMARK SMILES C[C@H]1O[C@@H](OC[C@H]2O[C@@H](Oc3c(-c4ccc(O)c(O)c4)oc4cc(O)cc(O)c4c3=O)[C@@H](O)[C@@H](O)[C@H]2O)[C@@H](O)[C@@H](O)[C@H]1O
REMARK SMILES IDX 7 1 36 2 34 3 32 4 9 5 8 6 6 7 5 8 4 9 1 10 2 11 42 12 3 13
REMARK SMILES IDX 40 14 38 15 43 16 41 18 39 20 37 22 35 24 10 26 11 27 12 28
REMARK SMILES IDX 30 29 21 30 29 31 31 32 22 33 27 34 23 35 26 36 24 37 13 38
REMARK SMILES IDX 20 39 14 40 18 41 15 42 16 43 19 44 17 46 28 48 25 50 33 52
REMARK H PARENT 43 17 41 19 39 21 37 23 35 25 19 45 17 47 28 49 25 51 33 53
REMARK Flexibility Score: inf
ROOT
ATOM      1  C   UNL     1      31.294 168.056 171.670  1.00  0.00     0.180 C 
ATOM      2  C   UNL     1      32.686 167.441 171.316  1.00  0.00     0.177 C 
ATOM      3  C   UNL     1      32.521 165.919 171.296  1.00  0.00     0.180 C 
ATOM      4  C   UNL     1      31.466 165.485 170.232  1.00  0.00     0.214 C 
ATOM      5  C   UNL     1      30.418 166.611 169.978  1.00  0.00     0.339 C 
ATOM      6  O   UNL     1      30.157 167.344 171.163  1.00  0.00    -0.332 OA
ENDROOT
BRANCH   1   7
ATOM      7  C   UNL     1      31.165 169.572 171.374  1.00  0.00     0.198 C 
BRANCH   7   8
ATOM      8  O   UNL     1      32.197 170.290 172.036  1.00  0.00    -0.347 OA
BRANCH   8   9
ATOM      9  C   UNL     1      32.043 170.279 173.451  1.00  0.00     0.281 C 
ATOM     10  C   UNL     1      31.507 173.083 172.148  1.00  0.00     0.041 C 
ATOM     11  C   UNL     1      31.854 172.659 173.576  1.00  0.00     0.150 C 
ATOM     12  C   UNL     1      33.356 172.813 173.972  1.00  0.00     0.174 C 
ATOM     13  O   UNL     1      31.278 171.393 173.894  1.00  0.00    -0.344 OA
ATOM     14  C   UNL     1      34.205 171.551 173.725  1.00  0.00     0.179 C 
ATOM     15  C   UNL     1      33.417 170.299 174.136  1.00  0.00     0.202 C 
BRANCH  12  16
ATOM     16  O   UNL     1      33.925 173.919 173.302  1.00  0.00    -0.388 OA
ATOM     17  H   UNL     1      34.538 174.364 173.950  1.00  0.00     0.211 HD
ENDBRANCH  12  16
BRANCH  14  18
ATOM     18  O   UNL     1      34.592 171.499 172.365  1.00  0.00    -0.387 OA
ATOM     19  H   UNL     1      34.451 170.567 172.072  1.00  0.00     0.211 HD
ENDBRANCH  14  18
BRANCH  15  20
ATOM     20  O   UNL     1      34.143 169.118 173.893  1.00  0.00    -0.385 OA
ATOM     21  H   UNL     1      34.195 168.604 174.745  1.00  0.00     0.211 HD
ENDBRANCH  15  20
ENDBRANCH   8   9
ENDBRANCH   7   8
ENDBRANCH   1   7
BRANCH   2  22
ATOM     22  O   UNL     1      33.163 167.909 170.080  1.00  0.00    -0.387 OA
ATOM     23  H   UNL     1      33.144 168.902 170.122  1.00  0.00     0.211 HD
ENDBRANCH   2  22
BRANCH   3  24
ATOM     24  O   UNL     1      33.770 165.271 171.214  1.00  0.00    -0.387 OA
ATOM     25  H   UNL     1      33.823 164.542 171.893  1.00  0.00     0.211 HD
ENDBRANCH   3  24
BRANCH   5  26
ATOM     26  O   UNL     1      30.784 167.517 168.921  1.00  0.00    -0.454 OA
BRANCH  26  27
ATOM     27  C   UNL     1      30.150 167.592 167.667  1.00  0.00     0.214 A 
ATOM     28  C   UNL     1      28.861 168.140 167.494  1.00  0.00     0.180 A 
ATOM     29  C   UNL     1      30.835 167.119 166.541  1.00  0.00     0.239 A 
ATOM     30  O   UNL     1      28.264 168.062 166.310  1.00  0.00    -0.452 OA
ATOM     31  C   UNL     1      30.171 167.031 165.291  1.00  0.00     0.111 A 
ATOM     32  O   UNL     1      32.041 166.772 166.685  1.00  0.00    -0.285 OA
ATOM     33  C   UNL     1      28.841 167.535 165.235  1.00  0.00     0.146 A 
ATOM     34  C   UNL     1      30.735 166.459 164.106  1.00  0.00     0.134 A 
ATOM     35  C   UNL     1      28.111 167.480 164.045  1.00  0.00     0.094 A 
ATOM     36  C   UNL     1      29.972 166.430 162.935  1.00  0.00     0.093 A 
ATOM     37  C   UNL     1      28.672 166.930 162.897  1.00  0.00     0.123 A 
BRANCH  28  38
ATOM     38  C   UNL     1      28.152 168.834 168.588  1.00  0.00     0.025 A 
ATOM     39  C   UNL     1      28.522 170.150 168.923  1.00  0.00     0.062 A 
ATOM     40  C   UNL     1      27.113 168.206 169.287  1.00  0.00     0.016 A 
ATOM     41  C   UNL     1      27.845 170.832 169.941  1.00  0.00     0.158 A 
ATOM     42  C   UNL     1      26.442 168.887 170.306  1.00  0.00     0.051 A 
ATOM     43  C   UNL     1      26.798 170.197 170.636  1.00  0.00     0.157 A 
BRANCH  41  44
ATOM     44  O   UNL     1      28.205 172.141 170.256  1.00  0.00    -0.504 OA
ATOM     45  H   UNL     1      28.967 172.610 169.778  1.00  0.00     0.293 HD
ENDBRANCH  41  44
BRANCH  43  46
ATOM     46  O   UNL     1      26.096 170.865 171.646  1.00  0.00    -0.504 OA
ATOM     47  H   UNL     1      25.238 171.355 171.453  1.00  0.00     0.293 HD
ENDBRANCH  43  46
ENDBRANCH  28  38
BRANCH  34  48
ATOM     48  O   UNL     1      32.012 165.886 164.024  1.00  0.00    -0.507 OA
ATOM     49  H   UNL     1      32.789 166.231 163.486  1.00  0.00     0.293 HD
ENDBRANCH  34  48
BRANCH  37  50
ATOM     50  O   UNL     1      27.928 166.896 161.719  1.00  0.00    -0.508 OA
ATOM     51  H   UNL     1      27.816 167.717 161.133  1.00  0.00     0.293 HD
ENDBRANCH  37  50
ENDBRANCH  26  27
ENDBRANCH   5  26
BRANCH   4  52
ATOM     52  O   UNL     1      32.024 165.036 169.019  1.00  0.00    -0.384 OA
ATOM     53  H   UNL     1      31.285 164.651 168.491  1.00  0.00     0.211 HD
ENDBRANCH   4  52
TORSDOF 16
ENDMDL
