MODEL 1
REMARK VINA RESULT:    -8.044      0.000      0.000
REMARK INTER + INTRA:          -9.719
REMARK INTER:                  -9.455
REMARK INTRA:                  -0.264
REMARK UNBOUND:                -0.264
REMARK SMILES O=c1cc(-c2ccc(O)c(O)c2)oc2cc(O)cc(O)c12
REMARK SMILES IDX 4 1 3 2 2 3 1 4 21 5 19 6 18 7 16 8 15 9 14 10 13 11 5 12
REMARK SMILES IDX 6 13 7 14 8 15 12 16 10 17 9 18 11 20 20 22 17 24
REMARK H PARENT 9 19 11 21 20 23 17 25
REMARK Flexibility Score: inf
ROOT
ATOM      1  C   UNL     1     -32.725  24.850   2.454  1.00  0.00     0.138 A 
ATOM      2  C   UNL     1     -32.158  25.212   3.683  1.00  0.00     0.100 A 
ATOM      3  C   UNL     1     -30.843  25.679   3.726  1.00  0.00     0.197 A 
ATOM      4  O   UNL     1     -30.341  25.937   4.851  1.00  0.00    -0.289 OA
ATOM      5  C   UNL     1     -30.104  25.810   2.527  1.00  0.00     0.107 A 
ATOM      6  C   UNL     1     -28.771  26.313   2.445  1.00  0.00     0.134 A 
ATOM      7  C   UNL     1     -28.098  26.288   1.216  1.00  0.00     0.093 A 
ATOM      8  C   UNL     1     -28.730  25.838   0.058  1.00  0.00     0.123 A 
ATOM      9  C   UNL     1     -30.052  25.395   0.116  1.00  0.00     0.094 A 
ATOM     10  C   UNL     1     -30.738  25.374   1.332  1.00  0.00     0.146 A 
ATOM     11  O   UNL     1     -31.991  24.932   1.349  1.00  0.00    -0.456 OA
ENDROOT
BRANCH   1  12
ATOM     12  C   UNL     1     -34.119  24.350   2.351  1.00  0.00     0.021 A 
ATOM     13  C   UNL     1     -35.166  25.262   2.138  1.00  0.00     0.016 A 
ATOM     14  C   UNL     1     -36.485  24.817   2.044  1.00  0.00     0.051 A 
ATOM     15  C   UNL     1     -36.792  23.459   2.171  1.00  0.00     0.157 A 
ATOM     16  C   UNL     1     -34.428  22.985   2.493  1.00  0.00     0.062 A 
ATOM     17  C   UNL     1     -35.751  22.531   2.404  1.00  0.00     0.158 A 
BRANCH  15  18
ATOM     18  O   UNL     1     -38.132  23.079   2.062  1.00  0.00    -0.504 OA
ATOM     19  H   UNL     1     -38.644  22.603   2.790  1.00  0.00     0.293 HD
ENDBRANCH  15  18
BRANCH  17  20
ATOM     20  O   UNL     1     -35.981  21.162   2.556  1.00  0.00    -0.504 OA
ATOM     21  H   UNL     1     -35.263  20.456   2.479  1.00  0.00     0.293 HD
ENDBRANCH  17  20
ENDBRANCH   1  12
BRANCH   6  22
ATOM     22  O   UNL     1     -28.075  26.865   3.525  1.00  0.00    -0.507 OA
ATOM     23  H   UNL     1     -28.420  27.608   4.112  1.00  0.00     0.293 HD
ENDBRANCH   6  22
BRANCH   8  24
ATOM     24  O   UNL     1     -28.034  25.842  -1.150  1.00  0.00    -0.508 OA
ATOM     25  H   UNL     1     -27.169  26.359  -1.262  1.00  0.00     0.293 HD
ENDBRANCH   8  24
TORSDOF 5
ENDMDL
MODEL 2
REMARK VINA RESULT:    -7.869      2.063      7.170
REMARK INTER + INTRA:          -9.513
REMARK INTER:                  -9.195
REMARK INTRA:                  -0.318
REMARK UNBOUND:                -0.264
REMARK SMILES O=c1cc(-c2ccc(O)c(O)c2)oc2cc(O)cc(O)c12
REMARK SMILES IDX 4 1 3 2 2 3 1 4 21 5 19 6 18 7 16 8 15 9 14 10 13 11 5 12
REMARK SMILES IDX 6 13 7 14 8 15 12 16 10 17 9 18 11 20 20 22 17 24
REMARK H PARENT 9 19 11 21 20 23 17 25
REMARK Flexibility Score: inf
ROOT
ATOM      1  C   UNL     1     -29.846  25.909   1.820  1.00  0.00     0.138 A 
ATOM      2  C   UNL     1     -30.377  26.197   3.084  1.00  0.00     0.100 A 
ATOM      3  C   UNL     1     -31.674  25.787   3.398  1.00  0.00     0.197 A 
ATOM      4  O   UNL     1     -32.146  26.115   4.518  1.00  0.00    -0.289 OA
ATOM      5  C   UNL     1     -32.430  25.058   2.450  1.00  0.00     0.107 A 
ATOM      6  C   UNL     1     -33.746  24.555   2.674  1.00  0.00     0.134 A 
ATOM      7  C   UNL     1     -34.441  23.947   1.621  1.00  0.00     0.093 A 
ATOM      8  C   UNL     1     -33.847  23.772   0.372  1.00  0.00     0.123 A 
ATOM      9  C   UNL     1     -32.541  24.213   0.156  1.00  0.00     0.094 A 
ATOM     10  C   UNL     1     -31.833  24.853   1.177  1.00  0.00     0.146 A 
ATOM     11  O   UNL     1     -30.596  25.271   0.929  1.00  0.00    -0.456 OA
ENDROOT
BRANCH   1  12
ATOM     12  C   UNL     1     -28.472  26.320   1.435  1.00  0.00     0.021 A 
ATOM     13  C   UNL     1     -27.705  27.085   2.328  1.00  0.00     0.016 A 
ATOM     14  C   UNL     1     -26.413  27.489   1.987  1.00  0.00     0.051 A 
ATOM     15  C   UNL     1     -25.863  27.151   0.747  1.00  0.00     0.157 A 
ATOM     16  C   UNL     1     -27.925  25.991   0.182  1.00  0.00     0.062 A 
ATOM     17  C   UNL     1     -26.630  26.395  -0.170  1.00  0.00     0.158 A 
BRANCH  15  18
ATOM     18  O   UNL     1     -24.564  27.582   0.469  1.00  0.00    -0.504 OA
ATOM     19  H   UNL     1     -23.842  26.989   0.087  1.00  0.00     0.293 HD
ENDBRANCH  15  18
BRANCH  17  20
ATOM     20  O   UNL     1     -26.155  26.033  -1.432  1.00  0.00    -0.504 OA
ATOM     21  H   UNL     1     -26.150  26.649  -2.232  1.00  0.00     0.293 HD
ENDBRANCH  17  20
ENDBRANCH   1  12
BRANCH   6  22
ATOM     22  O   UNL     1     -34.401  24.601   3.908  1.00  0.00    -0.507 OA
ATOM     23  H   UNL     1     -35.376  24.828   4.034  1.00  0.00     0.293 HD
ENDBRANCH   6  22
BRANCH   8  24
ATOM     24  O   UNL     1     -34.564  23.150  -0.650  1.00  0.00    -0.508 OA
ATOM     25  H   UNL     1     -34.927  22.209  -0.545  1.00  0.00     0.293 HD
ENDBRANCH   8  24
TORSDOF 5
ENDMDL
MODEL 3
REMARK VINA RESULT:    -7.839      1.630      7.100
REMARK INTER + INTRA:          -9.478
REMARK INTER:                  -9.210
REMARK INTRA:                  -0.268
REMARK UNBOUND:                -0.264
REMARK SMILES O=c1cc(-c2ccc(O)c(O)c2)oc2cc(O)cc(O)c12
REMARK SMILES IDX 4 1 3 2 2 3 1 4 21 5 19 6 18 7 16 8 15 9 14 10 13 11 5 12
REMARK SMILES IDX 6 13 7 14 8 15 12 16 10 17 9 18 11 20 20 22 17 24
REMARK H PARENT 9 19 11 21 20 23 17 25
REMARK Flexibility Score: inf
ROOT
ATOM      1  C   UNL     1     -31.518  25.108   1.547  1.00  0.00     0.138 A 
ATOM      2  C   UNL     1     -32.582  26.004   1.715  1.00  0.00     0.100 A 
ATOM      3  C   UNL     1     -33.862  25.515   1.977  1.00  0.00     0.197 A 
ATOM      4  O   UNL     1     -34.809  26.341   2.061  1.00  0.00    -0.289 OA
ATOM      5  C   UNL     1     -34.071  24.120   2.099  1.00  0.00     0.107 A 
ATOM      6  C   UNL     1     -35.324  23.510   2.404  1.00  0.00     0.134 A 
ATOM      7  C   UNL     1     -35.434  22.114   2.385  1.00  0.00     0.093 A 
ATOM      8  C   UNL     1     -34.326  21.307   2.133  1.00  0.00     0.123 A 
ATOM      9  C   UNL     1     -33.083  21.892   1.887  1.00  0.00     0.094 A 
ATOM     10  C   UNL     1     -32.948  23.282   1.865  1.00  0.00     0.146 A 
ATOM     11  O   UNL     1     -31.751  23.802   1.613  1.00  0.00    -0.456 OA
ENDROOT
BRANCH   1  12
ATOM     12  C   UNL     1     -30.136  25.575   1.269  1.00  0.00     0.021 A 
ATOM     13  C   UNL     1     -29.507  25.196   0.072  1.00  0.00     0.016 A 
ATOM     14  C   UNL     1     -28.206  25.617  -0.209  1.00  0.00     0.051 A 
ATOM     15  C   UNL     1     -27.501  26.414   0.698  1.00  0.00     0.157 A 
ATOM     16  C   UNL     1     -29.423  26.365   2.188  1.00  0.00     0.062 A 
ATOM     17  C   UNL     1     -28.116  26.790   1.915  1.00  0.00     0.158 A 
BRANCH  15  18
ATOM     18  O   UNL     1     -26.206  26.806   0.354  1.00  0.00    -0.504 OA
ATOM     19  H   UNL     1     -25.663  27.480   0.873  1.00  0.00     0.293 HD
ENDBRANCH  15  18
BRANCH  17  20
ATOM     20  O   UNL     1     -27.470  27.570   2.876  1.00  0.00    -0.504 OA
ATOM     21  H   UNL     1     -27.866  28.405   3.286  1.00  0.00     0.293 HD
ENDBRANCH  17  20
ENDBRANCH   1  12
BRANCH   6  22
ATOM     22  O   UNL     1     -36.476  24.221   2.753  1.00  0.00    -0.507 OA
ATOM     23  H   UNL     1     -37.386  24.080   2.343  1.00  0.00     0.293 HD
ENDBRANCH   6  22
BRANCH   8  24
ATOM     24  O   UNL     1     -34.469  19.920   2.137  1.00  0.00    -0.508 OA
ATOM     25  H   UNL     1     -34.335  19.376   2.982  1.00  0.00     0.293 HD
ENDBRANCH   8  24
TORSDOF 5
ENDMDL
MODEL 4
REMARK VINA RESULT:    -7.577      2.275      7.661
REMARK INTER + INTRA:          -9.169
REMARK INTER:                  -8.877
REMARK INTRA:                  -0.292
REMARK UNBOUND:                -0.264
REMARK SMILES O=c1cc(-c2ccc(O)c(O)c2)oc2cc(O)cc(O)c12
REMARK SMILES IDX 4 1 3 2 2 3 1 4 21 5 19 6 18 7 16 8 15 9 14 10 13 11 5 12
REMARK SMILES IDX 6 13 7 14 8 15 12 16 10 17 9 18 11 20 20 22 17 24
REMARK H PARENT 9 19 11 21 20 23 17 25
REMARK Flexibility Score: inf
ROOT
ATOM      1  C   UNL     1     -29.877  25.312   0.590  1.00  0.00     0.138 A 
ATOM      2  C   UNL     1     -30.055  24.188  -0.227  1.00  0.00     0.100 A 
ATOM      3  C   UNL     1     -31.315  23.598  -0.325  1.00  0.00     0.197 A 
ATOM      4  O   UNL     1     -31.431  22.553  -1.017  1.00  0.00    -0.289 OA
ATOM      5  C   UNL     1     -32.409  24.156   0.379  1.00  0.00     0.107 A 
ATOM      6  C   UNL     1     -33.747  23.663   0.324  1.00  0.00     0.134 A 
ATOM      7  C   UNL     1     -34.725  24.227   1.154  1.00  0.00     0.093 A 
ATOM      8  C   UNL     1     -34.428  25.301   1.991  1.00  0.00     0.123 A 
ATOM      9  C   UNL     1     -33.135  25.827   2.013  1.00  0.00     0.094 A 
ATOM     10  C   UNL     1     -32.129  25.265   1.223  1.00  0.00     0.146 A 
ATOM     11  O   UNL     1     -30.908  25.784   1.282  1.00  0.00    -0.456 OA
ENDROOT
BRANCH   1  12
ATOM     12  C   UNL     1     -28.557  25.980   0.728  1.00  0.00     0.021 A 
ATOM     13  C   UNL     1     -28.296  26.765   1.862  1.00  0.00     0.016 A 
ATOM     14  C   UNL     1     -27.065  27.407   2.011  1.00  0.00     0.051 A 
ATOM     15  C   UNL     1     -26.075  27.292   1.031  1.00  0.00     0.157 A 
ATOM     16  C   UNL     1     -27.567  25.875  -0.266  1.00  0.00     0.062 A 
ATOM     17  C   UNL     1     -26.331  26.519  -0.126  1.00  0.00     0.158 A 
BRANCH  15  18
ATOM     18  O   UNL     1     -24.865  27.956   1.244  1.00  0.00    -0.504 OA
ATOM     19  H   UNL     1     -24.273  27.806   2.048  1.00  0.00     0.293 HD
ENDBRANCH  15  18
BRANCH  17  20
ATOM     20  O   UNL     1     -25.398  26.371  -1.154  1.00  0.00    -0.504 OA
ATOM     21  H   UNL     1     -25.046  25.479  -1.473  1.00  0.00     0.293 HD
ENDBRANCH  17  20
ENDBRANCH   1  12
BRANCH   6  22
ATOM     22  O   UNL     1     -34.172  22.649  -0.539  1.00  0.00    -0.507 OA
ATOM     23  H   UNL     1     -33.568  21.960  -0.959  1.00  0.00     0.293 HD
ENDBRANCH   6  22
BRANCH   8  24
ATOM     24  O   UNL     1     -35.429  25.846   2.792  1.00  0.00    -0.508 OA
ATOM     25  H   UNL     1     -35.227  26.565   3.478  1.00  0.00     0.293 HD
ENDBRANCH   8  24
TORSDOF 5
ENDMDL
MODEL 5
REMARK VINA RESULT:    -7.374      2.466      4.668
REMARK INTER + INTRA:          -8.932
REMARK INTER:                  -8.617
REMARK INTRA:                  -0.315
REMARK UNBOUND:                -0.264
REMARK SMILES O=c1cc(-c2ccc(O)c(O)c2)oc2cc(O)cc(O)c12
REMARK SMILES IDX 4 1 3 2 2 3 1 4 21 5 19 6 18 7 16 8 15 9 14 10 13 11 5 12
REMARK SMILES IDX 6 13 7 14 8 15 12 16 10 17 9 18 11 20 20 22 17 24
REMARK H PARENT 9 19 11 21 20 23 17 25
REMARK Flexibility Score: inf
ROOT
ATOM      1  C   UNL     1     -29.690  25.610   1.141  1.00  0.00     0.138 A 
ATOM      2  C   UNL     1     -29.601  24.919  -0.075  1.00  0.00     0.100 A 
ATOM      3  C   UNL     1     -28.424  24.980  -0.820  1.00  0.00     0.197 A 
ATOM      4  O   UNL     1     -28.395  24.400  -1.937  1.00  0.00    -0.289 OA
ATOM      5  C   UNL     1     -27.318  25.715  -0.329  1.00  0.00     0.107 A 
ATOM      6  C   UNL     1     -26.054  25.815  -0.983  1.00  0.00     0.134 A 
ATOM      7  C   UNL     1     -25.072  26.665  -0.459  1.00  0.00     0.093 A 
ATOM      8  C   UNL     1     -25.285  27.371   0.724  1.00  0.00     0.123 A 
ATOM      9  C   UNL     1     -26.498  27.239   1.401  1.00  0.00     0.094 A 
ATOM     10  C   UNL     1     -27.511  26.425   0.887  1.00  0.00     0.146 A 
ATOM     11  O   UNL     1     -28.657  26.336   1.553  1.00  0.00    -0.456 OA
ENDROOT
BRANCH   1  12
ATOM     12  C   UNL     1     -30.919  25.577   1.974  1.00  0.00     0.021 A 
ATOM     13  C   UNL     1     -32.124  25.129   1.408  1.00  0.00     0.016 A 
ATOM     14  C   UNL     1     -33.294  25.095   2.169  1.00  0.00     0.051 A 
ATOM     15  C   UNL     1     -33.292  25.515   3.503  1.00  0.00     0.157 A 
ATOM     16  C   UNL     1     -30.919  26.013   3.311  1.00  0.00     0.062 A 
ATOM     17  C   UNL     1     -32.090  25.984   4.080  1.00  0.00     0.158 A 
BRANCH  15  18
ATOM     18  O   UNL     1     -34.495  25.450   4.209  1.00  0.00    -0.504 OA
ATOM     19  H   UNL     1     -35.173  26.197   4.239  1.00  0.00     0.293 HD
ENDBRANCH  15  18
BRANCH  17  20
ATOM     20  O   UNL     1     -32.013  26.434   5.400  1.00  0.00    -0.504 OA
ATOM     21  H   UNL     1     -32.781  26.866   5.895  1.00  0.00     0.293 HD
ENDBRANCH  17  20
ENDBRANCH   1  12
BRANCH   6  22
ATOM     22  O   UNL     1     -25.704  25.088  -2.125  1.00  0.00    -0.507 OA
ATOM     23  H   UNL     1     -25.812  25.417  -3.072  1.00  0.00     0.293 HD
ENDBRANCH   6  22
BRANCH   8  24
ATOM     24  O   UNL     1     -24.280  28.197   1.224  1.00  0.00    -0.508 OA
ATOM     25  H   UNL     1     -23.299  27.984   1.079  1.00  0.00     0.293 HD
ENDBRANCH   8  24
TORSDOF 5
ENDMDL
MODEL 6
REMARK VINA RESULT:    -7.332      1.976      3.598
REMARK INTER + INTRA:          -8.882
REMARK INTER:                  -8.576
REMARK INTRA:                  -0.305
REMARK UNBOUND:                -0.264
REMARK SMILES O=c1cc(-c2ccc(O)c(O)c2)oc2cc(O)cc(O)c12
REMARK SMILES IDX 4 1 3 2 2 3 1 4 21 5 19 6 18 7 16 8 15 9 14 10 13 11 5 12
REMARK SMILES IDX 6 13 7 14 8 15 12 16 10 17 9 18 11 20 20 22 17 24
REMARK H PARENT 9 19 11 21 20 23 17 25
REMARK Flexibility Score: inf
ROOT
ATOM      1  C   UNL     1     -30.893  24.837   0.801  1.00  0.00     0.138 A 
ATOM      2  C   UNL     1     -30.386  23.929  -0.138  1.00  0.00     0.100 A 
ATOM      3  C   UNL     1     -29.073  24.065  -0.591  1.00  0.00     0.197 A 
ATOM      4  O   UNL     1     -28.666  23.273  -1.480  1.00  0.00    -0.289 OA
ATOM      5  C   UNL     1     -28.256  25.100  -0.078  1.00  0.00     0.107 A 
ATOM      6  C   UNL     1     -26.891  25.311  -0.437  1.00  0.00     0.134 A 
ATOM      7  C   UNL     1     -26.216  26.438   0.049  1.00  0.00     0.093 A 
ATOM      8  C   UNL     1     -26.836  27.327   0.926  1.00  0.00     0.123 A 
ATOM      9  C   UNL     1     -28.154  27.101   1.326  1.00  0.00     0.094 A 
ATOM     10  C   UNL     1     -28.865  26.005   0.833  1.00  0.00     0.146 A 
ATOM     11  O   UNL     1     -30.122  25.832   1.227  1.00  0.00    -0.456 OA
ENDROOT
BRANCH   1  12
ATOM     12  C   UNL     1     -32.281  24.736   1.319  1.00  0.00     0.021 A 
ATOM     13  C   UNL     1     -33.290  24.213   0.493  1.00  0.00     0.016 A 
ATOM     14  C   UNL     1     -34.603  24.114   0.954  1.00  0.00     0.051 A 
ATOM     15  C   UNL     1     -34.943  24.543   2.240  1.00  0.00     0.157 A 
ATOM     16  C   UNL     1     -32.625  25.181   2.608  1.00  0.00     0.062 A 
ATOM     17  C   UNL     1     -33.942  25.088   3.077  1.00  0.00     0.158 A 
BRANCH  15  18
ATOM     18  O   UNL     1     -36.274  24.411   2.642  1.00  0.00    -0.504 OA
ATOM     19  H   UNL     1     -36.977  23.914   2.113  1.00  0.00     0.293 HD
ENDBRANCH  15  18
BRANCH  17  20
ATOM     20  O   UNL     1     -34.208  25.551   4.367  1.00  0.00    -0.504 OA
ATOM     21  H   UNL     1     -33.523  25.581   5.109  1.00  0.00     0.293 HD
ENDBRANCH  17  20
ENDBRANCH   1  12
BRANCH   6  22
ATOM     22  O   UNL     1     -26.150  24.439  -1.240  1.00  0.00    -0.507 OA
ATOM     23  H   UNL     1     -26.483  23.554  -1.589  1.00  0.00     0.293 HD
ENDBRANCH   6  22
BRANCH   8  24
ATOM     24  O   UNL     1     -26.129  28.431   1.401  1.00  0.00    -0.508 OA
ATOM     25  H   UNL     1     -25.137  28.541   1.222  1.00  0.00     0.293 HD
ENDBRANCH   8  24
TORSDOF 5
ENDMDL
MODEL 7
REMARK VINA RESULT:    -7.266      1.565      3.240
REMARK INTER + INTRA:          -8.804
REMARK INTER:                  -8.518
REMARK INTRA:                  -0.286
REMARK UNBOUND:                -0.264
REMARK SMILES O=c1cc(-c2ccc(O)c(O)c2)oc2cc(O)cc(O)c12
REMARK SMILES IDX 4 1 3 2 2 3 1 4 21 5 19 6 18 7 16 8 15 9 14 10 13 11 5 12
REMARK SMILES IDX 6 13 7 14 8 15 12 16 10 17 9 18 11 20 20 22 17 24
REMARK H PARENT 9 19 11 21 20 23 17 25
REMARK Flexibility Score: inf
ROOT
ATOM      1  C   UNL     1     -31.980  23.894   0.907  1.00  0.00     0.138 A 
ATOM      2  C   UNL     1     -31.424  23.358  -0.263  1.00  0.00     0.100 A 
ATOM      3  C   UNL     1     -30.166  23.784  -0.688  1.00  0.00     0.197 A 
ATOM      4  O   UNL     1     -29.719  23.331  -1.774  1.00  0.00    -0.289 OA
ATOM      5  C   UNL     1     -29.449  24.733   0.080  1.00  0.00     0.107 A 
ATOM      6  C   UNL     1     -28.141  25.211  -0.234  1.00  0.00     0.134 A 
ATOM      7  C   UNL     1     -27.578  26.236   0.537  1.00  0.00     0.093 A 
ATOM      8  C   UNL     1     -28.247  26.756   1.643  1.00  0.00     0.123 A 
ATOM      9  C   UNL     1     -29.503  26.259   1.992  1.00  0.00     0.094 A 
ATOM     10  C   UNL     1     -30.107  25.261   1.223  1.00  0.00     0.146 A 
ATOM     11  O   UNL     1     -31.310  24.822   1.580  1.00  0.00    -0.456 OA
ENDROOT
BRANCH   1  12
ATOM     12  C   UNL     1     -33.315  23.473   1.404  1.00  0.00     0.021 A 
ATOM     13  C   UNL     1     -33.593  22.106   1.564  1.00  0.00     0.016 A 
ATOM     14  C   UNL     1     -34.841  21.686   2.024  1.00  0.00     0.051 A 
ATOM     15  C   UNL     1     -35.842  22.614   2.324  1.00  0.00     0.157 A 
ATOM     16  C   UNL     1     -34.325  24.408   1.692  1.00  0.00     0.062 A 
ATOM     17  C   UNL     1     -35.583  23.994   2.152  1.00  0.00     0.158 A 
BRANCH  15  18
ATOM     18  O   UNL     1     -37.068  22.128   2.785  1.00  0.00    -0.504 OA
ATOM     19  H   UNL     1     -37.213  21.750   3.710  1.00  0.00     0.293 HD
ENDBRANCH  15  18
BRANCH  17  20
ATOM     20  O   UNL     1     -36.537  24.979   2.416  1.00  0.00    -0.504 OA
ATOM     21  H   UNL     1     -36.917  25.600   1.715  1.00  0.00     0.293 HD
ENDBRANCH  17  20
ENDBRANCH   1  12
BRANCH   6  22
ATOM     22  O   UNL     1     -27.349  24.701  -1.267  1.00  0.00    -0.507 OA
ATOM     23  H   UNL     1     -27.568  24.773  -2.249  1.00  0.00     0.293 HD
ENDBRANCH   6  22
BRANCH   8  24
ATOM     24  O   UNL     1     -27.649  27.766   2.396  1.00  0.00    -0.508 OA
ATOM     25  H   UNL     1     -26.716  27.660   2.777  1.00  0.00     0.293 HD
ENDBRANCH   8  24
TORSDOF 5
ENDMDL
MODEL 8
REMARK VINA RESULT:    -7.174      1.599      2.044
REMARK INTER + INTRA:          -8.696
REMARK INTER:                  -8.394
REMARK INTRA:                  -0.302
REMARK UNBOUND:                -0.264
REMARK SMILES O=c1cc(-c2ccc(O)c(O)c2)oc2cc(O)cc(O)c12
REMARK SMILES IDX 4 1 3 2 2 3 1 4 21 5 19 6 18 7 16 8 15 9 14 10 13 11 5 12
REMARK SMILES IDX 6 13 7 14 8 15 12 16 10 17 9 18 11 20 20 22 17 24
REMARK H PARENT 9 19 11 21 20 23 17 25
REMARK Flexibility Score: inf
ROOT
ATOM      1  C   UNL     1     -31.999  24.126   1.439  1.00  0.00     0.138 A 
ATOM      2  C   UNL     1     -31.644  25.332   2.059  1.00  0.00     0.100 A 
ATOM      3  C   UNL     1     -30.455  25.969   1.701  1.00  0.00     0.197 A 
ATOM      4  O   UNL     1     -30.133  27.017   2.319  1.00  0.00    -0.289 OA
ATOM      5  C   UNL     1     -29.632  25.408   0.695  1.00  0.00     0.107 A 
ATOM      6  C   UNL     1     -28.419  25.990   0.220  1.00  0.00     0.134 A 
ATOM      7  C   UNL     1     -27.629  25.286  -0.697  1.00  0.00     0.093 A 
ATOM      8  C   UNL     1     -28.037  24.052  -1.202  1.00  0.00     0.123 A 
ATOM      9  C   UNL     1     -29.248  23.498  -0.785  1.00  0.00     0.094 A 
ATOM     10  C   UNL     1     -30.043  24.159   0.155  1.00  0.00     0.146 A 
ATOM     11  O   UNL     1     -31.182  23.593   0.537  1.00  0.00    -0.456 OA
ENDROOT
BRANCH   1  12
ATOM     12  C   UNL     1     -33.253  23.408   1.782  1.00  0.00     0.021 A 
ATOM     13  C   UNL     1     -34.403  24.145   2.107  1.00  0.00     0.016 A 
ATOM     14  C   UNL     1     -35.592  23.493   2.438  1.00  0.00     0.051 A 
ATOM     15  C   UNL     1     -35.659  22.097   2.464  1.00  0.00     0.157 A 
ATOM     16  C   UNL     1     -33.315  22.004   1.821  1.00  0.00     0.062 A 
ATOM     17  C   UNL     1     -34.503  21.342   2.156  1.00  0.00     0.158 A 
BRANCH  15  18
ATOM     18  O   UNL     1     -36.880  21.508   2.798  1.00  0.00    -0.504 OA
ATOM     19  H   UNL     1     -37.746  22.018   2.894  1.00  0.00     0.293 HD
ENDBRANCH  15  18
BRANCH  17  20
ATOM     20  O   UNL     1     -34.489  19.946   2.175  1.00  0.00    -0.504 OA
ATOM     21  H   UNL     1     -34.902  19.387   2.908  1.00  0.00     0.293 HD
ENDBRANCH  17  20
ENDBRANCH   1  12
BRANCH   6  22
ATOM     22  O   UNL     1     -27.960  27.257   0.594  1.00  0.00    -0.507 OA
ATOM     23  H   UNL     1     -27.713  27.525   1.534  1.00  0.00     0.293 HD
ENDBRANCH   6  22
BRANCH   8  24
ATOM     24  O   UNL     1     -27.232  23.386  -2.125  1.00  0.00    -0.508 OA
ATOM     25  H   UNL     1     -26.283  23.111  -1.899  1.00  0.00     0.293 HD
ENDBRANCH   8  24
TORSDOF 5
ENDMDL
MODEL 9
REMARK VINA RESULT:    -6.907      4.159      6.065
REMARK INTER + INTRA:          -8.382
REMARK INTER:                  -8.065
REMARK INTRA:                  -0.317
REMARK UNBOUND:                -0.264
REMARK SMILES O=c1cc(-c2ccc(O)c(O)c2)oc2cc(O)cc(O)c12
REMARK SMILES IDX 4 1 3 2 2 3 1 4 21 5 19 6 18 7 16 8 15 9 14 10 13 11 5 12
REMARK SMILES IDX 6 13 7 14 8 15 12 16 10 17 9 18 11 20 20 22 17 24
REMARK H PARENT 9 19 11 21 20 23 17 25
REMARK Flexibility Score: inf
ROOT
ATOM      1  C   UNL     1     -33.073  21.072  -0.139  1.00  0.00     0.138 A 
ATOM      2  C   UNL     1     -31.883  21.737  -0.464  1.00  0.00     0.100 A 
ATOM      3  C   UNL     1     -31.705  23.064  -0.072  1.00  0.00     0.197 A 
ATOM      4  O   UNL     1     -30.653  23.654  -0.431  1.00  0.00    -0.289 OA
ATOM      5  C   UNL     1     -32.714  23.718   0.675  1.00  0.00     0.107 A 
ATOM      6  C   UNL     1     -32.624  25.056   1.164  1.00  0.00     0.134 A 
ATOM      7  C   UNL     1     -33.733  25.636   1.792  1.00  0.00     0.093 A 
ATOM      8  C   UNL     1     -34.904  24.909   2.004  1.00  0.00     0.123 A 
ATOM      9  C   UNL     1     -34.983  23.583   1.579  1.00  0.00     0.094 A 
ATOM     10  C   UNL     1     -33.907  22.986   0.918  1.00  0.00     0.146 A 
ATOM     11  O   UNL     1     -34.026  21.725   0.516  1.00  0.00    -0.456 OA
ENDROOT
BRANCH   1  12
ATOM     12  C   UNL     1     -33.313  19.659  -0.530  1.00  0.00     0.021 A 
ATOM     13  C   UNL     1     -32.431  19.031  -1.424  1.00  0.00     0.016 A 
ATOM     14  C   UNL     1     -32.639  17.706  -1.811  1.00  0.00     0.051 A 
ATOM     15  C   UNL     1     -33.733  16.983  -1.327  1.00  0.00     0.157 A 
ATOM     16  C   UNL     1     -34.422  18.937  -0.053  1.00  0.00     0.062 A 
ATOM     17  C   UNL     1     -34.640  17.608  -0.439  1.00  0.00     0.158 A 
BRANCH  15  18
ATOM     18  O   UNL     1     -33.880  15.660  -1.750  1.00  0.00    -0.504 OA
ATOM     19  H   UNL     1     -33.699  14.857  -1.165  1.00  0.00     0.293 HD
ENDBRANCH  15  18
BRANCH  17  20
ATOM     20  O   UNL     1     -35.763  16.956   0.073  1.00  0.00    -0.504 OA
ATOM     21  H   UNL     1     -36.387  17.359   0.758  1.00  0.00     0.293 HD
ENDBRANCH  17  20
ENDBRANCH   1  12
BRANCH   6  22
ATOM     22  O   UNL     1     -31.472  25.844   1.080  1.00  0.00    -0.507 OA
ATOM     23  H   UNL     1     -30.695  25.796   1.721  1.00  0.00     0.293 HD
ENDBRANCH   6  22
BRANCH   8  24
ATOM     24  O   UNL     1     -35.983  25.515   2.647  1.00  0.00    -0.508 OA
ATOM     25  H   UNL     1     -36.085  25.481   3.655  1.00  0.00     0.293 HD
ENDBRANCH   8  24
TORSDOF 5
ENDMDL
