MODEL 1
REMARK VINA RESULT:    -5.467      0.000      0.000
REMARK INTER + INTRA:         -14.816
REMARK INTER:                 -11.858
REMARK INTRA:                  -2.958
REMARK UNBOUND:                -2.958
REMARK SMILES CCCCCCCCCCCCCCCCCCCCCC(=O)[O-]
REMARK SMILES IDX 12 1 11 2 10 3 9 4 8 5 7 6 6 7 5 8 4 9 3 10 2 11 1 12 13 13
REMARK SMILES IDX 14 14 15 15 16 16 17 17 18 18 19 19 20 20 21 21 22 22 23 23
REMARK SMILES IDX 24 24
REMARK H PARENT
REMARK Flexibility Score: inf
ROOT
ATOM      1  C   UNL     1      15.281 -12.393  23.206  1.00  0.00     0.000 C 
ENDROOT
BRANCH   1   2
ATOM      2  C   UNL     1      13.788 -12.033  23.311  1.00  0.00     0.000 C 
BRANCH   2   3
ATOM      3  C   UNL     1      13.354 -11.750  24.766  1.00  0.00     0.000 C 
BRANCH   3   4
ATOM      4  C   UNL     1      12.098 -12.526  25.213  1.00  0.00    -0.000 C 
BRANCH   4   5
ATOM      5  C   UNL     1      11.281 -13.162  24.077  1.00  0.00    -0.000 C 
BRANCH   5   6
ATOM      6  C   UNL     1       9.878 -12.549  23.927  1.00  0.00    -0.000 C 
BRANCH   6   7
ATOM      7  C   UNL     1       9.711 -11.259  24.747  1.00  0.00    -0.000 C 
BRANCH   7   8
ATOM      8  C   UNL     1       8.650 -11.390  25.853  1.00  0.00    -0.000 C 
BRANCH   8   9
ATOM      9  C   UNL     1       8.165 -12.844  26.025  1.00  0.00    -0.000 C 
BRANCH   9  10
ATOM     10  C   UNL     1       8.263 -13.371  27.471  1.00  0.00    -0.000 C 
BRANCH  10  11
ATOM     11  C   UNL     1       9.023 -12.438  28.434  1.00  0.00    -0.003 C 
ATOM     12  C   UNL     1      10.326 -13.053  28.947  1.00  0.00     0.004 C 
ENDBRANCH  10  11
ENDBRANCH   9  10
ENDBRANCH   8   9
ENDBRANCH   7   8
ENDBRANCH   6   7
ENDBRANCH   5   6
ENDBRANCH   4   5
ENDBRANCH   3   4
ENDBRANCH   2   3
ENDBRANCH   1   2
BRANCH   1  13
ATOM     13  C   UNL     1      15.879 -12.872  24.539  1.00  0.00     0.000 C 
BRANCH  13  14
ATOM     14  C   UNL     1      15.943 -14.404  24.714  1.00  0.00     0.000 C 
BRANCH  14  15
ATOM     15  C   UNL     1      14.691 -15.048  25.338  1.00  0.00     0.000 C 
BRANCH  15  16
ATOM     16  C   UNL     1      14.767 -15.283  26.859  1.00  0.00     0.000 C 
BRANCH  16  17
ATOM     17  C   UNL     1      14.077 -14.183  27.696  1.00  0.00     0.000 C 
BRANCH  17  18
ATOM     18  C   UNL     1      14.980 -12.959  27.929  1.00  0.00     0.000 C 
BRANCH  18  19
ATOM     19  C   UNL     1      16.418 -13.341  28.324  1.00  0.00     0.000 C 
BRANCH  19  20
ATOM     20  C   UNL     1      17.462 -12.216  28.167  1.00  0.00     0.006 C 
BRANCH  20  21
ATOM     21  C   UNL     1      17.672 -11.373  29.436  1.00  0.00     0.053 C 
BRANCH  21  22
ATOM     22  C   UNL     1      16.686 -10.252  29.561  1.00  0.00     0.041 C 
ATOM     23  O   UNL     1      16.552  -9.415  28.629  1.00  0.00    -0.550 OA
ATOM     24  O   UNL     1      15.885 -10.156  30.692  1.00  0.00    -0.550 OA
ENDBRANCH  21  22
ENDBRANCH  20  21
ENDBRANCH  19  20
ENDBRANCH  18  19
ENDBRANCH  17  18
ENDBRANCH  16  17
ENDBRANCH  15  16
ENDBRANCH  14  15
ENDBRANCH  13  14
ENDBRANCH   1  13
TORSDOF 20
ENDMDL
MODEL 2
REMARK VINA RESULT:    -5.465      1.302      5.518
REMARK INTER + INTRA:         -14.813
REMARK INTER:                 -12.359
REMARK INTRA:                  -2.454
REMARK UNBOUND:                -2.958
REMARK SMILES CCCCCCCCCCCCCCCCCCCCCC(=O)[O-]
REMARK SMILES IDX 12 1 11 2 10 3 9 4 8 5 7 6 6 7 5 8 4 9 3 10 2 11 1 12 13 13
REMARK SMILES IDX 14 14 15 15 16 16 17 17 18 18 19 19 20 20 21 21 22 22 23 23
REMARK SMILES IDX 24 24
REMARK H PARENT
REMARK Flexibility Score: inf
ROOT
ATOM      1  C   UNL     1       8.167 -13.380  27.433  1.00  0.00     0.000 C 
ENDROOT
BRANCH   1   2
ATOM      2  C   UNL     1       8.209 -12.892  25.974  1.00  0.00     0.000 C 
BRANCH   2   3
ATOM      3  C   UNL     1       9.428 -11.986  25.694  1.00  0.00     0.000 C 
BRANCH   3   4
ATOM      4  C   UNL     1      10.348 -12.495  24.565  1.00  0.00    -0.000 C 
BRANCH   4   5
ATOM      5  C   UNL     1      11.759 -12.915  25.008  1.00  0.00    -0.000 C 
BRANCH   5   6
ATOM      6  C   UNL     1      12.750 -11.740  25.055  1.00  0.00    -0.000 C 
BRANCH   6   7
ATOM      7  C   UNL     1      14.176 -12.159  24.663  1.00  0.00    -0.000 C 
BRANCH   7   8
ATOM      8  C   UNL     1      14.203 -13.400  23.754  1.00  0.00    -0.000 C 
BRANCH   8   9
ATOM      9  C   UNL     1      15.004 -14.561  24.378  1.00  0.00    -0.000 C 
BRANCH   9  10
ATOM     10  C   UNL     1      16.443 -14.186  24.782  1.00  0.00    -0.000 C 
BRANCH  10  11
ATOM     11  C   UNL     1      17.199 -15.299  25.533  1.00  0.00    -0.003 C 
ATOM     12  C   UNL     1      18.142 -16.089  24.624  1.00  0.00     0.004 C 
ENDBRANCH  10  11
ENDBRANCH   9  10
ENDBRANCH   8   9
ENDBRANCH   7   8
ENDBRANCH   6   7
ENDBRANCH   5   6
ENDBRANCH   4   5
ENDBRANCH   3   4
ENDBRANCH   2   3
ENDBRANCH   1   2
BRANCH   1  13
ATOM     13  C   UNL     1       8.486 -12.269  28.448  1.00  0.00     0.000 C 
BRANCH  13  14
ATOM     14  C   UNL     1       9.474 -12.667  29.564  1.00  0.00     0.000 C 
BRANCH  14  15
ATOM     15  C   UNL     1      10.747 -13.391  29.089  1.00  0.00     0.000 C 
BRANCH  15  16
ATOM     16  C   UNL     1      11.736 -13.775  30.207  1.00  0.00     0.000 C 
BRANCH  16  17
ATOM     17  C   UNL     1      13.218 -13.548  29.834  1.00  0.00     0.000 C 
BRANCH  17  18
ATOM     18  C   UNL     1      13.476 -13.663  28.321  1.00  0.00     0.000 C 
BRANCH  18  19
ATOM     19  C   UNL     1      14.889 -13.206  27.917  1.00  0.00     0.000 C 
BRANCH  19  20
ATOM     20  C   UNL     1      15.749 -12.641  29.066  1.00  0.00     0.006 C 
BRANCH  20  21
ATOM     21  C   UNL     1      17.011 -11.897  28.597  1.00  0.00     0.053 C 
BRANCH  21  22
ATOM     22  C   UNL     1      16.703 -10.595  27.923  1.00  0.00     0.041 C 
ATOM     23  O   UNL     1      16.102  -9.681  28.549  1.00  0.00    -0.550 OA
ATOM     24  O   UNL     1      17.115 -10.376  26.615  1.00  0.00    -0.550 OA
ENDBRANCH  21  22
ENDBRANCH  20  21
ENDBRANCH  19  20
ENDBRANCH  18  19
ENDBRANCH  17  18
ENDBRANCH  16  17
ENDBRANCH  15  16
ENDBRANCH  14  15
ENDBRANCH  13  14
ENDBRANCH   1  13
TORSDOF 20
ENDMDL
MODEL 3
REMARK VINA RESULT:    -5.292      3.806      8.253
REMARK INTER + INTRA:         -14.437
REMARK INTER:                 -12.645
REMARK INTRA:                  -1.792
REMARK UNBOUND:                -2.958
REMARK SMILES CCCCCCCCCCCCCCCCCCCCCC(=O)[O-]
REMARK SMILES IDX 12 1 11 2 10 3 9 4 8 5 7 6 6 7 5 8 4 9 3 10 2 11 1 12 13 13
REMARK SMILES IDX 14 14 15 15 16 16 17 17 18 18 19 19 20 20 21 21 22 22 23 23
REMARK SMILES IDX 24 24
REMARK H PARENT
REMARK Flexibility Score: inf
ROOT
ATOM      1  C   UNL     1      14.753 -15.268  26.359  1.00  0.00     0.000 C 
ENDROOT
BRANCH   1   2
ATOM      2  C   UNL     1      14.716 -14.826  24.886  1.00  0.00     0.000 C 
BRANCH   2   3
ATOM      3  C   UNL     1      15.977 -15.265  24.109  1.00  0.00     0.000 C 
BRANCH   3   4
ATOM      4  C   UNL     1      17.302 -14.769  24.723  1.00  0.00    -0.000 C 
BRANCH   4   5
ATOM      5  C   UNL     1      18.567 -15.121  23.924  1.00  0.00    -0.000 C 
BRANCH   5   6
ATOM      6  C   UNL     1      19.231 -16.428  24.391  1.00  0.00    -0.000 C 
BRANCH   6   7
ATOM      7  C   UNL     1      19.217 -17.513  23.302  1.00  0.00    -0.000 C 
BRANCH   7   8
ATOM      8  C   UNL     1      19.353 -16.935  21.883  1.00  0.00    -0.000 C 
BRANCH   8   9
ATOM      9  C   UNL     1      18.716 -17.851  20.818  1.00  0.00    -0.000 C 
BRANCH   9  10
ATOM     10  C   UNL     1      17.736 -17.128  19.873  1.00  0.00    -0.000 C 
BRANCH  10  11
ATOM     11  C   UNL     1      16.507 -16.524  20.580  1.00  0.00    -0.003 C 
ATOM     12  C   UNL     1      16.460 -14.998  20.480  1.00  0.00     0.004 C 
ENDBRANCH  10  11
ENDBRANCH   9  10
ENDBRANCH   8   9
ENDBRANCH   7   8
ENDBRANCH   6   7
ENDBRANCH   5   6
ENDBRANCH   4   5
ENDBRANCH   3   4
ENDBRANCH   2   3
ENDBRANCH   1   2
BRANCH   1  13
ATOM     13  C   UNL     1      14.831 -14.085  27.339  1.00  0.00     0.000 C 
BRANCH  13  14
ATOM     14  C   UNL     1      13.499 -13.712  28.022  1.00  0.00     0.000 C 
BRANCH  14  15
ATOM     15  C   UNL     1      13.605 -13.331  29.510  1.00  0.00     0.000 C 
BRANCH  15  16
ATOM     16  C   UNL     1      12.319 -13.543  30.332  1.00  0.00     0.000 C 
BRANCH  16  17
ATOM     17  C   UNL     1      11.101 -13.973  29.485  1.00  0.00     0.000 C 
BRANCH  17  18
ATOM     18  C   UNL     1      10.029 -12.873  29.383  1.00  0.00     0.000 C 
BRANCH  18  19
ATOM     19  C   UNL     1       9.007 -13.134  28.263  1.00  0.00     0.000 C 
BRANCH  19  20
ATOM     20  C   UNL     1       9.082 -12.162  27.067  1.00  0.00     0.006 C 
BRANCH  20  21
ATOM     21  C   UNL     1      10.327 -12.350  26.184  1.00  0.00     0.053 C 
BRANCH  21  22
ATOM     22  C   UNL     1      10.053 -12.105  24.732  1.00  0.00     0.041 C 
ATOM     23  O   UNL     1      10.544 -12.864  23.855  1.00  0.00    -0.550 OA
ATOM     24  O   UNL     1       9.223 -11.059  24.350  1.00  0.00    -0.550 OA
ENDBRANCH  21  22
ENDBRANCH  20  21
ENDBRANCH  19  20
ENDBRANCH  18  19
ENDBRANCH  17  18
ENDBRANCH  16  17
ENDBRANCH  15  16
ENDBRANCH  14  15
ENDBRANCH  13  14
ENDBRANCH   1  13
TORSDOF 20
ENDMDL
MODEL 4
REMARK VINA RESULT:    -5.271      4.591      7.026
REMARK INTER + INTRA:         -14.391
REMARK INTER:                 -13.200
REMARK INTRA:                  -1.191
REMARK UNBOUND:                -2.958
REMARK SMILES CCCCCCCCCCCCCCCCCCCCCC(=O)[O-]
REMARK SMILES IDX 12 1 11 2 10 3 9 4 8 5 7 6 6 7 5 8 4 9 3 10 2 11 1 12 13 13
REMARK SMILES IDX 14 14 15 15 16 16 17 17 18 18 19 19 20 20 21 21 22 22 23 23
REMARK SMILES IDX 24 24
REMARK H PARENT
REMARK Flexibility Score: inf
ROOT
ATOM      1  C   UNL     1      14.947 -15.240  25.708  1.00  0.00     0.000 C 
ENDROOT
BRANCH   1   2
ATOM      2  C   UNL     1      14.577 -13.803  26.115  1.00  0.00     0.000 C 
BRANCH   2   3
ATOM      3  C   UNL     1      14.581 -13.607  27.647  1.00  0.00     0.000 C 
BRANCH   3   4
ATOM      4  C   UNL     1      13.197 -13.767  28.309  1.00  0.00    -0.000 C 
BRANCH   4   5
ATOM      5  C   UNL     1      13.151 -13.467  29.816  1.00  0.00    -0.000 C 
BRANCH   5   6
ATOM      6  C   UNL     1      11.769 -13.725  30.440  1.00  0.00    -0.000 C 
BRANCH   6   7
ATOM      7  C   UNL     1      10.640 -13.696  29.397  1.00  0.00    -0.000 C 
BRANCH   7   8
ATOM      8  C   UNL     1       9.574 -12.630  29.704  1.00  0.00    -0.000 C 
BRANCH   8   9
ATOM      9  C   UNL     1       8.739 -12.266  28.459  1.00  0.00    -0.000 C 
BRANCH   9  10
ATOM     10  C   UNL     1       9.451 -12.550  27.122  1.00  0.00    -0.000 C 
BRANCH  10  11
ATOM     11  C   UNL     1       8.695 -12.034  25.882  1.00  0.00    -0.003 C 
ATOM     12  C   UNL     1       9.534 -11.074  25.035  1.00  0.00     0.004 C 
ENDBRANCH  10  11
ENDBRANCH   9  10
ENDBRANCH   8   9
ENDBRANCH   7   8
ENDBRANCH   6   7
ENDBRANCH   5   6
ENDBRANCH   4   5
ENDBRANCH   3   4
ENDBRANCH   2   3
ENDBRANCH   1   2
BRANCH   1  13
ATOM     13  C   UNL     1      16.075 -15.298  24.664  1.00  0.00     0.000 C 
BRANCH  13  14
ATOM     14  C   UNL     1      17.496 -15.081  25.224  1.00  0.00     0.000 C 
BRANCH  14  15
ATOM     15  C   UNL     1      18.642 -15.330  24.225  1.00  0.00     0.000 C 
BRANCH  15  16
ATOM     16  C   UNL     1      19.190 -16.770  24.206  1.00  0.00     0.000 C 
BRANCH  16  17
ATOM     17  C   UNL     1      19.392 -17.342  22.785  1.00  0.00     0.000 C 
BRANCH  17  18
ATOM     18  C   UNL     1      18.252 -16.961  21.823  1.00  0.00     0.000 C 
BRANCH  18  19
ATOM     19  C   UNL     1      18.250 -17.800  20.533  1.00  0.00     0.000 C 
BRANCH  19  20
ATOM     20  C   UNL     1      17.001 -17.631  19.643  1.00  0.00     0.006 C 
BRANCH  20  21
ATOM     21  C   UNL     1      17.261 -16.859  18.338  1.00  0.00     0.053 C 
BRANCH  21  22
ATOM     22  C   UNL     1      17.294 -15.375  18.536  1.00  0.00     0.041 C 
ATOM     23  O   UNL     1      16.243 -14.692  18.407  1.00  0.00    -0.550 OA
ATOM     24  O   UNL     1      18.479 -14.750  18.903  1.00  0.00    -0.550 OA
ENDBRANCH  21  22
ENDBRANCH  20  21
ENDBRANCH  19  20
ENDBRANCH  18  19
ENDBRANCH  17  18
ENDBRANCH  16  17
ENDBRANCH  15  16
ENDBRANCH  14  15
ENDBRANCH  13  14
ENDBRANCH   1  13
TORSDOF 20
ENDMDL
MODEL 5
REMARK VINA RESULT:    -5.217      3.367      4.354
REMARK INTER + INTRA:         -14.275
REMARK INTER:                 -12.199
REMARK INTRA:                  -2.075
REMARK UNBOUND:                -2.958
REMARK SMILES CCCCCCCCCCCCCCCCCCCCCC(=O)[O-]
REMARK SMILES IDX 12 1 11 2 10 3 9 4 8 5 7 6 6 7 5 8 4 9 3 10 2 11 1 12 13 13
REMARK SMILES IDX 14 14 15 15 16 16 17 17 18 18 19 19 20 20 21 21 22 22 23 23
REMARK SMILES IDX 24 24
REMARK H PARENT
REMARK Flexibility Score: inf
ROOT
ATOM      1  C   UNL     1      14.727 -14.686  26.483  1.00  0.00     0.000 C 
ENDROOT
BRANCH   1   2
ATOM      2  C   UNL     1      13.801 -13.479  26.720  1.00  0.00     0.000 C 
BRANCH   2   3
ATOM      3  C   UNL     1      14.043 -12.345  25.700  1.00  0.00     0.000 C 
BRANCH   3   4
ATOM      4  C   UNL     1      12.758 -11.801  25.043  1.00  0.00    -0.000 C 
BRANCH   4   5
ATOM      5  C   UNL     1      11.469 -12.562  25.393  1.00  0.00    -0.000 C 
BRANCH   5   6
ATOM      6  C   UNL     1      10.211 -11.937  24.766  1.00  0.00    -0.000 C 
BRANCH   6   7
ATOM      7  C   UNL     1       9.171 -11.529  25.822  1.00  0.00    -0.000 C 
BRANCH   7   8
ATOM      8  C   UNL     1       8.903 -12.638  26.854  1.00  0.00    -0.000 C 
BRANCH   8   9
ATOM      9  C   UNL     1       8.810 -12.085  28.291  1.00  0.00    -0.000 C 
BRANCH   9  10
ATOM     10  C   UNL     1       9.455 -12.994  29.356  1.00  0.00    -0.000 C 
BRANCH  10  11
ATOM     11  C   UNL     1      10.930 -13.345  29.077  1.00  0.00    -0.003 C 
ATOM     12  C   UNL     1      11.695 -13.731  30.344  1.00  0.00     0.004 C 
ENDBRANCH  10  11
ENDBRANCH   9  10
ENDBRANCH   8   9
ENDBRANCH   7   8
ENDBRANCH   6   7
ENDBRANCH   5   6
ENDBRANCH   4   5
ENDBRANCH   3   4
ENDBRANCH   2   3
ENDBRANCH   1   2
BRANCH   1  13
ATOM     13  C   UNL     1      14.943 -14.994  24.992  1.00  0.00     0.000 C 
BRANCH  13  14
ATOM     14  C   UNL     1      16.362 -15.474  24.622  1.00  0.00     0.000 C 
BRANCH  14  15
ATOM     15  C   UNL     1      17.514 -14.682  25.265  1.00  0.00     0.000 C 
BRANCH  15  16
ATOM     16  C   UNL     1      17.559 -13.184  24.903  1.00  0.00     0.000 C 
BRANCH  16  17
ATOM     17  C   UNL     1      17.965 -12.269  26.080  1.00  0.00     0.000 C 
BRANCH  17  18
ATOM     18  C   UNL     1      19.059 -11.258  25.697  1.00  0.00     0.000 C 
BRANCH  18  19
ATOM     19  C   UNL     1      20.233 -11.238  26.691  1.00  0.00     0.000 C 
BRANCH  19  20
ATOM     20  C   UNL     1      21.537 -11.886  26.180  1.00  0.00     0.006 C 
BRANCH  20  21
ATOM     21  C   UNL     1      21.315 -13.100  25.262  1.00  0.00     0.053 C 
BRANCH  21  22
ATOM     22  C   UNL     1      21.887 -12.905  23.891  1.00  0.00     0.041 C 
ATOM     23  O   UNL     1      21.132 -12.887  22.883  1.00  0.00    -0.550 OA
ATOM     24  O   UNL     1      23.253 -12.703  23.732  1.00  0.00    -0.550 OA
ENDBRANCH  21  22
ENDBRANCH  20  21
ENDBRANCH  19  20
ENDBRANCH  18  19
ENDBRANCH  17  18
ENDBRANCH  16  17
ENDBRANCH  15  16
ENDBRANCH  14  15
ENDBRANCH  13  14
ENDBRANCH   1  13
TORSDOF 20
ENDMDL
MODEL 6
REMARK VINA RESULT:    -5.212      1.267      4.916
REMARK INTER + INTRA:         -14.264
REMARK INTER:                 -12.053
REMARK INTRA:                  -2.211
REMARK UNBOUND:                -2.958
REMARK SMILES CCCCCCCCCCCCCCCCCCCCCC(=O)[O-]
REMARK SMILES IDX 12 1 11 2 10 3 9 4 8 5 7 6 6 7 5 8 4 9 3 10 2 11 1 12 13 13
REMARK SMILES IDX 14 14 15 15 16 16 17 17 18 18 19 19 20 20 21 21 22 22 23 23
REMARK SMILES IDX 24 24
REMARK H PARENT
REMARK Flexibility Score: inf
ROOT
ATOM      1  C   UNL     1       8.302 -13.441  27.904  1.00  0.00     0.000 C 
ENDROOT
BRANCH   1   2
ATOM      2  C   UNL     1       8.277 -12.977  26.437  1.00  0.00     0.000 C 
BRANCH   2   3
ATOM      3  C   UNL     1       9.420 -11.990  26.113  1.00  0.00     0.000 C 
BRANCH   3   4
ATOM      4  C   UNL     1       9.166 -11.115  24.869  1.00  0.00    -0.000 C 
BRANCH   4   5
ATOM      5  C   UNL     1       9.476 -11.786  23.521  1.00  0.00    -0.000 C 
BRANCH   5   6
ATOM      6  C   UNL     1      10.639 -12.790  23.601  1.00  0.00    -0.000 C 
BRANCH   6   7
ATOM      7  C   UNL     1      11.415 -12.895  22.278  1.00  0.00    -0.000 C 
BRANCH   7   8
ATOM      8  C   UNL     1      12.940 -12.878  22.480  1.00  0.00    -0.000 C 
BRANCH   8   9
ATOM      9  C   UNL     1      13.337 -12.357  23.876  1.00  0.00    -0.000 C 
BRANCH   9  10
ATOM     10  C   UNL     1      14.822 -12.575  24.229  1.00  0.00    -0.000 C 
BRANCH  10  11
ATOM     11  C   UNL     1      15.217 -14.054  24.409  1.00  0.00    -0.003 C 
ATOM     12  C   UNL     1      14.230 -14.827  25.286  1.00  0.00     0.004 C 
ENDBRANCH  10  11
ENDBRANCH   9  10
ENDBRANCH   8   9
ENDBRANCH   7   8
ENDBRANCH   6   7
ENDBRANCH   5   6
ENDBRANCH   4   5
ENDBRANCH   3   4
ENDBRANCH   2   3
ENDBRANCH   1   2
BRANCH   1  13
ATOM     13  C   UNL     1       8.795 -12.350  28.870  1.00  0.00     0.000 C 
BRANCH  13  14
ATOM     14  C   UNL     1       9.853 -12.813  29.893  1.00  0.00     0.000 C 
BRANCH  14  15
ATOM     15  C   UNL     1      10.886 -13.824  29.361  1.00  0.00     0.000 C 
BRANCH  15  16
ATOM     16  C   UNL     1      12.330 -13.601  29.851  1.00  0.00     0.000 C 
BRANCH  16  17
ATOM     17  C   UNL     1      13.363 -13.472  28.709  1.00  0.00     0.000 C 
BRANCH  17  18
ATOM     18  C   UNL     1      14.759 -13.065  29.213  1.00  0.00     0.000 C 
BRANCH  18  19
ATOM     19  C   UNL     1      15.839 -13.146  28.120  1.00  0.00     0.000 C 
BRANCH  19  20
ATOM     20  C   UNL     1      16.135 -11.820  27.391  1.00  0.00     0.006 C 
BRANCH  20  21
ATOM     21  C   UNL     1      16.230 -10.599  28.322  1.00  0.00     0.053 C 
BRANCH  21  22
ATOM     22  C   UNL     1      17.495 -10.576  29.124  1.00  0.00     0.041 C 
ATOM     23  O   UNL     1      17.483 -10.181  30.321  1.00  0.00    -0.550 OA
ATOM     24  O   UNL     1      18.682 -11.028  28.561  1.00  0.00    -0.550 OA
ENDBRANCH  21  22
ENDBRANCH  20  21
ENDBRANCH  19  20
ENDBRANCH  18  19
ENDBRANCH  17  18
ENDBRANCH  16  17
ENDBRANCH  15  16
ENDBRANCH  14  15
ENDBRANCH  13  14
ENDBRANCH   1  13
TORSDOF 20
ENDMDL
MODEL 7
REMARK VINA RESULT:    -5.156      4.698      7.357
REMARK INTER + INTRA:         -14.142
REMARK INTER:                 -12.180
REMARK INTRA:                  -1.962
REMARK UNBOUND:                -2.958
REMARK SMILES CCCCCCCCCCCCCCCCCCCCCC(=O)[O-]
REMARK SMILES IDX 12 1 11 2 10 3 9 4 8 5 7 6 6 7 5 8 4 9 3 10 2 11 1 12 13 13
REMARK SMILES IDX 14 14 15 15 16 16 17 17 18 18 19 19 20 20 21 21 22 22 23 23
REMARK SMILES IDX 24 24
REMARK H PARENT
REMARK Flexibility Score: inf
ROOT
ATOM      1  C   UNL     1      18.268 -14.335  24.733  1.00  0.00     0.000 C 
ENDROOT
BRANCH   1   2
ATOM      2  C   UNL     1      17.212 -15.298  25.304  1.00  0.00     0.000 C 
BRANCH   2   3
ATOM      3  C   UNL     1      15.901 -15.283  24.488  1.00  0.00     0.000 C 
BRANCH   3   4
ATOM      4  C   UNL     1      14.624 -15.438  25.340  1.00  0.00    -0.000 C 
BRANCH   4   5
ATOM      5  C   UNL     1      14.675 -14.774  26.726  1.00  0.00    -0.000 C 
BRANCH   5   6
ATOM      6  C   UNL     1      13.901 -13.446  26.786  1.00  0.00    -0.000 C 
BRANCH   6   7
ATOM      7  C   UNL     1      14.335 -12.464  25.687  1.00  0.00    -0.000 C 
BRANCH   7   8
ATOM      8  C   UNL     1      13.147 -11.727  25.044  1.00  0.00    -0.000 C 
BRANCH   8   9
ATOM      9  C   UNL     1      12.497 -12.548  23.912  1.00  0.00    -0.000 C 
BRANCH   9  10
ATOM     10  C   UNL     1      11.130 -13.157  24.283  1.00  0.00    -0.000 C 
BRANCH  10  11
ATOM     11  C   UNL     1       9.921 -12.307  23.846  1.00  0.00    -0.003 C 
ATOM     12  C   UNL     1       9.519 -11.269  24.895  1.00  0.00     0.004 C 
ENDBRANCH  10  11
ENDBRANCH   9  10
ENDBRANCH   8   9
ENDBRANCH   7   8
ENDBRANCH   6   7
ENDBRANCH   5   6
ENDBRANCH   4   5
ENDBRANCH   3   4
ENDBRANCH   2   3
ENDBRANCH   1   2
BRANCH   1  13
ATOM     13  C   UNL     1      19.354 -15.052  23.912  1.00  0.00     0.000 C 
BRANCH  13  14
ATOM     14  C   UNL     1      19.398 -16.584  24.084  1.00  0.00     0.000 C 
BRANCH  14  15
ATOM     15  C   UNL     1      19.105 -17.398  22.810  1.00  0.00     0.000 C 
BRANCH  15  16
ATOM     16  C   UNL     1      18.847 -16.559  21.544  1.00  0.00     0.000 C 
BRANCH  16  17
ATOM     17  C   UNL     1      17.416 -16.706  20.978  1.00  0.00     0.000 C 
BRANCH  17  18
ATOM     18  C   UNL     1      17.336 -17.719  19.822  1.00  0.00     0.000 C 
BRANCH  18  19
ATOM     19  C   UNL     1      16.530 -17.195  18.620  1.00  0.00     0.000 C 
BRANCH  19  20
ATOM     20  C   UNL     1      16.077 -15.724  18.725  1.00  0.00     0.006 C 
BRANCH  20  21
ATOM     21  C   UNL     1      14.637 -15.476  18.247  1.00  0.00     0.053 C 
BRANCH  21  22
ATOM     22  C   UNL     1      14.118 -14.126  18.637  1.00  0.00     0.041 C 
ATOM     23  O   UNL     1      14.689 -13.081  18.226  1.00  0.00    -0.550 OA
ATOM     24  O   UNL     1      12.978 -14.022  19.426  1.00  0.00    -0.550 OA
ENDBRANCH  21  22
ENDBRANCH  20  21
ENDBRANCH  19  20
ENDBRANCH  18  19
ENDBRANCH  17  18
ENDBRANCH  16  17
ENDBRANCH  15  16
ENDBRANCH  14  15
ENDBRANCH  13  14
ENDBRANCH   1  13
TORSDOF 20
ENDMDL
MODEL 8
REMARK VINA RESULT:    -5.081      2.884      4.169
REMARK INTER + INTRA:         -13.980
REMARK INTER:                 -12.162
REMARK INTRA:                  -1.818
REMARK UNBOUND:                -2.958
REMARK SMILES CCCCCCCCCCCCCCCCCCCCCC(=O)[O-]
REMARK SMILES IDX 12 1 11 2 10 3 9 4 8 5 7 6 6 7 5 8 4 9 3 10 2 11 1 12 13 13
REMARK SMILES IDX 14 14 15 15 16 16 17 17 18 18 19 19 20 20 21 21 22 22 23 23
REMARK SMILES IDX 24 24
REMARK H PARENT
REMARK Flexibility Score: inf
ROOT
ATOM      1  C   UNL     1      14.815 -13.053  27.220  1.00  0.00     0.000 C 
ENDROOT
BRANCH   1   2
ATOM      2  C   UNL     1      15.083 -11.925  26.209  1.00  0.00     0.000 C 
BRANCH   2   3
ATOM      3  C   UNL     1      14.394 -12.179  24.850  1.00  0.00     0.000 C 
BRANCH   3   4
ATOM      4  C   UNL     1      12.887 -11.854  24.834  1.00  0.00    -0.000 C 
BRANCH   4   5
ATOM      5  C   UNL     1      12.043 -12.703  23.869  1.00  0.00    -0.000 C 
BRANCH   5   6
ATOM      6  C   UNL     1      10.607 -12.934  24.369  1.00  0.00    -0.000 C 
BRANCH   6   7
ATOM      7  C   UNL     1       9.811 -11.625  24.492  1.00  0.00    -0.000 C 
BRANCH   7   8
ATOM      8  C   UNL     1       8.955 -11.566  25.769  1.00  0.00    -0.000 C 
BRANCH   8   9
ATOM      9  C   UNL     1       9.596 -12.343  26.936  1.00  0.00    -0.000 C 
BRANCH   9  10
ATOM     10  C   UNL     1       8.599 -12.758  28.036  1.00  0.00    -0.000 C 
BRANCH  10  11
ATOM     11  C   UNL     1       9.125 -12.564  29.472  1.00  0.00    -0.003 C 
ATOM     12  C   UNL     1       8.117 -11.858  30.380  1.00  0.00     0.004 C 
ENDBRANCH  10  11
ENDBRANCH   9  10
ENDBRANCH   8   9
ENDBRANCH   7   8
ENDBRANCH   6   7
ENDBRANCH   5   6
ENDBRANCH   4   5
ENDBRANCH   3   4
ENDBRANCH   2   3
ENDBRANCH   1   2
BRANCH   1  13
ATOM     13  C   UNL     1      15.928 -13.193  28.273  1.00  0.00     0.000 C 
BRANCH  13  14
ATOM     14  C   UNL     1      15.749 -12.323  29.534  1.00  0.00     0.000 C 
BRANCH  14  15
ATOM     15  C   UNL     1      17.054 -11.847  30.197  1.00  0.00     0.000 C 
BRANCH  15  16
ATOM     16  C   UNL     1      18.143 -11.362  29.220  1.00  0.00     0.000 C 
BRANCH  16  17
ATOM     17  C   UNL     1      17.773 -10.064  28.467  1.00  0.00     0.000 C 
BRANCH  17  18
ATOM     18  C   UNL     1      18.268 -10.060  27.010  1.00  0.00     0.000 C 
BRANCH  18  19
ATOM     19  C   UNL     1      18.763 -11.439  26.541  1.00  0.00     0.000 C 
BRANCH  19  20
ATOM     20  C   UNL     1      20.262 -11.512  26.186  1.00  0.00     0.006 C 
BRANCH  20  21
ATOM     21  C   UNL     1      21.199 -11.092  27.332  1.00  0.00     0.053 C 
BRANCH  21  22
ATOM     22  C   UNL     1      22.604 -11.576  27.142  1.00  0.00     0.041 C 
ATOM     23  O   UNL     1      23.571 -10.773  27.229  1.00  0.00    -0.550 OA
ATOM     24  O   UNL     1      22.848 -12.924  26.908  1.00  0.00    -0.550 OA
ENDBRANCH  21  22
ENDBRANCH  20  21
ENDBRANCH  19  20
ENDBRANCH  18  19
ENDBRANCH  17  18
ENDBRANCH  16  17
ENDBRANCH  15  16
ENDBRANCH  14  15
ENDBRANCH  13  14
ENDBRANCH   1  13
TORSDOF 20
ENDMDL
MODEL 9
REMARK VINA RESULT:    -5.045      3.105      5.727
REMARK INTER + INTRA:         -13.901
REMARK INTER:                 -10.446
REMARK INTRA:                  -3.455
REMARK UNBOUND:                -2.958
REMARK SMILES CCCCCCCCCCCCCCCCCCCCCC(=O)[O-]
REMARK SMILES IDX 12 1 11 2 10 3 9 4 8 5 7 6 6 7 5 8 4 9 3 10 2 11 1 12 13 13
REMARK SMILES IDX 14 14 15 15 16 16 17 17 18 18 19 19 20 20 21 21 22 22 23 23
REMARK SMILES IDX 24 24
REMARK H PARENT
REMARK Flexibility Score: inf
ROOT
ATOM      1  C   UNL     1      18.165 -14.245  24.970  1.00  0.00     0.000 C 
ENDROOT
BRANCH   1   2
ATOM      2  C   UNL     1      17.852 -12.742  24.872  1.00  0.00     0.000 C 
BRANCH   2   3
ATOM      3  C   UNL     1      18.016 -12.018  26.226  1.00  0.00     0.000 C 
BRANCH   3   4
ATOM      4  C   UNL     1      16.842 -11.087  26.592  1.00  0.00    -0.000 C 
BRANCH   4   5
ATOM      5  C   UNL     1      16.037 -11.503  27.834  1.00  0.00    -0.000 C 
BRANCH   5   6
ATOM      6  C   UNL     1      16.195 -12.992  28.183  1.00  0.00    -0.000 C 
BRANCH   6   7
ATOM      7  C   UNL     1      14.885 -13.777  28.008  1.00  0.00    -0.000 C 
BRANCH   7   8
ATOM      8  C   UNL     1      14.944 -14.783  26.846  1.00  0.00    -0.000 C 
BRANCH   8   9
ATOM      9  C   UNL     1      14.377 -14.196  25.538  1.00  0.00    -0.000 C 
BRANCH   9  10
ATOM     10  C   UNL     1      13.247 -13.169  25.749  1.00  0.00    -0.000 C 
BRANCH  10  11
ATOM     11  C   UNL     1      13.415 -11.870  24.937  1.00  0.00    -0.003 C 
ATOM     12  C   UNL     1      14.392 -12.024  23.771  1.00  0.00     0.004 C 
ENDBRANCH  10  11
ENDBRANCH   9  10
ENDBRANCH   8   9
ENDBRANCH   7   8
ENDBRANCH   6   7
ENDBRANCH   5   6
ENDBRANCH   4   5
ENDBRANCH   3   4
ENDBRANCH   2   3
ENDBRANCH   1   2
BRANCH   1  13
ATOM     13  C   UNL     1      19.497 -14.627  24.304  1.00  0.00     0.000 C 
BRANCH  13  14
ATOM     14  C   UNL     1      20.115 -13.535  23.405  1.00  0.00     0.000 C 
BRANCH  14  15
ATOM     15  C   UNL     1      21.469 -12.978  23.883  1.00  0.00     0.000 C 
BRANCH  15  16
ATOM     16  C   UNL     1      21.478 -12.430  25.323  1.00  0.00     0.000 C 
BRANCH  16  17
ATOM     17  C   UNL     1      22.630 -12.982  26.193  1.00  0.00     0.000 C 
BRANCH  17  18
ATOM     18  C   UNL     1      22.632 -12.398  27.617  1.00  0.00     0.000 C 
BRANCH  18  19
ATOM     19  C   UNL     1      21.989 -11.002  27.694  1.00  0.00     0.000 C 
BRANCH  19  20
ATOM     20  C   UNL     1      20.891 -10.843  28.765  1.00  0.00     0.006 C 
BRANCH  20  21
ATOM     21  C   UNL     1      19.981  -9.621  28.554  1.00  0.00     0.053 C 
BRANCH  21  22
ATOM     22  C   UNL     1      18.929  -9.489  29.612  1.00  0.00     0.041 C 
ATOM     23  O   UNL     1      19.103  -9.997  30.751  1.00  0.00    -0.550 OA
ATOM     24  O   UNL     1      17.769  -8.769  29.350  1.00  0.00    -0.550 OA
ENDBRANCH  21  22
ENDBRANCH  20  21
ENDBRANCH  19  20
ENDBRANCH  18  19
ENDBRANCH  17  18
ENDBRANCH  16  17
ENDBRANCH  15  16
ENDBRANCH  14  15
ENDBRANCH  13  14
ENDBRANCH   1  13
TORSDOF 20
ENDMDL
