MODEL 1
REMARK VINA RESULT:    -4.023      0.000      0.000
REMARK INTER + INTRA:          -5.354
REMARK INTER:                  -4.964
REMARK INTRA:                  -0.390
REMARK UNBOUND:                -0.390
REMARK SMILES C=CC(=C)CCC=C(C)C
REMARK SMILES IDX 5 1 6 2 7 3 9 4 8 5 10 6 3 7 4 8 2 9 1 10
REMARK H PARENT
REMARK Flexibility Score: inf
ROOT
ATOM      1  C   UNL     1      31.735   7.165  32.937  1.00  0.00     0.039 C 
ENDROOT
BRANCH   1   2
ATOM      2  C   UNL     1      30.652   6.994  31.866  1.00  0.00     0.032 C 
BRANCH   2   3
ATOM      3  C   UNL     1      31.255   6.574  30.548  1.00  0.00    -0.028 C 
ATOM      4  C   UNL     1      30.162   8.425  29.259  1.00  0.00     0.039 C 
ATOM      5  C   UNL     1      31.057   7.213  29.373  1.00  0.00    -0.080 C 
ATOM      6  C   UNL     1      31.741   6.677  28.142  1.00  0.00     0.039 C 
ENDBRANCH   2   3
ENDBRANCH   1   2
BRANCH   1   7
ATOM      7  C   UNL     1      31.696   8.561  33.523  1.00  0.00    -0.055 C 
ATOM      8  C   UNL     1      31.116   8.749  34.714  1.00  0.00     0.012 C 
BRANCH   7   9
ATOM      9  C   UNL     1      32.239   9.741  32.801  1.00  0.00    -0.005 C 
ATOM     10  C   UNL     1      33.107  10.604  33.329  1.00  0.00     0.009 C 
ENDBRANCH   7   9
ENDBRANCH   1   7
TORSDOF 4
ENDMDL
MODEL 2
REMARK VINA RESULT:    -3.984      2.497      3.748
REMARK INTER + INTRA:          -5.306
REMARK INTER:                  -4.737
REMARK INTRA:                  -0.569
REMARK UNBOUND:                -0.390
REMARK SMILES C=CC(=C)CCC=C(C)C
REMARK SMILES IDX 5 1 6 2 7 3 9 4 8 5 10 6 3 7 4 8 2 9 1 10
REMARK H PARENT
REMARK Flexibility Score: inf
ROOT
ATOM      1  C   UNL     1      30.973   6.889  34.104  1.00  0.00     0.039 C 
ENDROOT
BRANCH   1   2
ATOM      2  C   UNL     1      31.955   7.570  33.144  1.00  0.00     0.032 C 
BRANCH   2   3
ATOM      3  C   UNL     1      31.312   8.751  32.460  1.00  0.00    -0.028 C 
ATOM      4  C   UNL     1      33.021  10.384  33.293  1.00  0.00     0.039 C 
ATOM      5  C   UNL     1      31.785  10.017  32.505  1.00  0.00    -0.080 C 
ATOM      6  C   UNL     1      31.036  11.089  31.756  1.00  0.00     0.039 C 
ENDBRANCH   2   3
ENDBRANCH   1   2
BRANCH   1   7
ATOM      7  C   UNL     1      31.287   7.251  35.541  1.00  0.00    -0.055 C 
ATOM      8  C   UNL     1      31.658   6.285  36.387  1.00  0.00     0.012 C 
BRANCH   7   9
ATOM      9  C   UNL     1      31.151   8.638  36.057  1.00  0.00    -0.005 C 
ATOM     10  C   UNL     1      31.755   9.086  37.158  1.00  0.00     0.009 C 
ENDBRANCH   7   9
ENDBRANCH   1   7
TORSDOF 4
ENDMDL
MODEL 3
REMARK VINA RESULT:    -3.875      0.964      4.622
REMARK INTER + INTRA:          -5.171
REMARK INTER:                  -4.644
REMARK INTRA:                  -0.527
REMARK UNBOUND:                -0.390
REMARK SMILES C=CC(=C)CCC=C(C)C
REMARK SMILES IDX 5 1 6 2 7 3 9 4 8 5 10 6 3 7 4 8 2 9 1 10
REMARK H PARENT
REMARK Flexibility Score: inf
ROOT
ATOM      1  C   UNL     1      31.312   6.896  30.996  1.00  0.00     0.039 C 
ENDROOT
BRANCH   1   2
ATOM      2  C   UNL     1      30.735   7.899  32.002  1.00  0.00     0.032 C 
BRANCH   2   3
ATOM      3  C   UNL     1      31.836   8.671  32.687  1.00  0.00    -0.028 C 
ATOM      4  C   UNL     1      31.040  10.893  31.844  1.00  0.00     0.039 C 
ATOM      5  C   UNL     1      31.979  10.015  32.639  1.00  0.00    -0.080 C 
ATOM      6  C   UNL     1      33.125  10.641  33.390  1.00  0.00     0.039 C 
ENDBRANCH   2   3
ENDBRANCH   1   2
BRANCH   1   7
ATOM      7  C   UNL     1      30.983   7.309  29.576  1.00  0.00    -0.055 C 
ATOM      8  C   UNL     1      31.558   6.656  28.561  1.00  0.00     0.012 C 
BRANCH   7   9
ATOM      9  C   UNL     1      30.078   8.446  29.270  1.00  0.00    -0.005 C 
ATOM     10  C   UNL     1      29.750   8.828  28.036  1.00  0.00     0.009 C 
ENDBRANCH   7   9
ENDBRANCH   1   7
TORSDOF 4
ENDMDL
MODEL 4
REMARK VINA RESULT:    -3.835      2.222      4.797
REMARK INTER + INTRA:          -5.122
REMARK INTER:                  -4.311
REMARK INTRA:                  -0.811
REMARK UNBOUND:                -0.390
REMARK SMILES C=CC(=C)CCC=C(C)C
REMARK SMILES IDX 5 1 6 2 7 3 9 4 8 5 10 6 3 7 4 8 2 9 1 10
REMARK H PARENT
REMARK Flexibility Score: inf
ROOT
ATOM      1  C   UNL     1      31.665   7.465  33.083  1.00  0.00     0.039 C 
ENDROOT
BRANCH   1   2
ATOM      2  C   UNL     1      30.626   7.326  34.202  1.00  0.00     0.032 C 
BRANCH   2   3
ATOM      3  C   UNL     1      31.205   7.743  35.532  1.00  0.00    -0.028 C 
ATOM      4  C   UNL     1      29.891   9.875  35.630  1.00  0.00     0.039 C 
ATOM      5  C   UNL     1      30.875   8.877  36.192  1.00  0.00    -0.080 C 
ATOM      6  C   UNL     1      31.532   9.149  37.521  1.00  0.00     0.039 C 
ENDBRANCH   2   3
ENDBRANCH   1   2
BRANCH   1   7
ATOM      7  C   UNL     1      31.710   8.887  32.565  1.00  0.00    -0.055 C 
ATOM      8  C   UNL     1      30.853   9.257  31.607  1.00  0.00     0.012 C 
BRANCH   7   9
ATOM      9  C   UNL     1      32.706   9.877  33.051  1.00  0.00    -0.005 C 
ATOM     10  C   UNL     1      32.452  11.176  33.208  1.00  0.00     0.009 C 
ENDBRANCH   7   9
ENDBRANCH   1   7
TORSDOF 4
ENDMDL
MODEL 5
REMARK VINA RESULT:    -3.811      1.273      1.905
REMARK INTER + INTRA:          -5.092
REMARK INTER:                  -4.859
REMARK INTRA:                  -0.234
REMARK UNBOUND:                -0.390
REMARK SMILES C=CC(=C)CCC=C(C)C
REMARK SMILES IDX 5 1 6 2 7 3 9 4 8 5 10 6 3 7 4 8 2 9 1 10
REMARK H PARENT
REMARK Flexibility Score: inf
ROOT
ATOM      1  C   UNL     1      30.923   9.148  31.456  1.00  0.00     0.039 C 
ENDROOT
BRANCH   1   2
ATOM      2  C   UNL     1      30.814   7.880  30.601  1.00  0.00     0.032 C 
BRANCH   2   3
ATOM      3  C   UNL     1      30.213   8.187  29.252  1.00  0.00    -0.028 C 
ATOM      4  C   UNL     1      31.780   6.672  28.015  1.00  0.00     0.039 C 
ATOM      5  C   UNL     1      30.625   7.644  28.084  1.00  0.00    -0.080 C 
ATOM      6  C   UNL     1      29.912   8.041  26.818  1.00  0.00     0.039 C 
ENDBRANCH   2   3
ENDBRANCH   1   2
BRANCH   1   7
ATOM      7  C   UNL     1      31.676   8.868  32.740  1.00  0.00    -0.055 C 
ATOM      8  C   UNL     1      31.654   7.631  33.249  1.00  0.00     0.012 C 
BRANCH   7   9
ATOM      9  C   UNL     1      32.402   9.931  33.482  1.00  0.00    -0.005 C 
ATOM     10  C   UNL     1      32.697  11.127  32.973  1.00  0.00     0.009 C 
ENDBRANCH   7   9
ENDBRANCH   1   7
TORSDOF 4
ENDMDL
MODEL 6
REMARK VINA RESULT:    -3.803      1.668      3.615
REMARK INTER + INTRA:          -5.083
REMARK INTER:                  -4.499
REMARK INTRA:                  -0.584
REMARK UNBOUND:                -0.390
REMARK SMILES C=CC(=C)CCC=C(C)C
REMARK SMILES IDX 5 1 6 2 7 3 9 4 8 5 10 6 3 7 4 8 2 9 1 10
REMARK H PARENT
REMARK Flexibility Score: inf
ROOT
ATOM      1  C   UNL     1      30.937   9.916  34.876  1.00  0.00     0.039 C 
ENDROOT
BRANCH   1   2
ATOM      2  C   UNL     1      32.059   9.778  33.840  1.00  0.00     0.032 C 
BRANCH   2   3
ATOM      3  C   UNL     1      31.494   9.532  32.462  1.00  0.00    -0.028 C 
ATOM      4  C   UNL     1      31.614   7.037  32.670  1.00  0.00     0.039 C 
ATOM      5  C   UNL     1      31.275   8.309  31.928  1.00  0.00    -0.080 C 
ATOM      6  C   UNL     1      30.692   8.226  30.542  1.00  0.00     0.039 C 
ENDBRANCH   2   3
ENDBRANCH   1   2
BRANCH   1   7
ATOM      7  C   UNL     1      31.240   9.092  36.110  1.00  0.00    -0.055 C 
ATOM      8  C   UNL     1      31.974   9.634  37.088  1.00  0.00     0.012 C 
BRANCH   7   9
ATOM      9  C   UNL     1      30.791   7.683  36.253  1.00  0.00    -0.005 C 
ATOM     10  C   UNL     1      31.617   6.649  36.410  1.00  0.00     0.009 C 
ENDBRANCH   7   9
ENDBRANCH   1   7
TORSDOF 4
ENDMDL
MODEL 7
REMARK VINA RESULT:    -3.790      0.777      4.766
REMARK INTER + INTRA:          -5.066
REMARK INTER:                  -4.556
REMARK INTRA:                  -0.510
REMARK UNBOUND:                -0.390
REMARK SMILES C=CC(=C)CCC=C(C)C
REMARK SMILES IDX 5 1 6 2 7 3 9 4 8 5 10 6 3 7 4 8 2 9 1 10
REMARK H PARENT
REMARK Flexibility Score: inf
ROOT
ATOM      1  C   UNL     1      30.524   6.732  31.843  1.00  0.00     0.039 C 
ENDROOT
BRANCH   1   2
ATOM      2  C   UNL     1      31.666   6.972  32.838  1.00  0.00     0.032 C 
BRANCH   2   3
ATOM      3  C   UNL     1      31.242   7.924  33.929  1.00  0.00    -0.028 C 
ATOM      4  C   UNL     1      32.512   9.861  32.971  1.00  0.00     0.039 C 
ATOM      5  C   UNL     1      31.601   9.226  33.996  1.00  0.00    -0.080 C 
ATOM      6  C   UNL     1      31.083  10.054  35.143  1.00  0.00     0.039 C 
ENDBRANCH   2   3
ENDBRANCH   1   2
BRANCH   1   7
ATOM      7  C   UNL     1      30.909   7.210  30.459  1.00  0.00    -0.055 C 
ATOM      8  C   UNL     1      30.527   8.429  30.063  1.00  0.00     0.012 C 
BRANCH   7   9
ATOM      9  C   UNL     1      31.655   6.352  29.502  1.00  0.00    -0.005 C 
ATOM     10  C   UNL     1      31.723   6.580  28.191  1.00  0.00     0.009 C 
ENDBRANCH   7   9
ENDBRANCH   1   7
TORSDOF 4
ENDMDL
MODEL 8
REMARK VINA RESULT:    -3.788      2.538      4.562
REMARK INTER + INTRA:          -5.064
REMARK INTER:                  -4.574
REMARK INTRA:                  -0.490
REMARK UNBOUND:                -0.390
REMARK SMILES C=CC(=C)CCC=C(C)C
REMARK SMILES IDX 5 1 6 2 7 3 9 4 8 5 10 6 3 7 4 8 2 9 1 10
REMARK H PARENT
REMARK Flexibility Score: inf
ROOT
ATOM      1  C   UNL     1      31.634   8.546  32.507  1.00  0.00     0.039 C 
ENDROOT
BRANCH   1   2
ATOM      2  C   UNL     1      30.513   8.202  33.495  1.00  0.00     0.032 C 
BRANCH   2   3
ATOM      3  C   UNL     1      30.945   7.112  34.444  1.00  0.00    -0.028 C 
ATOM      4  C   UNL     1      31.285   8.682  36.368  1.00  0.00     0.039 C 
ATOM      5  C   UNL     1      31.281   7.309  35.739  1.00  0.00    -0.080 C 
ATOM      6  C   UNL     1      31.679   6.113  36.566  1.00  0.00     0.039 C 
ENDBRANCH   2   3
ENDBRANCH   1   2
BRANCH   1   7
ATOM      7  C   UNL     1      31.998  10.014  32.596  1.00  0.00    -0.055 C 
ATOM      8  C   UNL     1      33.013  10.384  33.385  1.00  0.00     0.012 C 
BRANCH   7   9
ATOM      9  C   UNL     1      31.237  11.066  31.874  1.00  0.00    -0.005 C 
ATOM     10  C   UNL     1      31.764  12.219  31.463  1.00  0.00     0.009 C 
ENDBRANCH   7   9
ENDBRANCH   1   7
TORSDOF 4
ENDMDL
MODEL 9
REMARK VINA RESULT:    -3.746      2.529      5.828
REMARK INTER + INTRA:          -5.013
REMARK INTER:                  -4.501
REMARK INTRA:                  -0.512
REMARK UNBOUND:                -0.390
REMARK SMILES C=CC(=C)CCC=C(C)C
REMARK SMILES IDX 5 1 6 2 7 3 9 4 8 5 10 6 3 7 4 8 2 9 1 10
REMARK H PARENT
REMARK Flexibility Score: inf
ROOT
ATOM      1  C   UNL     1      31.146  10.026  34.973  1.00  0.00     0.039 C 
ENDROOT
BRANCH   1   2
ATOM      2  C   UNL     1      31.908   9.640  36.246  1.00  0.00     0.032 C 
BRANCH   2   3
ATOM      3  C   UNL     1      31.011   8.906  37.212  1.00  0.00    -0.028 C 
ATOM      4  C   UNL     1      31.687   6.638  36.384  1.00  0.00     0.039 C 
ATOM      5  C   UNL     1      30.911   7.559  37.296  1.00  0.00    -0.080 C 
ATOM      6  C   UNL     1      29.979   6.973  38.324  1.00  0.00     0.039 C 
ENDBRANCH   2   3
ENDBRANCH   1   2
BRANCH   1   7
ATOM      7  C   UNL     1      32.039   9.912  33.756  1.00  0.00    -0.055 C 
ATOM      8  C   UNL     1      33.061  10.765  33.618  1.00  0.00     0.012 C 
BRANCH   7   9
ATOM      9  C   UNL     1      31.794   8.914  32.682  1.00  0.00    -0.005 C 
ATOM     10  C   UNL     1      31.634   7.609  32.899  1.00  0.00     0.009 C 
ENDBRANCH   7   9
ENDBRANCH   1   7
TORSDOF 4
ENDMDL
