MODEL 1
REMARK VINA RESULT:    -5.347      0.000      0.000
REMARK INTER + INTRA:          -6.595
REMARK INTER:                  -6.441
REMARK INTRA:                  -0.154
REMARK UNBOUND:                -0.154
REMARK SMILES O=c1c(O)c(-c2ccc(O)c(O)c2)oc2cc(O)cc(O)c12
REMARK SMILES IDX 5 1 3 2 2 3 1 4 22 5 20 6 19 7 17 8 16 9 15 10 14 11 6 12
REMARK SMILES IDX 7 13 8 14 9 15 13 16 11 17 10 18 12 20 4 22 21 24 18 26
REMARK H PARENT 10 19 12 21 4 23 21 25 18 27
REMARK Flexibility Score: inf
ROOT
ATOM      1  C   UNL     1      24.761  -4.174 -18.172  1.00  0.00     0.180 A 
ATOM      2  C   UNL     1      23.492  -4.566 -18.630  1.00  0.00     0.208 A 
ATOM      3  C   UNL     1      23.165  -5.931 -18.642  1.00  0.00     0.238 A 
ATOM      4  O   UNL     1      22.057  -6.281 -19.125  1.00  0.00    -0.285 OA
ATOM      5  C   UNL     1      24.088  -6.882 -18.143  1.00  0.00     0.111 A 
ATOM      6  C   UNL     1      23.845  -8.287 -18.064  1.00  0.00     0.134 A 
ATOM      7  C   UNL     1      24.872  -9.144 -17.651  1.00  0.00     0.093 A 
ATOM      8  C   UNL     1      26.113  -8.642 -17.251  1.00  0.00     0.123 A 
ATOM      9  C   UNL     1      26.341  -7.268 -17.271  1.00  0.00     0.094 A 
ATOM     10  C   UNL     1      25.350  -6.391 -17.716  1.00  0.00     0.146 A 
ATOM     11  O   UNL     1      25.618  -5.091 -17.740  1.00  0.00    -0.452 OA
ENDROOT
BRANCH   1  12
ATOM     12  C   UNL     1      25.184  -2.755 -18.143  1.00  0.00     0.025 A 
ATOM     13  C   UNL     1      26.267  -2.298 -18.910  1.00  0.00     0.016 A 
ATOM     14  C   UNL     1      26.662  -0.961 -18.846  1.00  0.00     0.051 A 
ATOM     15  C   UNL     1      25.997  -0.058 -18.009  1.00  0.00     0.157 A 
ATOM     16  C   UNL     1      24.530  -1.856 -17.285  1.00  0.00     0.062 A 
ATOM     17  C   UNL     1      24.918  -0.513 -17.215  1.00  0.00     0.158 A 
BRANCH  15  18
ATOM     18  O   UNL     1      26.438   1.267 -17.996  1.00  0.00    -0.504 OA
ATOM     19  H   UNL     1      27.411   1.538 -17.974  1.00  0.00     0.293 HD
ENDBRANCH  15  18
BRANCH  17  20
ATOM     20  O   UNL     1      24.213   0.326 -16.349  1.00  0.00    -0.504 OA
ATOM     21  H   UNL     1      24.554   1.219 -16.025  1.00  0.00     0.293 HD
ENDBRANCH  17  20
ENDBRANCH   1  12
BRANCH   2  22
ATOM     22  O   UNL     1      22.567  -3.606 -19.048  1.00  0.00    -0.502 OA
ATOM     23  H   UNL     1      22.066  -3.014 -18.396  1.00  0.00     0.293 HD
ENDBRANCH   2  22
BRANCH   6  24
ATOM     24  O   UNL     1      22.615  -8.887 -18.355  1.00  0.00    -0.507 OA
ATOM     25  H   UNL     1      22.406  -9.397 -19.199  1.00  0.00     0.293 HD
ENDBRANCH   6  24
BRANCH   8  26
ATOM     26  O   UNL     1      27.124  -9.500 -16.825  1.00  0.00    -0.508 OA
ATOM     27  H   UNL     1      27.120  -9.902 -15.895  1.00  0.00     0.293 HD
ENDBRANCH   8  26
TORSDOF 6
ENDMDL
