MODEL 1
REMARK VINA RESULT:    -8.831      0.000      0.000
REMARK INTER + INTRA:         -10.934
REMARK INTER:                 -10.637
REMARK INTRA:                  -0.297
REMARK UNBOUND:                -0.297
REMARK SMILES O=c1c(O)c(-c2ccc(O)c(O)c2)oc2cc(O)cc(O)c12
REMARK SMILES IDX 5 1 3 2 2 3 1 4 22 5 20 6 19 7 17 8 16 9 15 10 14 11 6 12
REMARK SMILES IDX 7 13 8 14 9 15 13 16 11 17 10 18 12 20 4 22 21 24 18 26
REMARK H PARENT 10 19 12 21 4 23 21 25 18 27
REMARK Flexibility Score: inf
ROOT
ATOM      1  C   UNL     1     139.141 -18.533  79.472  1.00  0.00     0.180 A 
ATOM      2  C   UNL     1     140.317 -19.100  78.949  1.00  0.00     0.208 A 
ATOM      3  C   UNL     1     141.546 -18.469  79.198  1.00  0.00     0.238 A 
ATOM      4  O   UNL     1     142.600 -19.011  78.774  1.00  0.00    -0.285 OA
ATOM      5  C   UNL     1     141.583 -17.271  79.952  1.00  0.00     0.111 A 
ATOM      6  C   UNL     1     142.768 -16.525  80.231  1.00  0.00     0.134 A 
ATOM      7  C   UNL     1     142.704 -15.427  81.097  1.00  0.00     0.093 A 
ATOM      8  C   UNL     1     141.487 -15.008  81.641  1.00  0.00     0.123 A 
ATOM      9  C   UNL     1     140.317 -15.693  81.326  1.00  0.00     0.094 A 
ATOM     10  C   UNL     1     140.354 -16.815  80.496  1.00  0.00     0.146 A 
ATOM     11  O   UNL     1     139.216 -17.446  80.230  1.00  0.00    -0.452 OA
ENDROOT
BRANCH   1  12
ATOM     12  C   UNL     1     137.806 -19.127  79.231  1.00  0.00     0.025 A 
ATOM     13  C   UNL     1     137.193 -19.963  80.181  1.00  0.00     0.016 A 
ATOM     14  C   UNL     1     135.944 -20.531  79.920  1.00  0.00     0.051 A 
ATOM     15  C   UNL     1     135.295 -20.284  78.703  1.00  0.00     0.157 A 
ATOM     16  C   UNL     1     137.160 -18.899  78.004  1.00  0.00     0.062 A 
ATOM     17  C   UNL     1     135.905 -19.469  77.743  1.00  0.00     0.158 A 
BRANCH  15  18
ATOM     18  O   UNL     1     134.048 -20.848  78.441  1.00  0.00    -0.504 OA
ATOM     19  H   UNL     1     133.193 -20.311  78.535  1.00  0.00     0.293 HD
ENDBRANCH  15  18
BRANCH  17  20
ATOM     20  O   UNL     1     135.261 -19.231  76.530  1.00  0.00    -0.504 OA
ATOM     21  H   UNL     1     135.592 -18.524  75.884  1.00  0.00     0.293 HD
ENDBRANCH  17  20
ENDBRANCH   1  12
BRANCH   2  22
ATOM     22  O   UNL     1     140.259 -20.295  78.226  1.00  0.00    -0.502 OA
ATOM     23  H   UNL     1     141.014 -20.603  77.625  1.00  0.00     0.293 HD
ENDBRANCH   2  22
BRANCH   6  24
ATOM     24  O   UNL     1     144.016 -16.804  79.666  1.00  0.00    -0.507 OA
ATOM     25  H   UNL     1     144.183 -17.499  78.955  1.00  0.00     0.293 HD
ENDBRANCH   6  24
BRANCH   8  26
ATOM     26  O   UNL     1     141.431 -13.903  82.488  1.00  0.00    -0.508 OA
ATOM     27  H   UNL     1     142.162 -13.202  82.494  1.00  0.00     0.293 HD
ENDBRANCH   8  26
TORSDOF 6
ENDMDL
MODEL 2
REMARK VINA RESULT:    -8.619      3.057      6.089
REMARK INTER + INTRA:         -10.679
REMARK INTER:                 -10.369
REMARK INTRA:                  -0.310
REMARK UNBOUND:                -0.297
REMARK SMILES O=c1c(O)c(-c2ccc(O)c(O)c2)oc2cc(O)cc(O)c12
REMARK SMILES IDX 5 1 3 2 2 3 1 4 22 5 20 6 19 7 17 8 16 9 15 10 14 11 6 12
REMARK SMILES IDX 7 13 8 14 9 15 13 16 11 17 10 18 12 20 4 22 21 24 18 26
REMARK H PARENT 10 19 12 21 4 23 21 25 18 27
REMARK Flexibility Score: inf
ROOT
ATOM      1  C   UNL     1     141.087 -20.435  78.932  1.00  0.00     0.180 A 
ATOM      2  C   UNL     1     139.822 -20.769  78.417  1.00  0.00     0.208 A 
ATOM      3  C   UNL     1     138.678 -20.207  79.006  1.00  0.00     0.238 A 
ATOM      4  O   UNL     1     137.552 -20.467  78.506  1.00  0.00    -0.285 OA
ATOM      5  C   UNL     1     138.811 -19.334  80.112  1.00  0.00     0.111 A 
ATOM      6  C   UNL     1     137.718 -18.740  80.813  1.00  0.00     0.134 A 
ATOM      7  C   UNL     1     137.972 -17.789  81.809  1.00  0.00     0.093 A 
ATOM      8  C   UNL     1     139.279 -17.459  82.174  1.00  0.00     0.123 A 
ATOM      9  C   UNL     1     140.352 -18.078  81.538  1.00  0.00     0.094 A 
ATOM     10  C   UNL     1     140.132 -19.003  80.515  1.00  0.00     0.146 A 
ATOM     11  O   UNL     1     141.183 -19.562  79.927  1.00  0.00    -0.452 OA
ENDROOT
BRANCH   1  12
ATOM     12  C   UNL     1     142.338 -21.006  78.380  1.00  0.00     0.025 A 
ATOM     13  C   UNL     1     142.769 -22.297  78.727  1.00  0.00     0.016 A 
ATOM     14  C   UNL     1     143.965 -22.806  78.213  1.00  0.00     0.051 A 
ATOM     15  C   UNL     1     144.753 -22.026  77.356  1.00  0.00     0.157 A 
ATOM     16  C   UNL     1     143.142 -20.220  77.537  1.00  0.00     0.062 A 
ATOM     17  C   UNL     1     144.342 -20.731  77.020  1.00  0.00     0.158 A 
BRANCH  15  18
ATOM     18  O   UNL     1     145.945 -22.530  76.839  1.00  0.00    -0.504 OA
ATOM     19  H   UNL     1     146.804 -22.514  77.377  1.00  0.00     0.293 HD
ENDBRANCH  15  18
BRANCH  17  20
ATOM     20  O   UNL     1     145.132 -19.955  76.173  1.00  0.00    -0.504 OA
ATOM     21  H   UNL     1     146.077 -20.228  75.930  1.00  0.00     0.293 HD
ENDBRANCH  17  20
ENDBRANCH   1  12
BRANCH   2  22
ATOM     22  O   UNL     1     139.715 -21.616  77.311  1.00  0.00    -0.502 OA
ATOM     23  H   UNL     1     138.967 -21.532  76.632  1.00  0.00     0.293 HD
ENDBRANCH   2  22
BRANCH   6  24
ATOM     24  O   UNL     1     136.378 -19.068  80.589  1.00  0.00    -0.507 OA
ATOM     25  H   UNL     1     135.658 -18.407  80.340  1.00  0.00     0.293 HD
ENDBRANCH   6  24
BRANCH   8  26
ATOM     26  O   UNL     1     139.522 -16.524  83.178  1.00  0.00    -0.508 OA
ATOM     27  H   UNL     1     140.441 -16.120  83.314  1.00  0.00     0.293 HD
ENDBRANCH   8  26
TORSDOF 6
ENDMDL
MODEL 3
REMARK VINA RESULT:    -8.524      2.750      5.710
REMARK INTER + INTRA:         -10.564
REMARK INTER:                 -10.418
REMARK INTRA:                  -0.147
REMARK UNBOUND:                -0.297
REMARK SMILES O=c1c(O)c(-c2ccc(O)c(O)c2)oc2cc(O)cc(O)c12
REMARK SMILES IDX 5 1 3 2 2 3 1 4 22 5 20 6 19 7 17 8 16 9 15 10 14 11 6 12
REMARK SMILES IDX 7 13 8 14 9 15 13 16 11 17 10 18 12 20 4 22 21 24 18 26
REMARK H PARENT 10 19 12 21 4 23 21 25 18 27
REMARK Flexibility Score: inf
ROOT
ATOM      1  C   UNL     1     141.168 -19.796  78.870  1.00  0.00     0.180 A 
ATOM      2  C   UNL     1     139.823 -20.131  78.636  1.00  0.00     0.208 A 
ATOM      3  C   UNL     1     138.815 -19.306  79.160  1.00  0.00     0.238 A 
ATOM      4  O   UNL     1     137.614 -19.580  78.901  1.00  0.00    -0.285 OA
ATOM      5  C   UNL     1     139.164 -18.167  79.925  1.00  0.00     0.111 A 
ATOM      6  C   UNL     1     138.225 -17.283  80.538  1.00  0.00     0.134 A 
ATOM      7  C   UNL     1     138.682 -16.115  81.161  1.00  0.00     0.093 A 
ATOM      8  C   UNL     1     140.047 -15.833  81.250  1.00  0.00     0.123 A 
ATOM      9  C   UNL     1     140.973 -16.719  80.708  1.00  0.00     0.094 A 
ATOM     10  C   UNL     1     140.548 -17.874  80.048  1.00  0.00     0.146 A 
ATOM     11  O   UNL     1     141.464 -18.686  79.534  1.00  0.00    -0.452 OA
ENDROOT
BRANCH   1  12
ATOM     12  C   UNL     1     142.286 -20.631  78.371  1.00  0.00     0.025 A 
ATOM     13  C   UNL     1     142.429 -21.973  78.763  1.00  0.00     0.016 A 
ATOM     14  C   UNL     1     143.505 -22.734  78.299  1.00  0.00     0.051 A 
ATOM     15  C   UNL     1     144.460 -22.162  77.447  1.00  0.00     0.157 A 
ATOM     16  C   UNL     1     143.257 -20.056  77.534  1.00  0.00     0.062 A 
ATOM     17  C   UNL     1     144.337 -20.821  77.067  1.00  0.00     0.158 A 
BRANCH  15  18
ATOM     18  O   UNL     1     145.533 -22.918  76.981  1.00  0.00    -0.504 OA
ATOM     19  H   UNL     1     145.700 -23.862  77.311  1.00  0.00     0.293 HD
ENDBRANCH  15  18
BRANCH  17  20
ATOM     20  O   UNL     1     145.292 -20.252  76.225  1.00  0.00    -0.504 OA
ATOM     21  H   UNL     1     145.046 -19.534  75.553  1.00  0.00     0.293 HD
ENDBRANCH  17  20
ENDBRANCH   1  12
BRANCH   2  22
ATOM     22  O   UNL     1     139.501 -21.248  77.859  1.00  0.00    -0.502 OA
ATOM     23  H   UNL     1     138.595 -21.363  77.422  1.00  0.00     0.293 HD
ENDBRANCH   2  22
BRANCH   6  24
ATOM     24  O   UNL     1     136.848 -17.520  80.586  1.00  0.00    -0.507 OA
ATOM     25  H   UNL     1     136.150 -16.816  80.769  1.00  0.00     0.293 HD
ENDBRANCH   6  24
BRANCH   8  26
ATOM     26  O   UNL     1     140.493 -14.676  81.887  1.00  0.00    -0.508 OA
ATOM     27  H   UNL     1     139.922 -13.840  81.927  1.00  0.00     0.293 HD
ENDBRANCH   8  26
TORSDOF 6
ENDMDL
MODEL 4
REMARK VINA RESULT:    -8.290      1.522      7.148
REMARK INTER + INTRA:         -10.283
REMARK INTER:                  -9.964
REMARK INTRA:                  -0.319
REMARK UNBOUND:                -0.297
REMARK SMILES O=c1c(O)c(-c2ccc(O)c(O)c2)oc2cc(O)cc(O)c12
REMARK SMILES IDX 5 1 3 2 2 3 1 4 22 5 20 6 19 7 17 8 16 9 15 10 14 11 6 12
REMARK SMILES IDX 7 13 8 14 9 15 13 16 11 17 10 18 12 20 4 22 21 24 18 26
REMARK H PARENT 10 19 12 21 4 23 21 25 18 27
REMARK Flexibility Score: inf
ROOT
ATOM      1  C   UNL     1     138.541 -18.814  79.636  1.00  0.00     0.180 A 
ATOM      2  C   UNL     1     138.169 -19.855  80.505  1.00  0.00     0.208 A 
ATOM      3  C   UNL     1     136.986 -20.565  80.248  1.00  0.00     0.238 A 
ATOM      4  O   UNL     1     136.687 -21.531  80.997  1.00  0.00    -0.285 OA
ATOM      5  C   UNL     1     136.181 -20.215  79.137  1.00  0.00     0.111 A 
ATOM      6  C   UNL     1     134.941 -20.840  78.805  1.00  0.00     0.134 A 
ATOM      7  C   UNL     1     134.295 -20.501  77.610  1.00  0.00     0.093 A 
ATOM      8  C   UNL     1     134.811 -19.512  76.768  1.00  0.00     0.123 A 
ATOM      9  C   UNL     1     135.988 -18.855  77.113  1.00  0.00     0.094 A 
ATOM     10  C   UNL     1     136.675 -19.197  78.280  1.00  0.00     0.146 A 
ATOM     11  O   UNL     1     137.801 -18.553  78.567  1.00  0.00    -0.452 OA
ENDROOT
BRANCH   1  12
ATOM     12  C   UNL     1     139.762 -18.003  79.856  1.00  0.00     0.025 A 
ATOM     13  C   UNL     1     140.990 -18.354  79.268  1.00  0.00     0.016 A 
ATOM     14  C   UNL     1     142.133 -17.588  79.510  1.00  0.00     0.051 A 
ATOM     15  C   UNL     1     142.070 -16.470  80.352  1.00  0.00     0.157 A 
ATOM     16  C   UNL     1     139.709 -16.894  80.716  1.00  0.00     0.062 A 
ATOM     17  C   UNL     1     140.857 -16.124  80.958  1.00  0.00     0.158 A 
BRANCH  15  18
ATOM     18  O   UNL     1     143.208 -15.703  80.593  1.00  0.00    -0.504 OA
ATOM     19  H   UNL     1     143.159 -14.695  80.680  1.00  0.00     0.293 HD
ENDBRANCH  15  18
BRANCH  17  20
ATOM     20  O   UNL     1     140.798 -15.016  81.801  1.00  0.00    -0.504 OA
ATOM     21  H   UNL     1     139.985 -14.831  82.377  1.00  0.00     0.293 HD
ENDBRANCH  17  20
ENDBRANCH   1  12
BRANCH   2  22
ATOM     22  O   UNL     1     138.990 -20.198  81.583  1.00  0.00    -0.502 OA
ATOM     23  H   UNL     1     138.740 -20.919  82.249  1.00  0.00     0.293 HD
ENDBRANCH   2  22
BRANCH   6  24
ATOM     24  O   UNL     1     134.294 -21.772  79.623  1.00  0.00    -0.507 OA
ATOM     25  H   UNL     1     133.393 -21.631  80.053  1.00  0.00     0.293 HD
ENDBRANCH   6  24
BRANCH   8  26
ATOM     26  O   UNL     1     134.152 -19.170  75.589  1.00  0.00    -0.508 OA
ATOM     27  H   UNL     1     133.367 -18.529  75.587  1.00  0.00     0.293 HD
ENDBRANCH   8  26
TORSDOF 6
ENDMDL
MODEL 5
REMARK VINA RESULT:    -7.910      2.631      6.751
REMARK INTER + INTRA:          -9.825
REMARK INTER:                  -9.857
REMARK INTRA:                   0.032
REMARK UNBOUND:                -0.297
REMARK SMILES O=c1c(O)c(-c2ccc(O)c(O)c2)oc2cc(O)cc(O)c12
REMARK SMILES IDX 5 1 3 2 2 3 1 4 22 5 20 6 19 7 17 8 16 9 15 10 14 11 6 12
REMARK SMILES IDX 7 13 8 14 9 15 13 16 11 17 10 18 12 20 4 22 21 24 18 26
REMARK H PARENT 10 19 12 21 4 23 21 25 18 27
REMARK Flexibility Score: inf
ROOT
ATOM      1  C   UNL     1     140.904 -20.194  78.929  1.00  0.00     0.180 A 
ATOM      2  C   UNL     1     140.903 -18.933  79.551  1.00  0.00     0.208 A 
ATOM      3  C   UNL     1     139.691 -18.413  80.033  1.00  0.00     0.238 A 
ATOM      4  O   UNL     1     139.706 -17.309  80.637  1.00  0.00    -0.285 OA
ATOM      5  C   UNL     1     138.493 -19.151  79.872  1.00  0.00     0.111 A 
ATOM      6  C   UNL     1     137.203 -18.703  80.285  1.00  0.00     0.134 A 
ATOM      7  C   UNL     1     136.108 -19.572  80.194  1.00  0.00     0.093 A 
ATOM      8  C   UNL     1     136.246 -20.848  79.644  1.00  0.00     0.123 A 
ATOM      9  C   UNL     1     137.489 -21.272  79.183  1.00  0.00     0.094 A 
ATOM     10  C   UNL     1     138.607 -20.443  79.294  1.00  0.00     0.146 A 
ATOM     11  O   UNL     1     139.777 -20.891  78.852  1.00  0.00    -0.452 OA
ENDROOT
BRANCH   1  12
ATOM     12  C   UNL     1     142.138 -20.797  78.374  1.00  0.00     0.025 A 
ATOM     13  C   UNL     1     142.533 -22.102  78.715  1.00  0.00     0.016 A 
ATOM     14  C   UNL     1     143.714 -22.640  78.198  1.00  0.00     0.051 A 
ATOM     15  C   UNL     1     144.523 -21.879  77.344  1.00  0.00     0.157 A 
ATOM     16  C   UNL     1     142.963 -20.030  77.533  1.00  0.00     0.062 A 
ATOM     17  C   UNL     1     144.148 -20.572  77.013  1.00  0.00     0.158 A 
BRANCH  15  18
ATOM     18  O   UNL     1     145.700 -22.414  76.824  1.00  0.00    -0.504 OA
ATOM     19  H   UNL     1     146.179 -21.982  76.043  1.00  0.00     0.293 HD
ENDBRANCH  15  18
BRANCH  17  20
ATOM     20  O   UNL     1     144.958 -19.814  76.169  1.00  0.00    -0.504 OA
ATOM     21  H   UNL     1     145.906 -20.096  75.949  1.00  0.00     0.293 HD
ENDBRANCH  17  20
ENDBRANCH   1  12
BRANCH   2  22
ATOM     22  O   UNL     1     142.100 -18.231  79.719  1.00  0.00    -0.502 OA
ATOM     23  H   UNL     1     143.000 -18.624  79.469  1.00  0.00     0.293 HD
ENDBRANCH   2  22
BRANCH   6  24
ATOM     24  O   UNL     1     136.940 -17.415  80.762  1.00  0.00    -0.507 OA
ATOM     25  H   UNL     1     136.109 -16.883  80.554  1.00  0.00     0.293 HD
ENDBRANCH   6  24
BRANCH   8  26
ATOM     26  O   UNL     1     135.148 -21.700  79.543  1.00  0.00    -0.508 OA
ATOM     27  H   UNL     1     134.296 -21.531  80.066  1.00  0.00     0.293 HD
ENDBRANCH   8  26
TORSDOF 6
ENDMDL
MODEL 6
REMARK VINA RESULT:    -7.804      1.563      7.185
REMARK INTER + INTRA:          -9.697
REMARK INTER:                  -9.391
REMARK INTRA:                  -0.306
REMARK UNBOUND:                -0.297
REMARK SMILES O=c1c(O)c(-c2ccc(O)c(O)c2)oc2cc(O)cc(O)c12
REMARK SMILES IDX 5 1 3 2 2 3 1 4 22 5 20 6 19 7 17 8 16 9 15 10 14 11 6 12
REMARK SMILES IDX 7 13 8 14 9 15 13 16 11 17 10 18 12 20 4 22 21 24 18 26
REMARK H PARENT 10 19 12 21 4 23 21 25 18 27
REMARK Flexibility Score: inf
ROOT
ATOM      1  C   UNL     1     138.177 -18.181  80.103  1.00  0.00     0.180 A 
ATOM      2  C   UNL     1     137.738 -19.145  81.028  1.00  0.00     0.208 A 
ATOM      3  C   UNL     1     136.759 -20.070  80.633  1.00  0.00     0.238 A 
ATOM      4  O   UNL     1     136.410 -20.965  81.448  1.00  0.00    -0.285 OA
ATOM      5  C   UNL     1     136.219 -20.011  79.326  1.00  0.00     0.111 A 
ATOM      6  C   UNL     1     135.193 -20.872  78.832  1.00  0.00     0.134 A 
ATOM      7  C   UNL     1     134.828 -20.807  77.482  1.00  0.00     0.093 A 
ATOM      8  C   UNL     1     135.405 -19.868  76.624  1.00  0.00     0.123 A 
ATOM      9  C   UNL     1     136.363 -18.983  77.111  1.00  0.00     0.094 A 
ATOM     10  C   UNL     1     136.775 -19.047  78.444  1.00  0.00     0.146 A 
ATOM     11  O   UNL     1     137.700 -18.192  78.865  1.00  0.00    -0.452 OA
ENDROOT
BRANCH   1  12
ATOM     12  C   UNL     1     139.188 -17.157  80.453  1.00  0.00     0.025 A 
ATOM     13  C   UNL     1     138.813 -15.852  80.818  1.00  0.00     0.016 A 
ATOM     14  C   UNL     1     139.786 -14.896  81.121  1.00  0.00     0.051 A 
ATOM     15  C   UNL     1     141.146 -15.225  81.051  1.00  0.00     0.157 A 
ATOM     16  C   UNL     1     140.554 -17.476  80.364  1.00  0.00     0.062 A 
ATOM     17  C   UNL     1     141.530 -16.516  80.670  1.00  0.00     0.158 A 
BRANCH  15  18
ATOM     18  O   UNL     1     142.119 -14.274  81.354  1.00  0.00    -0.504 OA
ATOM     19  H   UNL     1     142.959 -14.179  80.795  1.00  0.00     0.293 HD
ENDBRANCH  15  18
BRANCH  17  20
ATOM     20  O   UNL     1     142.884 -16.839  80.593  1.00  0.00    -0.504 OA
ATOM     21  H   UNL     1     143.284 -17.257  79.761  1.00  0.00     0.293 HD
ENDBRANCH  17  20
ENDBRANCH   1  12
BRANCH   2  22
ATOM     22  O   UNL     1     138.301 -19.200  82.306  1.00  0.00    -0.502 OA
ATOM     23  H   UNL     1     138.330 -18.396  82.922  1.00  0.00     0.293 HD
ENDBRANCH   2  22
BRANCH   6  24
ATOM     24  O   UNL     1     134.489 -21.781  79.627  1.00  0.00    -0.507 OA
ATOM     25  H   UNL     1     134.830 -22.689  79.902  1.00  0.00     0.293 HD
ENDBRANCH   6  24
BRANCH   8  26
ATOM     26  O   UNL     1     135.024 -19.800  75.285  1.00  0.00    -0.508 OA
ATOM     27  H   UNL     1     134.056 -19.911  75.004  1.00  0.00     0.293 HD
ENDBRANCH   8  26
TORSDOF 6
ENDMDL
MODEL 7
REMARK VINA RESULT:    -7.732      1.459      3.029
REMARK INTER + INTRA:          -9.611
REMARK INTER:                  -9.285
REMARK INTRA:                  -0.326
REMARK UNBOUND:                -0.297
REMARK SMILES O=c1c(O)c(-c2ccc(O)c(O)c2)oc2cc(O)cc(O)c12
REMARK SMILES IDX 5 1 3 2 2 3 1 4 22 5 20 6 19 7 17 8 16 9 15 10 14 11 6 12
REMARK SMILES IDX 7 13 8 14 9 15 13 16 11 17 10 18 12 20 4 22 21 24 18 26
REMARK H PARENT 10 19 12 21 4 23 21 25 18 27
REMARK Flexibility Score: inf
ROOT
ATOM      1  C   UNL     1     138.895 -17.534  80.402  1.00  0.00     0.180 A 
ATOM      2  C   UNL     1     138.431 -16.331  80.964  1.00  0.00     0.208 A 
ATOM      3  C   UNL     1     139.362 -15.343  81.319  1.00  0.00     0.238 A 
ATOM      4  O   UNL     1     138.937 -14.247  81.771  1.00  0.00    -0.285 OA
ATOM      5  C   UNL     1     140.745 -15.575  81.125  1.00  0.00     0.111 A 
ATOM      6  C   UNL     1     141.780 -14.661  81.487  1.00  0.00     0.134 A 
ATOM      7  C   UNL     1     143.104 -14.940  81.129  1.00  0.00     0.093 A 
ATOM      8  C   UNL     1     143.440 -16.131  80.481  1.00  0.00     0.123 A 
ATOM      9  C   UNL     1     142.445 -17.057  80.178  1.00  0.00     0.094 A 
ATOM     10  C   UNL     1     141.110 -16.791  80.489  1.00  0.00     0.146 A 
ATOM     11  O   UNL     1     140.191 -17.696  80.172  1.00  0.00    -0.452 OA
ENDROOT
BRANCH   1  12
ATOM     12  C   UNL     1     137.975 -18.633  80.025  1.00  0.00     0.025 A 
ATOM     13  C   UNL     1     137.532 -19.574  80.971  1.00  0.00     0.016 A 
ATOM     14  C   UNL     1     136.684 -20.616  80.586  1.00  0.00     0.051 A 
ATOM     15  C   UNL     1     136.279 -20.741  79.251  1.00  0.00     0.157 A 
ATOM     16  C   UNL     1     137.583 -18.775  78.683  1.00  0.00     0.062 A 
ATOM     17  C   UNL     1     136.731 -19.821  78.298  1.00  0.00     0.158 A 
BRANCH  15  18
ATOM     18  O   UNL     1     135.432 -21.778  78.865  1.00  0.00    -0.504 OA
ATOM     19  H   UNL     1     135.763 -22.733  78.789  1.00  0.00     0.293 HD
ENDBRANCH  15  18
BRANCH  17  20
ATOM     20  O   UNL     1     136.332 -19.952  76.969  1.00  0.00    -0.504 OA
ATOM     21  H   UNL     1     136.740 -20.651  76.359  1.00  0.00     0.293 HD
ENDBRANCH  17  20
ENDBRANCH   1  12
BRANCH   2  22
ATOM     22  O   UNL     1     137.060 -16.114  81.126  1.00  0.00    -0.502 OA
ATOM     23  H   UNL     1     136.690 -15.453  81.799  1.00  0.00     0.293 HD
ENDBRANCH   2  22
BRANCH   6  24
ATOM     24  O   UNL     1     141.564 -13.487  82.216  1.00  0.00    -0.507 OA
ATOM     25  H   UNL     1     140.726 -13.281  82.738  1.00  0.00     0.293 HD
ENDBRANCH   6  24
BRANCH   8  26
ATOM     26  O   UNL     1     144.763 -16.408  80.143  1.00  0.00    -0.508 OA
ATOM     27  H   UNL     1     145.198 -15.994  79.326  1.00  0.00     0.293 HD
ENDBRANCH   8  26
TORSDOF 6
ENDMDL
MODEL 8
REMARK VINA RESULT:    -7.705      2.728      5.100
REMARK INTER + INTRA:          -9.579
REMARK INTER:                  -9.464
REMARK INTRA:                  -0.115
REMARK UNBOUND:                -0.297
REMARK SMILES O=c1c(O)c(-c2ccc(O)c(O)c2)oc2cc(O)cc(O)c12
REMARK SMILES IDX 5 1 3 2 2 3 1 4 22 5 20 6 19 7 17 8 16 9 15 10 14 11 6 12
REMARK SMILES IDX 7 13 8 14 9 15 13 16 11 17 10 18 12 20 4 22 21 24 18 26
REMARK H PARENT 10 19 12 21 4 23 21 25 18 27
REMARK Flexibility Score: inf
ROOT
ATOM      1  C   UNL     1     135.444 -19.572  77.796  1.00  0.00     0.180 A 
ATOM      2  C   UNL     1     135.401 -20.617  78.737  1.00  0.00     0.208 A 
ATOM      3  C   UNL     1     136.574 -20.955  79.430  1.00  0.00     0.238 A 
ATOM      4  O   UNL     1     136.517 -21.854  80.310  1.00  0.00    -0.285 OA
ATOM      5  C   UNL     1     137.777 -20.259  79.163  1.00  0.00     0.111 A 
ATOM      6  C   UNL     1     139.034 -20.546  79.777  1.00  0.00     0.134 A 
ATOM      7  C   UNL     1     140.128 -19.708  79.534  1.00  0.00     0.093 A 
ATOM      8  C   UNL     1     140.029 -18.632  78.648  1.00  0.00     0.123 A 
ATOM      9  C   UNL     1     138.824 -18.380  77.998  1.00  0.00     0.094 A 
ATOM     10  C   UNL     1     137.704 -19.176  78.248  1.00  0.00     0.146 A 
ATOM     11  O   UNL     1     136.570 -18.894  77.616  1.00  0.00    -0.452 OA
ENDROOT
BRANCH   1  12
ATOM     12  C   UNL     1     134.254 -19.173  77.008  1.00  0.00     0.025 A 
ATOM     13  C   UNL     1     133.083 -18.711  77.633  1.00  0.00     0.016 A 
ATOM     14  C   UNL     1     131.965 -18.363  76.870  1.00  0.00     0.051 A 
ATOM     15  C   UNL     1     131.996 -18.486  75.475  1.00  0.00     0.157 A 
ATOM     16  C   UNL     1     134.273 -19.314  75.610  1.00  0.00     0.062 A 
ATOM     17  C   UNL     1     133.151 -18.964  74.845  1.00  0.00     0.158 A 
BRANCH  15  18
ATOM     18  O   UNL     1     130.884 -18.139  74.711  1.00  0.00    -0.504 OA
ATOM     19  H   UNL     1     130.978 -17.808  73.757  1.00  0.00     0.293 HD
ENDBRANCH  15  18
BRANCH  17  20
ATOM     20  O   UNL     1     133.177 -19.093  73.457  1.00  0.00    -0.504 OA
ATOM     21  H   UNL     1     133.003 -18.302  72.848  1.00  0.00     0.293 HD
ENDBRANCH  17  20
ENDBRANCH   1  12
BRANCH   2  22
ATOM     22  O   UNL     1     134.198 -21.276  79.001  1.00  0.00    -0.502 OA
ATOM     23  H   UNL     1     134.133 -22.285  79.062  1.00  0.00     0.293 HD
ENDBRANCH   2  22
BRANCH   6  24
ATOM     24  O   UNL     1     139.263 -21.649  80.604  1.00  0.00    -0.507 OA
ATOM     25  H   UNL     1     138.577 -22.061  81.218  1.00  0.00     0.293 HD
ENDBRANCH   6  24
BRANCH   8  26
ATOM     26  O   UNL     1     141.128 -17.813  78.399  1.00  0.00    -0.508 OA
ATOM     27  H   UNL     1     141.822 -17.626  79.114  1.00  0.00     0.293 HD
ENDBRANCH   8  26
TORSDOF 6
ENDMDL
