MODEL 1
REMARK VINA RESULT:    -4.373      0.000      0.000
REMARK INTER + INTRA:          -5.288
REMARK INTER:                  -5.139
REMARK INTRA:                  -0.149
REMARK UNBOUND:                -0.149
REMARK SMILES O=C([O-])C=Cc1ccc(O)c(O)c1
REMARK SMILES IDX 6 1 13 2 7 3 11 4 8 5 9 6 5 7 4 8 2 9 1 10 3 11 12 12 10 14
REMARK H PARENT 12 13 10 15
REMARK Flexibility Score: inf
ROOT
ATOM      1  C   UNL     1     -20.025  -9.355  11.572  1.00  0.00    -0.022 A 
ATOM      2  C   UNL     1     -20.494  -9.097  10.275  1.00  0.00     0.058 A 
ATOM      3  C   UNL     1     -18.950 -10.242  11.751  1.00  0.00     0.012 A 
ATOM      4  C   UNL     1     -19.932  -9.756   9.172  1.00  0.00     0.157 A 
ATOM      5  C   UNL     1     -18.390 -10.900  10.652  1.00  0.00     0.051 A 
ATOM      6  C   UNL     1     -18.880 -10.663   9.361  1.00  0.00     0.157 A 
ENDROOT
BRANCH   1   7
ATOM      7  C   UNL     1     -20.598  -8.607  12.710  1.00  0.00     0.010 C 
ATOM      8  C   UNL     1     -20.440  -7.293  12.936  1.00  0.00     0.025 C 
BRANCH   8   9
ATOM      9  C   UNL     1     -19.526  -6.395  12.203  1.00  0.00     0.064 C 
ATOM     10  O   UNL     1     -19.961  -5.449  11.494  1.00  0.00    -0.545 OA
ATOM     11  O   UNL     1     -18.160  -6.640  12.241  1.00  0.00    -0.545 OA
ENDBRANCH   8   9
ENDBRANCH   1   7
BRANCH   4  12
ATOM     12  O   UNL     1     -20.412  -9.514   7.886  1.00  0.00    -0.504 OA
ATOM     13  H   UNL     1     -19.857  -9.019   7.197  1.00  0.00     0.293 HD
ENDBRANCH   4  12
BRANCH   6  14
ATOM     14  O   UNL     1     -18.327 -11.319   8.264  1.00  0.00    -0.504 OA
ATOM     15  H   UNL     1     -18.814 -12.075   7.798  1.00  0.00     0.293 HD
ENDBRANCH   6  14
TORSDOF 4
ENDMDL
MODEL 2
REMARK VINA RESULT:    -4.157      2.379      3.239
REMARK INTER + INTRA:          -5.035
REMARK INTER:                  -5.025
REMARK INTRA:                  -0.010
REMARK UNBOUND:                -0.149
REMARK SMILES O=C([O-])C=Cc1ccc(O)c(O)c1
REMARK SMILES IDX 6 1 13 2 7 3 11 4 8 5 9 6 5 7 4 8 2 9 1 10 3 11 12 12 10 14
REMARK H PARENT 12 13 10 15
REMARK Flexibility Score: inf
ROOT
ATOM      1  C   UNL     1     -18.831  -9.058  10.336  1.00  0.00    -0.022 A 
ATOM      2  C   UNL     1     -18.557  -9.733  11.534  1.00  0.00     0.058 A 
ATOM      3  C   UNL     1     -20.032  -9.323   9.656  1.00  0.00     0.012 A 
ATOM      4  C   UNL     1     -19.446 -10.702  12.023  1.00  0.00     0.157 A 
ATOM      5  C   UNL     1     -20.918 -10.289  10.141  1.00  0.00     0.051 A 
ATOM      6  C   UNL     1     -20.627 -10.983  11.324  1.00  0.00     0.157 A 
ENDROOT
BRANCH   1   7
ATOM      7  C   UNL     1     -17.905  -8.005   9.871  1.00  0.00     0.010 C 
ATOM      8  C   UNL     1     -17.617  -6.874  10.535  1.00  0.00     0.025 C 
BRANCH   8   9
ATOM      9  C   UNL     1     -18.300  -6.389  11.750  1.00  0.00     0.064 C 
ATOM     10  O   UNL     1     -17.663  -6.129  12.805  1.00  0.00    -0.545 OA
ATOM     11  O   UNL     1     -19.684  -6.282  11.752  1.00  0.00    -0.545 OA
ENDBRANCH   8   9
ENDBRANCH   1   7
BRANCH   4  12
ATOM     12  O   UNL     1     -19.163 -11.386  13.204  1.00  0.00    -0.504 OA
ATOM     13  H   UNL     1     -18.801 -12.332  13.195  1.00  0.00     0.293 HD
ENDBRANCH   4  12
BRANCH   6  14
ATOM     14  O   UNL     1     -21.506 -11.948  11.810  1.00  0.00    -0.504 OA
ATOM     15  H   UNL     1     -22.174 -12.409  11.204  1.00  0.00     0.293 HD
ENDBRANCH   6  14
TORSDOF 4
ENDMDL
MODEL 3
REMARK VINA RESULT:    -3.366      1.751      4.876
REMARK INTER + INTRA:          -4.105
REMARK INTER:                  -3.855
REMARK INTRA:                  -0.250
REMARK UNBOUND:                -0.149
REMARK SMILES O=C([O-])C=Cc1ccc(O)c(O)c1
REMARK SMILES IDX 6 1 13 2 7 3 11 4 8 5 9 6 5 7 4 8 2 9 1 10 3 11 12 12 10 14
REMARK H PARENT 12 13 10 15
REMARK Flexibility Score: inf
ROOT
ATOM      1  C   UNL     1     -19.458  -8.220  10.024  1.00  0.00    -0.022 A 
ATOM      2  C   UNL     1     -20.323  -8.154  11.127  1.00  0.00     0.058 A 
ATOM      3  C   UNL     1     -18.149  -7.724  10.145  1.00  0.00     0.012 A 
ATOM      4  C   UNL     1     -19.904  -7.553  12.323  1.00  0.00     0.157 A 
ATOM      5  C   UNL     1     -17.731  -7.124  11.336  1.00  0.00     0.051 A 
ATOM      6  C   UNL     1     -18.607  -7.033  12.426  1.00  0.00     0.157 A 
ENDROOT
BRANCH   1   7
ATOM      7  C   UNL     1     -19.906  -8.905   8.794  1.00  0.00     0.010 C 
ATOM      8  C   UNL     1     -19.851 -10.230   8.577  1.00  0.00     0.025 C 
BRANCH   8   9
ATOM      9  C   UNL     1     -19.174 -11.218   9.441  1.00  0.00     0.064 C 
ATOM     10  O   UNL     1     -18.081 -11.745   9.106  1.00  0.00    -0.545 OA
ATOM     11  O   UNL     1     -19.791 -11.623  10.617  1.00  0.00    -0.545 OA
ENDBRANCH   8   9
ENDBRANCH   1   7
BRANCH   4  12
ATOM     12  O   UNL     1     -20.770  -7.471  13.412  1.00  0.00    -0.504 OA
ATOM     13  H   UNL     1     -21.668  -7.940  13.412  1.00  0.00     0.293 HD
ENDBRANCH   4  12
BRANCH   6  14
ATOM     14  O   UNL     1     -18.195  -6.433  13.614  1.00  0.00    -0.504 OA
ATOM     15  H   UNL     1     -18.840  -5.910  14.195  1.00  0.00     0.293 HD
ENDBRANCH   6  14
TORSDOF 4
ENDMDL
MODEL 4
REMARK VINA RESULT:    -3.247      1.164      4.627
REMARK INTER + INTRA:          -3.965
REMARK INTER:                  -4.656
REMARK INTRA:                   0.691
REMARK UNBOUND:                -0.149
REMARK SMILES O=C([O-])C=Cc1ccc(O)c(O)c1
REMARK SMILES IDX 6 1 13 2 7 3 11 4 8 5 9 6 5 7 4 8 2 9 1 10 3 11 12 12 10 14
REMARK H PARENT 12 13 10 15
REMARK Flexibility Score: inf
ROOT
ATOM      1  C   UNL     1     -19.855  -9.345  11.859  1.00  0.00    -0.022 A 
ATOM      2  C   UNL     1     -18.711  -8.850  11.215  1.00  0.00     0.058 A 
ATOM      3  C   UNL     1     -20.683  -8.459  12.568  1.00  0.00     0.012 A 
ATOM      4  C   UNL     1     -18.367  -7.494  11.320  1.00  0.00     0.157 A 
ATOM      5  C   UNL     1     -20.341  -7.108  12.674  1.00  0.00     0.051 A 
ATOM      6  C   UNL     1     -19.182  -6.622  12.054  1.00  0.00     0.157 A 
ENDROOT
BRANCH   1   7
ATOM      7  C   UNL     1     -20.222 -10.766  11.688  1.00  0.00     0.010 C 
ATOM      8  C   UNL     1     -19.906 -11.529  10.630  1.00  0.00     0.025 C 
BRANCH   8   9
ATOM      9  C   UNL     1     -19.298 -11.051   9.372  1.00  0.00     0.064 C 
ATOM     10  O   UNL     1     -18.179 -11.475   8.979  1.00  0.00    -0.545 OA
ATOM     11  O   UNL     1     -19.944 -10.064   8.641  1.00  0.00    -0.545 OA
ENDBRANCH   8   9
ENDBRANCH   1   7
BRANCH   4  12
ATOM     12  O   UNL     1     -17.221  -7.006  10.695  1.00  0.00    -0.504 OA
ATOM     13  H   UNL     1     -17.231  -6.141  10.169  1.00  0.00     0.293 HD
ENDBRANCH   4  12
BRANCH   6  14
ATOM     14  O   UNL     1     -18.836  -5.276  12.160  1.00  0.00    -0.504 OA
ATOM     15  H   UNL     1     -18.370  -4.788  11.405  1.00  0.00     0.293 HD
ENDBRANCH   6  14
TORSDOF 4
ENDMDL
MODEL 5
REMARK VINA RESULT:    -2.947      1.469      1.752
REMARK INTER + INTRA:          -3.613
REMARK INTER:                  -3.586
REMARK INTRA:                  -0.027
REMARK UNBOUND:                -0.149
REMARK SMILES O=C([O-])C=Cc1ccc(O)c(O)c1
REMARK SMILES IDX 6 1 13 2 7 3 11 4 8 5 9 6 5 7 4 8 2 9 1 10 3 11 12 12 10 14
REMARK H PARENT 12 13 10 15
REMARK Flexibility Score: inf
ROOT
ATOM      1  C   UNL     1     -18.355  -8.387  10.764  1.00  0.00    -0.022 A 
ATOM      2  C   UNL     1     -19.031  -8.507   9.540  1.00  0.00     0.058 A 
ATOM      3  C   UNL     1     -18.124  -9.536  11.538  1.00  0.00     0.012 A 
ATOM      4  C   UNL     1     -19.517  -9.753   9.117  1.00  0.00     0.157 A 
ATOM      5  C   UNL     1     -18.608 -10.778  11.117  1.00  0.00     0.051 A 
ATOM      6  C   UNL     1     -19.309 -10.890   9.908  1.00  0.00     0.157 A 
ENDROOT
BRANCH   1   7
ATOM      7  C   UNL     1     -17.808  -7.074  11.161  1.00  0.00     0.010 C 
ATOM      8  C   UNL     1     -18.454  -6.148  11.888  1.00  0.00     0.025 C 
BRANCH   8   9
ATOM      9  C   UNL     1     -19.880  -6.193  12.269  1.00  0.00     0.064 C 
ATOM     10  O   UNL     1     -20.634  -5.196  12.116  1.00  0.00    -0.545 OA
ATOM     11  O   UNL     1     -20.384  -7.337  12.873  1.00  0.00    -0.545 OA
ENDBRANCH   8   9
ENDBRANCH   1   7
BRANCH   4  12
ATOM     12  O   UNL     1     -20.205  -9.868   7.910  1.00  0.00    -0.504 OA
ATOM     13  H   UNL     1     -19.729 -10.111   7.050  1.00  0.00     0.293 HD
ENDBRANCH   4  12
BRANCH   6  14
ATOM     14  O   UNL     1     -19.796 -12.125   9.487  1.00  0.00    -0.504 OA
ATOM     15  H   UNL     1     -20.583 -12.568   9.945  1.00  0.00     0.293 HD
ENDBRANCH   6  14
TORSDOF 4
ENDMDL
MODEL 6
REMARK VINA RESULT:    -2.871      2.242      4.652
REMARK INTER + INTRA:          -3.524
REMARK INTER:                  -4.234
REMARK INTRA:                   0.710
REMARK UNBOUND:                -0.149
REMARK SMILES O=C([O-])C=Cc1ccc(O)c(O)c1
REMARK SMILES IDX 6 1 13 2 7 3 11 4 8 5 9 6 5 7 4 8 2 9 1 10 3 11 12 12 10 14
REMARK H PARENT 12 13 10 15
REMARK Flexibility Score: inf
ROOT
ATOM      1  C   UNL     1     -19.006  -8.815  10.146  1.00  0.00    -0.022 A 
ATOM      2  C   UNL     1     -19.996  -8.456  11.073  1.00  0.00     0.058 A 
ATOM      3  C   UNL     1     -17.839  -8.039  10.051  1.00  0.00     0.012 A 
ATOM      4  C   UNL     1     -19.848  -7.304  11.861  1.00  0.00     0.157 A 
ATOM      5  C   UNL     1     -17.690  -6.891  10.834  1.00  0.00     0.051 A 
ATOM      6  C   UNL     1     -18.695  -6.518  11.738  1.00  0.00     0.157 A 
ENDROOT
BRANCH   1   7
ATOM      7  C   UNL     1     -19.163 -10.061   9.368  1.00  0.00     0.010 C 
ATOM      8  C   UNL     1     -19.859 -11.141   9.759  1.00  0.00     0.025 C 
BRANCH   8   9
ATOM      9  C   UNL     1     -20.440 -11.353  11.100  1.00  0.00     0.064 C 
ATOM     10  O   UNL     1     -21.678 -11.521  11.262  1.00  0.00    -0.545 OA
ATOM     11  O   UNL     1     -19.612 -11.299  12.213  1.00  0.00    -0.545 OA
ENDBRANCH   8   9
ENDBRANCH   1   7
BRANCH   4  12
ATOM     12  O   UNL     1     -20.841  -6.938  12.767  1.00  0.00    -0.504 OA
ATOM     13  H   UNL     1     -21.313  -7.625  13.343  1.00  0.00     0.293 HD
ENDBRANCH   4  12
BRANCH   6  14
ATOM     14  O   UNL     1     -18.552  -5.373  12.519  1.00  0.00    -0.504 OA
ATOM     15  H   UNL     1     -17.649  -5.085  12.877  1.00  0.00     0.293 HD
ENDBRANCH   6  14
TORSDOF 4
ENDMDL
MODEL 7
REMARK VINA RESULT:    -1.760     16.240     17.966
REMARK INTER + INTRA:          -2.217
REMARK INTER:                  -3.126
REMARK INTRA:                   0.909
REMARK UNBOUND:                -0.149
REMARK SMILES O=C([O-])C=Cc1ccc(O)c(O)c1
REMARK SMILES IDX 6 1 13 2 7 3 11 4 8 5 9 6 5 7 4 8 2 9 1 10 3 11 12 12 10 14
REMARK H PARENT 12 13 10 15
REMARK Flexibility Score: inf
ROOT
ATOM      1  C   UNL     1     -18.139   5.112  20.380  1.00  0.00    -0.022 A 
ATOM      2  C   UNL     1     -17.921   3.777  20.750  1.00  0.00     0.058 A 
ATOM      3  C   UNL     1     -19.121   5.860  21.050  1.00  0.00     0.012 A 
ATOM      4  C   UNL     1     -18.709   3.176  21.743  1.00  0.00     0.157 A 
ATOM      5  C   UNL     1     -19.908   5.263  22.040  1.00  0.00     0.051 A 
ATOM      6  C   UNL     1     -19.707   3.920  22.386  1.00  0.00     0.157 A 
ENDROOT
BRANCH   1   7
ATOM      7  C   UNL     1     -17.261   5.735  19.369  1.00  0.00     0.010 C 
ATOM      8  C   UNL     1     -16.501   6.825  19.563  1.00  0.00     0.025 C 
BRANCH   8   9
ATOM      9  C   UNL     1     -16.538   7.701  20.751  1.00  0.00     0.064 C 
ATOM     10  O   UNL     1     -17.626   8.122  21.225  1.00  0.00    -0.545 OA
ATOM     11  O   UNL     1     -15.344   8.125  21.317  1.00  0.00    -0.545 OA
ENDBRANCH   8   9
ENDBRANCH   1   7
BRANCH   4  12
ATOM     12  O   UNL     1     -18.504   1.844  22.096  1.00  0.00    -0.504 OA
ATOM     13  H   UNL     1     -18.169   1.585  23.016  1.00  0.00     0.293 HD
ENDBRANCH   4  12
BRANCH   6  14
ATOM     14  O   UNL     1     -20.490   3.320  23.370  1.00  0.00    -0.504 OA
ATOM     15  H   UNL     1     -21.350   3.746  23.695  1.00  0.00     0.293 HD
ENDBRANCH   6  14
TORSDOF 4
ENDMDL
MODEL 8
REMARK VINA RESULT:    -1.659     16.679     18.084
REMARK INTER + INTRA:          -2.099
REMARK INTER:                  -3.570
REMARK INTRA:                   1.471
REMARK UNBOUND:                -0.149
REMARK SMILES O=C([O-])C=Cc1ccc(O)c(O)c1
REMARK SMILES IDX 6 1 13 2 7 3 11 4 8 5 9 6 5 7 4 8 2 9 1 10 3 11 12 12 10 14
REMARK H PARENT 12 13 10 15
REMARK Flexibility Score: inf
ROOT
ATOM      1  C   UNL     1     -18.078   4.751  20.530  1.00  0.00    -0.022 A 
ATOM      2  C   UNL     1     -18.810   5.653  21.316  1.00  0.00     0.058 A 
ATOM      3  C   UNL     1     -18.230   3.371  20.744  1.00  0.00     0.012 A 
ATOM      4  C   UNL     1     -19.647   5.185  22.341  1.00  0.00     0.157 A 
ATOM      5  C   UNL     1     -19.063   2.904  21.764  1.00  0.00     0.051 A 
ATOM      6  C   UNL     1     -19.771   3.808  22.567  1.00  0.00     0.157 A 
ENDROOT
BRANCH   1   7
ATOM      7  C   UNL     1     -17.245   5.267  19.424  1.00  0.00     0.010 C 
ATOM      8  C   UNL     1     -16.568   6.427  19.436  1.00  0.00     0.025 C 
BRANCH   8   9
ATOM      9  C   UNL     1     -16.672   7.477  20.470  1.00  0.00     0.064 C 
ATOM     10  O   UNL     1     -17.788   7.935  20.832  1.00  0.00    -0.545 OA
ATOM     11  O   UNL     1     -15.511   8.017  21.006  1.00  0.00    -0.545 OA
ENDBRANCH   8   9
ENDBRANCH   1   7
BRANCH   4  12
ATOM     12  O   UNL     1     -20.360   6.083  23.133  1.00  0.00    -0.504 OA
ATOM     13  H   UNL     1     -21.366   6.021  23.231  1.00  0.00     0.293 HD
ENDBRANCH   4  12
BRANCH   6  14
ATOM     14  O   UNL     1     -20.600   3.347  23.588  1.00  0.00    -0.504 OA
ATOM     15  H   UNL     1     -21.350   2.691  23.405  1.00  0.00     0.293 HD
ENDBRANCH   6  14
TORSDOF 4
ENDMDL
