MODEL 1
REMARK VINA RESULT:    -4.440      0.000      0.000
REMARK INTER + INTRA:          -9.953
REMARK INTER:                  -8.074
REMARK INTRA:                  -1.879
REMARK UNBOUND:                -1.879
REMARK SMILES CCCCCCCCCCCCCCCC(=O)[O-]
REMARK SMILES IDX 9 1 10 2 11 3 12 4 13 5 14 6 15 7 16 8 17 9 18 10 8 11 7 12
REMARK SMILES IDX 6 13 5 14 4 15 3 16 2 17 1 18
REMARK H PARENT
REMARK Flexibility Score: inf
ROOT
ATOM      1  C   UNL     1       7.636   4.236  19.016  1.00  0.00     0.000 C 
ENDROOT
BRANCH   1   2
ATOM      2  C   UNL     1       6.315   4.630  18.329  1.00  0.00     0.000 C 
BRANCH   2   3
ATOM      3  C   UNL     1       6.222   6.140  18.054  1.00  0.00     0.000 C 
BRANCH   3   4
ATOM      4  C   UNL     1       6.177   6.463  16.551  1.00  0.00     0.000 C 
BRANCH   4   5
ATOM      5  C   UNL     1       6.560   5.262  15.669  1.00  0.00     0.000 C 
BRANCH   5   6
ATOM      6  C   UNL     1       8.023   5.248  15.178  1.00  0.00     0.006 C 
BRANCH   6   7
ATOM      7  C   UNL     1       8.916   6.331  15.801  1.00  0.00     0.053 C 
BRANCH   7   8
ATOM      8  C   UNL     1      10.008   6.760  14.871  1.00  0.00     0.041 C 
ATOM      9  O   UNL     1      10.951   7.482  15.289  1.00  0.00    -0.550 OA
ATOM     10  O   UNL     1      10.002   6.332  13.548  1.00  0.00    -0.550 OA
ENDBRANCH   7   8
ENDBRANCH   6   7
ENDBRANCH   5   6
ENDBRANCH   4   5
ENDBRANCH   3   4
ENDBRANCH   2   3
ENDBRANCH   1   2
BRANCH   1  11
ATOM     11  C   UNL     1       7.460   3.079  20.012  1.00  0.00     0.000 C 
BRANCH  11  12
ATOM     12  C   UNL     1       6.033   2.501  20.003  1.00  0.00    -0.000 C 
BRANCH  12  13
ATOM     13  C   UNL     1       5.312   2.677  21.350  1.00  0.00    -0.000 C 
BRANCH  13  14
ATOM     14  C   UNL     1       4.388   3.908  21.366  1.00  0.00    -0.000 C 
BRANCH  14  15
ATOM     15  C   UNL     1       4.898   5.016  22.301  1.00  0.00    -0.000 C 
BRANCH  15  16
ATOM     16  C   UNL     1       5.200   6.326  21.559  1.00  0.00    -0.000 C 
BRANCH  16  17
ATOM     17  C   UNL     1       6.691   6.674  21.647  1.00  0.00    -0.003 C 
ATOM     18  C   UNL     1       6.960   8.087  21.138  1.00  0.00     0.004 C 
ENDBRANCH  16  17
ENDBRANCH  15  16
ENDBRANCH  14  15
ENDBRANCH  13  14
ENDBRANCH  12  13
ENDBRANCH  11  12
ENDBRANCH   1  11
TORSDOF 14
ENDMDL
MODEL 2
REMARK VINA RESULT:    -4.359      2.678      7.202
REMARK INTER + INTRA:          -9.805
REMARK INTER:                  -7.572
REMARK INTRA:                  -2.232
REMARK UNBOUND:                -1.879
REMARK SMILES CCCCCCCCCCCCCCCC(=O)[O-]
REMARK SMILES IDX 9 1 10 2 11 3 12 4 13 5 14 6 15 7 16 8 17 9 18 10 8 11 7 12
REMARK SMILES IDX 6 13 5 14 4 15 3 16 2 17 1 18
REMARK H PARENT
REMARK Flexibility Score: inf
ROOT
ATOM      1  C   UNL     1       8.623   6.362  15.717  1.00  0.00     0.000 C 
ENDROOT
BRANCH   1   2
ATOM      2  C   UNL     1       7.455   5.372  15.559  1.00  0.00     0.000 C 
BRANCH   2   3
ATOM      3  C   UNL     1       6.180   5.846  16.276  1.00  0.00     0.000 C 
BRANCH   3   4
ATOM      4  C   UNL     1       6.376   7.188  17.000  1.00  0.00     0.000 C 
BRANCH   4   5
ATOM      5  C   UNL     1       6.384   7.047  18.533  1.00  0.00     0.000 C 
BRANCH   5   6
ATOM      6  C   UNL     1       6.219   5.605  19.059  1.00  0.00     0.006 C 
BRANCH   6   7
ATOM      7  C   UNL     1       7.384   5.105  19.926  1.00  0.00     0.053 C 
BRANCH   7   8
ATOM      8  C   UNL     1       8.588   4.765  19.104  1.00  0.00     0.041 C 
ATOM      9  O   UNL     1       9.597   5.517  19.115  1.00  0.00    -0.550 OA
ATOM     10  O   UNL     1       8.608   3.597  18.350  1.00  0.00    -0.550 OA
ENDBRANCH   7   8
ENDBRANCH   6   7
ENDBRANCH   5   6
ENDBRANCH   4   5
ENDBRANCH   3   4
ENDBRANCH   2   3
ENDBRANCH   1   2
BRANCH   1  11
ATOM     11  C   UNL     1       9.995   5.679  15.602  1.00  0.00     0.000 C 
BRANCH  11  12
ATOM     12  C   UNL     1      11.021   6.533  14.836  1.00  0.00    -0.000 C 
BRANCH  12  13
ATOM     13  C   UNL     1      10.506   6.987  13.460  1.00  0.00    -0.000 C 
BRANCH  13  14
ATOM     14  C   UNL     1      11.171   6.226  12.301  1.00  0.00    -0.000 C 
BRANCH  14  15
ATOM     15  C   UNL     1      10.457   4.904  11.977  1.00  0.00    -0.000 C 
BRANCH  15  16
ATOM     16  C   UNL     1       8.926   5.038  11.990  1.00  0.00    -0.000 C 
BRANCH  16  17
ATOM     17  C   UNL     1       8.266   3.725  12.429  1.00  0.00    -0.003 C 
ATOM     18  C   UNL     1       9.214   2.889  13.283  1.00  0.00     0.004 C 
ENDBRANCH  16  17
ENDBRANCH  15  16
ENDBRANCH  14  15
ENDBRANCH  13  14
ENDBRANCH  12  13
ENDBRANCH  11  12
ENDBRANCH   1  11
TORSDOF 14
ENDMDL
MODEL 3
REMARK VINA RESULT:    -4.337      3.749      7.818
REMARK INTER + INTRA:          -9.764
REMARK INTER:                  -8.046
REMARK INTRA:                  -1.719
REMARK UNBOUND:                -1.879
REMARK SMILES CCCCCCCCCCCCCCCC(=O)[O-]
REMARK SMILES IDX 9 1 10 2 11 3 12 4 13 5 14 6 15 7 16 8 17 9 18 10 8 11 7 12
REMARK SMILES IDX 6 13 5 14 4 15 3 16 2 17 1 18
REMARK H PARENT
REMARK Flexibility Score: inf
ROOT
ATOM      1  C   UNL     1       8.329   6.366  15.892  1.00  0.00     0.000 C 
ENDROOT
BRANCH   1   2
ATOM      2  C   UNL     1       7.122   5.437  15.672  1.00  0.00     0.000 C 
BRANCH   2   3
ATOM      3  C   UNL     1       5.977   5.716  16.661  1.00  0.00     0.000 C 
BRANCH   3   4
ATOM      4  C   UNL     1       6.470   6.365  17.965  1.00  0.00     0.000 C 
BRANCH   4   5
ATOM      5  C   UNL     1       6.629   5.354  19.114  1.00  0.00     0.000 C 
BRANCH   5   6
ATOM      6  C   UNL     1       5.855   4.031  18.935  1.00  0.00     0.006 C 
BRANCH   6   7
ATOM      7  C   UNL     1       6.138   2.974  20.013  1.00  0.00     0.053 C 
BRANCH   7   8
ATOM      8  C   UNL     1       5.177   3.070  21.157  1.00  0.00     0.041 C 
ATOM      9  O   UNL     1       4.327   3.998  21.196  1.00  0.00    -0.550 OA
ATOM     10  O   UNL     1       5.197   2.113  22.165  1.00  0.00    -0.550 OA
ENDBRANCH   7   8
ENDBRANCH   6   7
ENDBRANCH   5   6
ENDBRANCH   4   5
ENDBRANCH   3   4
ENDBRANCH   2   3
ENDBRANCH   1   2
BRANCH   1  11
ATOM     11  C   UNL     1       9.658   5.596  15.972  1.00  0.00     0.000 C 
BRANCH  11  12
ATOM     12  C   UNL     1      10.833   6.377  15.355  1.00  0.00    -0.000 C 
BRANCH  12  13
ATOM     13  C   UNL     1      11.183   5.901  13.936  1.00  0.00    -0.000 C 
BRANCH  13  14
ATOM     14  C   UNL     1      10.487   6.735  12.847  1.00  0.00    -0.000 C 
BRANCH  14  15
ATOM     15  C   UNL     1       9.391   5.948  12.111  1.00  0.00    -0.000 C 
BRANCH  15  16
ATOM     16  C   UNL     1       9.640   4.432  12.122  1.00  0.00    -0.000 C 
BRANCH  16  17
ATOM     17  C   UNL     1       8.418   3.680  12.661  1.00  0.00    -0.003 C 
ATOM     18  C   UNL     1       8.812   2.707  13.768  1.00  0.00     0.004 C 
ENDBRANCH  16  17
ENDBRANCH  15  16
ENDBRANCH  14  15
ENDBRANCH  13  14
ENDBRANCH  12  13
ENDBRANCH  11  12
ENDBRANCH   1  11
TORSDOF 14
ENDMDL
MODEL 4
REMARK VINA RESULT:    -4.331      3.465      5.951
REMARK INTER + INTRA:          -9.754
REMARK INTER:                  -8.125
REMARK INTRA:                  -1.629
REMARK UNBOUND:                -1.879
REMARK SMILES CCCCCCCCCCCCCCCC(=O)[O-]
REMARK SMILES IDX 9 1 10 2 11 3 12 4 13 5 14 6 15 7 16 8 17 9 18 10 8 11 7 12
REMARK SMILES IDX 6 13 5 14 4 15 3 16 2 17 1 18
REMARK H PARENT
REMARK Flexibility Score: inf
ROOT
ATOM      1  C   UNL     1       4.450   3.315  22.134  1.00  0.00     0.000 C 
ENDROOT
BRANCH   1   2
ATOM      2  C   UNL     1       4.507   4.729  21.530  1.00  0.00     0.000 C 
BRANCH   2   3
ATOM      3  C   UNL     1       5.283   5.718  22.416  1.00  0.00     0.000 C 
BRANCH   3   4
ATOM      4  C   UNL     1       6.516   6.302  21.706  1.00  0.00     0.000 C 
BRANCH   4   5
ATOM      5  C   UNL     1       6.207   7.599  20.938  1.00  0.00     0.000 C 
BRANCH   5   6
ATOM      6  C   UNL     1       7.119   8.796  21.279  1.00  0.00     0.006 C 
BRANCH   6   7
ATOM      7  C   UNL     1       6.611   9.680  22.428  1.00  0.00     0.053 C 
BRANCH   7   8
ATOM      8  C   UNL     1       7.135  11.079  22.333  1.00  0.00     0.041 C 
ATOM      9  O   UNL     1       6.340  12.048  22.211  1.00  0.00    -0.550 OA
ATOM     10  O   UNL     1       8.502  11.316  22.412  1.00  0.00    -0.550 OA
ENDBRANCH   7   8
ENDBRANCH   6   7
ENDBRANCH   5   6
ENDBRANCH   4   5
ENDBRANCH   3   4
ENDBRANCH   2   3
ENDBRANCH   1   2
BRANCH   1  11
ATOM     11  C   UNL     1       5.452   2.352  21.476  1.00  0.00     0.000 C 
BRANCH  11  12
ATOM     12  C   UNL     1       5.803   2.757  20.033  1.00  0.00    -0.000 C 
BRANCH  12  13
ATOM     13  C   UNL     1       7.301   3.040  19.843  1.00  0.00    -0.000 C 
BRANCH  13  14
ATOM     14  C   UNL     1       7.564   4.170  18.832  1.00  0.00    -0.000 C 
BRANCH  14  15
ATOM     15  C   UNL     1       6.268   4.727  18.221  1.00  0.00    -0.000 C 
BRANCH  15  16
ATOM     16  C   UNL     1       6.405   6.189  17.771  1.00  0.00    -0.000 C 
BRANCH  16  17
ATOM     17  C   UNL     1       5.994   6.351  16.303  1.00  0.00    -0.003 C 
ATOM     18  C   UNL     1       5.337   5.081  15.770  1.00  0.00     0.004 C 
ENDBRANCH  16  17
ENDBRANCH  15  16
ENDBRANCH  14  15
ENDBRANCH  13  14
ENDBRANCH  12  13
ENDBRANCH  11  12
ENDBRANCH   1  11
TORSDOF 14
ENDMDL
MODEL 5
REMARK VINA RESULT:    -4.327      2.995      6.885
REMARK INTER + INTRA:          -9.748
REMARK INTER:                  -8.205
REMARK INTRA:                  -1.543
REMARK UNBOUND:                -1.879
REMARK SMILES CCCCCCCCCCCCCCCC(=O)[O-]
REMARK SMILES IDX 9 1 10 2 11 3 12 4 13 5 14 6 15 7 16 8 17 9 18 10 8 11 7 12
REMARK SMILES IDX 6 13 5 14 4 15 3 16 2 17 1 18
REMARK H PARENT
REMARK Flexibility Score: inf
ROOT
ATOM      1  C   UNL     1       6.283   4.853  18.581  1.00  0.00     0.000 C 
ENDROOT
BRANCH   1   2
ATOM      2  C   UNL     1       7.618   4.264  19.073  1.00  0.00     0.000 C 
BRANCH   2   3
ATOM      3  C   UNL     1       7.430   2.954  19.856  1.00  0.00     0.000 C 
BRANCH   3   4
ATOM      4  C   UNL     1       5.961   2.498  19.897  1.00  0.00     0.000 C 
BRANCH   4   5
ATOM      5  C   UNL     1       5.361   2.538  21.313  1.00  0.00     0.000 C 
BRANCH   5   6
ATOM      6  C   UNL     1       4.418   3.728  21.592  1.00  0.00     0.006 C 
BRANCH   6   7
ATOM      7  C   UNL     1       4.918   4.700  22.671  1.00  0.00     0.053 C 
BRANCH   7   8
ATOM      8  C   UNL     1       5.741   5.808  22.089  1.00  0.00     0.041 C 
ATOM      9  O   UNL     1       5.182   6.784  21.525  1.00  0.00    -0.550 OA
ATOM     10  O   UNL     1       7.126   5.777  22.199  1.00  0.00    -0.550 OA
ENDBRANCH   7   8
ENDBRANCH   6   7
ENDBRANCH   5   6
ENDBRANCH   4   5
ENDBRANCH   3   4
ENDBRANCH   2   3
ENDBRANCH   1   2
BRANCH   1  11
ATOM     11  C   UNL     1       6.379   6.357  18.278  1.00  0.00     0.000 C 
BRANCH  11  12
ATOM     12  C   UNL     1       6.397   6.659  16.769  1.00  0.00    -0.000 C 
BRANCH  12  13
ATOM     13  C   UNL     1       6.247   5.394  15.909  1.00  0.00    -0.000 C 
BRANCH  13  14
ATOM     14  C   UNL     1       7.536   5.045  15.144  1.00  0.00    -0.000 C 
BRANCH  14  15
ATOM     15  C   UNL     1       8.714   5.955  15.529  1.00  0.00    -0.000 C 
BRANCH  15  16
ATOM     16  C   UNL     1      10.037   5.519  14.881  1.00  0.00    -0.000 C 
BRANCH  16  17
ATOM     17  C   UNL     1      10.744   6.711  14.225  1.00  0.00    -0.003 C 
ATOM     18  C   UNL     1      10.421   6.793  12.736  1.00  0.00     0.004 C 
ENDBRANCH  16  17
ENDBRANCH  15  16
ENDBRANCH  14  15
ENDBRANCH  13  14
ENDBRANCH  12  13
ENDBRANCH  11  12
ENDBRANCH   1  11
TORSDOF 14
ENDMDL
MODEL 6
REMARK VINA RESULT:    -4.312      3.652      7.474
REMARK INTER + INTRA:          -9.720
REMARK INTER:                  -7.750
REMARK INTRA:                  -1.970
REMARK UNBOUND:                -1.879
REMARK SMILES CCCCCCCCCCCCCCCC(=O)[O-]
REMARK SMILES IDX 9 1 10 2 11 3 12 4 13 5 14 6 15 7 16 8 17 9 18 10 8 11 7 12
REMARK SMILES IDX 6 13 5 14 4 15 3 16 2 17 1 18
REMARK H PARENT
REMARK Flexibility Score: inf
ROOT
ATOM      1  C   UNL     1       8.780   4.124  15.684  1.00  0.00     0.000 C 
ENDROOT
BRANCH   1   2
ATOM      2  C   UNL     1       7.633   5.096  15.354  1.00  0.00     0.000 C 
BRANCH   2   3
ATOM      3  C   UNL     1       7.626   6.330  16.271  1.00  0.00     0.000 C 
BRANCH   3   4
ATOM      4  C   UNL     1       6.331   6.445  17.094  1.00  0.00     0.000 C 
BRANCH   4   5
ATOM      5  C   UNL     1       5.832   5.087  17.619  1.00  0.00     0.000 C 
BRANCH   5   6
ATOM      6  C   UNL     1       6.343   4.698  19.022  1.00  0.00     0.006 C 
BRANCH   6   7
ATOM      7  C   UNL     1       5.953   3.283  19.474  1.00  0.00     0.053 C 
BRANCH   7   8
ATOM      8  C   UNL     1       5.206   3.295  20.772  1.00  0.00     0.041 C 
ATOM      9  O   UNL     1       5.246   2.296  21.537  1.00  0.00    -0.550 OA
ATOM     10  O   UNL     1       4.493   4.425  21.153  1.00  0.00    -0.550 OA
ENDBRANCH   7   8
ENDBRANCH   6   7
ENDBRANCH   5   6
ENDBRANCH   4   5
ENDBRANCH   3   4
ENDBRANCH   2   3
ENDBRANCH   1   2
BRANCH   1  11
ATOM     11  C   UNL     1       9.276   3.356  14.447  1.00  0.00     0.000 C 
BRANCH  11  12
ATOM     12  C   UNL     1       8.508   3.735  13.168  1.00  0.00    -0.000 C 
BRANCH  12  13
ATOM     13  C   UNL     1       9.416   4.353  12.092  1.00  0.00    -0.000 C 
BRANCH  13  14
ATOM     14  C   UNL     1       9.448   5.890  12.161  1.00  0.00    -0.000 C 
BRANCH  14  15
ATOM     15  C   UNL     1      10.750   6.425  12.779  1.00  0.00    -0.000 C 
BRANCH  15  16
ATOM     16  C   UNL     1      10.529   7.092  14.145  1.00  0.00    -0.000 C 
BRANCH  16  17
ATOM     17  C   UNL     1      11.474   6.505  15.200  1.00  0.00    -0.003 C 
ATOM     18  C   UNL     1      12.375   5.431  14.598  1.00  0.00     0.004 C 
ENDBRANCH  16  17
ENDBRANCH  15  16
ENDBRANCH  14  15
ENDBRANCH  13  14
ENDBRANCH  12  13
ENDBRANCH  11  12
ENDBRANCH   1  11
TORSDOF 14
ENDMDL
MODEL 7
REMARK VINA RESULT:    -4.279      3.272      6.317
REMARK INTER + INTRA:          -9.660
REMARK INTER:                  -7.713
REMARK INTRA:                  -1.947
REMARK UNBOUND:                -1.879
REMARK SMILES CCCCCCCCCCCCCCCC(=O)[O-]
REMARK SMILES IDX 9 1 10 2 11 3 12 4 13 5 14 6 15 7 16 8 17 9 18 10 8 11 7 12
REMARK SMILES IDX 6 13 5 14 4 15 3 16 2 17 1 18
REMARK H PARENT
REMARK Flexibility Score: inf
ROOT
ATOM      1  C   UNL     1       5.845   2.306  20.017  1.00  0.00     0.000 C 
ENDROOT
BRANCH   1   2
ATOM      2  C   UNL     1       5.489   2.477  21.505  1.00  0.00     0.000 C 
BRANCH   2   3
ATOM      3  C   UNL     1       4.453   3.589  21.738  1.00  0.00     0.000 C 
BRANCH   3   4
ATOM      4  C   UNL     1       4.773   4.442  22.977  1.00  0.00     0.000 C 
BRANCH   4   5
ATOM      5  C   UNL     1       5.709   5.623  22.665  1.00  0.00     0.000 C 
BRANCH   5   6
ATOM      6  C   UNL     1       5.225   6.564  21.541  1.00  0.00     0.006 C 
BRANCH   6   7
ATOM      7  C   UNL     1       6.127   7.782  21.296  1.00  0.00     0.053 C 
BRANCH   7   8
ATOM      8  C   UNL     1       6.254   8.640  22.517  1.00  0.00     0.041 C 
ATOM      9  O   UNL     1       7.335   8.672  23.161  1.00  0.00    -0.550 OA
ATOM     10  O   UNL     1       5.186   9.431  22.924  1.00  0.00    -0.550 OA
ENDBRANCH   7   8
ENDBRANCH   6   7
ENDBRANCH   5   6
ENDBRANCH   4   5
ENDBRANCH   3   4
ENDBRANCH   2   3
ENDBRANCH   1   2
BRANCH   1  11
ATOM     11  C   UNL     1       6.001   3.651  19.289  1.00  0.00     0.000 C 
BRANCH  11  12
ATOM     12  C   UNL     1       7.405   4.257  19.459  1.00  0.00    -0.000 C 
BRANCH  12  13
ATOM     13  C   UNL     1       7.559   5.610  18.744  1.00  0.00    -0.000 C 
BRANCH  13  14
ATOM     14  C   UNL     1       6.251   6.077  18.081  1.00  0.00    -0.000 C 
BRANCH  14  15
ATOM     15  C   UNL     1       6.432   6.414  16.593  1.00  0.00    -0.000 C 
BRANCH  15  16
ATOM     16  C   UNL     1       6.309   5.180  15.686  1.00  0.00    -0.000 C 
BRANCH  16  17
ATOM     17  C   UNL     1       7.672   4.792  15.100  1.00  0.00    -0.003 C 
ATOM     18  C   UNL     1       8.686   5.920  15.268  1.00  0.00     0.004 C 
ENDBRANCH  16  17
ENDBRANCH  15  16
ENDBRANCH  14  15
ENDBRANCH  13  14
ENDBRANCH  12  13
ENDBRANCH  11  12
ENDBRANCH   1  11
TORSDOF 14
ENDMDL
MODEL 8
REMARK VINA RESULT:    -4.261      4.597      7.942
REMARK INTER + INTRA:          -9.627
REMARK INTER:                  -8.324
REMARK INTRA:                  -1.303
REMARK UNBOUND:                -1.879
REMARK SMILES CCCCCCCCCCCCCCCC(=O)[O-]
REMARK SMILES IDX 9 1 10 2 11 3 12 4 13 5 14 6 15 7 16 8 17 9 18 10 8 11 7 12
REMARK SMILES IDX 6 13 5 14 4 15 3 16 2 17 1 18
REMARK H PARENT
REMARK Flexibility Score: inf
ROOT
ATOM      1  C   UNL     1       7.652   5.705  19.275  1.00  0.00     0.000 C 
ENDROOT
BRANCH   1   2
ATOM      2  C   UNL     1       7.458   4.179  19.344  1.00  0.00     0.000 C 
BRANCH   2   3
ATOM      3  C   UNL     1       5.983   3.766  19.207  1.00  0.00     0.000 C 
BRANCH   3   4
ATOM      4  C   UNL     1       5.596   2.639  20.179  1.00  0.00     0.000 C 
BRANCH   4   5
ATOM      5  C   UNL     1       4.899   3.156  21.450  1.00  0.00     0.000 C 
BRANCH   5   6
ATOM      6  C   UNL     1       5.143   2.315  22.721  1.00  0.00     0.006 C 
BRANCH   6   7
ATOM      7  C   UNL     1       3.948   2.249  23.683  1.00  0.00     0.053 C 
BRANCH   7   8
ATOM      8  C   UNL     1       4.329   2.641  25.077  1.00  0.00     0.041 C 
ATOM      9  O   UNL     1       5.539   2.657  25.423  1.00  0.00    -0.550 OA
ATOM     10  O   UNL     1       3.348   3.021  25.985  1.00  0.00    -0.550 OA
ENDBRANCH   7   8
ENDBRANCH   6   7
ENDBRANCH   5   6
ENDBRANCH   4   5
ENDBRANCH   3   4
ENDBRANCH   2   3
ENDBRANCH   1   2
BRANCH   1  11
ATOM     11  C   UNL     1       6.408   6.433  18.740  1.00  0.00     0.000 C 
BRANCH  11  12
ATOM     12  C   UNL     1       6.614   6.995  17.321  1.00  0.00    -0.000 C 
BRANCH  12  13
ATOM     13  C   UNL     1       5.869   6.185  16.248  1.00  0.00    -0.000 C 
BRANCH  13  14
ATOM     14  C   UNL     1       6.706   5.011  15.710  1.00  0.00    -0.000 C 
BRANCH  14  15
ATOM     15  C   UNL     1       8.203   5.347  15.617  1.00  0.00    -0.000 C 
BRANCH  15  16
ATOM     16  C   UNL     1       8.747   5.244  14.185  1.00  0.00    -0.000 C 
BRANCH  16  17
ATOM     17  C   UNL     1       9.978   6.140  14.001  1.00  0.00    -0.003 C 
ATOM     18  C   UNL     1      10.196   7.034  15.218  1.00  0.00     0.004 C 
ENDBRANCH  16  17
ENDBRANCH  15  16
ENDBRANCH  14  15
ENDBRANCH  13  14
ENDBRANCH  12  13
ENDBRANCH  11  12
ENDBRANCH   1  11
TORSDOF 14
ENDMDL
MODEL 9
REMARK VINA RESULT:    -4.177      3.118      6.506
REMARK INTER + INTRA:          -9.473
REMARK INTER:                  -7.508
REMARK INTRA:                  -1.966
REMARK UNBOUND:                -1.879
REMARK SMILES CCCCCCCCCCCCCCCC(=O)[O-]
REMARK SMILES IDX 9 1 10 2 11 3 12 4 13 5 14 6 15 7 16 8 17 9 18 10 8 11 7 12
REMARK SMILES IDX 6 13 5 14 4 15 3 16 2 17 1 18
REMARK H PARENT
REMARK Flexibility Score: inf
ROOT
ATOM      1  C   UNL     1       7.459   3.954  19.209  1.00  0.00     0.000 C 
ENDROOT
BRANCH   1   2
ATOM      2  C   UNL     1       7.086   2.654  19.946  1.00  0.00     0.000 C 
BRANCH   2   3
ATOM      3  C   UNL     1       5.595   2.594  20.316  1.00  0.00     0.000 C 
BRANCH   3   4
ATOM      4  C   UNL     1       5.370   2.422  21.828  1.00  0.00     0.000 C 
BRANCH   4   5
ATOM      5  C   UNL     1       4.520   3.551  22.438  1.00  0.00     0.000 C 
BRANCH   5   6
ATOM      6  C   UNL     1       4.769   4.954  21.844  1.00  0.00     0.006 C 
BRANCH   6   7
ATOM      7  C   UNL     1       6.090   5.606  22.277  1.00  0.00     0.053 C 
BRANCH   7   8
ATOM      8  C   UNL     1       5.956   7.089  22.438  1.00  0.00     0.041 C 
ATOM      9  O   UNL     1       5.759   7.821  21.434  1.00  0.00    -0.550 OA
ATOM     10  O   UNL     1       6.016   7.658  23.705  1.00  0.00    -0.550 OA
ENDBRANCH   7   8
ENDBRANCH   6   7
ENDBRANCH   5   6
ENDBRANCH   4   5
ENDBRANCH   3   4
ENDBRANCH   2   3
ENDBRANCH   1   2
BRANCH   1  11
ATOM     11  C   UNL     1       6.240   4.637  18.567  1.00  0.00     0.000 C 
BRANCH  11  12
ATOM     12  C   UNL     1       6.443   6.151  18.373  1.00  0.00    -0.000 C 
BRANCH  12  13
ATOM     13  C   UNL     1       6.308   6.584  16.904  1.00  0.00    -0.000 C 
BRANCH  13  14
ATOM     14  C   UNL     1       5.945   5.413  15.975  1.00  0.00    -0.000 C 
BRANCH  14  15
ATOM     15  C   UNL     1       7.134   4.949  15.119  1.00  0.00    -0.000 C 
BRANCH  15  16
ATOM     16  C   UNL     1       8.426   5.719  15.430  1.00  0.00    -0.000 C 
BRANCH  16  17
ATOM     17  C   UNL     1       9.505   4.779  15.980  1.00  0.00    -0.003 C 
ATOM     18  C   UNL     1      10.210   5.392  17.186  1.00  0.00     0.004 C 
ENDBRANCH  16  17
ENDBRANCH  15  16
ENDBRANCH  14  15
ENDBRANCH  13  14
ENDBRANCH  12  13
ENDBRANCH  11  12
ENDBRANCH   1  11
TORSDOF 14
ENDMDL
