MODEL 1
REMARK VINA RESULT:    -2.897      0.000      0.000
REMARK INTER + INTRA:          -8.970
REMARK INTER:                  -6.623
REMARK INTRA:                  -2.347
REMARK UNBOUND:                -2.347
REMARK SMILES CCCCCCCCCCCCCCCCCCCCCCCC(=O)[O-]
REMARK SMILES IDX 13 1 14 2 15 3 16 4 17 5 18 6 19 7 20 8 21 9 22 10 23 11
REMARK SMILES IDX 24 12 25 13 26 14 12 15 11 16 10 17 9 18 8 19 7 20 6 21 5 22
REMARK SMILES IDX 4 23 3 24 2 25 1 26
REMARK H PARENT
REMARK Flexibility Score: inf
ROOT
ATOM      1  C   UNL     1       4.503  -9.242   3.438  1.00  0.00     0.000 C 
ENDROOT
BRANCH   1   2
ATOM      2  C   UNL     1       5.990  -8.952   3.702  1.00  0.00     0.000 C 
BRANCH   2   3
ATOM      3  C   UNL     1       6.211  -8.054   4.931  1.00  0.00     0.000 C 
BRANCH   3   4
ATOM      4  C   UNL     1       7.638  -8.153   5.515  1.00  0.00     0.000 C 
BRANCH   4   5
ATOM      5  C   UNL     1       7.657  -8.867   6.879  1.00  0.00     0.000 C 
BRANCH   5   6
ATOM      6  C   UNL     1       9.086  -9.118   7.414  1.00  0.00     0.000 C 
BRANCH   6   7
ATOM      7  C   UNL     1       9.143  -9.438   8.920  1.00  0.00     0.000 C 
BRANCH   7   8
ATOM      8  C   UNL     1      10.125  -8.567   9.722  1.00  0.00     0.000 C 
BRANCH   8   9
ATOM      9  C   UNL     1       9.909  -7.048   9.521  1.00  0.00     0.000 C 
BRANCH   9  10
ATOM     10  C   UNL     1       8.512  -6.561   9.941  1.00  0.00     0.006 C 
BRANCH  10  11
ATOM     11  C   UNL     1       8.374  -5.035   9.860  1.00  0.00     0.053 C 
BRANCH  11  12
ATOM     12  C   UNL     1       7.705  -4.641   8.582  1.00  0.00     0.041 C 
ATOM     13  O   UNL     1       7.668  -3.430   8.233  1.00  0.00    -0.550 OA
ATOM     14  O   UNL     1       7.075  -5.603   7.799  1.00  0.00    -0.550 OA
ENDBRANCH  11  12
ENDBRANCH  10  11
ENDBRANCH   9  10
ENDBRANCH   8   9
ENDBRANCH   7   8
ENDBRANCH   6   7
ENDBRANCH   5   6
ENDBRANCH   4   5
ENDBRANCH   3   4
ENDBRANCH   2   3
ENDBRANCH   1   2
BRANCH   1  15
ATOM     15  C   UNL     1       4.093 -10.662   3.859  1.00  0.00     0.000 C 
BRANCH  15  16
ATOM     16  C   UNL     1       4.636 -11.046   5.243  1.00  0.00     0.000 C 
BRANCH  16  17
ATOM     17  C   UNL     1       3.514 -11.064   6.288  1.00  0.00     0.000 C 
BRANCH  17  18
ATOM     18  C   UNL     1       3.199  -9.644   6.783  1.00  0.00    -0.000 C 
BRANCH  18  19
ATOM     19  C   UNL     1       4.280  -9.098   7.728  1.00  0.00    -0.000 C 
BRANCH  19  20
ATOM     20  C   UNL     1       3.692  -8.283   8.892  1.00  0.00    -0.000 C 
BRANCH  20  21
ATOM     21  C   UNL     1       2.241  -7.839   8.639  1.00  0.00    -0.000 C 
BRANCH  21  22
ATOM     22  C   UNL     1       1.350  -7.883   9.900  1.00  0.00    -0.000 C 
BRANCH  22  23
ATOM     23  C   UNL     1       0.233  -8.937   9.787  1.00  0.00    -0.000 C 
BRANCH  23  24
ATOM     24  C   UNL     1       0.546 -10.024   8.745  1.00  0.00    -0.000 C 
BRANCH  24  25
ATOM     25  C   UNL     1      -0.717 -10.569   8.060  1.00  0.00    -0.003 C 
ATOM     26  C   UNL     1      -0.465 -10.845   6.581  1.00  0.00     0.004 C 
ENDBRANCH  24  25
ENDBRANCH  23  24
ENDBRANCH  22  23
ENDBRANCH  21  22
ENDBRANCH  20  21
ENDBRANCH  19  20
ENDBRANCH  18  19
ENDBRANCH  17  18
ENDBRANCH  16  17
ENDBRANCH  15  16
ENDBRANCH   1  15
TORSDOF 22
ENDMDL
MODEL 2
REMARK VINA RESULT:    -2.841      3.523      7.799
REMARK INTER + INTRA:          -8.842
REMARK INTER:                  -6.202
REMARK INTRA:                  -2.640
REMARK UNBOUND:                -2.347
REMARK SMILES CCCCCCCCCCCCCCCCCCCCCCCC(=O)[O-]
REMARK SMILES IDX 13 1 14 2 15 3 16 4 17 5 18 6 19 7 20 8 21 9 22 10 23 11
REMARK SMILES IDX 24 12 25 13 26 14 12 15 11 16 10 17 9 18 8 19 7 20 6 21 5 22
REMARK SMILES IDX 4 23 3 24 2 25 1 26
REMARK H PARENT
REMARK Flexibility Score: inf
ROOT
ATOM      1  C   UNL     1       3.659 -10.106   5.618  1.00  0.00     0.000 C 
ENDROOT
BRANCH   1   2
ATOM      2  C   UNL     1       3.497 -11.109   6.773  1.00  0.00     0.000 C 
BRANCH   2   3
ATOM      3  C   UNL     1       4.444 -10.818   7.950  1.00  0.00     0.000 C 
BRANCH   3   4
ATOM      4  C   UNL     1       4.054  -9.557   8.754  1.00  0.00     0.000 C 
BRANCH   4   5
ATOM      5  C   UNL     1       3.447  -9.909  10.124  1.00  0.00     0.000 C 
BRANCH   5   6
ATOM      6  C   UNL     1       1.901  -9.898  10.125  1.00  0.00     0.000 C 
BRANCH   6   7
ATOM      7  C   UNL     1       1.282  -8.935   9.094  1.00  0.00     0.000 C 
BRANCH   7   8
ATOM      8  C   UNL     1       0.450  -9.623   7.998  1.00  0.00     0.000 C 
BRANCH   8   9
ATOM      9  C   UNL     1      -0.565 -10.653   8.548  1.00  0.00     0.000 C 
BRANCH   9  10
ATOM     10  C   UNL     1      -1.157 -10.270   9.915  1.00  0.00     0.006 C 
BRANCH  10  11
ATOM     11  C   UNL     1      -2.672 -10.500   9.983  1.00  0.00     0.053 C 
BRANCH  11  12
ATOM     12  C   UNL     1      -3.404  -9.217   9.744  1.00  0.00     0.041 C 
ATOM     13  O   UNL     1      -2.782  -8.121   9.755  1.00  0.00    -0.550 OA
ATOM     14  O   UNL     1      -4.782  -9.226   9.559  1.00  0.00    -0.550 OA
ENDBRANCH  11  12
ENDBRANCH  10  11
ENDBRANCH   9  10
ENDBRANCH   8   9
ENDBRANCH   7   8
ENDBRANCH   6   7
ENDBRANCH   5   6
ENDBRANCH   4   5
ENDBRANCH   3   4
ENDBRANCH   2   3
ENDBRANCH   1   2
BRANCH   1  15
ATOM     15  C   UNL     1       3.618 -10.781   4.238  1.00  0.00     0.000 C 
BRANCH  15  16
ATOM     16  C   UNL     1       4.752 -10.307   3.317  1.00  0.00     0.000 C 
BRANCH  16  17
ATOM     17  C   UNL     1       5.058  -8.821   3.542  1.00  0.00     0.000 C 
BRANCH  17  18
ATOM     18  C   UNL     1       6.469  -8.631   4.119  1.00  0.00    -0.000 C 
BRANCH  18  19
ATOM     19  C   UNL     1       6.524  -7.526   5.185  1.00  0.00    -0.000 C 
BRANCH  19  20
ATOM     20  C   UNL     1       6.574  -8.087   6.616  1.00  0.00    -0.000 C 
BRANCH  20  21
ATOM     21  C   UNL     1       7.361  -9.405   6.715  1.00  0.00    -0.000 C 
BRANCH  21  22
ATOM     22  C   UNL     1       8.389  -9.429   7.867  1.00  0.00    -0.000 C 
BRANCH  22  23
ATOM     23  C   UNL     1       8.716  -8.017   8.386  1.00  0.00    -0.000 C 
BRANCH  23  24
ATOM     24  C   UNL     1       8.364  -7.833   9.871  1.00  0.00    -0.000 C 
BRANCH  24  25
ATOM     25  C   UNL     1       6.848  -7.780  10.117  1.00  0.00    -0.003 C 
ATOM     26  C   UNL     1       6.306  -6.369   9.907  1.00  0.00     0.004 C 
ENDBRANCH  24  25
ENDBRANCH  23  24
ENDBRANCH  22  23
ENDBRANCH  21  22
ENDBRANCH  20  21
ENDBRANCH  19  20
ENDBRANCH  18  19
ENDBRANCH  17  18
ENDBRANCH  16  17
ENDBRANCH  15  16
ENDBRANCH   1  15
TORSDOF 22
ENDMDL
MODEL 3
REMARK VINA RESULT:    -2.776      2.082      4.371
REMARK INTER + INTRA:          -8.693
REMARK INTER:                  -5.194
REMARK INTRA:                  -3.499
REMARK UNBOUND:                -2.347
REMARK SMILES CCCCCCCCCCCCCCCCCCCCCCCC(=O)[O-]
REMARK SMILES IDX 13 1 14 2 15 3 16 4 17 5 18 6 19 7 20 8 21 9 22 10 23 11
REMARK SMILES IDX 24 12 25 13 26 14 12 15 11 16 10 17 9 18 8 19 7 20 6 21 5 22
REMARK SMILES IDX 4 23 3 24 2 25 1 26
REMARK H PARENT
REMARK Flexibility Score: inf
ROOT
ATOM      1  C   UNL     1       6.259  -9.881   6.515  1.00  0.00     0.000 C 
ENDROOT
BRANCH   1   2
ATOM      2  C   UNL     1       5.614 -10.399   7.812  1.00  0.00     0.000 C 
BRANCH   2   3
ATOM      3  C   UNL     1       6.613 -10.485   8.978  1.00  0.00     0.000 C 
BRANCH   3   4
ATOM      4  C   UNL     1       6.327  -9.471  10.108  1.00  0.00     0.000 C 
BRANCH   4   5
ATOM      5  C   UNL     1       5.295  -8.410   9.685  1.00  0.00     0.000 C 
BRANCH   5   6
ATOM      6  C   UNL     1       5.682  -6.977  10.122  1.00  0.00     0.000 C 
BRANCH   6   7
ATOM      7  C   UNL     1       6.209  -6.095   8.974  1.00  0.00     0.000 C 
BRANCH   7   8
ATOM      8  C   UNL     1       7.379  -5.175   9.362  1.00  0.00     0.000 C 
BRANCH   8   9
ATOM      9  C   UNL     1       8.768  -5.758   9.004  1.00  0.00     0.000 C 
BRANCH   9  10
ATOM     10  C   UNL     1       8.703  -7.125   8.304  1.00  0.00     0.006 C 
BRANCH  10  11
ATOM     11  C   UNL     1       9.987  -7.943   8.494  1.00  0.00     0.053 C 
BRANCH  11  12
ATOM     12  C   UNL     1       9.884  -9.248   7.771  1.00  0.00     0.041 C 
ATOM     13  O   UNL     1       9.533  -9.277   6.560  1.00  0.00    -0.550 OA
ATOM     14  O   UNL     1      10.125 -10.440   8.447  1.00  0.00    -0.550 OA
ENDBRANCH  11  12
ENDBRANCH  10  11
ENDBRANCH   9  10
ENDBRANCH   8   9
ENDBRANCH   7   8
ENDBRANCH   6   7
ENDBRANCH   5   6
ENDBRANCH   4   5
ENDBRANCH   3   4
ENDBRANCH   2   3
ENDBRANCH   1   2
BRANCH   1  15
ATOM     15  C   UNL     1       6.035  -8.376   6.303  1.00  0.00     0.000 C 
BRANCH  15  16
ATOM     16  C   UNL     1       6.589  -7.882   4.958  1.00  0.00     0.000 C 
BRANCH  16  17
ATOM     17  C   UNL     1       6.227  -8.850   3.826  1.00  0.00     0.000 C 
BRANCH  17  18
ATOM     18  C   UNL     1       4.782  -8.628   3.353  1.00  0.00    -0.000 C 
BRANCH  18  19
ATOM     19  C   UNL     1       4.163  -9.895   2.742  1.00  0.00    -0.000 C 
BRANCH  19  20
ATOM     20  C   UNL     1       4.038 -11.042   3.758  1.00  0.00    -0.000 C 
BRANCH  20  21
ATOM     21  C   UNL     1       2.643 -11.125   4.399  1.00  0.00    -0.000 C 
BRANCH  21  22
ATOM     22  C   UNL     1       2.660 -11.022   5.940  1.00  0.00    -0.000 C 
BRANCH  22  23
ATOM     23  C   UNL     1       1.966  -9.745   6.447  1.00  0.00    -0.000 C 
BRANCH  23  24
ATOM     24  C   UNL     1       1.086  -9.998   7.682  1.00  0.00    -0.000 C 
BRANCH  24  25
ATOM     25  C   UNL     1       1.610  -9.285   8.938  1.00  0.00    -0.003 C 
ATOM     26  C   UNL     1       2.183  -7.914   8.593  1.00  0.00     0.004 C 
ENDBRANCH  24  25
ENDBRANCH  23  24
ENDBRANCH  22  23
ENDBRANCH  21  22
ENDBRANCH  20  21
ENDBRANCH  19  20
ENDBRANCH  18  19
ENDBRANCH  17  18
ENDBRANCH  16  17
ENDBRANCH  15  16
ENDBRANCH   1  15
TORSDOF 22
ENDMDL
MODEL 4
REMARK VINA RESULT:    -2.753      2.214      7.589
REMARK INTER + INTRA:          -8.640
REMARK INTER:                  -6.031
REMARK INTRA:                  -2.608
REMARK UNBOUND:                -2.347
REMARK SMILES CCCCCCCCCCCCCCCCCCCCCCCC(=O)[O-]
REMARK SMILES IDX 13 1 14 2 15 3 16 4 17 5 18 6 19 7 20 8 21 9 22 10 23 11
REMARK SMILES IDX 24 12 25 13 26 14 12 15 11 16 10 17 9 18 8 19 7 20 6 21 5 22
REMARK SMILES IDX 4 23 3 24 2 25 1 26
REMARK H PARENT
REMARK Flexibility Score: inf
ROOT
ATOM      1  C   UNL     1       4.885  -6.329   9.367  1.00  0.00     0.000 C 
ENDROOT
BRANCH   1   2
ATOM      2  C   UNL     1       5.073  -7.838   9.595  1.00  0.00     0.000 C 
BRANCH   2   3
ATOM      3  C   UNL     1       3.801  -8.522  10.125  1.00  0.00     0.000 C 
BRANCH   3   4
ATOM      4  C   UNL     1       3.065  -9.362   9.058  1.00  0.00     0.000 C 
BRANCH   4   5
ATOM      5  C   UNL     1       2.100  -8.509   8.214  1.00  0.00     0.000 C 
BRANCH   5   6
ATOM      6  C   UNL     1       0.875  -9.303   7.705  1.00  0.00     0.000 C 
BRANCH   6   7
ATOM      7  C   UNL     1       1.163 -10.791   7.433  1.00  0.00     0.000 C 
BRANCH   7   8
ATOM      8  C   UNL     1       1.499 -11.120   5.968  1.00  0.00     0.000 C 
BRANCH   8   9
ATOM      9  C   UNL     1       3.011 -11.038   5.647  1.00  0.00     0.000 C 
BRANCH   9  10
ATOM     10  C   UNL     1       3.330 -11.114   4.145  1.00  0.00     0.006 C 
BRANCH  10  11
ATOM     11  C   UNL     1       4.768 -10.683   3.828  1.00  0.00     0.053 C 
BRANCH  11  12
ATOM     12  C   UNL     1       4.775  -9.336   3.177  1.00  0.00     0.041 C 
ATOM     13  O   UNL     1       5.750  -8.555   3.347  1.00  0.00    -0.550 OA
ATOM     14  O   UNL     1       3.682  -8.921   2.424  1.00  0.00    -0.550 OA
ENDBRANCH  11  12
ENDBRANCH  10  11
ENDBRANCH   9  10
ENDBRANCH   8   9
ENDBRANCH   7   8
ENDBRANCH   6   7
ENDBRANCH   5   6
ENDBRANCH   4   5
ENDBRANCH   3   4
ENDBRANCH   2   3
ENDBRANCH   1   2
BRANCH   1  15
ATOM     15  C   UNL     1       5.940  -5.484  10.098  1.00  0.00     0.000 C 
BRANCH  15  16
ATOM     16  C   UNL     1       7.352  -6.081   9.988  1.00  0.00     0.000 C 
BRANCH  16  17
ATOM     17  C   UNL     1       8.126  -5.450   8.824  1.00  0.00     0.000 C 
BRANCH  17  18
ATOM     18  C   UNL     1       9.614  -5.831   8.881  1.00  0.00    -0.000 C 
BRANCH  18  19
ATOM     19  C   UNL     1       9.853  -7.312   8.553  1.00  0.00    -0.000 C 
BRANCH  19  20
ATOM     20  C   UNL     1      10.114  -8.162   9.807  1.00  0.00    -0.000 C 
BRANCH  20  21
ATOM     21  C   UNL     1       9.876  -9.664   9.573  1.00  0.00    -0.000 C 
BRANCH  21  22
ATOM     22  C   UNL     1       9.130  -9.976   8.258  1.00  0.00    -0.000 C 
BRANCH  22  23
ATOM     23  C   UNL     1       7.668 -10.393   8.502  1.00  0.00    -0.000 C 
BRANCH  23  24
ATOM     24  C   UNL     1       6.663  -9.486   7.773  1.00  0.00    -0.000 C 
BRANCH  24  25
ATOM     25  C   UNL     1       7.221  -8.920   6.458  1.00  0.00    -0.003 C 
ATOM     26  C   UNL     1       6.754  -7.485   6.234  1.00  0.00     0.004 C 
ENDBRANCH  24  25
ENDBRANCH  23  24
ENDBRANCH  22  23
ENDBRANCH  21  22
ENDBRANCH  20  21
ENDBRANCH  19  20
ENDBRANCH  18  19
ENDBRANCH  17  18
ENDBRANCH  16  17
ENDBRANCH  15  16
ENDBRANCH   1  15
TORSDOF 22
ENDMDL
MODEL 5
REMARK VINA RESULT:    -2.558      3.485      7.946
REMARK INTER + INTRA:          -8.195
REMARK INTER:                  -6.567
REMARK INTRA:                  -1.628
REMARK UNBOUND:                -2.347
REMARK SMILES CCCCCCCCCCCCCCCCCCCCCCCC(=O)[O-]
REMARK SMILES IDX 13 1 14 2 15 3 16 4 17 5 18 6 19 7 20 8 21 9 22 10 23 11
REMARK SMILES IDX 24 12 25 13 26 14 12 15 11 16 10 17 9 18 8 19 7 20 6 21 5 22
REMARK SMILES IDX 4 23 3 24 2 25 1 26
REMARK H PARENT
REMARK Flexibility Score: inf
ROOT
ATOM      1  C   UNL     1       7.104  -4.309   9.429  1.00  0.00     0.000 C 
ENDROOT
BRANCH   1   2
ATOM      2  C   UNL     1       6.547  -5.642   8.901  1.00  0.00     0.000 C 
BRANCH   2   3
ATOM      3  C   UNL     1       6.064  -6.571  10.026  1.00  0.00     0.000 C 
BRANCH   3   4
ATOM      4  C   UNL     1       4.691  -7.219   9.741  1.00  0.00     0.000 C 
BRANCH   4   5
ATOM      5  C   UNL     1       3.524  -6.269  10.067  1.00  0.00     0.000 C 
BRANCH   5   6
ATOM      6  C   UNL     1       2.136  -6.913   9.847  1.00  0.00     0.000 C 
BRANCH   6   7
ATOM      7  C   UNL     1       2.050  -7.800   8.591  1.00  0.00     0.000 C 
BRANCH   7   8
ATOM      8  C   UNL     1       1.847  -9.298   8.879  1.00  0.00     0.000 C 
BRANCH   8   9
ATOM      9  C   UNL     1       0.511  -9.856   8.333  1.00  0.00     0.000 C 
BRANCH   9  10
ATOM     10  C   UNL     1      -0.467 -10.307   9.431  1.00  0.00     0.006 C 
BRANCH  10  11
ATOM     11  C   UNL     1      -1.156  -9.124  10.124  1.00  0.00     0.053 C 
BRANCH  11  12
ATOM     12  C   UNL     1      -2.621  -9.125   9.820  1.00  0.00     0.041 C 
ATOM     13  O   UNL     1      -3.217 -10.209   9.577  1.00  0.00    -0.550 OA
ATOM     14  O   UNL     1      -3.320  -7.924   9.754  1.00  0.00    -0.550 OA
ENDBRANCH  11  12
ENDBRANCH  10  11
ENDBRANCH   9  10
ENDBRANCH   8   9
ENDBRANCH   7   8
ENDBRANCH   6   7
ENDBRANCH   5   6
ENDBRANCH   4   5
ENDBRANCH   3   4
ENDBRANCH   2   3
ENDBRANCH   1   2
BRANCH   1  15
ATOM     15  C   UNL     1       8.464  -4.470  10.125  1.00  0.00     0.000 C 
BRANCH  15  16
ATOM     16  C   UNL     1       9.072  -5.865   9.914  1.00  0.00     0.000 C 
BRANCH  16  17
ATOM     17  C   UNL     1       9.716  -5.980   8.527  1.00  0.00     0.000 C 
BRANCH  17  18
ATOM     18  C   UNL     1      10.057  -7.441   8.197  1.00  0.00    -0.000 C 
BRANCH  18  19
ATOM     19  C   UNL     1       8.836  -8.233   7.704  1.00  0.00    -0.000 C 
BRANCH  19  20
ATOM     20  C   UNL     1       8.556  -9.482   8.556  1.00  0.00    -0.000 C 
BRANCH  20  21
ATOM     21  C   UNL     1       7.143 -10.050   8.340  1.00  0.00    -0.000 C 
BRANCH  21  22
ATOM     22  C   UNL     1       6.296  -9.240   7.334  1.00  0.00    -0.000 C 
BRANCH  22  23
ATOM     23  C   UNL     1       6.019 -10.026   6.039  1.00  0.00    -0.000 C 
BRANCH  23  24
ATOM     24  C   UNL     1       4.775  -9.519   5.292  1.00  0.00    -0.000 C 
BRANCH  24  25
ATOM     25  C   UNL     1       4.836  -9.802   3.782  1.00  0.00    -0.003 C 
ATOM     26  C   UNL     1       3.656 -10.661   3.336  1.00  0.00     0.004 C 
ENDBRANCH  24  25
ENDBRANCH  23  24
ENDBRANCH  22  23
ENDBRANCH  21  22
ENDBRANCH  20  21
ENDBRANCH  19  20
ENDBRANCH  18  19
ENDBRANCH  17  18
ENDBRANCH  16  17
ENDBRANCH  15  16
ENDBRANCH   1  15
TORSDOF 22
ENDMDL
MODEL 6
REMARK VINA RESULT:    -2.444      1.520      5.735
REMARK INTER + INTRA:          -7.935
REMARK INTER:                  -5.459
REMARK INTRA:                  -2.476
REMARK UNBOUND:                -2.347
REMARK SMILES CCCCCCCCCCCCCCCCCCCCCCCC(=O)[O-]
REMARK SMILES IDX 13 1 14 2 15 3 16 4 17 5 18 6 19 7 20 8 21 9 22 10 23 11
REMARK SMILES IDX 24 12 25 13 26 14 12 15 11 16 10 17 9 18 8 19 7 20 6 21 5 22
REMARK SMILES IDX 4 23 3 24 2 25 1 26
REMARK H PARENT
REMARK Flexibility Score: inf
ROOT
ATOM      1  C   UNL     1       3.306 -10.157   5.661  1.00  0.00     0.000 C 
ENDROOT
BRANCH   1   2
ATOM      2  C   UNL     1       2.663 -10.690   6.953  1.00  0.00     0.000 C 
BRANCH   2   3
ATOM      3  C   UNL     1       1.330  -9.998   7.282  1.00  0.00     0.000 C 
BRANCH   3   4
ATOM      4  C   UNL     1       0.877 -10.203   8.744  1.00  0.00     0.000 C 
BRANCH   4   5
ATOM      5  C   UNL     1       1.362  -9.068   9.665  1.00  0.00     0.000 C 
BRANCH   5   6
ATOM      6  C   UNL     1       2.173  -7.984   8.918  1.00  0.00     0.000 C 
BRANCH   6   7
ATOM      7  C   UNL     1       2.155  -6.605   9.606  1.00  0.00     0.000 C 
BRANCH   7   8
ATOM      8  C   UNL     1       3.526  -6.128  10.115  1.00  0.00     0.000 C 
BRANCH   8   9
ATOM      9  C   UNL     1       4.720  -6.753   9.353  1.00  0.00     0.000 C 
BRANCH   9  10
ATOM     10  C   UNL     1       6.074  -6.108   9.691  1.00  0.00     0.006 C 
BRANCH  10  11
ATOM     11  C   UNL     1       7.132  -6.364   8.609  1.00  0.00     0.053 C 
BRANCH  11  12
ATOM     12  C   UNL     1       7.999  -5.159   8.434  1.00  0.00     0.041 C 
ATOM     13  O   UNL     1       7.480  -4.028   8.228  1.00  0.00    -0.550 OA
ATOM     14  O   UNL     1       9.384  -5.289   8.446  1.00  0.00    -0.550 OA
ENDBRANCH  11  12
ENDBRANCH  10  11
ENDBRANCH   9  10
ENDBRANCH   8   9
ENDBRANCH   7   8
ENDBRANCH   6   7
ENDBRANCH   5   6
ENDBRANCH   4   5
ENDBRANCH   3   4
ENDBRANCH   2   3
ENDBRANCH   1   2
BRANCH   1  15
ATOM     15  C   UNL     1       4.361 -11.115   5.086  1.00  0.00     0.000 C 
BRANCH  15  16
ATOM     16  C   UNL     1       5.295 -10.427   4.079  1.00  0.00     0.000 C 
BRANCH  16  17
ATOM     17  C   UNL     1       5.165  -8.901   4.164  1.00  0.00     0.000 C 
BRANCH  17  18
ATOM     18  C   UNL     1       5.782  -8.367   5.466  1.00  0.00    -0.000 C 
BRANCH  18  19
ATOM     19  C   UNL     1       7.280  -8.688   5.582  1.00  0.00    -0.000 C 
BRANCH  19  20
ATOM     20  C   UNL     1       7.626  -9.437   6.879  1.00  0.00    -0.000 C 
BRANCH  20  21
ATOM     21  C   UNL     1       6.389  -9.752   7.737  1.00  0.00    -0.000 C 
BRANCH  21  22
ATOM     22  C   UNL     1       6.606 -10.906   8.740  1.00  0.00    -0.000 C 
BRANCH  22  23
ATOM     23  C   UNL     1       7.366 -10.450   9.999  1.00  0.00    -0.000 C 
BRANCH  23  24
ATOM     24  C   UNL     1       8.847 -10.860   9.978  1.00  0.00    -0.000 C 
BRANCH  24  25
ATOM     25  C   UNL     1       9.743  -9.807   9.308  1.00  0.00    -0.003 C 
ATOM     26  C   UNL     1       9.785  -8.519  10.125  1.00  0.00     0.004 C 
ENDBRANCH  24  25
ENDBRANCH  23  24
ENDBRANCH  22  23
ENDBRANCH  21  22
ENDBRANCH  20  21
ENDBRANCH  19  20
ENDBRANCH  18  19
ENDBRANCH  17  18
ENDBRANCH  16  17
ENDBRANCH  15  16
ENDBRANCH   1  15
TORSDOF 22
ENDMDL
MODEL 7
REMARK VINA RESULT:    -2.389      1.014      2.353
REMARK INTER + INTRA:          -7.810
REMARK INTER:                  -5.659
REMARK INTRA:                  -2.151
REMARK UNBOUND:                -2.347
REMARK SMILES CCCCCCCCCCCCCCCCCCCCCCCC(=O)[O-]
REMARK SMILES IDX 13 1 14 2 15 3 16 4 17 5 18 6 19 7 20 8 21 9 22 10 23 11
REMARK SMILES IDX 24 12 25 13 26 14 12 15 11 16 10 17 9 18 8 19 7 20 6 21 5 22
REMARK SMILES IDX 4 23 3 24 2 25 1 26
REMARK H PARENT
REMARK Flexibility Score: inf
ROOT
ATOM      1  C   UNL     1       4.681  -9.275   3.325  1.00  0.00     0.000 C 
ENDROOT
BRANCH   1   2
ATOM      2  C   UNL     1       5.917  -9.331   4.239  1.00  0.00     0.000 C 
BRANCH   2   3
ATOM      3  C   UNL     1       6.334  -7.946   4.761  1.00  0.00     0.000 C 
BRANCH   3   4
ATOM      4  C   UNL     1       7.477  -8.000   5.798  1.00  0.00     0.000 C 
BRANCH   4   5
ATOM      5  C   UNL     1       7.213  -9.044   6.898  1.00  0.00     0.000 C 
BRANCH   5   6
ATOM      6  C   UNL     1       8.508  -9.597   7.537  1.00  0.00     0.000 C 
BRANCH   6   7
ATOM      7  C   UNL     1       8.279 -10.369   8.850  1.00  0.00     0.000 C 
BRANCH   7   8
ATOM      8  C   UNL     1       8.609  -9.574  10.124  1.00  0.00     0.000 C 
BRANCH   8   9
ATOM      9  C   UNL     1       9.463  -8.310   9.860  1.00  0.00     0.000 C 
BRANCH   9  10
ATOM     10  C   UNL     1       8.672  -6.996   9.961  1.00  0.00     0.006 C 
BRANCH  10  11
ATOM     11  C   UNL     1       8.864  -6.099   8.732  1.00  0.00     0.053 C 
BRANCH  11  12
ATOM     12  C   UNL     1       8.303  -4.736   8.989  1.00  0.00     0.041 C 
ATOM     13  O   UNL     1       7.519  -4.205   8.157  1.00  0.00    -0.550 OA
ATOM     14  O   UNL     1       8.687  -4.029  10.124  1.00  0.00    -0.550 OA
ENDBRANCH  11  12
ENDBRANCH  10  11
ENDBRANCH   9  10
ENDBRANCH   8   9
ENDBRANCH   7   8
ENDBRANCH   6   7
ENDBRANCH   5   6
ENDBRANCH   4   5
ENDBRANCH   3   4
ENDBRANCH   2   3
ENDBRANCH   1   2
BRANCH   1  15
ATOM     15  C   UNL     1       3.621 -10.323   3.698  1.00  0.00     0.000 C 
BRANCH  15  16
ATOM     16  C   UNL     1       3.996 -11.117   4.958  1.00  0.00     0.000 C 
BRANCH  16  17
ATOM     17  C   UNL     1       3.671 -10.320   6.227  1.00  0.00     0.000 C 
BRANCH  17  18
ATOM     18  C   UNL     1       2.547 -10.994   7.029  1.00  0.00    -0.000 C 
BRANCH  18  19
ATOM     19  C   UNL     1       1.188 -10.914   6.317  1.00  0.00    -0.000 C 
BRANCH  19  20
ATOM     20  C   UNL     1       0.197  -9.984   7.035  1.00  0.00    -0.000 C 
BRANCH  20  21
ATOM     21  C   UNL     1      -0.586 -10.693   8.154  1.00  0.00    -0.000 C 
BRANCH  21  22
ATOM     22  C   UNL     1       0.148 -10.705   9.513  1.00  0.00    -0.000 C 
BRANCH  22  23
ATOM     23  C   UNL     1       0.557  -9.292   9.967  1.00  0.00    -0.000 C 
BRANCH  23  24
ATOM     24  C   UNL     1       2.082  -9.113  10.049  1.00  0.00    -0.000 C 
BRANCH  24  25
ATOM     25  C   UNL     1       2.585  -7.925   9.215  1.00  0.00    -0.003 C 
ATOM     26  C   UNL     1       1.963  -6.616   9.692  1.00  0.00     0.004 C 
ENDBRANCH  24  25
ENDBRANCH  23  24
ENDBRANCH  22  23
ENDBRANCH  21  22
ENDBRANCH  20  21
ENDBRANCH  19  20
ENDBRANCH  18  19
ENDBRANCH  17  18
ENDBRANCH  16  17
ENDBRANCH  15  16
ENDBRANCH   1  15
TORSDOF 22
ENDMDL
MODEL 8
REMARK VINA RESULT:    -2.301     16.339     19.418
REMARK INTER + INTRA:          -7.607
REMARK INTER:                  -5.635
REMARK INTRA:                  -1.972
REMARK UNBOUND:                -2.347
REMARK SMILES CCCCCCCCCCCCCCCCCCCCCCCC(=O)[O-]
REMARK SMILES IDX 13 1 14 2 15 3 16 4 17 5 18 6 19 7 20 8 21 9 22 10 23 11
REMARK SMILES IDX 24 12 25 13 26 14 12 15 11 16 10 17 9 18 8 19 7 20 6 21 5 22
REMARK SMILES IDX 4 23 3 24 2 25 1 26
REMARK H PARENT
REMARK Flexibility Score: inf
ROOT
ATOM      1  C   UNL     1      -5.324 -10.772  -8.487  1.00  0.00     0.000 C 
ENDROOT
BRANCH   1   2
ATOM      2  C   UNL     1      -3.795 -10.908  -8.585  1.00  0.00     0.000 C 
BRANCH   2   3
ATOM      3  C   UNL     1      -3.058  -9.606  -8.230  1.00  0.00     0.000 C 
BRANCH   3   4
ATOM      4  C   UNL     1      -3.103  -9.266  -6.724  1.00  0.00     0.000 C 
BRANCH   4   5
ATOM      5  C   UNL     1      -4.501  -8.801  -6.277  1.00  0.00     0.000 C 
BRANCH   5   6
ATOM      6  C   UNL     1      -4.963  -9.451  -4.952  1.00  0.00     0.000 C 
BRANCH   6   7
ATOM      7  C   UNL     1      -5.730 -10.773  -5.137  1.00  0.00     0.000 C 
BRANCH   7   8
ATOM      8  C   UNL     1      -7.262 -10.630  -5.124  1.00  0.00     0.000 C 
BRANCH   8   9
ATOM      9  C   UNL     1      -7.748  -9.227  -4.689  1.00  0.00     0.000 C 
BRANCH   9  10
ATOM     10  C   UNL     1      -8.197  -9.155  -3.220  1.00  0.00     0.006 C 
BRANCH  10  11
ATOM     11  C   UNL     1      -8.731 -10.497  -2.704  1.00  0.00     0.053 C 
BRANCH  11  12
ATOM     12  C   UNL     1      -8.076 -10.853  -1.407  1.00  0.00     0.041 C 
ATOM     13  O   UNL     1      -8.753 -10.891  -0.344  1.00  0.00    -0.550 OA
ATOM     14  O   UNL     1      -6.706 -11.093  -1.361  1.00  0.00    -0.550 OA
ENDBRANCH  11  12
ENDBRANCH  10  11
ENDBRANCH   9  10
ENDBRANCH   8   9
ENDBRANCH   7   8
ENDBRANCH   6   7
ENDBRANCH   5   6
ENDBRANCH   4   5
ENDBRANCH   3   4
ENDBRANCH   2   3
ENDBRANCH   1   2
BRANCH   1  15
ATOM     15  C   UNL     1      -6.036 -11.125  -9.801  1.00  0.00     0.000 C 
BRANCH  15  16
ATOM     16  C   UNL     1      -7.207 -10.180 -10.110  1.00  0.00     0.000 C 
BRANCH  16  17
ATOM     17  C   UNL     1      -8.552 -10.881  -9.887  1.00  0.00     0.000 C 
BRANCH  17  18
ATOM     18  C   UNL     1      -9.014 -10.738  -8.428  1.00  0.00    -0.000 C 
BRANCH  18  19
ATOM     19  C   UNL     1     -10.125  -9.689  -8.264  1.00  0.00    -0.000 C 
BRANCH  19  20
ATOM     20  C   UNL     1      -9.851  -8.711  -7.110  1.00  0.00    -0.000 C 
BRANCH  20  21
ATOM     21  C   UNL     1      -9.532  -7.287  -7.596  1.00  0.00    -0.000 C 
BRANCH  21  22
ATOM     22  C   UNL     1      -8.874  -7.240  -8.992  1.00  0.00    -0.000 C 
BRANCH  22  23
ATOM     23  C   UNL     1      -7.351  -7.458  -8.927  1.00  0.00    -0.000 C 
BRANCH  23  24
ATOM     24  C   UNL     1      -6.690  -6.685  -7.774  1.00  0.00    -0.000 C 
BRANCH  24  25
ATOM     25  C   UNL     1      -6.882  -5.165  -7.893  1.00  0.00    -0.003 C 
ATOM     26  C   UNL     1      -6.517  -4.673  -9.290  1.00  0.00     0.004 C 
ENDBRANCH  24  25
ENDBRANCH  23  24
ENDBRANCH  22  23
ENDBRANCH  21  22
ENDBRANCH  20  21
ENDBRANCH  19  20
ENDBRANCH  18  19
ENDBRANCH  17  18
ENDBRANCH  16  17
ENDBRANCH  15  16
ENDBRANCH   1  15
TORSDOF 22
ENDMDL
MODEL 9
REMARK VINA RESULT:    -2.219     16.785     19.689
REMARK INTER + INTRA:          -7.419
REMARK INTER:                  -5.601
REMARK INTRA:                  -1.818
REMARK UNBOUND:                -2.347
REMARK SMILES CCCCCCCCCCCCCCCCCCCCCCCC(=O)[O-]
REMARK SMILES IDX 13 1 14 2 15 3 16 4 17 5 18 6 19 7 20 8 21 9 22 10 23 11
REMARK SMILES IDX 24 12 25 13 26 14 12 15 11 16 10 17 9 18 8 19 7 20 6 21 5 22
REMARK SMILES IDX 4 23 3 24 2 25 1 26
REMARK H PARENT
REMARK Flexibility Score: inf
ROOT
ATOM      1  C   UNL     1      -7.894 -10.470  -2.734  1.00  0.00     0.000 C 
ENDROOT
BRANCH   1   2
ATOM      2  C   UNL     1      -6.758  -9.606  -3.307  1.00  0.00     0.000 C 
BRANCH   2   3
ATOM      3  C   UNL     1      -6.715  -9.624  -4.844  1.00  0.00     0.000 C 
BRANCH   3   4
ATOM      4  C   UNL     1      -6.050 -10.892  -5.424  1.00  0.00     0.000 C 
BRANCH   4   5
ATOM      5  C   UNL     1      -5.145 -10.572  -6.627  1.00  0.00     0.000 C 
BRANCH   5   6
ATOM      6  C   UNL     1      -5.692 -11.124  -7.964  1.00  0.00     0.000 C 
BRANCH   6   7
ATOM      7  C   UNL     1      -5.838 -10.059  -9.067  1.00  0.00     0.000 C 
BRANCH   7   8
ATOM      8  C   UNL     1      -4.721 -10.078 -10.125  1.00  0.00     0.000 C 
BRANCH   8   9
ATOM      9  C   UNL     1      -3.476 -10.891  -9.695  1.00  0.00     0.000 C 
BRANCH   9  10
ATOM     10  C   UNL     1      -2.142 -10.241 -10.097  1.00  0.00     0.006 C 
BRANCH  10  11
ATOM     11  C   UNL     1      -1.074 -10.368  -9.003  1.00  0.00     0.053 C 
BRANCH  11  12
ATOM     12  C   UNL     1       0.278 -10.050  -9.558  1.00  0.00     0.041 C 
ATOM     13  O   UNL     1       1.020 -10.974  -9.989  1.00  0.00    -0.550 OA
ATOM     14  O   UNL     1       0.743  -8.739  -9.551  1.00  0.00    -0.550 OA
ENDBRANCH  11  12
ENDBRANCH  10  11
ENDBRANCH   9  10
ENDBRANCH   8   9
ENDBRANCH   7   8
ENDBRANCH   6   7
ENDBRANCH   5   6
ENDBRANCH   4   5
ENDBRANCH   3   4
ENDBRANCH   2   3
ENDBRANCH   1   2
BRANCH   1  15
ATOM     15  C   UNL     1      -9.168  -9.660  -2.449  1.00  0.00     0.000 C 
BRANCH  15  16
ATOM     16  C   UNL     1      -9.898  -9.239  -3.733  1.00  0.00     0.000 C 
BRANCH  16  17
ATOM     17  C   UNL     1      -9.893 -10.374  -4.765  1.00  0.00     0.000 C 
BRANCH  17  18
ATOM     18  C   UNL     1     -10.058  -9.823  -6.190  1.00  0.00    -0.000 C 
BRANCH  18  19
ATOM     19  C   UNL     1      -9.651  -8.346  -6.300  1.00  0.00    -0.000 C 
BRANCH  19  20
ATOM     20  C   UNL     1      -9.930  -7.756  -7.692  1.00  0.00    -0.000 C 
BRANCH  20  21
ATOM     21  C   UNL     1      -9.544  -8.711  -8.835  1.00  0.00    -0.000 C 
BRANCH  21  22
ATOM     22  C   UNL     1      -8.527  -8.110  -9.829  1.00  0.00    -0.000 C 
BRANCH  22  23
ATOM     23  C   UNL     1      -7.965  -6.761  -9.344  1.00  0.00    -0.000 C 
BRANCH  23  24
ATOM     24  C   UNL     1      -6.726  -6.922  -8.448  1.00  0.00    -0.000 C 
BRANCH  24  25
ATOM     25  C   UNL     1      -6.284  -5.597  -7.806  1.00  0.00    -0.003 C 
ATOM     26  C   UNL     1      -6.448  -4.433  -8.777  1.00  0.00     0.004 C 
ENDBRANCH  24  25
ENDBRANCH  23  24
ENDBRANCH  22  23
ENDBRANCH  21  22
ENDBRANCH  20  21
ENDBRANCH  19  20
ENDBRANCH  18  19
ENDBRANCH  17  18
ENDBRANCH  16  17
ENDBRANCH  15  16
ENDBRANCH   1  15
TORSDOF 22
ENDMDL
