MODEL 1
REMARK VINA RESULT:    41.107      0.000      0.000
REMARK INTER + INTRA:          49.515
REMARK INTER:                  49.518
REMARK INTRA:                  -0.003
REMARK UNBOUND:                -0.003
REMARK SMILES O=c1c(O)c(-c2ccc(O)c(O)c2)oc2cc(O)cc(O)c12
REMARK SMILES IDX 5 1 3 2 2 3 1 4 22 5 20 6 19 7 17 8 16 9 15 10 14 11 6 12
REMARK SMILES IDX 7 13 8 14 9 15 13 16 11 17 10 18 12 20 4 22 21 24 18 26
REMARK H PARENT 10 19 12 21 4 23 21 25 18 27
REMARK Flexibility Score: inf
ROOT
ATOM      1  C   UNL     1      10.839   9.082  16.364  1.00  0.00     0.180 A 
ATOM      2  C   UNL     1      10.664   7.694  16.513  1.00  0.00     0.208 A 
ATOM      3  C   UNL     1       9.467   7.108  16.073  1.00  0.00     0.238 A 
ATOM      4  O   UNL     1       9.294   5.876  16.258  1.00  0.00    -0.285 OA
ATOM      5  C   UNL     1       8.466   7.911  15.474  1.00  0.00     0.111 A 
ATOM      6  C   UNL     1       7.232   7.417  14.956  1.00  0.00     0.134 A 
ATOM      7  C   UNL     1       6.261   8.320  14.505  1.00  0.00     0.093 A 
ATOM      8  C   UNL     1       6.506   9.695  14.493  1.00  0.00     0.123 A 
ATOM      9  C   UNL     1       7.731  10.183  14.941  1.00  0.00     0.094 A 
ATOM     10  C   UNL     1       8.706   9.310  15.431  1.00  0.00     0.146 A 
ATOM     11  O   UNL     1       9.856   9.818  15.859  1.00  0.00    -0.452 OA
ENDROOT
BRANCH   1  12
ATOM     12  C   UNL     1      12.083   9.768  16.780  1.00  0.00     0.025 A 
ATOM     13  C   UNL     1      12.000  10.960  17.518  1.00  0.00     0.016 A 
ATOM     14  C   UNL     1      13.160  11.635  17.904  1.00  0.00     0.051 A 
ATOM     15  C   UNL     1      14.418  11.141  17.546  1.00  0.00     0.157 A 
ATOM     16  C   UNL     1      13.348   9.284  16.404  1.00  0.00     0.062 A 
ATOM     17  C   UNL     1      14.514   9.962  16.789  1.00  0.00     0.158 A 
BRANCH  15  18
ATOM     18  O   UNL     1      15.559  11.836  17.947  1.00  0.00    -0.504 OA
ATOM     19  H   UNL     1      15.590  12.368  18.808  1.00  0.00     0.293 HD
ENDBRANCH  15  18
BRANCH  17  20
ATOM     20  O   UNL     1      15.765   9.471  16.416  1.00  0.00    -0.504 OA
ATOM     21  H   UNL     1      16.427  10.040  15.902  1.00  0.00     0.293 HD
ENDBRANCH  17  20
ENDBRANCH   1  12
BRANCH   2  22
ATOM     22  O   UNL     1      11.655   6.924  17.126  1.00  0.00    -0.502 OA
ATOM     23  H   UNL     1      12.151   7.234  17.952  1.00  0.00     0.293 HD
ENDBRANCH   2  22
BRANCH   6  24
ATOM     24  O   UNL     1       6.924   6.059  14.837  1.00  0.00    -0.507 OA
ATOM     25  H   UNL     1       7.581   5.341  14.570  1.00  0.00     0.293 HD
ENDBRANCH   6  24
BRANCH   8  26
ATOM     26  O   UNL     1       5.541  10.585  14.027  1.00  0.00    -0.508 OA
ATOM     27  H   UNL     1       4.578  10.532  14.338  1.00  0.00     0.293 HD
ENDBRANCH   8  26
TORSDOF 6
ENDMDL
MODEL 2
REMARK VINA RESULT:    43.777      1.370      6.698
REMARK INTER + INTRA:          52.731
REMARK INTER:                  52.229
REMARK INTRA:                   0.502
REMARK UNBOUND:                -0.003
REMARK SMILES O=c1c(O)c(-c2ccc(O)c(O)c2)oc2cc(O)cc(O)c12
REMARK SMILES IDX 5 1 3 2 2 3 1 4 22 5 20 6 19 7 17 8 16 9 15 10 14 11 6 12
REMARK SMILES IDX 7 13 8 14 9 15 13 16 11 17 10 18 12 20 4 22 21 24 18 26
REMARK H PARENT 10 19 12 21 4 23 21 25 18 27
REMARK Flexibility Score: inf
ROOT
ATOM      1  C   UNL     1       8.634   8.792  15.671  1.00  0.00     0.180 A 
ATOM      2  C   UNL     1       8.903   7.437  15.932  1.00  0.00     0.208 A 
ATOM      3  C   UNL     1      10.100   7.093  16.579  1.00  0.00     0.238 A 
ATOM      4  O   UNL     1      10.361   5.875  16.762  1.00  0.00    -0.285 OA
ATOM      5  C   UNL     1      11.006   8.108  16.974  1.00  0.00     0.111 A 
ATOM      6  C   UNL     1      12.229   7.877  17.672  1.00  0.00     0.134 A 
ATOM      7  C   UNL     1      13.109   8.942  17.895  1.00  0.00     0.093 A 
ATOM      8  C   UNL     1      12.780  10.242  17.503  1.00  0.00     0.123 A 
ATOM      9  C   UNL     1      11.562  10.488  16.874  1.00  0.00     0.094 A 
ATOM     10  C   UNL     1      10.679   9.439  16.606  1.00  0.00     0.146 A 
ATOM     11  O   UNL     1       9.533   9.715  15.994  1.00  0.00    -0.452 OA
ENDROOT
BRANCH   1  12
ATOM     12  C   UNL     1       7.383   9.235  15.015  1.00  0.00     0.025 A 
ATOM     13  C   UNL     1       6.329   8.322  14.852  1.00  0.00     0.016 A 
ATOM     14  C   UNL     1       5.146   8.712  14.218  1.00  0.00     0.051 A 
ATOM     15  C   UNL     1       5.005  10.013  13.725  1.00  0.00     0.157 A 
ATOM     16  C   UNL     1       7.247  10.536  14.500  1.00  0.00     0.062 A 
ATOM     17  C   UNL     1       6.061  10.928  13.862  1.00  0.00     0.158 A 
BRANCH  15  18
ATOM     18  O   UNL     1       3.812  10.375  13.098  1.00  0.00    -0.504 OA
ATOM     19  H   UNL     1       3.778  10.648  12.124  1.00  0.00     0.293 HD
ENDBRANCH  15  18
BRANCH  17  20
ATOM     20  O   UNL     1       5.932  12.223  13.359  1.00  0.00    -0.504 OA
ATOM     21  H   UNL     1       6.184  13.034  13.912  1.00  0.00     0.293 HD
ENDBRANCH  17  20
ENDBRANCH   1  12
BRANCH   2  22
ATOM     22  O   UNL     1       8.006   6.450  15.516  1.00  0.00    -0.502 OA
ATOM     23  H   UNL     1       7.011   6.619  15.436  1.00  0.00     0.293 HD
ENDBRANCH   2  22
BRANCH   6  24
ATOM     24  O   UNL     1      12.610   6.634  18.187  1.00  0.00    -0.507 OA
ATOM     25  H   UNL     1      12.409   5.746  17.753  1.00  0.00     0.293 HD
ENDBRANCH   6  24
BRANCH   8  26
ATOM     26  O   UNL     1      13.654  11.300  17.743  1.00  0.00    -0.508 OA
ATOM     27  H   UNL     1      13.756  11.703  18.667  1.00  0.00     0.293 HD
ENDBRANCH   8  26
TORSDOF 6
ENDMDL
