MODEL 1
REMARK VINA RESULT:    10.551      0.000      0.000
REMARK INTER + INTRA:          21.125
REMARK INTER:                  20.420
REMARK INTRA:                   0.705
REMARK UNBOUND:                 0.705
REMARK SMILES CCCCCCCCCCCCCCCCCC(=O)[O-]
REMARK SMILES IDX 10 1 11 2 12 3 13 4 14 5 15 6 16 7 17 8 18 9 19 10 20 11
REMARK SMILES IDX 9 12 8 13 7 14 6 15 5 16 4 17 3 18 2 19 1 20
REMARK H PARENT
REMARK Flexibility Score: inf
ROOT
ATOM      1  C   UNL     1      13.648 -13.644   7.434  1.00  0.00     0.000 C 
ENDROOT
BRANCH   1   2
ATOM      2  C   UNL     1      12.891 -13.907   6.122  1.00  0.00     0.000 C 
BRANCH   2   3
ATOM      3  C   UNL     1      11.929 -12.768   5.751  1.00  0.00     0.000 C 
BRANCH   3   4
ATOM      4  C   UNL     1      12.641 -11.589   5.065  1.00  0.00     0.000 C 
BRANCH   4   5
ATOM      5  C   UNL     1      11.719 -10.374   4.852  1.00  0.00     0.000 C 
BRANCH   5   6
ATOM      6  C   UNL     1      10.745 -10.080   6.007  1.00  0.00     0.000 C 
BRANCH   6   7
ATOM      7  C   UNL     1       9.781 -11.246   6.291  1.00  0.00     0.006 C 
BRANCH   7   8
ATOM      8  C   UNL     1       8.733 -11.415   5.183  1.00  0.00     0.053 C 
BRANCH   8   9
ATOM      9  C   UNL     1       8.693 -12.820   4.663  1.00  0.00     0.041 C 
ATOM     10  O   UNL     1       9.467 -13.693   5.135  1.00  0.00    -0.550 OA
ATOM     11  O   UNL     1       7.821 -13.157   3.636  1.00  0.00    -0.550 OA
ENDBRANCH   8   9
ENDBRANCH   7   8
ENDBRANCH   6   7
ENDBRANCH   5   6
ENDBRANCH   4   5
ENDBRANCH   3   4
ENDBRANCH   2   3
ENDBRANCH   1   2
BRANCH   1  12
ATOM     12  C   UNL     1      15.080 -14.185   7.360  1.00  0.00     0.000 C 
BRANCH  12  13
ATOM     13  C   UNL     1      15.121 -15.542   6.646  1.00  0.00    -0.000 C 
BRANCH  13  14
ATOM     14  C   UNL     1      16.370 -16.340   7.050  1.00  0.00    -0.000 C 
BRANCH  14  15
ATOM     15  C   UNL     1      17.645 -15.840   6.352  1.00  0.00    -0.000 C 
BRANCH  15  16
ATOM     16  C   UNL     1      18.844 -16.777   6.563  1.00  0.00    -0.000 C 
BRANCH  16  17
ATOM     17  C   UNL     1      19.124 -17.602   5.297  1.00  0.00    -0.000 C 
BRANCH  17  18
ATOM     18  C   UNL     1      19.037 -16.764   4.012  1.00  0.00    -0.000 C 
BRANCH  18  19
ATOM     19  C   UNL     1      18.551 -17.581   2.806  1.00  0.00    -0.003 C 
ATOM     20  C   UNL     1      17.695 -16.727   1.875  1.00  0.00     0.004 C 
ENDBRANCH  18  19
ENDBRANCH  17  18
ENDBRANCH  16  17
ENDBRANCH  15  16
ENDBRANCH  14  15
ENDBRANCH  13  14
ENDBRANCH  12  13
ENDBRANCH   1  12
TORSDOF 16
ENDMDL
MODEL 2
REMARK VINA RESULT:    10.771      3.140      4.310
REMARK INTER + INTRA:          21.550
REMARK INTER:                  22.384
REMARK INTRA:                  -0.833
REMARK UNBOUND:                 0.705
REMARK SMILES CCCCCCCCCCCCCCCCCC(=O)[O-]
REMARK SMILES IDX 10 1 11 2 12 3 13 4 14 5 15 6 16 7 17 8 18 9 19 10 20 11
REMARK SMILES IDX 9 12 8 13 7 14 6 15 5 16 4 17 3 18 2 19 1 20
REMARK H PARENT
REMARK Flexibility Score: inf
ROOT
ATOM      1  C   UNL     1      11.661 -19.585   5.345  1.00  0.00     0.000 C 
ENDROOT
BRANCH   1   2
ATOM      2  C   UNL     1      11.673 -18.086   5.682  1.00  0.00     0.000 C 
BRANCH   2   3
ATOM      3  C   UNL     1      11.257 -17.204   4.495  1.00  0.00     0.000 C 
BRANCH   3   4
ATOM      4  C   UNL     1      10.042 -16.315   4.812  1.00  0.00     0.000 C 
BRANCH   4   5
ATOM      5  C   UNL     1      10.430 -14.853   5.104  1.00  0.00     0.000 C 
BRANCH   5   6
ATOM      6  C   UNL     1       9.300 -13.825   4.915  1.00  0.00     0.000 C 
BRANCH   6   7
ATOM      7  C   UNL     1       9.635 -12.448   5.516  1.00  0.00     0.006 C 
BRANCH   7   8
ATOM      8  C   UNL     1      11.129 -12.300   5.830  1.00  0.00     0.053 C 
BRANCH   8   9
ATOM      9  C   UNL     1      11.699 -11.041   5.253  1.00  0.00     0.041 C 
ATOM     10  O   UNL     1      12.630 -11.096   4.407  1.00  0.00    -0.550 OA
ATOM     11  O   UNL     1      11.222  -9.805   5.671  1.00  0.00    -0.550 OA
ENDBRANCH   8   9
ENDBRANCH   7   8
ENDBRANCH   6   7
ENDBRANCH   5   6
ENDBRANCH   4   5
ENDBRANCH   3   4
ENDBRANCH   2   3
ENDBRANCH   1   2
BRANCH   1  12
ATOM     12  C   UNL     1      12.576 -20.369   6.292  1.00  0.00     0.000 C 
BRANCH  12  13
ATOM     13  C   UNL     1      12.962 -19.523   7.511  1.00  0.00    -0.000 C 
BRANCH  13  14
ATOM     14  C   UNL     1      14.479 -19.282   7.556  1.00  0.00    -0.000 C 
BRANCH  14  15
ATOM     15  C   UNL     1      14.888 -17.952   6.903  1.00  0.00    -0.000 C 
BRANCH  15  16
ATOM     16  C   UNL     1      16.203 -17.392   7.468  1.00  0.00    -0.000 C 
BRANCH  16  17
ATOM     17  C   UNL     1      16.326 -15.888   7.178  1.00  0.00    -0.000 C 
BRANCH  17  18
ATOM     18  C   UNL     1      17.613 -15.534   6.418  1.00  0.00    -0.000 C 
BRANCH  18  19
ATOM     19  C   UNL     1      18.722 -16.578   6.614  1.00  0.00    -0.003 C 
ATOM     20  C   UNL     1      19.125 -17.206   5.283  1.00  0.00     0.004 C 
ENDBRANCH  18  19
ENDBRANCH  17  18
ENDBRANCH  16  17
ENDBRANCH  15  16
ENDBRANCH  14  15
ENDBRANCH  13  14
ENDBRANCH  12  13
ENDBRANCH   1  12
TORSDOF 16
ENDMDL
MODEL 3
REMARK VINA RESULT:    11.163      1.838      2.563
REMARK INTER + INTRA:          22.310
REMARK INTER:                  21.729
REMARK INTRA:                   0.580
REMARK UNBOUND:                 0.705
REMARK SMILES CCCCCCCCCCCCCCCCCC(=O)[O-]
REMARK SMILES IDX 10 1 11 2 12 3 13 4 14 5 15 6 16 7 17 8 18 9 19 10 20 11
REMARK SMILES IDX 9 12 8 13 7 14 6 15 5 16 4 17 3 18 2 19 1 20
REMARK H PARENT
REMARK Flexibility Score: inf
ROOT
ATOM      1  C   UNL     1      13.195 -13.989   6.390  1.00  0.00     0.000 C 
ENDROOT
BRANCH   1   2
ATOM      2  C   UNL     1      12.990 -15.005   5.255  1.00  0.00     0.000 C 
BRANCH   2   3
ATOM      3  C   UNL     1      11.509 -15.209   4.899  1.00  0.00     0.000 C 
BRANCH   3   4
ATOM      4  C   UNL     1      10.572 -14.297   5.711  1.00  0.00     0.000 C 
BRANCH   4   5
ATOM      5  C   UNL     1       9.500 -13.614   4.841  1.00  0.00     0.000 C 
BRANCH   5   6
ATOM      6  C   UNL     1       9.071 -12.212   5.310  1.00  0.00     0.000 C 
BRANCH   6   7
ATOM      7  C   UNL     1      10.159 -11.493   6.127  1.00  0.00     0.006 C 
BRANCH   7   8
ATOM      8  C   UNL     1      11.569 -11.779   5.593  1.00  0.00     0.053 C 
BRANCH   8   9
ATOM      9  C   UNL     1      12.109 -10.628   4.799  1.00  0.00     0.041 C 
ATOM     10  O   UNL     1      12.900 -10.835   3.842  1.00  0.00    -0.550 OA
ATOM     11  O   UNL     1      11.762  -9.326   5.136  1.00  0.00    -0.550 OA
ENDBRANCH   8   9
ENDBRANCH   7   8
ENDBRANCH   6   7
ENDBRANCH   5   6
ENDBRANCH   4   5
ENDBRANCH   3   4
ENDBRANCH   2   3
ENDBRANCH   1   2
BRANCH   1  12
ATOM     12  C   UNL     1      14.473 -14.297   7.178  1.00  0.00     0.000 C 
BRANCH  12  13
ATOM     13  C   UNL     1      15.471 -15.088   6.323  1.00  0.00    -0.000 C 
BRANCH  13  14
ATOM     14  C   UNL     1      16.056 -16.269   7.112  1.00  0.00    -0.000 C 
BRANCH  14  15
ATOM     15  C   UNL     1      17.569 -16.131   7.353  1.00  0.00    -0.000 C 
BRANCH  15  16
ATOM     16  C   UNL     1      18.406 -16.952   6.359  1.00  0.00    -0.000 C 
BRANCH  16  17
ATOM     17  C   UNL     1      18.579 -16.195   5.034  1.00  0.00    -0.000 C 
BRANCH  17  18
ATOM     18  C   UNL     1      18.977 -17.117   3.871  1.00  0.00    -0.000 C 
BRANCH  18  19
ATOM     19  C   UNL     1      18.450 -16.621   2.516  1.00  0.00    -0.003 C 
ATOM     20  C   UNL     1      17.528 -17.655   1.876  1.00  0.00     0.004 C 
ENDBRANCH  18  19
ENDBRANCH  17  18
ENDBRANCH  16  17
ENDBRANCH  15  16
ENDBRANCH  14  15
ENDBRANCH  13  14
ENDBRANCH  12  13
ENDBRANCH   1  12
TORSDOF 16
ENDMDL
MODEL 4
REMARK VINA RESULT:    11.168      5.515      8.818
REMARK INTER + INTRA:          22.318
REMARK INTER:                  23.158
REMARK INTRA:                  -0.840
REMARK UNBOUND:                 0.705
REMARK SMILES CCCCCCCCCCCCCCCCCC(=O)[O-]
REMARK SMILES IDX 10 1 11 2 12 3 13 4 14 5 15 6 16 7 17 8 18 9 19 10 20 11
REMARK SMILES IDX 9 12 8 13 7 14 6 15 5 16 4 17 3 18 2 19 1 20
REMARK H PARENT
REMARK Flexibility Score: inf
ROOT
ATOM      1  C   UNL     1      15.731  -8.679   2.799  1.00  0.00     0.000 C 
ENDROOT
BRANCH   1   2
ATOM      2  C   UNL     1      15.659 -10.089   2.190  1.00  0.00     0.000 C 
BRANCH   2   3
ATOM      3  C   UNL     1      14.369 -10.834   2.566  1.00  0.00     0.000 C 
BRANCH   3   4
ATOM      4  C   UNL     1      13.573 -10.121   3.673  1.00  0.00     0.000 C 
BRANCH   4   5
ATOM      5  C   UNL     1      12.615 -11.065   4.424  1.00  0.00     0.000 C 
BRANCH   5   6
ATOM      6  C   UNL     1      11.589 -10.368   5.337  1.00  0.00     0.000 C 
BRANCH   6   7
ATOM      7  C   UNL     1      10.785 -11.356   6.200  1.00  0.00     0.006 C 
BRANCH   7   8
ATOM      8  C   UNL     1      11.103 -12.818   5.858  1.00  0.00     0.053 C 
BRANCH   8   9
ATOM      9  C   UNL     1       9.923 -13.522   5.262  1.00  0.00     0.041 C 
ATOM     10  O   UNL     1       9.971 -14.759   5.035  1.00  0.00    -0.550 OA
ATOM     11  O   UNL     1       8.780 -12.805   4.930  1.00  0.00    -0.550 OA
ENDBRANCH   8   9
ENDBRANCH   7   8
ENDBRANCH   6   7
ENDBRANCH   5   6
ENDBRANCH   4   5
ENDBRANCH   3   4
ENDBRANCH   2   3
ENDBRANCH   1   2
BRANCH   1  12
ATOM     12  C   UNL     1      16.546  -7.736   1.906  1.00  0.00     0.000 C 
BRANCH  12  13
ATOM     13  C   UNL     1      17.008  -6.500   2.687  1.00  0.00    -0.000 C 
BRANCH  13  14
ATOM     14  C   UNL     1      16.332  -6.434   4.064  1.00  0.00    -0.000 C 
BRANCH  14  15
ATOM     15  C   UNL     1      17.275  -5.921   5.165  1.00  0.00    -0.000 C 
BRANCH  15  16
ATOM     16  C   UNL     1      16.598  -5.850   6.542  1.00  0.00    -0.000 C 
BRANCH  16  17
ATOM     17  C   UNL     1      15.552  -4.725   6.580  1.00  0.00    -0.000 C 
BRANCH  17  18
ATOM     18  C   UNL     1      16.040  -3.487   7.348  1.00  0.00    -0.000 C 
BRANCH  18  19
ATOM     19  C   UNL     1      15.420  -2.184   6.823  1.00  0.00    -0.003 C 
ATOM     20  C   UNL     1      16.267  -0.977   7.215  1.00  0.00     0.004 C 
ENDBRANCH  18  19
ENDBRANCH  17  18
ENDBRANCH  16  17
ENDBRANCH  15  16
ENDBRANCH  14  15
ENDBRANCH  13  14
ENDBRANCH  12  13
ENDBRANCH   1  12
TORSDOF 16
ENDMDL
MODEL 5
REMARK VINA RESULT:    11.195      3.726      8.660
REMARK INTER + INTRA:          22.370
REMARK INTER:                  23.599
REMARK INTRA:                  -1.228
REMARK UNBOUND:                 0.705
REMARK SMILES CCCCCCCCCCCCCCCCCC(=O)[O-]
REMARK SMILES IDX 10 1 11 2 12 3 13 4 14 5 15 6 16 7 17 8 18 9 19 10 20 11
REMARK SMILES IDX 9 12 8 13 7 14 6 15 5 16 4 17 3 18 2 19 1 20
REMARK H PARENT
REMARK Flexibility Score: inf
ROOT
ATOM      1  C   UNL     1      12.295 -14.630   5.340  1.00  0.00     0.000 C 
ENDROOT
BRANCH   1   2
ATOM      2  C   UNL     1      13.592 -15.403   5.633  1.00  0.00     0.000 C 
BRANCH   2   3
ATOM      3  C   UNL     1      14.390 -14.804   6.801  1.00  0.00     0.000 C 
BRANCH   3   4
ATOM      4  C   UNL     1      15.455 -15.770   7.349  1.00  0.00     0.000 C 
BRANCH   4   5
ATOM      5  C   UNL     1      16.853 -15.521   6.753  1.00  0.00     0.000 C 
BRANCH   5   6
ATOM      6  C   UNL     1      17.970 -16.428   7.301  1.00  0.00     0.000 C 
BRANCH   6   7
ATOM      7  C   UNL     1      19.125 -16.627   6.304  1.00  0.00     0.006 C 
BRANCH   7   8
ATOM      8  C   UNL     1      18.704 -16.321   4.860  1.00  0.00     0.053 C 
BRANCH   8   9
ATOM      9  C   UNL     1      18.953 -17.483   3.948  1.00  0.00     0.041 C 
ATOM     10  O   UNL     1      18.983 -17.314   2.701  1.00  0.00    -0.550 OA
ATOM     11  O   UNL     1      19.121 -18.757   4.474  1.00  0.00    -0.550 OA
ENDBRANCH   8   9
ENDBRANCH   7   8
ENDBRANCH   6   7
ENDBRANCH   5   6
ENDBRANCH   4   5
ENDBRANCH   3   4
ENDBRANCH   2   3
ENDBRANCH   1   2
BRANCH   1  12
ATOM     12  C   UNL     1      11.198 -15.572   4.832  1.00  0.00     0.000 C 
BRANCH  12  13
ATOM     13  C   UNL     1       9.818 -14.908   4.917  1.00  0.00    -0.000 C 
BRANCH  13  14
ATOM     14  C   UNL     1       9.898 -13.567   5.663  1.00  0.00    -0.000 C 
BRANCH  14  15
ATOM     15  C   UNL     1       9.000 -12.486   5.040  1.00  0.00    -0.000 C 
BRANCH  15  16
ATOM     16  C   UNL     1       9.395 -11.065   5.469  1.00  0.00    -0.000 C 
BRANCH  16  17
ATOM     17  C   UNL     1      10.843 -11.030   5.980  1.00  0.00    -0.000 C 
BRANCH  17  18
ATOM     18  C   UNL     1      11.775 -10.218   5.067  1.00  0.00    -0.000 C 
BRANCH  18  19
ATOM     19  C   UNL     1      13.004 -11.020   4.614  1.00  0.00    -0.003 C 
ATOM     20  C   UNL     1      13.434 -10.614   3.207  1.00  0.00     0.004 C 
ENDBRANCH  18  19
ENDBRANCH  17  18
ENDBRANCH  16  17
ENDBRANCH  15  16
ENDBRANCH  14  15
ENDBRANCH  13  14
ENDBRANCH  12  13
ENDBRANCH   1  12
TORSDOF 16
ENDMDL
MODEL 6
REMARK VINA RESULT:    11.402      1.616      2.196
REMARK INTER + INTRA:          22.771
REMARK INTER:                  23.382
REMARK INTRA:                  -0.611
REMARK UNBOUND:                 0.705
REMARK SMILES CCCCCCCCCCCCCCCCCC(=O)[O-]
REMARK SMILES IDX 10 1 11 2 12 3 13 4 14 5 15 6 16 7 17 8 18 9 19 10 20 11
REMARK SMILES IDX 9 12 8 13 7 14 6 15 5 16 4 17 3 18 2 19 1 20
REMARK H PARENT
REMARK Flexibility Score: inf
ROOT
ATOM      1  C   UNL     1      14.499 -14.252   7.022  1.00  0.00     0.000 C 
ENDROOT
BRANCH   1   2
ATOM      2  C   UNL     1      13.149 -14.140   6.295  1.00  0.00     0.000 C 
BRANCH   2   3
ATOM      3  C   UNL     1      12.314 -12.941   6.769  1.00  0.00     0.000 C 
BRANCH   3   4
ATOM      4  C   UNL     1      11.985 -11.959   5.631  1.00  0.00     0.000 C 
BRANCH   4   5
ATOM      5  C   UNL     1      10.583 -11.335   5.765  1.00  0.00     0.000 C 
BRANCH   5   6
ATOM      6  C   UNL     1       9.410 -12.287   5.468  1.00  0.00     0.000 C 
BRANCH   6   7
ATOM      7  C   UNL     1       9.848 -13.570   4.740  1.00  0.00     0.006 C 
BRANCH   7   8
ATOM      8  C   UNL     1       9.674 -14.820   5.612  1.00  0.00     0.053 C 
BRANCH   8   9
ATOM      9  C   UNL     1       9.944 -16.078   4.844  1.00  0.00     0.041 C 
ATOM     10  O   UNL     1       9.075 -16.988   4.792  1.00  0.00    -0.550 OA
ATOM     11  O   UNL     1      11.167 -16.259   4.211  1.00  0.00    -0.550 OA
ENDBRANCH   8   9
ENDBRANCH   7   8
ENDBRANCH   6   7
ENDBRANCH   5   6
ENDBRANCH   4   5
ENDBRANCH   3   4
ENDBRANCH   2   3
ENDBRANCH   1   2
BRANCH   1  12
ATOM     12  C   UNL     1      15.122 -15.636   6.814  1.00  0.00     0.000 C 
BRANCH  12  13
ATOM     13  C   UNL     1      16.639 -15.598   7.040  1.00  0.00    -0.000 C 
BRANCH  13  14
ATOM     14  C   UNL     1      17.234 -17.014   7.017  1.00  0.00    -0.000 C 
BRANCH  14  15
ATOM     15  C   UNL     1      18.698 -17.035   6.548  1.00  0.00    -0.000 C 
BRANCH  15  16
ATOM     16  C   UNL     1      18.870 -16.506   5.116  1.00  0.00    -0.000 C 
BRANCH  16  17
ATOM     17  C   UNL     1      18.802 -17.653   4.096  1.00  0.00    -0.000 C 
BRANCH  17  18
ATOM     18  C   UNL     1      19.119 -17.194   2.664  1.00  0.00    -0.000 C 
BRANCH  18  19
ATOM     19  C   UNL     1      17.949 -16.442   2.013  1.00  0.00    -0.003 C 
ATOM     20  C   UNL     1      16.726 -17.344   1.875  1.00  0.00     0.004 C 
ENDBRANCH  18  19
ENDBRANCH  17  18
ENDBRANCH  16  17
ENDBRANCH  15  16
ENDBRANCH  14  15
ENDBRANCH  13  14
ENDBRANCH  12  13
ENDBRANCH   1  12
TORSDOF 16
ENDMDL
MODEL 7
REMARK VINA RESULT:    11.537      4.243      8.657
REMARK INTER + INTRA:          23.033
REMARK INTER:                  23.383
REMARK INTRA:                  -0.350
REMARK UNBOUND:                 0.705
REMARK SMILES CCCCCCCCCCCCCCCCCC(=O)[O-]
REMARK SMILES IDX 10 1 11 2 12 3 13 4 14 5 15 6 16 7 17 8 18 9 19 10 20 11
REMARK SMILES IDX 9 12 8 13 7 14 6 15 5 16 4 17 3 18 2 19 1 20
REMARK H PARENT
REMARK Flexibility Score: inf
ROOT
ATOM      1  C   UNL     1      12.074 -19.328   4.896  1.00  0.00     0.000 C 
ENDROOT
BRANCH   1   2
ATOM      2  C   UNL     1      12.525 -20.253   6.038  1.00  0.00     0.000 C 
BRANCH   2   3
ATOM      3  C   UNL     1      12.838 -19.489   7.333  1.00  0.00     0.000 C 
BRANCH   3   4
ATOM      4  C   UNL     1      14.328 -19.130   7.466  1.00  0.00     0.000 C 
BRANCH   4   5
ATOM      5  C   UNL     1      14.602 -17.628   7.269  1.00  0.00     0.000 C 
BRANCH   5   6
ATOM      6  C   UNL     1      16.066 -17.262   6.962  1.00  0.00     0.000 C 
BRANCH   6   7
ATOM      7  C   UNL     1      16.346 -15.754   7.082  1.00  0.00     0.006 C 
BRANCH   7   8
ATOM      8  C   UNL     1      17.702 -15.366   6.477  1.00  0.00     0.053 C 
BRANCH   8   9
ATOM      9  C   UNL     1      18.543 -16.569   6.174  1.00  0.00     0.041 C 
ATOM     10  O   UNL     1      18.748 -17.438   7.061  1.00  0.00    -0.550 OA
ATOM     11  O   UNL     1      19.124 -16.714   4.921  1.00  0.00    -0.550 OA
ENDBRANCH   8   9
ENDBRANCH   7   8
ENDBRANCH   6   7
ENDBRANCH   5   6
ENDBRANCH   4   5
ENDBRANCH   3   4
ENDBRANCH   2   3
ENDBRANCH   1   2
BRANCH   1  12
ATOM     12  C   UNL     1      11.244 -18.157   5.433  1.00  0.00     0.000 C 
BRANCH  12  13
ATOM     13  C   UNL     1      11.350 -16.937   4.510  1.00  0.00    -0.000 C 
BRANCH  13  14
ATOM     14  C   UNL     1      10.168 -15.979   4.726  1.00  0.00    -0.000 C 
BRANCH  14  15
ATOM     15  C   UNL     1      10.616 -14.529   4.970  1.00  0.00    -0.000 C 
BRANCH  15  16
ATOM     16  C   UNL     1       9.448 -13.598   5.331  1.00  0.00    -0.000 C 
BRANCH  16  17
ATOM     17  C   UNL     1       9.964 -12.267   5.898  1.00  0.00    -0.000 C 
BRANCH  17  18
ATOM     18  C   UNL     1      11.498 -12.186   5.919  1.00  0.00    -0.000 C 
BRANCH  18  19
ATOM     19  C   UNL     1      12.045 -11.109   4.970  1.00  0.00    -0.003 C 
ATOM     20  C   UNL     1      11.431  -9.746   5.275  1.00  0.00     0.004 C 
ENDBRANCH  18  19
ENDBRANCH  17  18
ENDBRANCH  16  17
ENDBRANCH  15  16
ENDBRANCH  14  15
ENDBRANCH  13  14
ENDBRANCH  12  13
ENDBRANCH   1  12
TORSDOF 16
ENDMDL
MODEL 8
REMARK VINA RESULT:    12.035      2.778      4.104
REMARK INTER + INTRA:          23.996
REMARK INTER:                  22.972
REMARK INTRA:                   1.024
REMARK UNBOUND:                 0.705
REMARK SMILES CCCCCCCCCCCCCCCCCC(=O)[O-]
REMARK SMILES IDX 10 1 11 2 12 3 13 4 14 5 15 6 16 7 17 8 18 9 19 10 20 11
REMARK SMILES IDX 9 12 8 13 7 14 6 15 5 16 4 17 3 18 2 19 1 20
REMARK H PARENT
REMARK Flexibility Score: inf
ROOT
ATOM      1  C   UNL     1      14.411 -14.023   7.476  1.00  0.00     0.000 C 
ENDROOT
BRANCH   1   2
ATOM      2  C   UNL     1      13.145 -13.631   6.696  1.00  0.00     0.000 C 
BRANCH   2   3
ATOM      3  C   UNL     1      12.736 -14.685   5.656  1.00  0.00     0.000 C 
BRANCH   3   4
ATOM      4  C   UNL     1      11.538 -14.240   4.799  1.00  0.00     0.000 C 
BRANCH   4   5
ATOM      5  C   UNL     1      10.226 -14.157   5.601  1.00  0.00     0.000 C 
BRANCH   5   6
ATOM      6  C   UNL     1       9.199 -13.137   5.076  1.00  0.00     0.000 C 
BRANCH   6   7
ATOM      7  C   UNL     1       9.490 -11.699   5.539  1.00  0.00     0.006 C 
BRANCH   7   8
ATOM      8  C   UNL     1      10.945 -11.519   5.994  1.00  0.00     0.053 C 
BRANCH   8   9
ATOM      9  C   UNL     1      11.674 -10.519   5.150  1.00  0.00     0.041 C 
ATOM     10  O   UNL     1      12.680 -10.870   4.479  1.00  0.00    -0.550 OA
ATOM     11  O   UNL     1      11.261  -9.193   5.128  1.00  0.00    -0.550 OA
ENDBRANCH   8   9
ENDBRANCH   7   8
ENDBRANCH   6   7
ENDBRANCH   5   6
ENDBRANCH   4   5
ENDBRANCH   3   4
ENDBRANCH   2   3
ENDBRANCH   1   2
BRANCH   1  12
ATOM     12  C   UNL     1      15.212 -15.090   6.721  1.00  0.00     0.000 C 
BRANCH  12  13
ATOM     13  C   UNL     1      16.697 -15.035   7.099  1.00  0.00    -0.000 C 
BRANCH  13  14
ATOM     14  C   UNL     1      17.437 -16.288   6.606  1.00  0.00    -0.000 C 
BRANCH  14  15
ATOM     15  C   UNL     1      16.766 -17.593   7.066  1.00  0.00    -0.000 C 
BRANCH  15  16
ATOM     16  C   UNL     1      15.235 -17.481   7.137  1.00  0.00    -0.000 C 
BRANCH  16  17
ATOM     17  C   UNL     1      14.619 -18.766   7.711  1.00  0.00    -0.000 C 
BRANCH  17  18
ATOM     18  C   UNL     1      13.202 -19.032   7.181  1.00  0.00    -0.000 C 
BRANCH  18  19
ATOM     19  C   UNL     1      13.051 -20.437   6.579  1.00  0.00    -0.003 C 
ATOM     20  C   UNL     1      11.612 -20.693   6.139  1.00  0.00     0.004 C 
ENDBRANCH  18  19
ENDBRANCH  17  18
ENDBRANCH  16  17
ENDBRANCH  15  16
ENDBRANCH  14  15
ENDBRANCH  13  14
ENDBRANCH  12  13
ENDBRANCH   1  12
TORSDOF 16
ENDMDL
MODEL 9
REMARK VINA RESULT:    12.073      2.920      4.490
REMARK INTER + INTRA:          24.071
REMARK INTER:                  23.224
REMARK INTRA:                   0.846
REMARK UNBOUND:                 0.705
REMARK SMILES CCCCCCCCCCCCCCCCCC(=O)[O-]
REMARK SMILES IDX 10 1 11 2 12 3 13 4 14 5 15 6 16 7 17 8 18 9 19 10 20 11
REMARK SMILES IDX 9 12 8 13 7 14 6 15 5 16 4 17 3 18 2 19 1 20
REMARK H PARENT
REMARK Flexibility Score: inf
ROOT
ATOM      1  C   UNL     1      16.928 -14.480   6.807  1.00  0.00     0.000 C 
ENDROOT
BRANCH   1   2
ATOM      2  C   UNL     1      15.537 -15.099   7.015  1.00  0.00     0.000 C 
BRANCH   2   3
ATOM      3  C   UNL     1      14.431 -14.042   7.162  1.00  0.00     0.000 C 
BRANCH   3   4
ATOM      4  C   UNL     1      13.263 -14.265   6.186  1.00  0.00     0.000 C 
BRANCH   4   5
ATOM      5  C   UNL     1      12.048 -13.369   6.492  1.00  0.00     0.000 C 
BRANCH   5   6
ATOM      6  C   UNL     1      10.874 -13.496   5.503  1.00  0.00     0.000 C 
BRANCH   6   7
ATOM      7  C   UNL     1      10.049 -12.203   5.383  1.00  0.00     0.006 C 
BRANCH   7   8
ATOM      8  C   UNL     1      10.726 -11.016   6.079  1.00  0.00     0.053 C 
BRANCH   8   9
ATOM      9  C   UNL     1      11.583 -10.230   5.134  1.00  0.00     0.041 C 
ATOM     10  O   UNL     1      11.398  -8.993   4.991  1.00  0.00    -0.550 OA
ATOM     11  O   UNL     1      12.566 -10.869   4.390  1.00  0.00    -0.550 OA
ENDBRANCH   8   9
ENDBRANCH   7   8
ENDBRANCH   6   7
ENDBRANCH   5   6
ENDBRANCH   4   5
ENDBRANCH   3   4
ENDBRANCH   2   3
ENDBRANCH   1   2
BRANCH   1  12
ATOM     12  C   UNL     1      17.848 -15.441   6.044  1.00  0.00     0.000 C 
BRANCH  12  13
ATOM     13  C   UNL     1      18.379 -16.544   6.967  1.00  0.00    -0.000 C 
BRANCH  13  14
ATOM     14  C   UNL     1      17.517 -17.812   6.862  1.00  0.00    -0.000 C 
BRANCH  14  15
ATOM     15  C   UNL     1      16.063 -17.578   7.304  1.00  0.00    -0.000 C 
BRANCH  15  16
ATOM     16  C   UNL     1      15.346 -18.878   7.702  1.00  0.00    -0.000 C 
BRANCH  16  17
ATOM     17  C   UNL     1      13.903 -18.890   7.177  1.00  0.00    -0.000 C 
BRANCH  17  18
ATOM     18  C   UNL     1      13.171 -20.205   7.484  1.00  0.00    -0.000 C 
BRANCH  18  19
ATOM     19  C   UNL     1      11.847 -20.338   6.716  1.00  0.00    -0.003 C 
ATOM     20  C   UNL     1      12.056 -20.111   5.222  1.00  0.00     0.004 C 
ENDBRANCH  18  19
ENDBRANCH  17  18
ENDBRANCH  16  17
ENDBRANCH  15  16
ENDBRANCH  14  15
ENDBRANCH  13  14
ENDBRANCH  12  13
ENDBRANCH   1  12
TORSDOF 16
ENDMDL
