MODEL 1
REMARK VINA RESULT:    -0.871      0.000      0.000
REMARK INTER + INTRA:          -0.830
REMARK INTER:                  -1.050
REMARK INTRA:                   0.220
REMARK UNBOUND:                 0.220
REMARK SMILES O=c1c(O)c(-c2ccc(O)c(O)c2)oc2cc(O)cc(O)c12
REMARK SMILES IDX 5 1 3 2 2 3 1 4 22 5 20 6 19 7 17 8 16 9 15 10 14 11 6 12
REMARK SMILES IDX 7 13 8 14 9 15 13 16 11 17 10 18 12 20 4 22 21 24 18 26
REMARK H PARENT 10 19 12 21 4 23 21 25 18 27
REMARK Flexibility Score: inf
ROOT
ATOM      1  C   UNL     1     -37.463 -35.658 -33.799  1.00  0.00     0.180 A 
ATOM      2  C   UNL     1     -36.066 -35.803 -33.863  1.00  0.00     0.208 A 
ATOM      3  C   UNL     1     -35.453 -35.941 -35.119  1.00  0.00     0.238 A 
ATOM      4  O   UNL     1     -34.208 -36.125 -35.166  1.00  0.00    -0.285 OA
ATOM      5  C   UNL     1     -36.240 -35.915 -36.295  1.00  0.00     0.111 A 
ATOM      6  C   UNL     1     -35.720 -36.005 -37.620  1.00  0.00     0.134 A 
ATOM      7  C   UNL     1     -36.602 -36.100 -38.703  1.00  0.00     0.093 A 
ATOM      8  C   UNL     1     -37.983 -36.043 -38.516  1.00  0.00     0.123 A 
ATOM      9  C   UNL     1     -38.502 -35.895 -37.228  1.00  0.00     0.094 A 
ATOM     10  C   UNL     1     -37.648 -35.834 -36.124  1.00  0.00     0.146 A 
ATOM     11  O   UNL     1     -38.181 -35.704 -34.915  1.00  0.00    -0.452 OA
ENDROOT
BRANCH   1  12
ATOM     12  C   UNL     1     -38.179 -35.484 -32.515  1.00  0.00     0.025 A 
ATOM     13  C   UNL     1     -37.744 -36.125 -31.341  1.00  0.00     0.016 A 
ATOM     14  C   UNL     1     -38.421 -35.927 -30.136  1.00  0.00     0.051 A 
ATOM     15  C   UNL     1     -39.533 -35.075 -30.082  1.00  0.00     0.157 A 
ATOM     16  C   UNL     1     -39.281 -34.616 -32.450  1.00  0.00     0.062 A 
ATOM     17  C   UNL     1     -39.961 -34.417 -31.240  1.00  0.00     0.158 A 
BRANCH  15  18
ATOM     18  O   UNL     1     -40.212 -34.876 -28.881  1.00  0.00    -0.504 OA
ATOM     19  H   UNL     1     -40.032 -35.455 -28.068  1.00  0.00     0.293 HD
ENDBRANCH  15  18
BRANCH  17  20
ATOM     20  O   UNL     1     -41.063 -33.565 -31.182  1.00  0.00    -0.504 OA
ATOM     21  H   UNL     1     -41.635 -33.494 -30.347  1.00  0.00     0.293 HD
ENDBRANCH  17  20
ENDBRANCH   1  12
BRANCH   2  22
ATOM     22  O   UNL     1     -35.310 -35.849 -32.689  1.00  0.00    -0.502 OA
ATOM     23  H   UNL     1     -34.298 -35.823 -32.692  1.00  0.00     0.293 HD
ENDBRANCH   2  22
BRANCH   6  24
ATOM     24  O   UNL     1     -34.356 -35.977 -37.928  1.00  0.00    -0.507 OA
ATOM     25  H   UNL     1     -33.815 -36.780 -38.210  1.00  0.00     0.293 HD
ENDBRANCH   6  24
BRANCH   8  26
ATOM     26  O   UNL     1     -38.831 -36.125 -39.617  1.00  0.00    -0.508 OA
ATOM     27  H   UNL     1     -39.534 -35.418 -39.798  1.00  0.00     0.293 HD
ENDBRANCH   8  26
TORSDOF 6
ENDMDL
