MODEL 1
REMARK VINA RESULT:    -7.543      0.000      0.000
REMARK INTER + INTRA:          -9.184
REMARK INTER:                  -8.866
REMARK INTRA:                  -0.318
REMARK UNBOUND:                -0.318
REMARK SMILES O=c1cc(-c2ccc(O)c(O)c2)oc2cc(O)cc(O)c12
REMARK SMILES IDX 4 1 3 2 2 3 1 4 21 5 19 6 18 7 16 8 15 9 14 10 13 11 5 12
REMARK SMILES IDX 6 13 7 14 8 15 12 16 10 17 9 18 11 20 20 22 17 24
REMARK H PARENT 9 19 11 21 20 23 17 25
REMARK Flexibility Score: inf
ROOT
ATOM      1  C   UNL     1     145.520 -22.235  76.962  1.00  0.00     0.138 A 
ATOM      2  C   UNL     1     146.002 -23.300  77.736  1.00  0.00     0.100 A 
ATOM      3  C   UNL     1     147.272 -23.818  77.482  1.00  0.00     0.197 A 
ATOM      4  O   UNL     1     147.653 -24.814  78.150  1.00  0.00    -0.289 OA
ATOM      5  C   UNL     1     148.077 -23.244  76.467  1.00  0.00     0.107 A 
ATOM      6  C   UNL     1     149.402 -23.663  76.148  1.00  0.00     0.134 A 
ATOM      7  C   UNL     1     150.058 -23.098  75.047  1.00  0.00     0.093 A 
ATOM      8  C   UNL     1     149.458 -22.088  74.292  1.00  0.00     0.123 A 
ATOM      9  C   UNL     1     148.185 -21.634  74.629  1.00  0.00     0.094 A 
ATOM     10  C   UNL     1     147.492 -22.202  75.701  1.00  0.00     0.146 A 
ATOM     11  O   UNL     1     146.274 -21.750  75.981  1.00  0.00    -0.456 OA
ENDROOT
BRANCH   1  12
ATOM     12  C   UNL     1     144.177 -21.645  77.191  1.00  0.00     0.021 A 
ATOM     13  C   UNL     1     143.318 -22.128  78.196  1.00  0.00     0.016 A 
ATOM     14  C   UNL     1     142.063 -21.546  78.395  1.00  0.00     0.051 A 
ATOM     15  C   UNL     1     141.647 -20.470  77.602  1.00  0.00     0.157 A 
ATOM     16  C   UNL     1     143.757 -20.554  76.408  1.00  0.00     0.062 A 
ATOM     17  C   UNL     1     142.501 -19.971  76.605  1.00  0.00     0.158 A 
BRANCH  15  18
ATOM     18  O   UNL     1     140.393 -19.894  77.802  1.00  0.00    -0.504 OA
ATOM     19  H   UNL     1     139.714 -20.307  78.430  1.00  0.00     0.293 HD
ENDBRANCH  15  18
BRANCH  17  20
ATOM     20  O   UNL     1     142.119 -18.898  75.801  1.00  0.00    -0.504 OA
ATOM     21  H   UNL     1     141.298 -18.340  76.002  1.00  0.00     0.293 HD
ENDBRANCH  17  20
ENDBRANCH   1  12
BRANCH   6  22
ATOM     22  O   UNL     1     150.125 -24.604  76.889  1.00  0.00    -0.507 OA
ATOM     23  H   UNL     1     151.073 -24.886  76.694  1.00  0.00     0.293 HD
ENDBRANCH   6  22
BRANCH   8  24
ATOM     24  O   UNL     1     150.124 -21.520  73.207  1.00  0.00    -0.508 OA
ATOM     25  H   UNL     1     149.757 -21.591  72.265  1.00  0.00     0.293 HD
ENDBRANCH   8  24
TORSDOF 5
ENDMDL
MODEL 2
REMARK VINA RESULT:    -7.117      4.841      9.955
REMARK INTER + INTRA:          -8.683
REMARK INTER:                  -8.411
REMARK INTRA:                  -0.272
REMARK UNBOUND:                -0.318
REMARK SMILES O=c1cc(-c2ccc(O)c(O)c2)oc2cc(O)cc(O)c12
REMARK SMILES IDX 4 1 3 2 2 3 1 4 21 5 19 6 18 7 16 8 15 9 14 10 13 11 5 12
REMARK SMILES IDX 6 13 7 14 8 15 12 16 10 17 9 18 11 20 20 22 17 24
REMARK H PARENT 9 19 11 21 20 23 17 25
REMARK Flexibility Score: inf
ROOT
ATOM      1  C   UNL     1     140.499 -17.988  78.818  1.00  0.00     0.138 A 
ATOM      2  C   UNL     1     139.143 -17.798  78.518  1.00  0.00     0.100 A 
ATOM      3  C   UNL     1     138.490 -16.651  78.971  1.00  0.00     0.197 A 
ATOM      4  O   UNL     1     137.259 -16.538  78.740  1.00  0.00    -0.289 OA
ATOM      5  C   UNL     1     139.209 -15.675  79.703  1.00  0.00     0.107 A 
ATOM      6  C   UNL     1     138.657 -14.449  80.180  1.00  0.00     0.134 A 
ATOM      7  C   UNL     1     139.433 -13.613  80.992  1.00  0.00     0.093 A 
ATOM      8  C   UNL     1     140.760 -13.931  81.294  1.00  0.00     0.123 A 
ATOM      9  C   UNL     1     141.324 -15.099  80.788  1.00  0.00     0.094 A 
ATOM     10  C   UNL     1     140.565 -15.971  80.003  1.00  0.00     0.146 A 
ATOM     11  O   UNL     1     141.136 -17.082  79.552  1.00  0.00    -0.456 OA
ENDROOT
BRANCH   1  12
ATOM     12  C   UNL     1     141.243 -19.189  78.360  1.00  0.00     0.021 A 
ATOM     13  C   UNL     1     140.919 -20.480  78.819  1.00  0.00     0.016 A 
ATOM     14  C   UNL     1     141.630 -21.593  78.363  1.00  0.00     0.051 A 
ATOM     15  C   UNL     1     142.668 -21.439  77.436  1.00  0.00     0.157 A 
ATOM     16  C   UNL     1     142.278 -19.045  77.418  1.00  0.00     0.062 A 
ATOM     17  C   UNL     1     142.991 -20.158  76.961  1.00  0.00     0.158 A 
BRANCH  15  18
ATOM     18  O   UNL     1     143.376 -22.553  76.985  1.00  0.00    -0.504 OA
ATOM     19  H   UNL     1     142.904 -23.357  76.591  1.00  0.00     0.293 HD
ENDBRANCH  15  18
BRANCH  17  20
ATOM     20  O   UNL     1     144.017 -19.971  76.035  1.00  0.00    -0.504 OA
ATOM     21  H   UNL     1     144.205 -20.640  75.297  1.00  0.00     0.293 HD
ENDBRANCH  17  20
ENDBRANCH   1  12
BRANCH   6  22
ATOM     22  O   UNL     1     137.371 -13.995  79.866  1.00  0.00    -0.507 OA
ATOM     23  H   UNL     1     136.662 -13.763  80.543  1.00  0.00     0.293 HD
ENDBRANCH   6  22
BRANCH   8  24
ATOM     24  O   UNL     1     141.530 -13.086  82.090  1.00  0.00    -0.508 OA
ATOM     25  H   UNL     1     141.558 -13.189  83.098  1.00  0.00     0.293 HD
ENDBRANCH   8  24
TORSDOF 5
ENDMDL
MODEL 3
REMARK VINA RESULT:    -6.742      1.258      2.798
REMARK INTER + INTRA:          -8.242
REMARK INTER:                  -7.947
REMARK INTRA:                  -0.295
REMARK UNBOUND:                -0.318
REMARK SMILES O=c1cc(-c2ccc(O)c(O)c2)oc2cc(O)cc(O)c12
REMARK SMILES IDX 4 1 3 2 2 3 1 4 21 5 19 6 18 7 16 8 15 9 14 10 13 11 5 12
REMARK SMILES IDX 6 13 7 14 8 15 12 16 10 17 9 18 11 20 20 22 17 24
REMARK H PARENT 9 19 11 21 20 23 17 25
REMARK Flexibility Score: inf
ROOT
ATOM      1  C   UNL     1     145.536 -22.277  76.862  1.00  0.00     0.138 A 
ATOM      2  C   UNL     1     146.309 -21.748  75.818  1.00  0.00     0.100 A 
ATOM      3  C   UNL     1     147.562 -22.295  75.542  1.00  0.00     0.197 A 
ATOM      4  O   UNL     1     148.258 -21.759  74.642  1.00  0.00    -0.289 OA
ATOM      5  C   UNL     1     148.030 -23.399  76.296  1.00  0.00     0.107 A 
ATOM      6  C   UNL     1     149.273 -24.062  76.076  1.00  0.00     0.134 A 
ATOM      7  C   UNL     1     149.683 -25.069  76.959  1.00  0.00     0.093 A 
ATOM      8  C   UNL     1     148.867 -25.476  78.017  1.00  0.00     0.123 A 
ATOM      9  C   UNL     1     147.627 -24.870  78.207  1.00  0.00     0.094 A 
ATOM     10  C   UNL     1     147.205 -23.840  77.364  1.00  0.00     0.146 A 
ATOM     11  O   UNL     1     146.022 -23.278  77.588  1.00  0.00    -0.456 OA
ENDROOT
BRANCH   1  12
ATOM     12  C   UNL     1     144.195 -21.735  77.198  1.00  0.00     0.021 A 
ATOM     13  C   UNL     1     143.416 -22.279  78.237  1.00  0.00     0.016 A 
ATOM     14  C   UNL     1     142.161 -21.742  78.537  1.00  0.00     0.051 A 
ATOM     15  C   UNL     1     141.667 -20.650  77.814  1.00  0.00     0.157 A 
ATOM     16  C   UNL     1     143.696 -20.629  76.485  1.00  0.00     0.062 A 
ATOM     17  C   UNL     1     142.440 -20.090  76.784  1.00  0.00     0.158 A 
BRANCH  15  18
ATOM     18  O   UNL     1     140.414 -20.118  78.116  1.00  0.00    -0.504 OA
ATOM     19  H   UNL     1     140.309 -19.175  78.470  1.00  0.00     0.293 HD
ENDBRANCH  15  18
BRANCH  17  20
ATOM     20  O   UNL     1     141.979 -19.001  76.047  1.00  0.00    -0.504 OA
ATOM     21  H   UNL     1     142.441 -18.099  76.072  1.00  0.00     0.293 HD
ENDBRANCH  17  20
ENDBRANCH   1  12
BRANCH   6  22
ATOM     22  O   UNL     1     150.125 -23.792  75.000  1.00  0.00    -0.507 OA
ATOM     23  H   UNL     1     151.117 -23.632  75.076  1.00  0.00     0.293 HD
ENDBRANCH   6  22
BRANCH   8  24
ATOM     24  O   UNL     1     149.275 -26.489  78.882  1.00  0.00    -0.508 OA
ATOM     25  H   UNL     1     149.143 -26.415  79.885  1.00  0.00     0.293 HD
ENDBRANCH   8  24
TORSDOF 5
ENDMDL
MODEL 4
REMARK VINA RESULT:    -4.775      4.989      9.856
REMARK INTER + INTRA:          -5.930
REMARK INTER:                  -5.637
REMARK INTRA:                  -0.294
REMARK UNBOUND:                -0.318
REMARK SMILES O=c1cc(-c2ccc(O)c(O)c2)oc2cc(O)cc(O)c12
REMARK SMILES IDX 4 1 3 2 2 3 1 4 21 5 19 6 18 7 16 8 15 9 14 10 13 11 5 12
REMARK SMILES IDX 6 13 7 14 8 15 12 16 10 17 9 18 11 20 20 22 17 24
REMARK H PARENT 9 19 11 21 20 23 17 25
REMARK Flexibility Score: inf
ROOT
ATOM      1  C   UNL     1     141.140 -17.683  78.772  1.00  0.00     0.138 A 
ATOM      2  C   UNL     1     142.240 -16.890  79.126  1.00  0.00     0.100 A 
ATOM      3  C   UNL     1     142.047 -15.752  79.909  1.00  0.00     0.197 A 
ATOM      4  O   UNL     1     143.044 -15.026  80.158  1.00  0.00    -0.289 OA
ATOM      5  C   UNL     1     140.748 -15.424  80.366  1.00  0.00     0.107 A 
ATOM      6  C   UNL     1     140.438 -14.311  81.203  1.00  0.00     0.134 A 
ATOM      7  C   UNL     1     139.100 -14.019  81.496  1.00  0.00     0.093 A 
ATOM      8  C   UNL     1     138.066 -14.836  81.032  1.00  0.00     0.123 A 
ATOM      9  C   UNL     1     138.363 -15.956  80.259  1.00  0.00     0.094 A 
ATOM     10  C   UNL     1     139.685 -16.254  79.921  1.00  0.00     0.146 A 
ATOM     11  O   UNL     1     139.924 -17.323  79.169  1.00  0.00    -0.456 OA
ENDROOT
BRANCH   1  12
ATOM     12  C   UNL     1     141.288 -18.906  77.943  1.00  0.00     0.021 A 
ATOM     13  C   UNL     1     140.216 -19.794  77.735  1.00  0.00     0.016 A 
ATOM     14  C   UNL     1     140.382 -20.932  76.941  1.00  0.00     0.051 A 
ATOM     15  C   UNL     1     141.615 -21.198  76.335  1.00  0.00     0.157 A 
ATOM     16  C   UNL     1     142.520 -19.174  77.318  1.00  0.00     0.062 A 
ATOM     17  C   UNL     1     142.689 -20.313  76.523  1.00  0.00     0.158 A 
BRANCH  15  18
ATOM     18  O   UNL     1     141.777 -22.336  75.545  1.00  0.00    -0.504 OA
ATOM     19  H   UNL     1     141.421 -22.380  74.598  1.00  0.00     0.293 HD
ENDBRANCH  15  18
BRANCH  17  20
ATOM     20  O   UNL     1     143.929 -20.547  75.931  1.00  0.00    -0.504 OA
ATOM     21  H   UNL     1     144.271 -21.484  75.751  1.00  0.00     0.293 HD
ENDBRANCH  17  20
ENDBRANCH   1  12
BRANCH   6  22
ATOM     22  O   UNL     1     141.400 -13.482  81.789  1.00  0.00    -0.507 OA
ATOM     23  H   UNL     1     142.355 -13.397  81.478  1.00  0.00     0.293 HD
ENDBRANCH   6  22
BRANCH   8  24
ATOM     24  O   UNL     1     136.739 -14.547  81.341  1.00  0.00    -0.508 OA
ATOM     25  H   UNL     1     136.264 -13.746  80.941  1.00  0.00     0.293 HD
ENDBRANCH   8  24
TORSDOF 5
ENDMDL
MODEL 5
REMARK VINA RESULT:    -4.648      3.473      9.396
REMARK INTER + INTRA:          -5.781
REMARK INTER:                  -5.518
REMARK INTRA:                  -0.264
REMARK UNBOUND:                -0.318
REMARK SMILES O=c1cc(-c2ccc(O)c(O)c2)oc2cc(O)cc(O)c12
REMARK SMILES IDX 4 1 3 2 2 3 1 4 21 5 19 6 18 7 16 8 15 9 14 10 13 11 5 12
REMARK SMILES IDX 6 13 7 14 8 15 12 16 10 17 9 18 11 20 20 22 17 24
REMARK H PARENT 9 19 11 21 20 23 17 25
REMARK Flexibility Score: inf
ROOT
ATOM      1  C   UNL     1     140.964 -19.516  77.998  1.00  0.00     0.138 A 
ATOM      2  C   UNL     1     141.127 -18.239  78.554  1.00  0.00     0.100 A 
ATOM      3  C   UNL     1     140.022 -17.398  78.687  1.00  0.00     0.197 A 
ATOM      4  O   UNL     1     140.211 -16.236  79.131  1.00  0.00    -0.289 OA
ATOM      5  C   UNL     1     138.741 -17.851  78.290  1.00  0.00     0.107 A 
ATOM      6  C   UNL     1     137.538 -17.095  78.416  1.00  0.00     0.134 A 
ATOM      7  C   UNL     1     136.346 -17.601  77.882  1.00  0.00     0.093 A 
ATOM      8  C   UNL     1     136.304 -18.860  77.280  1.00  0.00     0.123 A 
ATOM      9  C   UNL     1     137.463 -19.629  77.200  1.00  0.00     0.094 A 
ATOM     10  C   UNL     1     138.674 -19.137  77.693  1.00  0.00     0.146 A 
ATOM     11  O   UNL     1     139.759 -19.896  77.583  1.00  0.00    -0.456 OA
ENDROOT
BRANCH   1  12
ATOM     12  C   UNL     1     142.104 -20.452  77.834  1.00  0.00     0.021 A 
ATOM     13  C   UNL     1     142.187 -21.652  78.566  1.00  0.00     0.016 A 
ATOM     14  C   UNL     1     143.268 -22.519  78.384  1.00  0.00     0.051 A 
ATOM     15  C   UNL     1     144.278 -22.210  77.465  1.00  0.00     0.157 A 
ATOM     16  C   UNL     1     143.116 -20.156  76.902  1.00  0.00     0.062 A 
ATOM     17  C   UNL     1     144.199 -21.022  76.719  1.00  0.00     0.158 A 
BRANCH  15  18
ATOM     18  O   UNL     1     145.355 -23.077  77.288  1.00  0.00    -0.504 OA
ATOM     19  H   UNL     1     145.912 -23.398  78.071  1.00  0.00     0.293 HD
ENDBRANCH  15  18
BRANCH  17  20
ATOM     20  O   UNL     1     145.185 -20.687  75.793  1.00  0.00    -0.504 OA
ATOM     21  H   UNL     1     145.732 -21.390  75.310  1.00  0.00     0.293 HD
ENDBRANCH  17  20
ENDBRANCH   1  12
BRANCH   6  22
ATOM     22  O   UNL     1     137.453 -15.864  79.076  1.00  0.00    -0.507 OA
ATOM     23  H   UNL     1     137.313 -14.976  78.621  1.00  0.00     0.293 HD
ENDBRANCH   6  22
BRANCH   8  24
ATOM     24  O   UNL     1     135.110 -19.362  76.765  1.00  0.00    -0.508 OA
ATOM     25  H   UNL     1     134.391 -19.743  77.370  1.00  0.00     0.293 HD
ENDBRANCH   8  24
TORSDOF 5
ENDMDL
MODEL 6
REMARK VINA RESULT:    -4.558      4.617      8.017
REMARK INTER + INTRA:          -5.675
REMARK INTER:                  -5.383
REMARK INTRA:                  -0.292
REMARK UNBOUND:                -0.318
REMARK SMILES O=c1cc(-c2ccc(O)c(O)c2)oc2cc(O)cc(O)c12
REMARK SMILES IDX 4 1 3 2 2 3 1 4 21 5 19 6 18 7 16 8 15 9 14 10 13 11 5 12
REMARK SMILES IDX 6 13 7 14 8 15 12 16 10 17 9 18 11 20 20 22 17 24
REMARK H PARENT 9 19 11 21 20 23 17 25
REMARK Flexibility Score: inf
ROOT
ATOM      1  C   UNL     1     140.560 -17.464  78.972  1.00  0.00     0.138 A 
ATOM      2  C   UNL     1     139.338 -18.098  78.708  1.00  0.00     0.100 A 
ATOM      3  C   UNL     1     139.318 -19.271  77.953  1.00  0.00     0.197 A 
ATOM      4  O   UNL     1     138.202 -19.783  77.680  1.00  0.00    -0.289 OA
ATOM      5  C   UNL     1     140.533 -19.828  77.486  1.00  0.00     0.107 A 
ATOM      6  C   UNL     1     140.637 -21.040  76.742  1.00  0.00     0.134 A 
ATOM      7  C   UNL     1     141.882 -21.433  76.233  1.00  0.00     0.093 A 
ATOM      8  C   UNL     1     143.034 -20.688  76.494  1.00  0.00     0.123 A 
ATOM      9  C   UNL     1     142.951 -19.531  77.265  1.00  0.00     0.094 A 
ATOM     10  C   UNL     1     141.718 -19.095  77.758  1.00  0.00     0.146 A 
ATOM     11  O   UNL     1     141.680 -17.979  78.477  1.00  0.00    -0.456 OA
ENDROOT
BRANCH   1  12
ATOM     12  C   UNL     1     140.639 -16.215  79.772  1.00  0.00     0.021 A 
ATOM     13  C   UNL     1     141.861 -15.743  80.288  1.00  0.00     0.016 A 
ATOM     14  C   UNL     1     141.907 -14.559  81.029  1.00  0.00     0.051 A 
ATOM     15  C   UNL     1     140.739 -13.823  81.260  1.00  0.00     0.157 A 
ATOM     16  C   UNL     1     139.472 -15.462  79.997  1.00  0.00     0.062 A 
ATOM     17  C   UNL     1     139.516 -14.277  80.739  1.00  0.00     0.158 A 
BRANCH  15  18
ATOM     18  O   UNL     1     140.789 -12.643  82.002  1.00  0.00    -0.504 OA
ATOM     19  H   UNL     1     140.303 -12.551  82.886  1.00  0.00     0.293 HD
ENDBRANCH  15  18
BRANCH  17  20
ATOM     20  O   UNL     1     138.335 -13.565  80.949  1.00  0.00    -0.504 OA
ATOM     21  H   UNL     1     137.908 -13.006  80.220  1.00  0.00     0.293 HD
ENDBRANCH  17  20
ENDBRANCH   1  12
BRANCH   6  22
ATOM     22  O   UNL     1     139.563 -21.903  76.498  1.00  0.00    -0.507 OA
ATOM     23  H   UNL     1     139.494 -22.848  76.841  1.00  0.00     0.293 HD
ENDBRANCH   6  22
BRANCH   8  24
ATOM     24  O   UNL     1     144.271 -21.094  75.997  1.00  0.00    -0.508 OA
ATOM     25  H   UNL     1     144.584 -20.825  75.071  1.00  0.00     0.293 HD
ENDBRANCH   8  24
TORSDOF 5
ENDMDL
