MODEL 1
REMARK VINA RESULT:    -6.697      0.000      0.000
REMARK INTER + INTRA:          -8.167
REMARK INTER:                  -7.871
REMARK INTRA:                  -0.296
REMARK UNBOUND:                -0.296
REMARK SMILES O=c1cc(-c2ccc(O)c(O)c2)oc2cc(O)cc(O)c12
REMARK SMILES IDX 4 1 3 2 2 3 1 4 21 5 19 6 18 7 16 8 15 9 14 10 13 11 5 12
REMARK SMILES IDX 6 13 7 14 8 15 12 16 10 17 9 18 11 20 20 22 17 24
REMARK H PARENT 9 19 11 21 20 23 17 25
REMARK Flexibility Score: inf
ROOT
ATOM      1  C   UNL     1      -8.089 -25.655  -1.986  1.00  0.00     0.138 A 
ATOM      2  C   UNL     1      -6.759 -25.498  -2.410  1.00  0.00     0.100 A 
ATOM      3  C   UNL     1      -6.079 -26.586  -2.960  1.00  0.00     0.197 A 
ATOM      4  O   UNL     1      -4.886 -26.435  -3.334  1.00  0.00    -0.289 OA
ATOM      5  C   UNL     1      -6.736 -27.827  -3.078  1.00  0.00     0.107 A 
ATOM      6  C   UNL     1      -6.122 -28.980  -3.624  1.00  0.00     0.134 A 
ATOM      7  C   UNL     1      -6.843 -30.180  -3.704  1.00  0.00     0.093 A 
ATOM      8  C   UNL     1      -8.164 -30.249  -3.246  1.00  0.00     0.123 A 
ATOM      9  C   UNL     1      -8.774 -29.115  -2.708  1.00  0.00     0.094 A 
ATOM     10  C   UNL     1      -8.073 -27.909  -2.620  1.00  0.00     0.146 A 
ATOM     11  O   UNL     1      -8.677 -26.843  -2.105  1.00  0.00    -0.456 OA
ENDROOT
BRANCH   1  12
ATOM     12  C   UNL     1      -8.861 -24.533  -1.394  1.00  0.00     0.021 A 
ATOM     13  C   UNL     1     -10.088 -24.796  -0.763  1.00  0.00     0.016 A 
ATOM     14  C   UNL     1     -10.836 -23.757  -0.203  1.00  0.00     0.051 A 
ATOM     15  C   UNL     1     -10.376 -22.437  -0.274  1.00  0.00     0.157 A 
ATOM     16  C   UNL     1      -8.410 -23.200  -1.473  1.00  0.00     0.062 A 
ATOM     17  C   UNL     1      -9.159 -22.158  -0.915  1.00  0.00     0.158 A 
BRANCH  15  18
ATOM     18  O   UNL     1     -11.125 -21.403   0.286  1.00  0.00    -0.504 OA
ATOM     19  H   UNL     1     -10.713 -20.500   0.491  1.00  0.00     0.293 HD
ENDBRANCH  15  18
BRANCH  17  20
ATOM     20  O   UNL     1      -8.679 -20.852  -1.013  1.00  0.00    -0.504 OA
ATOM     21  H   UNL     1      -8.884 -20.150  -0.312  1.00  0.00     0.293 HD
ENDBRANCH  17  20
ENDBRANCH   1  12
BRANCH   6  22
ATOM     22  O   UNL     1      -4.807 -28.939  -4.087  1.00  0.00    -0.507 OA
ATOM     23  H   UNL     1      -4.051 -28.580  -3.514  1.00  0.00     0.293 HD
ENDBRANCH   6  22
BRANCH   8  24
ATOM     24  O   UNL     1      -8.880 -31.441  -3.324  1.00  0.00    -0.508 OA
ATOM     25  H   UNL     1      -9.680 -31.620  -2.726  1.00  0.00     0.293 HD
ENDBRANCH   8  24
TORSDOF 5
ENDMDL
MODEL 2
REMARK VINA RESULT:    -6.553     11.657     13.495
REMARK INTER + INTRA:          -7.998
REMARK INTER:                  -7.729
REMARK INTRA:                  -0.269
REMARK UNBOUND:                -0.296
REMARK SMILES O=c1cc(-c2ccc(O)c(O)c2)oc2cc(O)cc(O)c12
REMARK SMILES IDX 4 1 3 2 2 3 1 4 21 5 19 6 18 7 16 8 15 9 14 10 13 11 5 12
REMARK SMILES IDX 6 13 7 14 8 15 12 16 10 17 9 18 11 20 20 22 17 24
REMARK H PARENT 9 19 11 21 20 23 17 25
REMARK Flexibility Score: inf
ROOT
ATOM      1  C   UNL     1       1.718 -18.109  -3.854  1.00  0.00     0.138 A 
ATOM      2  C   UNL     1       0.875 -19.232  -3.875  1.00  0.00     0.100 A 
ATOM      3  C   UNL     1       1.081 -20.230  -4.829  1.00  0.00     0.197 A 
ATOM      4  O   UNL     1       0.318 -21.232  -4.840  1.00  0.00    -0.289 OA
ATOM      5  C   UNL     1       2.130 -20.094  -5.761  1.00  0.00     0.107 A 
ATOM      6  C   UNL     1       2.410 -21.058  -6.759  1.00  0.00     0.134 A 
ATOM      7  C   UNL     1       3.470 -20.846  -7.651  1.00  0.00     0.093 A 
ATOM      8  C   UNL     1       4.255 -19.690  -7.565  1.00  0.00     0.123 A 
ATOM      9  C   UNL     1       3.983 -18.737  -6.582  1.00  0.00     0.094 A 
ATOM     10  C   UNL     1       2.931 -18.929  -5.682  1.00  0.00     0.146 A 
ATOM     11  O   UNL     1       2.694 -18.008  -4.754  1.00  0.00    -0.456 OA
ENDROOT
BRANCH   1  12
ATOM     12  C   UNL     1       1.546 -17.017  -2.863  1.00  0.00     0.021 A 
ATOM     13  C   UNL     1       0.447 -16.148  -2.977  1.00  0.00     0.016 A 
ATOM     14  C   UNL     1       0.266 -15.109  -2.060  1.00  0.00     0.051 A 
ATOM     15  C   UNL     1       1.185 -14.913  -1.023  1.00  0.00     0.157 A 
ATOM     16  C   UNL     1       2.473 -16.806  -1.824  1.00  0.00     0.062 A 
ATOM     17  C   UNL     1       2.295 -15.764  -0.907  1.00  0.00     0.158 A 
BRANCH  15  18
ATOM     18  O   UNL     1       1.000 -13.875  -0.110  1.00  0.00    -0.504 OA
ATOM     19  H   UNL     1       1.774 -13.491   0.420  1.00  0.00     0.293 HD
ENDBRANCH  15  18
BRANCH  17  20
ATOM     20  O   UNL     1       3.235 -15.588   0.109  1.00  0.00    -0.504 OA
ATOM     21  H   UNL     1       4.230 -15.686  -0.057  1.00  0.00     0.293 HD
ENDBRANCH  17  20
ENDBRANCH   1  12
BRANCH   6  22
ATOM     22  O   UNL     1       1.644 -22.219  -6.868  1.00  0.00    -0.507 OA
ATOM     23  H   UNL     1       0.670 -22.191  -7.148  1.00  0.00     0.293 HD
ENDBRANCH   6  22
BRANCH   8  24
ATOM     24  O   UNL     1       5.307 -19.479  -8.452  1.00  0.00    -0.508 OA
ATOM     25  H   UNL     1       5.219 -19.691  -9.440  1.00  0.00     0.293 HD
ENDBRANCH   8  24
TORSDOF 5
ENDMDL
MODEL 3
REMARK VINA RESULT:    -6.514      0.906      1.647
REMARK INTER + INTRA:          -7.951
REMARK INTER:                  -7.633
REMARK INTRA:                  -0.318
REMARK UNBOUND:                -0.296
REMARK SMILES O=c1cc(-c2ccc(O)c(O)c2)oc2cc(O)cc(O)c12
REMARK SMILES IDX 4 1 3 2 2 3 1 4 21 5 19 6 18 7 16 8 15 9 14 10 13 11 5 12
REMARK SMILES IDX 6 13 7 14 8 15 12 16 10 17 9 18 11 20 20 22 17 24
REMARK H PARENT 9 19 11 21 20 23 17 25
REMARK Flexibility Score: inf
ROOT
ATOM      1  C   UNL     1      -7.888 -25.620  -2.070  1.00  0.00     0.138 A 
ATOM      2  C   UNL     1      -6.637 -25.839  -2.671  1.00  0.00     0.100 A 
ATOM      3  C   UNL     1      -6.304 -27.118  -3.121  1.00  0.00     0.197 A 
ATOM      4  O   UNL     1      -5.180 -27.303  -3.657  1.00  0.00    -0.289 OA
ATOM      5  C   UNL     1      -7.227 -28.171  -2.963  1.00  0.00     0.107 A 
ATOM      6  C   UNL     1      -6.971 -29.496  -3.391  1.00  0.00     0.134 A 
ATOM      7  C   UNL     1      -7.940 -30.490  -3.193  1.00  0.00     0.093 A 
ATOM      8  C   UNL     1      -9.158 -30.185  -2.573  1.00  0.00     0.123 A 
ATOM      9  C   UNL     1      -9.414 -28.880  -2.150  1.00  0.00     0.094 A 
ATOM     10  C   UNL     1      -8.463 -27.875  -2.339  1.00  0.00     0.146 A 
ATOM     11  O   UNL     1      -8.732 -26.640  -1.929  1.00  0.00    -0.456 OA
ENDROOT
BRANCH   1  12
ATOM     12  C   UNL     1      -8.295 -24.282  -1.572  1.00  0.00     0.021 A 
ATOM     13  C   UNL     1      -7.428 -23.189  -1.739  1.00  0.00     0.016 A 
ATOM     14  C   UNL     1      -7.786 -21.921  -1.273  1.00  0.00     0.051 A 
ATOM     15  C   UNL     1      -9.010 -21.726  -0.624  1.00  0.00     0.157 A 
ATOM     16  C   UNL     1      -9.520 -24.081  -0.906  1.00  0.00     0.062 A 
ATOM     17  C   UNL     1      -9.879 -22.812  -0.437  1.00  0.00     0.158 A 
BRANCH  15  18
ATOM     18  O   UNL     1      -9.363 -20.459  -0.161  1.00  0.00    -0.504 OA
ATOM     19  H   UNL     1      -9.231 -20.191   0.807  1.00  0.00     0.293 HD
ENDBRANCH  15  18
BRANCH  17  20
ATOM     20  O   UNL     1     -11.101 -22.653   0.216  1.00  0.00    -0.504 OA
ATOM     21  H   UNL     1     -11.481 -23.366   0.828  1.00  0.00     0.293 HD
ENDBRANCH  17  20
ENDBRANCH   1  12
BRANCH   6  22
ATOM     22  O   UNL     1      -5.766 -29.828  -4.011  1.00  0.00    -0.507 OA
ATOM     23  H   UNL     1      -4.957 -29.218  -3.966  1.00  0.00     0.293 HD
ENDBRANCH   6  22
BRANCH   8  24
ATOM     24  O   UNL     1     -10.120 -31.172  -2.376  1.00  0.00    -0.508 OA
ATOM     25  H   UNL     1      -9.863 -32.122  -2.130  1.00  0.00     0.293 HD
ENDBRANCH   8  24
TORSDOF 5
ENDMDL
MODEL 4
REMARK VINA RESULT:    -6.365     11.197     14.315
REMARK INTER + INTRA:          -7.777
REMARK INTER:                  -7.502
REMARK INTRA:                  -0.275
REMARK UNBOUND:                -0.296
REMARK SMILES O=c1cc(-c2ccc(O)c(O)c2)oc2cc(O)cc(O)c12
REMARK SMILES IDX 4 1 3 2 2 3 1 4 21 5 19 6 18 7 16 8 15 9 14 10 13 11 5 12
REMARK SMILES IDX 6 13 7 14 8 15 12 16 10 17 9 18 11 20 20 22 17 24
REMARK H PARENT 9 19 11 21 20 23 17 25
REMARK Flexibility Score: inf
ROOT
ATOM      1  C   UNL     1       1.901 -18.820  -3.706  1.00  0.00     0.138 A 
ATOM      2  C   UNL     1       3.111 -18.740  -2.996  1.00  0.00     0.100 A 
ATOM      3  C   UNL     1       3.323 -17.676  -2.117  1.00  0.00     0.197 A 
ATOM      4  O   UNL     1       4.412 -17.613  -1.487  1.00  0.00    -0.289 OA
ATOM      5  C   UNL     1       2.323 -16.696  -1.959  1.00  0.00     0.107 A 
ATOM      6  C   UNL     1       2.457 -15.587  -1.090  1.00  0.00     0.134 A 
ATOM      7  C   UNL     1       1.416 -14.652  -0.992  1.00  0.00     0.093 A 
ATOM      8  C   UNL     1       0.247 -14.804  -1.747  1.00  0.00     0.123 A 
ATOM      9  C   UNL     1       0.111 -15.897  -2.604  1.00  0.00     0.094 A 
ATOM     10  C   UNL     1       1.136 -16.840  -2.716  1.00  0.00     0.146 A 
ATOM     11  O   UNL     1       0.981 -17.872  -3.539  1.00  0.00    -0.456 OA
ENDROOT
BRANCH   1  12
ATOM     12  C   UNL     1       1.620 -19.928  -4.653  1.00  0.00     0.021 A 
ATOM     13  C   UNL     1       0.407 -20.631  -4.555  1.00  0.00     0.016 A 
ATOM     14  C   UNL     1       0.122 -21.682  -5.431  1.00  0.00     0.051 A 
ATOM     15  C   UNL     1       1.048 -22.055  -6.412  1.00  0.00     0.157 A 
ATOM     16  C   UNL     1       2.553 -20.318  -5.635  1.00  0.00     0.062 A 
ATOM     17  C   UNL     1       2.270 -21.372  -6.511  1.00  0.00     0.158 A 
BRANCH  15  18
ATOM     18  O   UNL     1       0.760 -23.104  -7.284  1.00  0.00    -0.504 OA
ATOM     19  H   UNL     1       1.484 -23.553  -7.833  1.00  0.00     0.293 HD
ENDBRANCH  15  18
BRANCH  17  20
ATOM     20  O   UNL     1       3.219 -21.728  -7.470  1.00  0.00    -0.504 OA
ATOM     21  H   UNL     1       3.012 -21.714  -8.462  1.00  0.00     0.293 HD
ENDBRANCH  17  20
ENDBRANCH   1  12
BRANCH   6  22
ATOM     22  O   UNL     1       3.611 -15.410  -0.326  1.00  0.00    -0.507 OA
ATOM     23  H   UNL     1       4.260 -14.652  -0.508  1.00  0.00     0.293 HD
ENDBRANCH   6  22
BRANCH   8  24
ATOM     24  O   UNL     1      -0.786 -13.875  -1.650  1.00  0.00    -0.508 OA
ATOM     25  H   UNL     1      -1.232 -13.489  -2.475  1.00  0.00     0.293 HD
ENDBRANCH   8  24
TORSDOF 5
ENDMDL
MODEL 5
REMARK VINA RESULT:    -6.276      7.424     10.205
REMARK INTER + INTRA:          -7.673
REMARK INTER:                  -7.356
REMARK INTRA:                  -0.317
REMARK UNBOUND:                -0.296
REMARK SMILES O=c1cc(-c2ccc(O)c(O)c2)oc2cc(O)cc(O)c12
REMARK SMILES IDX 4 1 3 2 2 3 1 4 21 5 19 6 18 7 16 8 15 9 14 10 13 11 5 12
REMARK SMILES IDX 6 13 7 14 8 15 12 16 10 17 9 18 11 20 20 22 17 24
REMARK H PARENT 9 19 11 21 20 23 17 25
REMARK Flexibility Score: inf
ROOT
ATOM      1  C   UNL     1      -9.014 -19.430   2.975  1.00  0.00     0.138 A 
ATOM      2  C   UNL     1      -9.265 -20.532   2.141  1.00  0.00     0.100 A 
ATOM      3  C   UNL     1      -9.707 -20.319   0.834  1.00  0.00     0.197 A 
ATOM      4  O   UNL     1      -9.931 -21.314   0.095  1.00  0.00    -0.289 OA
ATOM      5  C   UNL     1      -9.900 -19.001   0.372  1.00  0.00     0.107 A 
ATOM      6  C   UNL     1     -10.345 -18.697  -0.936  1.00  0.00     0.134 A 
ATOM      7  C   UNL     1     -10.516 -17.358  -1.318  1.00  0.00     0.093 A 
ATOM      8  C   UNL     1     -10.253 -16.320  -0.416  1.00  0.00     0.123 A 
ATOM      9  C   UNL     1      -9.814 -16.616   0.875  1.00  0.00     0.094 A 
ATOM     10  C   UNL     1      -9.636 -17.943   1.275  1.00  0.00     0.146 A 
ATOM     11  O   UNL     1      -9.215 -18.199   2.509  1.00  0.00    -0.456 OA
ENDROOT
BRANCH   1  12
ATOM     12  C   UNL     1      -8.543 -19.596   4.373  1.00  0.00     0.021 A 
ATOM     13  C   UNL     1      -8.148 -20.867   4.823  1.00  0.00     0.016 A 
ATOM     14  C   UNL     1      -7.707 -21.051   6.136  1.00  0.00     0.051 A 
ATOM     15  C   UNL     1      -7.663 -19.970   7.025  1.00  0.00     0.157 A 
ATOM     16  C   UNL     1      -8.509 -18.515   5.276  1.00  0.00     0.062 A 
ATOM     17  C   UNL     1      -8.070 -18.698   6.593  1.00  0.00     0.158 A 
BRANCH  15  18
ATOM     18  O   UNL     1      -7.222 -20.157   8.334  1.00  0.00    -0.504 OA
ATOM     19  H   UNL     1      -6.776 -19.412   8.855  1.00  0.00     0.293 HD
ENDBRANCH  15  18
BRANCH  17  20
ATOM     20  O   UNL     1      -8.050 -17.604   7.457  1.00  0.00    -0.504 OA
ATOM     21  H   UNL     1      -8.096 -16.650   7.118  1.00  0.00     0.293 HD
ENDBRANCH  17  20
ENDBRANCH   1  12
BRANCH   6  22
ATOM     22  O   UNL     1     -10.615 -19.711  -1.856  1.00  0.00    -0.507 OA
ATOM     23  H   UNL     1     -11.458 -20.271  -1.799  1.00  0.00     0.293 HD
ENDBRANCH   6  22
BRANCH   8  24
ATOM     24  O   UNL     1     -10.424 -14.991  -0.795  1.00  0.00    -0.508 OA
ATOM     25  H   UNL     1     -10.949 -14.740  -1.626  1.00  0.00     0.293 HD
ENDBRANCH   8  24
TORSDOF 5
ENDMDL
MODEL 6
REMARK VINA RESULT:    -6.221     15.498     16.139
REMARK INTER + INTRA:          -7.608
REMARK INTER:                  -7.293
REMARK INTRA:                  -0.314
REMARK UNBOUND:                -0.296
REMARK SMILES O=c1cc(-c2ccc(O)c(O)c2)oc2cc(O)cc(O)c12
REMARK SMILES IDX 4 1 3 2 2 3 1 4 21 5 19 6 18 7 16 8 15 9 14 10 13 11 5 12
REMARK SMILES IDX 6 13 7 14 8 15 12 16 10 17 9 18 11 20 20 22 17 24
REMARK H PARENT 9 19 11 21 20 23 17 25
REMARK Flexibility Score: inf
ROOT
ATOM      1  C   UNL     1       6.266 -25.231   4.721  1.00  0.00     0.138 A 
ATOM      2  C   UNL     1       6.741 -24.251   3.834  1.00  0.00     0.100 A 
ATOM      3  C   UNL     1       7.043 -24.604   2.517  1.00  0.00     0.197 A 
ATOM      4  O   UNL     1       7.470 -23.718   1.730  1.00  0.00    -0.289 OA
ATOM      5  C   UNL     1       6.872 -25.939   2.099  1.00  0.00     0.107 A 
ATOM      6  C   UNL     1       7.153 -26.380   0.784  1.00  0.00     0.134 A 
ATOM      7  C   UNL     1       6.961 -27.728   0.448  1.00  0.00     0.093 A 
ATOM      8  C   UNL     1       6.494 -28.641   1.401  1.00  0.00     0.123 A 
ATOM      9  C   UNL     1       6.215 -28.209   2.698  1.00  0.00     0.094 A 
ATOM     10  C   UNL     1       6.399 -26.871   3.054  1.00  0.00     0.146 A 
ATOM     11  O   UNL     1       6.124 -26.485   4.295  1.00  0.00    -0.456 OA
ENDROOT
BRANCH   1  12
ATOM     12  C   UNL     1       5.929 -24.914   6.132  1.00  0.00     0.021 A 
ATOM     13  C   UNL     1       5.759 -23.574   6.518  1.00  0.00     0.016 A 
ATOM     14  C   UNL     1       5.448 -23.250   7.841  1.00  0.00     0.051 A 
ATOM     15  C   UNL     1       5.313 -24.257   8.803  1.00  0.00     0.157 A 
ATOM     16  C   UNL     1       5.805 -25.923   7.108  1.00  0.00     0.062 A 
ATOM     17  C   UNL     1       5.496 -25.600   8.435  1.00  0.00     0.158 A 
BRANCH  15  18
ATOM     18  O   UNL     1       5.002 -23.929  10.122  1.00  0.00    -0.504 OA
ATOM     19  H   UNL     1       5.209 -23.014  10.504  1.00  0.00     0.293 HD
ENDBRANCH  15  18
BRANCH  17  20
ATOM     20  O   UNL     1       5.380 -26.626   9.372  1.00  0.00    -0.504 OA
ATOM     21  H   UNL     1       4.715 -26.584  10.135  1.00  0.00     0.293 HD
ENDBRANCH  17  20
ENDBRANCH   1  12
BRANCH   6  22
ATOM     22  O   UNL     1       7.620 -25.492  -0.185  1.00  0.00    -0.507 OA
ATOM     23  H   UNL     1       8.308 -24.780   0.031  1.00  0.00     0.293 HD
ENDBRANCH   6  22
BRANCH   8  24
ATOM     24  O   UNL     1       6.303 -29.979   1.067  1.00  0.00    -0.508 OA
ATOM     25  H   UNL     1       5.949 -30.254   0.157  1.00  0.00     0.293 HD
ENDBRANCH   8  24
TORSDOF 5
ENDMDL
MODEL 7
REMARK VINA RESULT:    -6.187     11.593     13.184
REMARK INTER + INTRA:          -7.567
REMARK INTER:                  -7.304
REMARK INTRA:                  -0.263
REMARK UNBOUND:                -0.296
REMARK SMILES O=c1cc(-c2ccc(O)c(O)c2)oc2cc(O)cc(O)c12
REMARK SMILES IDX 4 1 3 2 2 3 1 4 21 5 19 6 18 7 16 8 15 9 14 10 13 11 5 12
REMARK SMILES IDX 6 13 7 14 8 15 12 16 10 17 9 18 11 20 20 22 17 24
REMARK H PARENT 9 19 11 21 20 23 17 25
REMARK Flexibility Score: inf
ROOT
ATOM      1  C   UNL     1       2.059 -17.608  -4.126  1.00  0.00     0.138 A 
ATOM      2  C   UNL     1       3.146 -17.370  -4.982  1.00  0.00     0.100 A 
ATOM      3  C   UNL     1       3.417 -18.269  -6.016  1.00  0.00     0.197 A 
ATOM      4  O   UNL     1       4.395 -18.049  -6.777  1.00  0.00    -0.289 OA
ATOM      5  C   UNL     1       2.596 -19.403  -6.182  1.00  0.00     0.107 A 
ATOM      6  C   UNL     1       2.799 -20.362  -7.203  1.00  0.00     0.134 A 
ATOM      7  C   UNL     1       1.940 -21.466  -7.300  1.00  0.00     0.093 A 
ATOM      8  C   UNL     1       0.885 -21.630  -6.394  1.00  0.00     0.123 A 
ATOM      9  C   UNL     1       0.681 -20.686  -5.386  1.00  0.00     0.094 A 
ATOM     10  C   UNL     1       1.525 -19.578  -5.273  1.00  0.00     0.146 A 
ATOM     11  O   UNL     1       1.309 -18.693  -4.306  1.00  0.00    -0.456 OA
ENDROOT
BRANCH   1  12
ATOM     12  C   UNL     1       1.724 -16.687  -3.009  1.00  0.00     0.021 A 
ATOM     13  C   UNL     1       0.530 -15.948  -3.057  1.00  0.00     0.016 A 
ATOM     14  C   UNL     1       0.197 -15.070  -2.022  1.00  0.00     0.051 A 
ATOM     15  C   UNL     1       1.054 -14.908  -0.928  1.00  0.00     0.157 A 
ATOM     16  C   UNL     1       2.589 -16.510  -1.912  1.00  0.00     0.062 A 
ATOM     17  C   UNL     1       2.258 -15.629  -0.875  1.00  0.00     0.158 A 
BRANCH  15  18
ATOM     18  O   UNL     1       0.717 -14.032   0.102  1.00  0.00    -0.504 OA
ATOM     19  H   UNL     1      -0.143 -13.496   0.084  1.00  0.00     0.293 HD
ENDBRANCH  15  18
BRANCH  17  20
ATOM     20  O   UNL     1       3.139 -15.481   0.195  1.00  0.00    -0.504 OA
ATOM     21  H   UNL     1       2.825 -15.192   1.114  1.00  0.00     0.293 HD
ENDBRANCH  17  20
ENDBRANCH   1  12
BRANCH   6  22
ATOM     22  O   UNL     1       3.842 -20.225  -8.119  1.00  0.00    -0.507 OA
ATOM     23  H   UNL     1       4.718 -19.780  -7.866  1.00  0.00     0.293 HD
ENDBRANCH   6  22
BRANCH   8  24
ATOM     24  O   UNL     1       0.032 -22.727  -6.489  1.00  0.00    -0.508 OA
ATOM     25  H   UNL     1       0.238 -23.507  -7.104  1.00  0.00     0.293 HD
ENDBRANCH   8  24
TORSDOF 5
ENDMDL
MODEL 8
REMARK VINA RESULT:    -6.164     15.326     16.859
REMARK INTER + INTRA:          -7.540
REMARK INTER:                  -7.222
REMARK INTRA:                  -0.318
REMARK UNBOUND:                -0.296
REMARK SMILES O=c1cc(-c2ccc(O)c(O)c2)oc2cc(O)cc(O)c12
REMARK SMILES IDX 4 1 3 2 2 3 1 4 21 5 19 6 18 7 16 8 15 9 14 10 13 11 5 12
REMARK SMILES IDX 6 13 7 14 8 15 12 16 10 17 9 18 11 20 20 22 17 24
REMARK H PARENT 9 19 11 21 20 23 17 25
REMARK Flexibility Score: inf
ROOT
ATOM      1  C   UNL     1       6.032 -26.342   3.484  1.00  0.00     0.138 A 
ATOM      2  C   UNL     1       5.529 -26.928   4.657  1.00  0.00     0.100 A 
ATOM      3  C   UNL     1       5.247 -26.123   5.762  1.00  0.00     0.197 A 
ATOM      4  O   UNL     1       4.798 -26.659   6.809  1.00  0.00    -0.289 OA
ATOM      5  C   UNL     1       5.476 -24.734   5.685  1.00  0.00     0.107 A 
ATOM      6  C   UNL     1       5.216 -23.847   6.757  1.00  0.00     0.134 A 
ATOM      7  C   UNL     1       5.475 -22.477   6.602  1.00  0.00     0.093 A 
ATOM      8  C   UNL     1       5.989 -21.980   5.399  1.00  0.00     0.123 A 
ATOM      9  C   UNL     1       6.245 -22.851   4.340  1.00  0.00     0.094 A 
ATOM     10  C   UNL     1       5.993 -24.219   4.472  1.00  0.00     0.146 A 
ATOM     11  O   UNL     1       6.244 -25.028   3.448  1.00  0.00    -0.456 OA
ENDROOT
BRANCH   1  12
ATOM     12  C   UNL     1       6.351 -27.149   2.278  1.00  0.00     0.021 A 
ATOM     13  C   UNL     1       6.132 -28.537   2.298  1.00  0.00     0.016 A 
ATOM     14  C   UNL     1       6.430 -29.319   1.179  1.00  0.00     0.051 A 
ATOM     15  C   UNL     1       6.961 -28.730   0.026  1.00  0.00     0.157 A 
ATOM     16  C   UNL     1       6.897 -26.564   1.119  1.00  0.00     0.062 A 
ATOM     17  C   UNL     1       7.199 -27.346  -0.003  1.00  0.00     0.158 A 
BRANCH  15  18
ATOM     18  O   UNL     1       7.256 -29.513  -1.089  1.00  0.00    -0.504 OA
ATOM     19  H   UNL     1       6.645 -30.265  -1.386  1.00  0.00     0.293 HD
ENDBRANCH  15  18
BRANCH  17  20
ATOM     20  O   UNL     1       7.737 -26.731  -1.132  1.00  0.00    -0.504 OA
ATOM     21  H   UNL     1       7.998 -25.751  -1.138  1.00  0.00     0.293 HD
ENDBRANCH  17  20
ENDBRANCH   1  12
BRANCH   6  22
ATOM     22  O   UNL     1       4.705 -24.315   7.967  1.00  0.00    -0.507 OA
ATOM     23  H   UNL     1       3.744 -24.624   8.056  1.00  0.00     0.293 HD
ENDBRANCH   6  22
BRANCH   8  24
ATOM     24  O   UNL     1       6.246 -20.619   5.246  1.00  0.00    -0.508 OA
ATOM     25  H   UNL     1       6.093 -20.147   4.362  1.00  0.00     0.293 HD
ENDBRANCH   8  24
TORSDOF 5
ENDMDL
MODEL 9
REMARK VINA RESULT:    -6.110     15.606     17.121
REMARK INTER + INTRA:          -7.477
REMARK INTER:                  -7.185
REMARK INTRA:                  -0.292
REMARK UNBOUND:                -0.296
REMARK SMILES O=c1cc(-c2ccc(O)c(O)c2)oc2cc(O)cc(O)c12
REMARK SMILES IDX 4 1 3 2 2 3 1 4 21 5 19 6 18 7 16 8 15 9 14 10 13 11 5 12
REMARK SMILES IDX 6 13 7 14 8 15 12 16 10 17 9 18 11 20 20 22 17 24
REMARK H PARENT 9 19 11 21 20 23 17 25
REMARK Flexibility Score: inf
ROOT
ATOM      1  C   UNL     1       6.473 -25.018   3.790  1.00  0.00     0.138 A 
ATOM      2  C   UNL     1       6.338 -23.626   3.927  1.00  0.00     0.100 A 
ATOM      3  C   UNL     1       6.009 -23.087   5.172  1.00  0.00     0.197 A 
ATOM      4  O   UNL     1       5.888 -21.838   5.284  1.00  0.00    -0.289 OA
ATOM      5  C   UNL     1       5.815 -23.946   6.272  1.00  0.00     0.107 A 
ATOM      6  C   UNL     1       5.481 -23.483   7.567  1.00  0.00     0.134 A 
ATOM      7  C   UNL     1       5.300 -24.404   8.609  1.00  0.00     0.093 A 
ATOM      8  C   UNL     1       5.445 -25.777   8.380  1.00  0.00     0.123 A 
ATOM      9  C   UNL     1       5.774 -26.238   7.105  1.00  0.00     0.094 A 
ATOM     10  C   UNL     1       5.960 -25.337   6.053  1.00  0.00     0.146 A 
ATOM     11  O   UNL     1       6.274 -25.801   4.848  1.00  0.00    -0.456 OA
ENDROOT
BRANCH   1  12
ATOM     12  C   UNL     1       6.820 -25.648   2.491  1.00  0.00     0.021 A 
ATOM     13  C   UNL     1       6.506 -26.999   2.272  1.00  0.00     0.016 A 
ATOM     14  C   UNL     1       6.828 -27.616   1.061  1.00  0.00     0.051 A 
ATOM     15  C   UNL     1       7.479 -26.897   0.052  1.00  0.00     0.157 A 
ATOM     16  C   UNL     1       7.487 -24.933   1.476  1.00  0.00     0.062 A 
ATOM     17  C   UNL     1       7.813 -25.550   0.262  1.00  0.00     0.158 A 
BRANCH  15  18
ATOM     18  O   UNL     1       7.798 -27.517  -1.156  1.00  0.00    -0.504 OA
ATOM     19  H   UNL     1       7.898 -28.522  -1.226  1.00  0.00     0.293 HD
ENDBRANCH  15  18
BRANCH  17  20
ATOM     20  O   UNL     1       8.472 -24.809  -0.718  1.00  0.00    -0.504 OA
ATOM     21  H   UNL     1       8.052 -24.620  -1.621  1.00  0.00     0.293 HD
ENDBRANCH  17  20
ENDBRANCH   1  12
BRANCH   6  22
ATOM     22  O   UNL     1       5.331 -22.120   7.824  1.00  0.00    -0.507 OA
ATOM     23  H   UNL     1       4.425 -21.667   7.783  1.00  0.00     0.293 HD
ENDBRANCH   6  22
BRANCH   8  24
ATOM     24  O   UNL     1       5.264 -26.692   9.415  1.00  0.00    -0.508 OA
ATOM     25  H   UNL     1       4.463 -27.313   9.440  1.00  0.00     0.293 HD
ENDBRANCH   8  24
TORSDOF 5
ENDMDL
