MODEL 1
REMARK VINA RESULT:    -4.985      0.000      0.000
REMARK INTER + INTRA:          -9.398
REMARK INTER:                  -8.483
REMARK INTRA:                  -0.915
REMARK UNBOUND:                -0.915
REMARK SMILES CCCCCCCCCCCCCC(=O)[O-]
REMARK SMILES IDX 8 1 9 2 10 3 11 4 12 5 13 6 14 7 15 8 16 9 7 10 6 11 5 12
REMARK SMILES IDX 4 13 3 14 2 15 1 16
REMARK H PARENT
REMARK Flexibility Score: inf
ROOT
ATOM      1  C   UNL     1      49.103  32.347  17.432  1.00  0.00     0.000 C 
ENDROOT
BRANCH   1   2
ATOM      2  C   UNL     1      48.579  33.788  17.334  1.00  0.00     0.000 C 
BRANCH   2   3
ATOM      3  C   UNL     1      47.597  33.935  16.163  1.00  0.00     0.000 C 
BRANCH   3   4
ATOM      4  C   UNL     1      48.127  33.327  14.852  1.00  0.00     0.000 C 
BRANCH   4   5
ATOM      5  C   UNL     1      48.547  34.353  13.783  1.00  0.00     0.006 C 
BRANCH   5   6
ATOM      6  C   UNL     1      47.735  34.232  12.488  1.00  0.00     0.053 C 
BRANCH   6   7
ATOM      7  C   UNL     1      48.583  33.668  11.391  1.00  0.00     0.041 C 
ATOM      8  O   UNL     1      48.080  33.429  10.261  1.00  0.00    -0.550 OA
ATOM      9  O   UNL     1      49.916  33.360  11.631  1.00  0.00    -0.550 OA
ENDBRANCH   6   7
ENDBRANCH   5   6
ENDBRANCH   4   5
ENDBRANCH   3   4
ENDBRANCH   2   3
ENDBRANCH   1   2
BRANCH   1  10
ATOM     10  C   UNL     1      48.059  31.373  18.000  1.00  0.00     0.000 C 
BRANCH  10  11
ATOM     11  C   UNL     1      47.738  30.220  17.032  1.00  0.00    -0.000 C 
BRANCH  11  12
ATOM     12  C   UNL     1      48.898  29.903  16.071  1.00  0.00    -0.000 C 
BRANCH  12  13
ATOM     13  C   UNL     1      49.253  28.411  15.944  1.00  0.00    -0.000 C 
BRANCH  13  14
ATOM     14  C   UNL     1      48.161  27.484  16.500  1.00  0.00    -0.000 C 
BRANCH  14  15
ATOM     15  C   UNL     1      48.698  26.063  16.702  1.00  0.00    -0.003 C 
ATOM     16  C   UNL     1      48.683  25.673  18.178  1.00  0.00     0.004 C 
ENDBRANCH  14  15
ENDBRANCH  13  14
ENDBRANCH  12  13
ENDBRANCH  11  12
ENDBRANCH  10  11
ENDBRANCH   1  10
TORSDOF 12
ENDMDL
MODEL 2
REMARK VINA RESULT:    -4.908      3.278      6.632
REMARK INTER + INTRA:          -9.267
REMARK INTER:                  -8.198
REMARK INTRA:                  -1.068
REMARK UNBOUND:                -0.915
REMARK SMILES CCCCCCCCCCCCCC(=O)[O-]
REMARK SMILES IDX 8 1 9 2 10 3 11 4 12 5 13 6 14 7 15 8 16 9 7 10 6 11 5 12
REMARK SMILES IDX 4 13 3 14 2 15 1 16
REMARK H PARENT
REMARK Flexibility Score: inf
ROOT
ATOM      1  C   UNL     1      49.338  32.110  17.789  1.00  0.00     0.000 C 
ENDROOT
BRANCH   1   2
ATOM      2  C   UNL     1      48.066  31.326  18.144  1.00  0.00     0.000 C 
BRANCH   2   3
ATOM      3  C   UNL     1      47.941  30.064  17.277  1.00  0.00     0.000 C 
BRANCH   3   4
ATOM      4  C   UNL     1      48.889  30.072  16.064  1.00  0.00     0.000 C 
BRANCH   4   5
ATOM      5  C   UNL     1      49.413  28.687  15.639  1.00  0.00     0.006 C 
BRANCH   5   6
ATOM      6  C   UNL     1      49.513  27.702  16.811  1.00  0.00     0.053 C 
BRANCH   6   7
ATOM      7  C   UNL     1      48.687  26.484  16.540  1.00  0.00     0.041 C 
ATOM      8  O   UNL     1      48.513  26.087  15.358  1.00  0.00    -0.550 OA
ATOM      9  O   UNL     1      48.069  25.815  17.589  1.00  0.00    -0.550 OA
ENDBRANCH   6   7
ENDBRANCH   5   6
ENDBRANCH   4   5
ENDBRANCH   3   4
ENDBRANCH   2   3
ENDBRANCH   1   2
BRANCH   1  10
ATOM     10  C   UNL     1      49.049  33.569  17.403  1.00  0.00     0.000 C 
BRANCH  10  11
ATOM     11  C   UNL     1      47.565  33.811  17.077  1.00  0.00    -0.000 C 
BRANCH  11  12
ATOM     12  C   UNL     1      47.332  34.234  15.615  1.00  0.00    -0.000 C 
BRANCH  12  13
ATOM     13  C   UNL     1      48.192  33.494  14.574  1.00  0.00    -0.000 C 
BRANCH  13  14
ATOM     14  C   UNL     1      48.336  34.267  13.255  1.00  0.00    -0.000 C 
BRANCH  14  15
ATOM     15  C   UNL     1      48.821  33.347  12.130  1.00  0.00    -0.003 C 
ATOM     16  C   UNL     1      50.141  33.842  11.544  1.00  0.00     0.004 C 
ENDBRANCH  14  15
ENDBRANCH  13  14
ENDBRANCH  12  13
ENDBRANCH  11  12
ENDBRANCH  10  11
ENDBRANCH   1  10
TORSDOF 12
ENDMDL
MODEL 3
REMARK VINA RESULT:    -4.872      3.176      4.688
REMARK INTER + INTRA:          -9.205
REMARK INTER:                  -8.220
REMARK INTRA:                  -0.985
REMARK UNBOUND:                -0.915
REMARK SMILES CCCCCCCCCCCCCC(=O)[O-]
REMARK SMILES IDX 8 1 9 2 10 3 11 4 12 5 13 6 14 7 15 8 16 9 7 10 6 11 5 12
REMARK SMILES IDX 4 13 3 14 2 15 1 16
REMARK H PARENT
REMARK Flexibility Score: inf
ROOT
ATOM      1  C   UNL     1      48.144  28.512  16.619  1.00  0.00     0.000 C 
ENDROOT
BRANCH   1   2
ATOM      2  C   UNL     1      47.165  29.537  16.027  1.00  0.00     0.000 C 
BRANCH   2   3
ATOM      3  C   UNL     1      47.713  30.126  14.719  1.00  0.00     0.000 C 
BRANCH   3   4
ATOM      4  C   UNL     1      48.470  31.450  14.926  1.00  0.00     0.000 C 
BRANCH   4   5
ATOM      5  C   UNL     1      47.667  32.553  15.639  1.00  0.00     0.006 C 
BRANCH   5   6
ATOM      6  C   UNL     1      48.504  33.340  16.656  1.00  0.00     0.053 C 
BRANCH   6   7
ATOM      7  C   UNL     1      48.967  32.440  17.758  1.00  0.00     0.041 C 
ATOM      8  O   UNL     1      48.134  31.758  18.412  1.00  0.00    -0.550 OA
ATOM      9  O   UNL     1      50.314  32.391  18.096  1.00  0.00    -0.550 OA
ENDBRANCH   6   7
ENDBRANCH   5   6
ENDBRANCH   4   5
ENDBRANCH   3   4
ENDBRANCH   2   3
ENDBRANCH   1   2
BRANCH   1  10
ATOM     10  C   UNL     1      48.841  27.664  15.543  1.00  0.00     0.000 C 
BRANCH  10  11
ATOM     11  C   UNL     1      48.800  26.159  15.858  1.00  0.00    -0.000 C 
BRANCH  11  12
ATOM     12  C   UNL     1      48.596  25.865  17.355  1.00  0.00    -0.000 C 
BRANCH  12  13
ATOM     13  C   UNL     1      49.765  25.140  18.046  1.00  0.00    -0.000 C 
BRANCH  13  14
ATOM     14  C   UNL     1      49.781  25.342  19.569  1.00  0.00    -0.000 C 
BRANCH  14  15
ATOM     15  C   UNL     1      48.357  25.466  20.120  1.00  0.00    -0.003 C 
ATOM     16  C   UNL     1      48.348  26.186  21.467  1.00  0.00     0.004 C 
ENDBRANCH  14  15
ENDBRANCH  13  14
ENDBRANCH  12  13
ENDBRANCH  11  12
ENDBRANCH  10  11
ENDBRANCH   1  10
TORSDOF 12
ENDMDL
MODEL 4
REMARK VINA RESULT:    -4.832      9.860     12.074
REMARK INTER + INTRA:          -9.137
REMARK INTER:                  -7.250
REMARK INTRA:                  -1.887
REMARK UNBOUND:                -0.915
REMARK SMILES CCCCCCCCCCCCCC(=O)[O-]
REMARK SMILES IDX 8 1 9 2 10 3 11 4 12 5 13 6 14 7 15 8 16 9 7 10 6 11 5 12
REMARK SMILES IDX 4 13 3 14 2 15 1 16
REMARK H PARENT
REMARK Flexibility Score: inf
ROOT
ATOM      1  C   UNL     1      39.844  34.812  11.422  1.00  0.00     0.000 C 
ENDROOT
BRANCH   1   2
ATOM      2  C   UNL     1      38.531  35.583  11.214  1.00  0.00     0.000 C 
BRANCH   2   3
ATOM      3  C   UNL     1      38.515  36.871  12.051  1.00  0.00     0.000 C 
BRANCH   3   4
ATOM      4  C   UNL     1      39.527  36.848  13.210  1.00  0.00     0.000 C 
BRANCH   4   5
ATOM      5  C   UNL     1      39.140  37.707  14.428  1.00  0.00     0.006 C 
BRANCH   5   6
ATOM      6  C   UNL     1      40.131  38.847  14.693  1.00  0.00     0.053 C 
BRANCH   6   7
ATOM      7  C   UNL     1      39.566  40.150  14.221  1.00  0.00     0.041 C 
ATOM      8  O   UNL     1      40.319  41.147  14.063  1.00  0.00    -0.550 OA
ATOM      9  O   UNL     1      38.200  40.278  14.004  1.00  0.00    -0.550 OA
ENDBRANCH   6   7
ENDBRANCH   5   6
ENDBRANCH   4   5
ENDBRANCH   3   4
ENDBRANCH   2   3
ENDBRANCH   1   2
BRANCH   1  10
ATOM     10  C   UNL     1      40.775  34.882  10.201  1.00  0.00     0.000 C 
BRANCH  10  11
ATOM     11  C   UNL     1      41.765  36.057  10.281  1.00  0.00    -0.000 C 
BRANCH  11  12
ATOM     12  C   UNL     1      42.578  36.069  11.588  1.00  0.00    -0.000 C 
BRANCH  12  13
ATOM     13  C   UNL     1      43.039  37.460  12.059  1.00  0.00    -0.000 C 
BRANCH  13  14
ATOM     14  C   UNL     1      42.974  38.521  10.950  1.00  0.00    -0.000 C 
BRANCH  14  15
ATOM     15  C   UNL     1      42.095  39.703  11.373  1.00  0.00    -0.003 C 
ATOM     16  C   UNL     1      40.701  39.601  10.758  1.00  0.00     0.004 C 
ENDBRANCH  14  15
ENDBRANCH  13  14
ENDBRANCH  12  13
ENDBRANCH  11  12
ENDBRANCH  10  11
ENDBRANCH   1  10
TORSDOF 12
ENDMDL
MODEL 5
REMARK VINA RESULT:    -4.832      1.573      2.646
REMARK INTER + INTRA:          -9.137
REMARK INTER:                  -7.988
REMARK INTRA:                  -1.148
REMARK UNBOUND:                -0.915
REMARK SMILES CCCCCCCCCCCCCC(=O)[O-]
REMARK SMILES IDX 8 1 9 2 10 3 11 4 12 5 13 6 14 7 15 8 16 9 7 10 6 11 5 12
REMARK SMILES IDX 4 13 3 14 2 15 1 16
REMARK H PARENT
REMARK Flexibility Score: inf
ROOT
ATOM      1  C   UNL     1      47.870  30.527  17.286  1.00  0.00     0.000 C 
ENDROOT
BRANCH   1   2
ATOM      2  C   UNL     1      49.369  30.858  17.212  1.00  0.00     0.000 C 
BRANCH   2   3
ATOM      3  C   UNL     1      49.650  32.254  17.787  1.00  0.00     0.000 C 
BRANCH   3   4
ATOM      4  C   UNL     1      48.419  33.177  17.756  1.00  0.00     0.000 C 
BRANCH   4   5
ATOM      5  C   UNL     1      48.420  34.224  16.627  1.00  0.00     0.006 C 
BRANCH   5   6
ATOM      6  C   UNL     1      47.435  33.889  15.500  1.00  0.00     0.053 C 
BRANCH   6   7
ATOM      7  C   UNL     1      48.175  33.475  14.267  1.00  0.00     0.041 C 
ATOM      8  O   UNL     1      48.436  32.260  14.062  1.00  0.00    -0.550 OA
ATOM      9  O   UNL     1      48.619  34.436  13.367  1.00  0.00    -0.550 OA
ENDBRANCH   6   7
ENDBRANCH   5   6
ENDBRANCH   4   5
ENDBRANCH   3   4
ENDBRANCH   2   3
ENDBRANCH   1   2
BRANCH   1  10
ATOM     10  C   UNL     1      47.409  29.601  16.150  1.00  0.00     0.000 C 
BRANCH  10  11
ATOM     11  C   UNL     1      47.753  28.125  16.415  1.00  0.00    -0.000 C 
BRANCH  11  12
ATOM     12  C   UNL     1      48.922  27.616  15.551  1.00  0.00    -0.000 C 
BRANCH  12  13
ATOM     13  C   UNL     1      50.064  26.938  16.329  1.00  0.00    -0.000 C 
BRANCH  13  14
ATOM     14  C   UNL     1      49.781  25.462  16.645  1.00  0.00    -0.000 C 
BRANCH  14  15
ATOM     15  C   UNL     1      49.982  25.172  18.136  1.00  0.00    -0.003 C 
ATOM     16  C   UNL     1      48.723  25.499  18.936  1.00  0.00     0.004 C 
ENDBRANCH  14  15
ENDBRANCH  13  14
ENDBRANCH  12  13
ENDBRANCH  11  12
ENDBRANCH  10  11
ENDBRANCH   1  10
TORSDOF 12
ENDMDL
MODEL 6
REMARK VINA RESULT:    -4.806      4.172      7.154
REMARK INTER + INTRA:          -9.092
REMARK INTER:                  -7.832
REMARK INTRA:                  -1.260
REMARK UNBOUND:                -0.915
REMARK SMILES CCCCCCCCCCCCCC(=O)[O-]
REMARK SMILES IDX 8 1 9 2 10 3 11 4 12 5 13 6 14 7 15 8 16 9 7 10 6 11 5 12
REMARK SMILES IDX 4 13 3 14 2 15 1 16
REMARK H PARENT
REMARK Flexibility Score: inf
ROOT
ATOM      1  C   UNL     1      48.468  25.656  19.347  1.00  0.00     0.000 C 
ENDROOT
BRANCH   1   2
ATOM      2  C   UNL     1      49.780  25.166  18.714  1.00  0.00     0.000 C 
BRANCH   2   3
ATOM      3  C   UNL     1      49.845  25.543  17.227  1.00  0.00     0.000 C 
BRANCH   3   4
ATOM      4  C   UNL     1      48.544  26.186  16.712  1.00  0.00     0.000 C 
BRANCH   4   5
ATOM      5  C   UNL     1      48.738  27.457  15.864  1.00  0.00     0.006 C 
BRANCH   5   6
ATOM      6  C   UNL     1      47.714  28.552  16.187  1.00  0.00     0.053 C 
BRANCH   6   7
ATOM      7  C   UNL     1      48.378  29.696  16.887  1.00  0.00     0.041 C 
ATOM      8  O   UNL     1      49.564  30.009  16.604  1.00  0.00    -0.550 OA
ATOM      9  O   UNL     1      47.703  30.386  17.886  1.00  0.00    -0.550 OA
ENDBRANCH   6   7
ENDBRANCH   5   6
ENDBRANCH   4   5
ENDBRANCH   3   4
ENDBRANCH   2   3
ENDBRANCH   1   2
BRANCH   1  10
ATOM     10  C   UNL     1      48.338  25.261  20.826  1.00  0.00     0.000 C 
BRANCH  10  11
ATOM     11  C   UNL     1      48.352  26.479  21.766  1.00  0.00    -0.000 C 
BRANCH  11  12
ATOM     12  C   UNL     1      49.637  26.571  22.610  1.00  0.00    -0.000 C 
BRANCH  12  13
ATOM     13  C   UNL     1      50.415  25.252  22.765  1.00  0.00    -0.000 C 
BRANCH  13  14
ATOM     14  C   UNL     1      51.892  25.375  22.361  1.00  0.00    -0.000 C 
BRANCH  14  15
ATOM     15  C   UNL     1      52.212  26.795  21.883  1.00  0.00    -0.003 C 
ATOM     16  C   UNL     1      52.777  26.785  20.464  1.00  0.00     0.004 C 
ENDBRANCH  14  15
ENDBRANCH  13  14
ENDBRANCH  12  13
ENDBRANCH  11  12
ENDBRANCH  10  11
ENDBRANCH   1  10
TORSDOF 12
ENDMDL
MODEL 7
REMARK VINA RESULT:    -4.776      2.390      4.183
REMARK INTER + INTRA:          -9.042
REMARK INTER:                  -8.055
REMARK INTRA:                  -0.987
REMARK UNBOUND:                -0.915
REMARK SMILES CCCCCCCCCCCCCC(=O)[O-]
REMARK SMILES IDX 8 1 9 2 10 3 11 4 12 5 13 6 14 7 15 8 16 9 7 10 6 11 5 12
REMARK SMILES IDX 4 13 3 14 2 15 1 16
REMARK H PARENT
REMARK Flexibility Score: inf
ROOT
ATOM      1  C   UNL     1      49.190  29.403  15.877  1.00  0.00     0.000 C 
ENDROOT
BRANCH   1   2
ATOM      2  C   UNL     1      47.855  29.820  16.514  1.00  0.00     0.000 C 
BRANCH   2   3
ATOM      3  C   UNL     1      48.041  30.164  17.999  1.00  0.00     0.000 C 
BRANCH   3   4
ATOM      4  C   UNL     1      47.995  31.678  18.276  1.00  0.00     0.000 C 
BRANCH   4   5
ATOM      5  C   UNL     1      49.235  32.462  17.806  1.00  0.00     0.006 C 
BRANCH   5   6
ATOM      6  C   UNL     1      48.902  33.887  17.349  1.00  0.00     0.053 C 
BRANCH   6   7
ATOM      7  C   UNL     1      47.847  33.863  16.288  1.00  0.00     0.041 C 
ATOM      8  O   UNL     1      46.745  34.442  16.476  1.00  0.00    -0.550 OA
ATOM      9  O   UNL     1      48.062  33.157  15.111  1.00  0.00    -0.550 OA
ENDBRANCH   6   7
ENDBRANCH   5   6
ENDBRANCH   4   5
ENDBRANCH   3   4
ENDBRANCH   2   3
ENDBRANCH   1   2
BRANCH   1  10
ATOM     10  C   UNL     1      49.534  27.926  16.130  1.00  0.00     0.000 C 
BRANCH  10  11
ATOM     11  C   UNL     1      48.289  27.022  16.132  1.00  0.00    -0.000 C 
BRANCH  11  12
ATOM     12  C   UNL     1      48.291  26.000  17.283  1.00  0.00    -0.000 C 
BRANCH  12  13
ATOM     13  C   UNL     1      49.680  25.467  17.683  1.00  0.00    -0.000 C 
BRANCH  13  14
ATOM     14  C   UNL     1      49.897  25.441  19.203  1.00  0.00    -0.000 C 
BRANCH  14  15
ATOM     15  C   UNL     1      48.560  25.348  19.947  1.00  0.00    -0.003 C 
ATOM     16  C   UNL     1      48.557  26.238  21.188  1.00  0.00     0.004 C 
ENDBRANCH  14  15
ENDBRANCH  13  14
ENDBRANCH  12  13
ENDBRANCH  11  12
ENDBRANCH  10  11
ENDBRANCH   1  10
TORSDOF 12
ENDMDL
MODEL 8
REMARK VINA RESULT:    -4.772      3.689      6.774
REMARK INTER + INTRA:          -9.035
REMARK INTER:                  -7.938
REMARK INTRA:                  -1.097
REMARK UNBOUND:                -0.915
REMARK SMILES CCCCCCCCCCCCCC(=O)[O-]
REMARK SMILES IDX 8 1 9 2 10 3 11 4 12 5 13 6 14 7 15 8 16 9 7 10 6 11 5 12
REMARK SMILES IDX 4 13 3 14 2 15 1 16
REMARK H PARENT
REMARK Flexibility Score: inf
ROOT
ATOM      1  C   UNL     1      49.868  25.264  18.624  1.00  0.00     0.000 C 
ENDROOT
BRANCH   1   2
ATOM      2  C   UNL     1      50.023  25.642  17.143  1.00  0.00     0.000 C 
BRANCH   2   3
ATOM      3  C   UNL     1      48.659  25.965  16.515  1.00  0.00     0.000 C 
BRANCH   3   4
ATOM      4  C   UNL     1      48.643  27.313  15.772  1.00  0.00     0.000 C 
BRANCH   4   5
ATOM      5  C   UNL     1      48.115  28.503  16.595  1.00  0.00     0.006 C 
BRANCH   5   6
ATOM      6  C   UNL     1      49.185  29.570  16.857  1.00  0.00     0.053 C 
BRANCH   6   7
ATOM      7  C   UNL     1      48.548  30.851  17.295  1.00  0.00     0.041 C 
ATOM      8  O   UNL     1      48.832  31.931  16.712  1.00  0.00    -0.550 OA
ATOM      9  O   UNL     1      47.681  30.861  18.380  1.00  0.00    -0.550 OA
ENDBRANCH   6   7
ENDBRANCH   5   6
ENDBRANCH   4   5
ENDBRANCH   3   4
ENDBRANCH   2   3
ENDBRANCH   1   2
BRANCH   1  10
ATOM     10  C   UNL     1      48.469  25.583  19.176  1.00  0.00     0.000 C 
BRANCH  10  11
ATOM     11  C   UNL     1      48.363  25.342  20.692  1.00  0.00    -0.000 C 
BRANCH  11  12
ATOM     12  C   UNL     1      48.478  26.638  21.515  1.00  0.00    -0.000 C 
BRANCH  12  13
ATOM     13  C   UNL     1      49.566  26.627  22.604  1.00  0.00    -0.000 C 
BRANCH  13  14
ATOM     14  C   UNL     1      50.379  25.324  22.627  1.00  0.00    -0.000 C 
BRANCH  14  15
ATOM     15  C   UNL     1      51.868  25.604  22.395  1.00  0.00    -0.003 C 
ATOM     16  C   UNL     1      52.150  27.104  22.373  1.00  0.00     0.004 C 
ENDBRANCH  14  15
ENDBRANCH  13  14
ENDBRANCH  12  13
ENDBRANCH  11  12
ENDBRANCH  10  11
ENDBRANCH   1  10
TORSDOF 12
ENDMDL
MODEL 9
REMARK VINA RESULT:    -4.697      4.699      8.222
REMARK INTER + INTRA:          -8.908
REMARK INTER:                  -8.284
REMARK INTRA:                  -0.624
REMARK UNBOUND:                -0.915
REMARK SMILES CCCCCCCCCCCCCC(=O)[O-]
REMARK SMILES IDX 8 1 9 2 10 3 11 4 12 5 13 6 14 7 15 8 16 9 7 10 6 11 5 12
REMARK SMILES IDX 4 13 3 14 2 15 1 16
REMARK H PARENT
REMARK Flexibility Score: inf
ROOT
ATOM      1  C   UNL     1      44.755  35.436  15.036  1.00  0.00     0.000 C 
ENDROOT
BRANCH   1   2
ATOM      2  C   UNL     1      45.578  35.023  16.266  1.00  0.00     0.000 C 
BRANCH   2   3
ATOM      3  C   UNL     1      46.839  34.253  15.847  1.00  0.00     0.000 C 
BRANCH   3   4
ATOM      4  C   UNL     1      47.837  34.057  17.002  1.00  0.00     0.000 C 
BRANCH   4   5
ATOM      5  C   UNL     1      48.317  32.609  17.208  1.00  0.00     0.006 C 
BRANCH   5   6
ATOM      6  C   UNL     1      48.200  31.755  15.939  1.00  0.00     0.053 C 
BRANCH   6   7
ATOM      7  C   UNL     1      47.740  30.373  16.281  1.00  0.00     0.041 C 
ATOM      8  O   UNL     1      46.900  29.786  15.549  1.00  0.00    -0.550 OA
ATOM      9  O   UNL     1      48.202  29.752  17.435  1.00  0.00    -0.550 OA
ENDBRANCH   6   7
ENDBRANCH   5   6
ENDBRANCH   4   5
ENDBRANCH   3   4
ENDBRANCH   2   3
ENDBRANCH   1   2
BRANCH   1  10
ATOM     10  C   UNL     1      45.578  35.425  13.738  1.00  0.00     0.000 C 
BRANCH  10  11
ATOM     11  C   UNL     1      44.750  35.842  12.510  1.00  0.00    -0.000 C 
BRANCH  11  12
ATOM     12  C   UNL     1      43.344  36.351  12.879  1.00  0.00    -0.000 C 
BRANCH  12  13
ATOM     13  C   UNL     1      42.623  37.142  11.773  1.00  0.00    -0.000 C 
BRANCH  13  14
ATOM     14  C   UNL     1      41.135  36.783  11.650  1.00  0.00    -0.000 C 
BRANCH  14  15
ATOM     15  C   UNL     1      40.948  35.484  10.858  1.00  0.00    -0.003 C 
ATOM     16  C   UNL     1      39.811  34.645  11.437  1.00  0.00     0.004 C 
ENDBRANCH  14  15
ENDBRANCH  13  14
ENDBRANCH  12  13
ENDBRANCH  11  12
ENDBRANCH  10  11
ENDBRANCH   1  10
TORSDOF 12
ENDMDL
