MODEL 1
REMARK VINA RESULT:    -5.224      0.000      0.000
REMARK INTER + INTRA:         -11.711
REMARK INTER:                 -10.111
REMARK INTRA:                  -1.600
REMARK UNBOUND:                -1.600
REMARK SMILES CCCCCCCCCCCCCCCCCC(=O)[O-]
REMARK SMILES IDX 10 1 11 2 12 3 13 4 14 5 15 6 16 7 17 8 18 9 19 10 20 11
REMARK SMILES IDX 9 12 8 13 7 14 6 15 5 16 4 17 3 18 2 19 1 20
REMARK H PARENT
REMARK Flexibility Score: inf
ROOT
ATOM      1  C   UNL     1      25.769  10.048  31.251  1.00  0.00     0.000 C 
ENDROOT
BRANCH   1   2
ATOM      2  C   UNL     1      26.749  10.552  30.180  1.00  0.00     0.000 C 
BRANCH   2   3
ATOM      3  C   UNL     1      28.019  11.177  30.788  1.00  0.00     0.000 C 
BRANCH   3   4
ATOM      4  C   UNL     1      27.825  12.667  31.139  1.00  0.00     0.000 C 
BRANCH   4   5
ATOM      5  C   UNL     1      27.841  12.952  32.650  1.00  0.00     0.000 C 
BRANCH   5   6
ATOM      6  C   UNL     1      28.425  11.790  33.470  1.00  0.00     0.000 C 
BRANCH   6   7
ATOM      7  C   UNL     1      27.472  11.315  34.586  1.00  0.00     0.006 C 
BRANCH   7   8
ATOM      8  C   UNL     1      26.095  11.997  34.551  1.00  0.00     0.053 C 
BRANCH   8   9
ATOM      9  C   UNL     1      25.931  13.004  35.646  1.00  0.00     0.041 C 
ATOM     10  O   UNL     1      26.755  13.948  35.768  1.00  0.00    -0.550 OA
ATOM     11  O   UNL     1      24.881  12.887  36.546  1.00  0.00    -0.550 OA
ENDBRANCH   8   9
ENDBRANCH   7   8
ENDBRANCH   6   7
ENDBRANCH   5   6
ENDBRANCH   4   5
ENDBRANCH   3   4
ENDBRANCH   2   3
ENDBRANCH   1   2
BRANCH   1  12
ATOM     12  C   UNL     1      24.416   9.620  30.655  1.00  0.00     0.000 C 
BRANCH  12  13
ATOM     13  C   UNL     1      23.328  10.695  30.818  1.00  0.00    -0.000 C 
BRANCH  13  14
ATOM     14  C   UNL     1      23.450  11.559  32.091  1.00  0.00    -0.000 C 
BRANCH  14  15
ATOM     15  C   UNL     1      22.129  11.833  32.840  1.00  0.00    -0.000 C 
BRANCH  15  16
ATOM     16  C   UNL     1      22.295  12.530  34.205  1.00  0.00    -0.000 C 
BRANCH  16  17
ATOM     17  C   UNL     1      21.116  13.461  34.569  1.00  0.00    -0.000 C 
BRANCH  17  18
ATOM     18  C   UNL     1      20.183  12.875  35.641  1.00  0.00    -0.000 C 
BRANCH  18  19
ATOM     19  C   UNL     1      20.255  11.343  35.713  1.00  0.00    -0.003 C 
ATOM     20  C   UNL     1      18.980  10.760  36.314  1.00  0.00     0.004 C 
ENDBRANCH  18  19
ENDBRANCH  17  18
ENDBRANCH  16  17
ENDBRANCH  15  16
ENDBRANCH  14  15
ENDBRANCH  13  14
ENDBRANCH  12  13
ENDBRANCH   1  12
TORSDOF 16
ENDMDL
MODEL 2
REMARK VINA RESULT:    -5.152      2.430      5.626
REMARK INTER + INTRA:         -11.572
REMARK INTER:                  -9.766
REMARK INTRA:                  -1.806
REMARK UNBOUND:                -1.600
REMARK SMILES CCCCCCCCCCCCCCCCCC(=O)[O-]
REMARK SMILES IDX 10 1 11 2 12 3 13 4 14 5 15 6 16 7 17 8 18 9 19 10 20 11
REMARK SMILES IDX 9 12 8 13 7 14 6 15 5 16 4 17 3 18 2 19 1 20
REMARK H PARENT
REMARK Flexibility Score: inf
ROOT
ATOM      1  C   UNL     1      25.702   9.249  30.390  1.00  0.00     0.000 C 
ENDROOT
BRANCH   1   2
ATOM      2  C   UNL     1      24.577  10.141  29.844  1.00  0.00     0.000 C 
BRANCH   2   3
ATOM      3  C   UNL     1      23.316  10.110  30.728  1.00  0.00     0.000 C 
BRANCH   3   4
ATOM      4  C   UNL     1      23.359  11.175  31.843  1.00  0.00     0.000 C 
BRANCH   4   5
ATOM      5  C   UNL     1      21.971  11.554  32.388  1.00  0.00     0.000 C 
BRANCH   5   6
ATOM      6  C   UNL     1      22.043  12.358  33.697  1.00  0.00     0.000 C 
BRANCH   6   7
ATOM      7  C   UNL     1      20.914  13.403  33.813  1.00  0.00     0.006 C 
BRANCH   7   8
ATOM      8  C   UNL     1      20.337  13.530  35.232  1.00  0.00     0.053 C 
BRANCH   8   9
ATOM      9  C   UNL     1      19.259  12.526  35.499  1.00  0.00     0.041 C 
ATOM     10  O   UNL     1      18.952  12.225  36.682  1.00  0.00    -0.550 OA
ATOM     11  O   UNL     1      18.609  11.905  34.440  1.00  0.00    -0.550 OA
ENDBRANCH   8   9
ENDBRANCH   7   8
ENDBRANCH   6   7
ENDBRANCH   5   6
ENDBRANCH   4   5
ENDBRANCH   3   4
ENDBRANCH   2   3
ENDBRANCH   1   2
BRANCH   1  12
ATOM     12  C   UNL     1      26.947  10.057  30.800  1.00  0.00     0.000 C 
BRANCH  12  13
ATOM     13  C   UNL     1      26.887  11.520  30.325  1.00  0.00    -0.000 C 
BRANCH  13  14
ATOM     14  C   UNL     1      26.751  12.566  31.452  1.00  0.00    -0.000 C 
BRANCH  14  15
ATOM     15  C   UNL     1      28.058  12.925  32.190  1.00  0.00    -0.000 C 
BRANCH  15  16
ATOM     16  C   UNL     1      27.998  12.763  33.721  1.00  0.00    -0.000 C 
BRANCH  16  17
ATOM     17  C   UNL     1      27.836  11.296  34.180  1.00  0.00    -0.000 C 
BRANCH  17  18
ATOM     18  C   UNL     1      26.522  11.033  34.934  1.00  0.00    -0.000 C 
BRANCH  18  19
ATOM     19  C   UNL     1      25.484  12.143  34.715  1.00  0.00    -0.003 C 
ATOM     20  C   UNL     1      24.990  12.704  36.045  1.00  0.00     0.004 C 
ENDBRANCH  18  19
ENDBRANCH  17  18
ENDBRANCH  16  17
ENDBRANCH  15  16
ENDBRANCH  14  15
ENDBRANCH  13  14
ENDBRANCH  12  13
ENDBRANCH   1  12
TORSDOF 16
ENDMDL
MODEL 3
REMARK VINA RESULT:    -5.035      2.921      7.073
REMARK INTER + INTRA:         -11.345
REMARK INTER:                  -9.969
REMARK INTRA:                  -1.377
REMARK UNBOUND:                -1.600
REMARK SMILES CCCCCCCCCCCCCCCCCC(=O)[O-]
REMARK SMILES IDX 10 1 11 2 12 3 13 4 14 5 15 6 16 7 17 8 18 9 19 10 20 11
REMARK SMILES IDX 9 12 8 13 7 14 6 15 5 16 4 17 3 18 2 19 1 20
REMARK H PARENT
REMARK Flexibility Score: inf
ROOT
ATOM      1  C   UNL     1      24.187  11.899  32.962  1.00  0.00     0.000 C 
ENDROOT
BRANCH   1   2
ATOM      2  C   UNL     1      22.656  12.012  33.016  1.00  0.00     0.000 C 
BRANCH   2   3
ATOM      3  C   UNL     1      22.157  12.666  34.318  1.00  0.00     0.000 C 
BRANCH   3   4
ATOM      4  C   UNL     1      20.935  13.579  34.082  1.00  0.00     0.000 C 
BRANCH   4   5
ATOM      5  C   UNL     1      19.832  13.420  35.142  1.00  0.00     0.000 C 
BRANCH   5   6
ATOM      6  C   UNL     1      20.025  12.173  36.022  1.00  0.00     0.000 C 
BRANCH   6   7
ATOM      7  C   UNL     1      18.911  11.126  35.818  1.00  0.00     0.006 C 
BRANCH   7   8
ATOM      8  C   UNL     1      19.410   9.675  35.888  1.00  0.00     0.053 C 
BRANCH   8   9
ATOM      9  C   UNL     1      18.903   8.957  37.100  1.00  0.00     0.041 C 
ATOM     10  O   UNL     1      19.389   7.843  37.427  1.00  0.00    -0.550 OA
ATOM     11  O   UNL     1      17.878   9.509  37.856  1.00  0.00    -0.550 OA
ENDBRANCH   8   9
ENDBRANCH   7   8
ENDBRANCH   6   7
ENDBRANCH   5   6
ENDBRANCH   4   5
ENDBRANCH   3   4
ENDBRANCH   2   3
ENDBRANCH   1   2
BRANCH   1  12
ATOM     12  C   UNL     1      24.702  11.565  31.550  1.00  0.00     0.000 C 
BRANCH  12  13
ATOM     13  C   UNL     1      25.569  10.294  31.520  1.00  0.00    -0.000 C 
BRANCH  13  14
ATOM     14  C   UNL     1      26.961  10.468  30.876  1.00  0.00    -0.000 C 
BRANCH  14  15
ATOM     15  C   UNL     1      27.330  11.911  30.470  1.00  0.00    -0.000 C 
BRANCH  15  16
ATOM     16  C   UNL     1      28.405  12.573  31.355  1.00  0.00    -0.000 C 
BRANCH  16  17
ATOM     17  C   UNL     1      27.852  13.117  32.692  1.00  0.00    -0.000 C 
BRANCH  17  18
ATOM     18  C   UNL     1      28.090  12.170  33.880  1.00  0.00    -0.000 C 
BRANCH  18  19
ATOM     19  C   UNL     1      27.562  12.741  35.204  1.00  0.00    -0.003 C 
ATOM     20  C   UNL     1      27.467  14.262  35.148  1.00  0.00     0.004 C 
ENDBRANCH  18  19
ENDBRANCH  17  18
ENDBRANCH  16  17
ENDBRANCH  15  16
ENDBRANCH  14  15
ENDBRANCH  13  14
ENDBRANCH  12  13
ENDBRANCH   1  12
TORSDOF 16
ENDMDL
MODEL 4
REMARK VINA RESULT:    -5.028      1.363      2.428
REMARK INTER + INTRA:         -11.332
REMARK INTER:                  -9.816
REMARK INTRA:                  -1.516
REMARK UNBOUND:                -1.600
REMARK SMILES CCCCCCCCCCCCCCCCCC(=O)[O-]
REMARK SMILES IDX 10 1 11 2 12 3 13 4 14 5 15 6 16 7 17 8 18 9 19 10 20 11
REMARK SMILES IDX 9 12 8 13 7 14 6 15 5 16 4 17 3 18 2 19 1 20
REMARK H PARENT
REMARK Flexibility Score: inf
ROOT
ATOM      1  C   UNL     1      24.018  11.490  32.162  1.00  0.00     0.000 C 
ENDROOT
BRANCH   1   2
ATOM      2  C   UNL     1      25.014  11.301  31.008  1.00  0.00     0.000 C 
BRANCH   2   3
ATOM      3  C   UNL     1      26.051  10.199  31.295  1.00  0.00     0.000 C 
BRANCH   3   4
ATOM      4  C   UNL     1      27.482  10.632  30.916  1.00  0.00     0.000 C 
BRANCH   4   5
ATOM      5  C   UNL     1      27.690  12.156  30.928  1.00  0.00     0.000 C 
BRANCH   5   6
ATOM      6  C   UNL     1      28.385  12.654  32.206  1.00  0.00     0.000 C 
BRANCH   6   7
ATOM      7  C   UNL     1      27.425  13.410  33.147  1.00  0.00     0.006 C 
BRANCH   7   8
ATOM      8  C   UNL     1      27.508  12.950  34.610  1.00  0.00     0.053 C 
BRANCH   8   9
ATOM      9  C   UNL     1      26.545  11.846  34.915  1.00  0.00     0.041 C 
ATOM     10  O   UNL     1      26.866  10.647  34.705  1.00  0.00    -0.550 OA
ATOM     11  O   UNL     1      25.282  12.142  35.412  1.00  0.00    -0.550 OA
ENDBRANCH   8   9
ENDBRANCH   7   8
ENDBRANCH   6   7
ENDBRANCH   5   6
ENDBRANCH   4   5
ENDBRANCH   3   4
ENDBRANCH   2   3
ENDBRANCH   1   2
BRANCH   1  12
ATOM     12  C   UNL     1      22.583  11.092  31.772  1.00  0.00     0.000 C 
BRANCH  12  13
ATOM     13  C   UNL     1      21.516  11.834  32.595  1.00  0.00    -0.000 C 
BRANCH  13  14
ATOM     14  C   UNL     1      22.050  12.571  33.842  1.00  0.00    -0.000 C 
BRANCH  14  15
ATOM     15  C   UNL     1      20.995  12.919  34.913  1.00  0.00    -0.000 C 
BRANCH  15  16
ATOM     16  C   UNL     1      20.689  11.783  35.909  1.00  0.00    -0.000 C 
BRANCH  16  17
ATOM     17  C   UNL     1      19.182  11.615  36.209  1.00  0.00    -0.000 C 
BRANCH  17  18
ATOM     18  C   UNL     1      18.682  10.172  36.034  1.00  0.00    -0.000 C 
BRANCH  18  19
ATOM     19  C   UNL     1      19.760   9.130  36.362  1.00  0.00    -0.003 C 
ATOM     20  C   UNL     1      19.259   8.127  37.397  1.00  0.00     0.004 C 
ENDBRANCH  18  19
ENDBRANCH  17  18
ENDBRANCH  16  17
ENDBRANCH  15  16
ENDBRANCH  14  15
ENDBRANCH  13  14
ENDBRANCH  12  13
ENDBRANCH   1  12
TORSDOF 16
ENDMDL
MODEL 5
REMARK VINA RESULT:    -5.012      1.345      1.830
REMARK INTER + INTRA:         -11.301
REMARK INTER:                  -9.496
REMARK INTRA:                  -1.805
REMARK UNBOUND:                -1.600
REMARK SMILES CCCCCCCCCCCCCCCCCC(=O)[O-]
REMARK SMILES IDX 10 1 11 2 12 3 13 4 14 5 15 6 16 7 17 8 18 9 19 10 20 11
REMARK SMILES IDX 9 12 8 13 7 14 6 15 5 16 4 17 3 18 2 19 1 20
REMARK H PARENT
REMARK Flexibility Score: inf
ROOT
ATOM      1  C   UNL     1      26.448   9.983  31.130  1.00  0.00     0.000 C 
ENDROOT
BRANCH   1   2
ATOM      2  C   UNL     1      27.155  10.910  30.129  1.00  0.00     0.000 C 
BRANCH   2   3
ATOM      3  C   UNL     1      27.136  12.385  30.573  1.00  0.00     0.000 C 
BRANCH   3   4
ATOM      4  C   UNL     1      28.346  12.741  31.462  1.00  0.00     0.000 C 
BRANCH   4   5
ATOM      5  C   UNL     1      27.995  12.887  32.952  1.00  0.00     0.000 C 
BRANCH   5   6
ATOM      6  C   UNL     1      28.353  11.638  33.775  1.00  0.00     0.000 C 
BRANCH   6   7
ATOM      7  C   UNL     1      27.157  11.100  34.586  1.00  0.00     0.006 C 
BRANCH   7   8
ATOM      8  C   UNL     1      25.844  11.853  34.319  1.00  0.00     0.053 C 
BRANCH   8   9
ATOM      9  C   UNL     1      25.402  12.662  35.498  1.00  0.00     0.041 C 
ATOM     10  O   UNL     1      26.173  13.516  36.007  1.00  0.00    -0.550 OA
ATOM     11  O   UNL     1      24.144  12.457  36.049  1.00  0.00    -0.550 OA
ENDBRANCH   8   9
ENDBRANCH   7   8
ENDBRANCH   6   7
ENDBRANCH   5   6
ENDBRANCH   4   5
ENDBRANCH   3   4
ENDBRANCH   2   3
ENDBRANCH   1   2
BRANCH   1  12
ATOM     12  C   UNL     1      25.234   9.267  30.512  1.00  0.00     0.000 C 
BRANCH  12  13
ATOM     13  C   UNL     1      24.564  10.089  29.397  1.00  0.00    -0.000 C 
BRANCH  13  14
ATOM     14  C   UNL     1      23.556  11.151  29.885  1.00  0.00    -0.000 C 
BRANCH  14  15
ATOM     15  C   UNL     1      23.017  10.949  31.318  1.00  0.00    -0.000 C 
BRANCH  15  16
ATOM     16  C   UNL     1      21.502  11.182  31.475  1.00  0.00    -0.000 C 
BRANCH  16  17
ATOM     17  C   UNL     1      21.068  11.452  32.934  1.00  0.00    -0.000 C 
BRANCH  17  18
ATOM     18  C   UNL     1      21.875  12.570  33.613  1.00  0.00    -0.000 C 
BRANCH  18  19
ATOM     19  C   UNL     1      20.979  13.660  34.219  1.00  0.00    -0.003 C 
ATOM     20  C   UNL     1      19.569  13.598  33.640  1.00  0.00     0.004 C 
ENDBRANCH  18  19
ENDBRANCH  17  18
ENDBRANCH  16  17
ENDBRANCH  15  16
ENDBRANCH  14  15
ENDBRANCH  13  14
ENDBRANCH  12  13
ENDBRANCH   1  12
TORSDOF 16
ENDMDL
MODEL 6
REMARK VINA RESULT:    -5.011      2.170      5.484
REMARK INTER + INTRA:         -11.297
REMARK INTER:                  -9.369
REMARK INTRA:                  -1.929
REMARK UNBOUND:                -1.600
REMARK SMILES CCCCCCCCCCCCCCCCCC(=O)[O-]
REMARK SMILES IDX 10 1 11 2 12 3 13 4 14 5 15 6 16 7 17 8 18 9 19 10 20 11
REMARK SMILES IDX 9 12 8 13 7 14 6 15 5 16 4 17 3 18 2 19 1 20
REMARK H PARENT
REMARK Flexibility Score: inf
ROOT
ATOM      1  C   UNL     1      25.389   9.489  30.749  1.00  0.00     0.000 C 
ENDROOT
BRANCH   1   2
ATOM      2  C   UNL     1      24.664   9.979  29.486  1.00  0.00     0.000 C 
BRANCH   2   3
ATOM      3  C   UNL     1      23.159  10.207  29.719  1.00  0.00     0.000 C 
BRANCH   3   4
ATOM      4  C   UNL     1      22.864  10.756  31.130  1.00  0.00     0.000 C 
BRANCH   4   5
ATOM      5  C   UNL     1      21.378  10.681  31.523  1.00  0.00     0.000 C 
BRANCH   5   6
ATOM      6  C   UNL     1      20.906  11.916  32.310  1.00  0.00     0.000 C 
BRANCH   6   7
ATOM      7  C   UNL     1      21.909  12.341  33.402  1.00  0.00     0.006 C 
BRANCH   7   8
ATOM      8  C   UNL     1      21.318  12.321  34.821  1.00  0.00     0.053 C 
BRANCH   8   9
ATOM      9  C   UNL     1      20.360  13.447  35.054  1.00  0.00     0.041 C 
ATOM     10  O   UNL     1      20.485  14.528  34.422  1.00  0.00    -0.550 OA
ATOM     11  O   UNL     1      19.340  13.309  35.986  1.00  0.00    -0.550 OA
ENDBRANCH   8   9
ENDBRANCH   7   8
ENDBRANCH   6   7
ENDBRANCH   5   6
ENDBRANCH   4   5
ENDBRANCH   3   4
ENDBRANCH   2   3
ENDBRANCH   1   2
BRANCH   1  12
ATOM     12  C   UNL     1      26.820  10.044  30.858  1.00  0.00     0.000 C 
BRANCH  12  13
ATOM     13  C   UNL     1      27.029  11.316  30.018  1.00  0.00    -0.000 C 
BRANCH  13  14
ATOM     14  C   UNL     1      27.175  12.619  30.833  1.00  0.00    -0.000 C 
BRANCH  14  15
ATOM     15  C   UNL     1      28.343  12.647  31.841  1.00  0.00    -0.000 C 
BRANCH  15  16
ATOM     16  C   UNL     1      27.925  12.887  33.305  1.00  0.00    -0.000 C 
BRANCH  16  17
ATOM     17  C   UNL     1      27.996  11.615  34.181  1.00  0.00    -0.000 C 
BRANCH  17  18
ATOM     18  C   UNL     1      26.616  11.021  34.506  1.00  0.00    -0.000 C 
BRANCH  18  19
ATOM     19  C   UNL     1      25.487  12.057  34.406  1.00  0.00    -0.003 C 
ATOM     20  C   UNL     1      24.911  12.377  35.781  1.00  0.00     0.004 C 
ENDBRANCH  18  19
ENDBRANCH  17  18
ENDBRANCH  16  17
ENDBRANCH  15  16
ENDBRANCH  14  15
ENDBRANCH  13  14
ENDBRANCH  12  13
ENDBRANCH   1  12
TORSDOF 16
ENDMDL
MODEL 7
REMARK VINA RESULT:    -5.009      2.844      7.064
REMARK INTER + INTRA:         -11.294
REMARK INTER:                  -9.833
REMARK INTRA:                  -1.462
REMARK UNBOUND:                -1.600
REMARK SMILES CCCCCCCCCCCCCCCCCC(=O)[O-]
REMARK SMILES IDX 10 1 11 2 12 3 13 4 14 5 15 6 16 7 17 8 18 9 19 10 20 11
REMARK SMILES IDX 9 12 8 13 7 14 6 15 5 16 4 17 3 18 2 19 1 20
REMARK H PARENT
REMARK Flexibility Score: inf
ROOT
ATOM      1  C   UNL     1      25.409  11.950  34.252  1.00  0.00     0.000 C 
ENDROOT
BRANCH   1   2
ATOM      2  C   UNL     1      24.814  12.540  35.539  1.00  0.00     0.000 C 
BRANCH   2   3
ATOM      3  C   UNL     1      23.284  12.377  35.612  1.00  0.00     0.000 C 
BRANCH   3   4
ATOM      4  C   UNL     1      22.609  12.586  34.241  1.00  0.00     0.000 C 
BRANCH   4   5
ATOM      5  C   UNL     1      21.253  13.308  34.324  1.00  0.00     0.000 C 
BRANCH   5   6
ATOM      6  C   UNL     1      20.510  13.032  35.642  1.00  0.00     0.000 C 
BRANCH   6   7
ATOM      7  C   UNL     1      18.997  13.314  35.539  1.00  0.00     0.006 C 
BRANCH   7   8
ATOM      8  C   UNL     1      18.170  12.647  36.648  1.00  0.00     0.053 C 
BRANCH   8   9
ATOM      9  C   UNL     1      18.034  11.170  36.447  1.00  0.00     0.041 C 
ATOM     10  O   UNL     1      17.943  10.694  35.285  1.00  0.00    -0.550 OA
ATOM     11  O   UNL     1      17.986  10.320  37.544  1.00  0.00    -0.550 OA
ENDBRANCH   8   9
ENDBRANCH   7   8
ENDBRANCH   6   7
ENDBRANCH   5   6
ENDBRANCH   4   5
ENDBRANCH   3   4
ENDBRANCH   2   3
ENDBRANCH   1   2
BRANCH   1  12
ATOM     12  C   UNL     1      26.755  11.244  34.496  1.00  0.00     0.000 C 
BRANCH  12  13
ATOM     13  C   UNL     1      27.963  12.148  34.194  1.00  0.00    -0.000 C 
BRANCH  13  14
ATOM     14  C   UNL     1      27.749  13.162  33.050  1.00  0.00    -0.000 C 
BRANCH  14  15
ATOM     15  C   UNL     1      28.302  12.737  31.672  1.00  0.00    -0.000 C 
BRANCH  15  16
ATOM     16  C   UNL     1      27.295  11.987  30.779  1.00  0.00    -0.000 C 
BRANCH  16  17
ATOM     17  C   UNL     1      27.481  10.452  30.795  1.00  0.00    -0.000 C 
BRANCH  17  18
ATOM     18  C   UNL     1      26.186   9.677  30.502  1.00  0.00    -0.000 C 
BRANCH  18  19
ATOM     19  C   UNL     1      24.997  10.180  31.333  1.00  0.00    -0.003 C 
ATOM     20  C   UNL     1      23.906  10.760  30.438  1.00  0.00     0.004 C 
ENDBRANCH  18  19
ENDBRANCH  17  18
ENDBRANCH  16  17
ENDBRANCH  15  16
ENDBRANCH  14  15
ENDBRANCH  13  14
ENDBRANCH  12  13
ENDBRANCH   1  12
TORSDOF 16
ENDMDL
MODEL 8
REMARK VINA RESULT:    -4.933      2.291      4.360
REMARK INTER + INTRA:         -11.148
REMARK INTER:                 -10.050
REMARK INTRA:                  -1.098
REMARK UNBOUND:                -1.600
REMARK SMILES CCCCCCCCCCCCCCCCCC(=O)[O-]
REMARK SMILES IDX 10 1 11 2 12 3 13 4 14 5 15 6 16 7 17 8 18 9 19 10 20 11
REMARK SMILES IDX 9 12 8 13 7 14 6 15 5 16 4 17 3 18 2 19 1 20
REMARK H PARENT
REMARK Flexibility Score: inf
ROOT
ATOM      1  C   UNL     1      25.718  13.369  36.011  1.00  0.00     0.000 C 
ENDROOT
BRANCH   1   2
ATOM      2  C   UNL     1      27.152  13.032  35.575  1.00  0.00     0.000 C 
BRANCH   2   3
ATOM      3  C   UNL     1      27.241  11.694  34.818  1.00  0.00     0.000 C 
BRANCH   3   4
ATOM      4  C   UNL     1      28.229  11.758  33.634  1.00  0.00     0.000 C 
BRANCH   4   5
ATOM      5  C   UNL     1      28.005  12.966  32.709  1.00  0.00     0.000 C 
BRANCH   5   6
ATOM      6  C   UNL     1      28.401  12.681  31.250  1.00  0.00     0.000 C 
BRANCH   6   7
ATOM      7  C   UNL     1      27.224  12.139  30.412  1.00  0.00     0.006 C 
BRANCH   7   8
ATOM      8  C   UNL     1      27.294  10.625  30.161  1.00  0.00     0.053 C 
BRANCH   8   9
ATOM      9  C   UNL     1      26.208   9.880  30.872  1.00  0.00     0.041 C 
ATOM     10  O   UNL     1      25.895   8.715  30.510  1.00  0.00    -0.550 OA
ATOM     11  O   UNL     1      25.524  10.480  31.921  1.00  0.00    -0.550 OA
ENDBRANCH   8   9
ENDBRANCH   7   8
ENDBRANCH   6   7
ENDBRANCH   5   6
ENDBRANCH   4   5
ENDBRANCH   3   4
ENDBRANCH   2   3
ENDBRANCH   1   2
BRANCH   1  12
ATOM     12  C   UNL     1      24.747  12.193  35.801  1.00  0.00     0.000 C 
BRANCH  12  13
ATOM     13  C   UNL     1      23.504  12.588  34.984  1.00  0.00    -0.000 C 
BRANCH  13  14
ATOM     14  C   UNL     1      22.156  12.154  35.597  1.00  0.00    -0.000 C 
BRANCH  14  15
ATOM     15  C   UNL     1      20.931  12.995  35.176  1.00  0.00    -0.000 C 
BRANCH  15  16
ATOM     16  C   UNL     1      19.617  12.618  35.887  1.00  0.00    -0.000 C 
BRANCH  16  17
ATOM     17  C   UNL     1      19.412  11.093  36.036  1.00  0.00    -0.000 C 
BRANCH  17  18
ATOM     18  C   UNL     1      18.293  10.722  37.022  1.00  0.00    -0.000 C 
BRANCH  18  19
ATOM     19  C   UNL     1      18.239   9.215  37.314  1.00  0.00    -0.003 C 
ATOM     20  C   UNL     1      19.492   8.511  36.804  1.00  0.00     0.004 C 
ENDBRANCH  18  19
ENDBRANCH  17  18
ENDBRANCH  16  17
ENDBRANCH  15  16
ENDBRANCH  14  15
ENDBRANCH  13  14
ENDBRANCH  12  13
ENDBRANCH   1  12
TORSDOF 16
ENDMDL
MODEL 9
REMARK VINA RESULT:    -4.903      1.455      2.102
REMARK INTER + INTRA:         -11.089
REMARK INTER:                  -8.963
REMARK INTRA:                  -2.127
REMARK UNBOUND:                -1.600
REMARK SMILES CCCCCCCCCCCCCCCCCC(=O)[O-]
REMARK SMILES IDX 10 1 11 2 12 3 13 4 14 5 15 6 16 7 17 8 18 9 19 10 20 11
REMARK SMILES IDX 9 12 8 13 7 14 6 15 5 16 4 17 3 18 2 19 1 20
REMARK H PARENT
REMARK Flexibility Score: inf
ROOT
ATOM      1  C   UNL     1      23.741  11.203  30.221  1.00  0.00     0.000 C 
ENDROOT
BRANCH   1   2
ATOM      2  C   UNL     1      24.778  11.604  31.281  1.00  0.00     0.000 C 
BRANCH   2   3
ATOM      3  C   UNL     1      25.659  10.421  31.725  1.00  0.00     0.000 C 
BRANCH   3   4
ATOM      4  C   UNL     1      27.128  10.590  31.286  1.00  0.00     0.000 C 
BRANCH   4   5
ATOM      5  C   UNL     1      27.495  12.034  30.903  1.00  0.00     0.000 C 
BRANCH   5   6
ATOM      6  C   UNL     1      28.357  12.732  31.968  1.00  0.00     0.000 C 
BRANCH   6   7
ATOM      7  C   UNL     1      27.510  13.468  33.027  1.00  0.00     0.006 C 
BRANCH   7   8
ATOM      8  C   UNL     1      27.783  13.002  34.465  1.00  0.00     0.053 C 
BRANCH   8   9
ATOM      9  C   UNL     1      26.886  11.878  34.879  1.00  0.00     0.041 C 
ATOM     10  O   UNL     1      27.305  10.691  34.862  1.00  0.00    -0.550 OA
ATOM     11  O   UNL     1      25.577  12.139  35.264  1.00  0.00    -0.550 OA
ENDBRANCH   8   9
ENDBRANCH   7   8
ENDBRANCH   6   7
ENDBRANCH   5   6
ENDBRANCH   4   5
ENDBRANCH   3   4
ENDBRANCH   2   3
ENDBRANCH   1   2
BRANCH   1  12
ATOM     12  C   UNL     1      23.335   9.722  30.326  1.00  0.00     0.000 C 
BRANCH  12  13
ATOM     13  C   UNL     1      21.841   9.538  30.651  1.00  0.00    -0.000 C 
BRANCH  13  14
ATOM     14  C   UNL     1      21.067  10.846  30.922  1.00  0.00    -0.000 C 
BRANCH  14  15
ATOM     15  C   UNL     1      20.729  11.124  32.402  1.00  0.00    -0.000 C 
BRANCH  15  16
ATOM     16  C   UNL     1      21.187  12.502  32.919  1.00  0.00    -0.000 C 
BRANCH  16  17
ATOM     17  C   UNL     1      22.277  12.419  34.012  1.00  0.00    -0.000 C 
BRANCH  17  18
ATOM     18  C   UNL     1      21.706  12.347  35.438  1.00  0.00    -0.000 C 
BRANCH  18  19
ATOM     19  C   UNL     1      20.369  13.089  35.577  1.00  0.00    -0.003 C 
ATOM     20  C   UNL     1      19.296  12.179  36.167  1.00  0.00     0.004 C 
ENDBRANCH  18  19
ENDBRANCH  17  18
ENDBRANCH  16  17
ENDBRANCH  15  16
ENDBRANCH  14  15
ENDBRANCH  13  14
ENDBRANCH  12  13
ENDBRANCH   1  12
TORSDOF 16
ENDMDL
