MODEL 1
REMARK VINA RESULT:    -8.681      0.000      0.000
REMARK INTER + INTRA:         -10.497
REMARK INTER:                 -10.203
REMARK INTRA:                  -0.294
REMARK UNBOUND:                -0.294
REMARK SMILES O=c1cc(-c2ccc(O)c(O)c2)oc2cc(O)cc(O)c12
REMARK SMILES IDX 4 1 3 2 2 3 1 4 21 5 19 6 18 7 16 8 15 9 14 10 13 11 5 12
REMARK SMILES IDX 6 13 7 14 8 15 12 16 10 17 9 18 11 20 20 22 17 24
REMARK H PARENT 9 19 11 21 20 23 17 25
REMARK Flexibility Score: inf
ROOT
ATOM      1  C   UNL     1       6.342  -4.997 -27.243  1.00  0.00     0.138 A 
ATOM      2  C   UNL     1       7.108  -5.491 -28.308  1.00  0.00     0.100 A 
ATOM      3  C   UNL     1       7.792  -6.699 -28.164  1.00  0.00     0.197 A 
ATOM      4  O   UNL     1       8.419  -7.148 -29.157  1.00  0.00    -0.289 OA
ATOM      5  C   UNL     1       7.733  -7.399 -26.935  1.00  0.00     0.107 A 
ATOM      6  C   UNL     1       8.421  -8.618 -26.660  1.00  0.00     0.134 A 
ATOM      7  C   UNL     1       8.195  -9.280 -25.447  1.00  0.00     0.093 A 
ATOM      8  C   UNL     1       7.352  -8.736 -24.475  1.00  0.00     0.123 A 
ATOM      9  C   UNL     1       6.716  -7.519 -24.713  1.00  0.00     0.094 A 
ATOM     10  C   UNL     1       6.895  -6.851 -25.927  1.00  0.00     0.146 A 
ATOM     11  O   UNL     1       6.260  -5.701 -26.118  1.00  0.00    -0.456 OA
ENDROOT
BRANCH   1  12
ATOM     12  C   UNL     1       5.597  -3.716 -27.342  1.00  0.00     0.021 A 
ATOM     13  C   UNL     1       4.946  -3.152 -26.228  1.00  0.00     0.016 A 
ATOM     14  C   UNL     1       4.244  -1.949 -26.353  1.00  0.00     0.051 A 
ATOM     15  C   UNL     1       4.173  -1.298 -27.590  1.00  0.00     0.157 A 
ATOM     16  C   UNL     1       5.508  -3.061 -28.583  1.00  0.00     0.062 A 
ATOM     17  C   UNL     1       4.804  -1.855 -28.707  1.00  0.00     0.158 A 
BRANCH  15  18
ATOM     18  O   UNL     1       3.474  -0.098 -27.716  1.00  0.00    -0.504 OA
ATOM     19  H   UNL     1       2.691   0.126 -27.112  1.00  0.00     0.293 HD
ENDBRANCH  15  18
BRANCH  17  20
ATOM     20  O   UNL     1       4.728  -1.206 -29.939  1.00  0.00    -0.504 OA
ATOM     21  H   UNL     1       3.956  -1.364 -30.575  1.00  0.00     0.293 HD
ENDBRANCH  17  20
ENDBRANCH   1  12
BRANCH   6  22
ATOM     22  O   UNL     1       9.349  -9.204 -27.526  1.00  0.00    -0.507 OA
ATOM     23  H   UNL     1       9.755  -8.749 -28.329  1.00  0.00     0.293 HD
ENDBRANCH   6  22
BRANCH   8  24
ATOM     24  O   UNL     1       7.143  -9.394 -23.265  1.00  0.00    -0.508 OA
ATOM     25  H   UNL     1       6.210  -9.624 -22.942  1.00  0.00     0.293 HD
ENDBRANCH   8  24
TORSDOF 5
ENDMDL
MODEL 2
REMARK VINA RESULT:    -8.662      1.693      7.290
REMARK INTER + INTRA:         -10.475
REMARK INTER:                 -10.173
REMARK INTRA:                  -0.302
REMARK UNBOUND:                -0.294
REMARK SMILES O=c1cc(-c2ccc(O)c(O)c2)oc2cc(O)cc(O)c12
REMARK SMILES IDX 4 1 3 2 2 3 1 4 21 5 19 6 18 7 16 8 15 9 14 10 13 11 5 12
REMARK SMILES IDX 6 13 7 14 8 15 12 16 10 17 9 18 11 20 20 22 17 24
REMARK H PARENT 9 19 11 21 20 23 17 25
REMARK Flexibility Score: inf
ROOT
ATOM      1  C   UNL     1       6.383  -3.845 -28.083  1.00  0.00     0.138 A 
ATOM      2  C   UNL     1       6.215  -3.610 -29.455  1.00  0.00     0.100 A 
ATOM      3  C   UNL     1       5.561  -2.454 -29.882  1.00  0.00     0.197 A 
ATOM      4  O   UNL     1       5.481  -2.239 -31.119  1.00  0.00    -0.289 OA
ATOM      5  C   UNL     1       5.044  -1.545 -28.928  1.00  0.00     0.107 A 
ATOM      6  C   UNL     1       4.324  -0.356 -29.246  1.00  0.00     0.134 A 
ATOM      7  C   UNL     1       3.962   0.528 -28.221  1.00  0.00     0.093 A 
ATOM      8  C   UNL     1       4.240   0.233 -26.884  1.00  0.00     0.123 A 
ATOM      9  C   UNL     1       4.896  -0.953 -26.559  1.00  0.00     0.094 A 
ATOM     10  C   UNL     1       5.301  -1.837 -27.562  1.00  0.00     0.146 A 
ATOM     11  O   UNL     1       5.935  -2.949 -27.209  1.00  0.00    -0.456 OA
ENDROOT
BRANCH   1  12
ATOM     12  C   UNL     1       7.070  -5.060 -27.574  1.00  0.00     0.021 A 
ATOM     13  C   UNL     1       8.140  -5.651 -28.272  1.00  0.00     0.016 A 
ATOM     14  C   UNL     1       8.762  -6.800 -27.773  1.00  0.00     0.051 A 
ATOM     15  C   UNL     1       8.320  -7.380 -26.579  1.00  0.00     0.157 A 
ATOM     16  C   UNL     1       6.625  -5.658 -26.382  1.00  0.00     0.062 A 
ATOM     17  C   UNL     1       7.249  -6.810 -25.882  1.00  0.00     0.158 A 
BRANCH  15  18
ATOM     18  O   UNL     1       8.939  -8.525 -26.079  1.00  0.00    -0.504 OA
ATOM     19  H   UNL     1       9.721  -8.957 -26.558  1.00  0.00     0.293 HD
ENDBRANCH  15  18
BRANCH  17  20
ATOM     20  O   UNL     1       6.809  -7.393 -24.695  1.00  0.00    -0.504 OA
ATOM     21  H   UNL     1       7.459  -7.772 -24.017  1.00  0.00     0.293 HD
ENDBRANCH  17  20
ENDBRANCH   1  12
BRANCH   6  22
ATOM     22  O   UNL     1       3.921  -0.008 -30.539  1.00  0.00    -0.507 OA
ATOM     23  H   UNL     1       3.476  -0.634 -31.192  1.00  0.00     0.293 HD
ENDBRANCH   6  22
BRANCH   8  24
ATOM     24  O   UNL     1       3.863   1.109 -25.869  1.00  0.00    -0.508 OA
ATOM     25  H   UNL     1       4.477   1.855 -25.559  1.00  0.00     0.293 HD
ENDBRANCH   8  24
TORSDOF 5
ENDMDL
MODEL 3
REMARK VINA RESULT:    -8.618      0.648      1.483
REMARK INTER + INTRA:         -10.423
REMARK INTER:                 -10.113
REMARK INTRA:                  -0.310
REMARK UNBOUND:                -0.294
REMARK SMILES O=c1cc(-c2ccc(O)c(O)c2)oc2cc(O)cc(O)c12
REMARK SMILES IDX 4 1 3 2 2 3 1 4 21 5 19 6 18 7 16 8 15 9 14 10 13 11 5 12
REMARK SMILES IDX 6 13 7 14 8 15 12 16 10 17 9 18 11 20 20 22 17 24
REMARK H PARENT 9 19 11 21 20 23 17 25
REMARK Flexibility Score: inf
ROOT
ATOM      1  C   UNL     1       6.311  -5.092 -27.294  1.00  0.00     0.138 A 
ATOM      2  C   UNL     1       7.081  -5.595 -28.351  1.00  0.00     0.100 A 
ATOM      3  C   UNL     1       7.771  -6.797 -28.191  1.00  0.00     0.197 A 
ATOM      4  O   UNL     1       8.403  -7.256 -29.177  1.00  0.00    -0.289 OA
ATOM      5  C   UNL     1       7.715  -7.481 -26.953  1.00  0.00     0.107 A 
ATOM      6  C   UNL     1       8.411  -8.692 -26.661  1.00  0.00     0.134 A 
ATOM      7  C   UNL     1       8.186  -9.340 -25.440  1.00  0.00     0.093 A 
ATOM      8  C   UNL     1       7.339  -8.788 -24.476  1.00  0.00     0.123 A 
ATOM      9  C   UNL     1       6.697  -7.578 -24.731  1.00  0.00     0.094 A 
ATOM     10  C   UNL     1       6.873  -6.925 -25.953  1.00  0.00     0.146 A 
ATOM     11  O   UNL     1       6.231  -5.781 -26.160  1.00  0.00    -0.456 OA
ENDROOT
BRANCH   1  12
ATOM     12  C   UNL     1       5.558  -3.817 -27.410  1.00  0.00     0.021 A 
ATOM     13  C   UNL     1       5.179  -3.293 -28.661  1.00  0.00     0.016 A 
ATOM     14  C   UNL     1       4.479  -2.086 -28.740  1.00  0.00     0.051 A 
ATOM     15  C   UNL     1       4.154  -1.379 -27.576  1.00  0.00     0.157 A 
ATOM     16  C   UNL     1       5.238  -3.093 -26.247  1.00  0.00     0.062 A 
ATOM     17  C   UNL     1       4.535  -1.883 -26.328  1.00  0.00     0.158 A 
BRANCH  15  18
ATOM     18  O   UNL     1       3.455  -0.176 -27.653  1.00  0.00    -0.504 OA
ATOM     19  H   UNL     1       2.500  -0.138 -27.991  1.00  0.00     0.293 HD
ENDBRANCH  15  18
BRANCH  17  20
ATOM     20  O   UNL     1       4.214  -1.175 -25.170  1.00  0.00    -0.504 OA
ATOM     21  H   UNL     1       3.480  -0.477 -25.162  1.00  0.00     0.293 HD
ENDBRANCH  17  20
ENDBRANCH   1  12
BRANCH   6  22
ATOM     22  O   UNL     1       9.343  -9.284 -27.519  1.00  0.00    -0.507 OA
ATOM     23  H   UNL     1       9.924 -10.073 -27.281  1.00  0.00     0.293 HD
ENDBRANCH   6  22
BRANCH   8  24
ATOM     24  O   UNL     1       7.133  -9.432 -23.258  1.00  0.00    -0.508 OA
ATOM     25  H   UNL     1       6.359 -10.072 -23.122  1.00  0.00     0.293 HD
ENDBRANCH   8  24
TORSDOF 5
ENDMDL
MODEL 4
REMARK VINA RESULT:    -8.441      1.392      7.452
REMARK INTER + INTRA:         -10.215
REMARK INTER:                  -9.920
REMARK INTRA:                  -0.294
REMARK UNBOUND:                -0.294
REMARK SMILES O=c1cc(-c2ccc(O)c(O)c2)oc2cc(O)cc(O)c12
REMARK SMILES IDX 4 1 3 2 2 3 1 4 21 5 19 6 18 7 16 8 15 9 14 10 13 11 5 12
REMARK SMILES IDX 6 13 7 14 8 15 12 16 10 17 9 18 11 20 20 22 17 24
REMARK H PARENT 9 19 11 21 20 23 17 25
REMARK Flexibility Score: inf
ROOT
ATOM      1  C   UNL     1       6.646  -5.246 -26.947  1.00  0.00     0.138 A 
ATOM      2  C   UNL     1       5.684  -4.781 -26.040  1.00  0.00     0.100 A 
ATOM      3  C   UNL     1       5.014  -3.584 -26.299  1.00  0.00     0.197 A 
ATOM      4  O   UNL     1       4.113  -3.224 -25.499  1.00  0.00    -0.289 OA
ATOM      5  C   UNL     1       5.334  -2.834 -27.456  1.00  0.00     0.107 A 
ATOM      6  C   UNL     1       4.746  -1.581 -27.800  1.00  0.00     0.134 A 
ATOM      7  C   UNL     1       5.057  -0.988 -29.030  1.00  0.00     0.093 A 
ATOM      8  C   UNL     1       5.980  -1.572 -29.900  1.00  0.00     0.123 A 
ATOM      9  C   UNL     1       6.600  -2.770 -29.548  1.00  0.00     0.094 A 
ATOM     10  C   UNL     1       6.286  -3.404 -28.344  1.00  0.00     0.146 A 
ATOM     11  O   UNL     1       6.889  -4.551 -28.054  1.00  0.00    -0.456 OA
ENDROOT
BRANCH   1  12
ATOM     12  C   UNL     1       7.390  -6.512 -26.720  1.00  0.00     0.021 A 
ATOM     13  C   UNL     1       8.246  -7.052 -27.699  1.00  0.00     0.016 A 
ATOM     14  C   UNL     1       8.927  -8.250 -27.461  1.00  0.00     0.051 A 
ATOM     15  C   UNL     1       8.756  -8.931 -26.250  1.00  0.00     0.157 A 
ATOM     16  C   UNL     1       7.216  -7.210 -25.512  1.00  0.00     0.062 A 
ATOM     17  C   UNL     1       7.899  -8.411 -25.274  1.00  0.00     0.158 A 
BRANCH  15  18
ATOM     18  O   UNL     1       9.434 -10.125 -26.011  1.00  0.00    -0.504 OA
ATOM     19  H   UNL     1      10.323 -10.329 -26.454  1.00  0.00     0.293 HD
ENDBRANCH  15  18
BRANCH  17  20
ATOM     20  O   UNL     1       7.728  -9.094 -24.071  1.00  0.00    -0.504 OA
ATOM     21  H   UNL     1       8.235  -9.946 -23.868  1.00  0.00     0.293 HD
ENDBRANCH  17  20
ENDBRANCH   1  12
BRANCH   6  22
ATOM     22  O   UNL     1       3.877  -0.871 -26.967  1.00  0.00    -0.507 OA
ATOM     23  H   UNL     1       3.526   0.056 -27.156  1.00  0.00     0.293 HD
ENDBRANCH   6  22
BRANCH   8  24
ATOM     24  O   UNL     1       6.295  -0.968 -31.115  1.00  0.00    -0.508 OA
ATOM     25  H   UNL     1       7.232  -0.633 -31.313  1.00  0.00     0.293 HD
ENDBRANCH   8  24
TORSDOF 5
ENDMDL
MODEL 5
REMARK VINA RESULT:    -8.420      1.419      2.039
REMARK INTER + INTRA:         -10.190
REMARK INTER:                  -9.902
REMARK INTRA:                  -0.288
REMARK UNBOUND:                -0.294
REMARK SMILES O=c1cc(-c2ccc(O)c(O)c2)oc2cc(O)cc(O)c12
REMARK SMILES IDX 4 1 3 2 2 3 1 4 21 5 19 6 18 7 16 8 15 9 14 10 13 11 5 12
REMARK SMILES IDX 6 13 7 14 8 15 12 16 10 17 9 18 11 20 20 22 17 24
REMARK H PARENT 9 19 11 21 20 23 17 25
REMARK Flexibility Score: inf
ROOT
ATOM      1  C   UNL     1       6.150  -3.780 -27.621  1.00  0.00     0.138 A 
ATOM      2  C   UNL     1       7.333  -4.185 -28.254  1.00  0.00     0.100 A 
ATOM      3  C   UNL     1       8.015  -5.310 -27.788  1.00  0.00     0.197 A 
ATOM      4  O   UNL     1       9.039  -5.685 -28.415  1.00  0.00    -0.289 OA
ATOM      5  C   UNL     1       7.525  -6.013 -26.662  1.00  0.00     0.107 A 
ATOM      6  C   UNL     1       8.159  -7.148 -26.074  1.00  0.00     0.134 A 
ATOM      7  C   UNL     1       7.520  -7.834 -25.033  1.00  0.00     0.093 A 
ATOM      8  C   UNL     1       6.300  -7.387 -24.518  1.00  0.00     0.123 A 
ATOM      9  C   UNL     1       5.699  -6.248 -25.050  1.00  0.00     0.094 A 
ATOM     10  C   UNL     1       6.295  -5.563 -26.112  1.00  0.00     0.146 A 
ATOM     11  O   UNL     1       5.682  -4.490 -26.598  1.00  0.00    -0.456 OA
ENDROOT
BRANCH   1  12
ATOM     12  C   UNL     1       5.385  -2.590 -28.074  1.00  0.00     0.021 A 
ATOM     13  C   UNL     1       5.061  -2.392 -29.430  1.00  0.00     0.016 A 
ATOM     14  C   UNL     1       4.349  -1.257 -29.829  1.00  0.00     0.051 A 
ATOM     15  C   UNL     1       3.957  -0.300 -28.885  1.00  0.00     0.157 A 
ATOM     16  C   UNL     1       4.999  -1.617 -27.135  1.00  0.00     0.062 A 
ATOM     17  C   UNL     1       4.284  -0.480 -27.536  1.00  0.00     0.158 A 
BRANCH  15  18
ATOM     18  O   UNL     1       3.246   0.831 -29.280  1.00  0.00    -0.504 OA
ATOM     19  H   UNL     1       2.523   1.235 -28.695  1.00  0.00     0.293 HD
ENDBRANCH  15  18
BRANCH  17  20
ATOM     20  O   UNL     1       3.896   0.477 -26.599  1.00  0.00    -0.504 OA
ATOM     21  H   UNL     1       4.576   1.047 -26.110  1.00  0.00     0.293 HD
ENDBRANCH  17  20
ENDBRANCH   1  12
BRANCH   6  22
ATOM     22  O   UNL     1       9.416  -7.627 -26.456  1.00  0.00    -0.507 OA
ATOM     23  H   UNL     1       9.741  -8.570 -26.311  1.00  0.00     0.293 HD
ENDBRANCH   6  22
BRANCH   8  24
ATOM     24  O   UNL     1       5.678  -8.066 -23.472  1.00  0.00    -0.508 OA
ATOM     25  H   UNL     1       5.610  -9.078 -23.465  1.00  0.00     0.293 HD
ENDBRANCH   8  24
TORSDOF 5
ENDMDL
MODEL 6
REMARK VINA RESULT:    -8.400      1.446      7.637
REMARK INTER + INTRA:         -10.167
REMARK INTER:                  -9.872
REMARK INTRA:                  -0.294
REMARK UNBOUND:                -0.294
REMARK SMILES O=c1cc(-c2ccc(O)c(O)c2)oc2cc(O)cc(O)c12
REMARK SMILES IDX 4 1 3 2 2 3 1 4 21 5 19 6 18 7 16 8 15 9 14 10 13 11 5 12
REMARK SMILES IDX 6 13 7 14 8 15 12 16 10 17 9 18 11 20 20 22 17 24
REMARK H PARENT 9 19 11 21 20 23 17 25
REMARK Flexibility Score: inf
ROOT
ATOM      1  C   UNL     1       6.010  -4.175 -27.178  1.00  0.00     0.138 A 
ATOM      2  C   UNL     1       5.398  -3.657 -26.028  1.00  0.00     0.100 A 
ATOM      3  C   UNL     1       4.734  -2.432 -26.092  1.00  0.00     0.197 A 
ATOM      4  O   UNL     1       4.142  -2.023 -25.061  1.00  0.00    -0.289 OA
ATOM      5  C   UNL     1       4.711  -1.707 -27.308  1.00  0.00     0.107 A 
ATOM      6  C   UNL     1       4.101  -0.429 -27.480  1.00  0.00     0.134 A 
ATOM      7  C   UNL     1       4.040   0.140 -28.759  1.00  0.00     0.093 A 
ATOM      8  C   UNL     1       4.621  -0.495 -29.859  1.00  0.00     0.123 A 
ATOM      9  C   UNL     1       5.267  -1.719 -29.690  1.00  0.00     0.094 A 
ATOM     10  C   UNL     1       5.314  -2.328 -28.434  1.00  0.00     0.146 A 
ATOM     11  O   UNL     1       5.927  -3.500 -28.320  1.00  0.00    -0.456 OA
ENDROOT
BRANCH   1  12
ATOM     12  C   UNL     1       6.731  -5.474 -27.165  1.00  0.00     0.021 A 
ATOM     13  C   UNL     1       7.267  -6.034 -28.341  1.00  0.00     0.016 A 
ATOM     14  C   UNL     1       7.933  -7.263 -28.300  1.00  0.00     0.051 A 
ATOM     15  C   UNL     1       8.066  -7.954 -27.090  1.00  0.00     0.157 A 
ATOM     16  C   UNL     1       6.858  -6.183 -25.957  1.00  0.00     0.062 A 
ATOM     17  C   UNL     1       7.527  -7.415 -25.917  1.00  0.00     0.158 A 
BRANCH  15  18
ATOM     18  O   UNL     1       8.730  -9.179 -27.047  1.00  0.00    -0.504 OA
ATOM     19  H   UNL     1       9.094  -9.555 -26.179  1.00  0.00     0.293 HD
ENDBRANCH  15  18
BRANCH  17  20
ATOM     20  O   UNL     1       7.657  -8.108 -24.715  1.00  0.00    -0.504 OA
ATOM     21  H   UNL     1       7.043  -7.929 -23.930  1.00  0.00     0.293 HD
ENDBRANCH  17  20
ENDBRANCH   1  12
BRANCH   6  22
ATOM     22  O   UNL     1       3.565   0.329 -26.435  1.00  0.00    -0.507 OA
ATOM     23  H   UNL     1       3.715   1.318 -26.304  1.00  0.00     0.293 HD
ENDBRANCH   6  22
BRANCH   8  24
ATOM     24  O   UNL     1       4.569   0.085 -31.125  1.00  0.00    -0.508 OA
ATOM     25  H   UNL     1       4.756  -0.456 -31.962  1.00  0.00     0.293 HD
ENDBRANCH   8  24
TORSDOF 5
ENDMDL
MODEL 7
REMARK VINA RESULT:    -8.375      1.553      7.178
REMARK INTER + INTRA:         -10.137
REMARK INTER:                  -9.849
REMARK INTRA:                  -0.289
REMARK UNBOUND:                -0.294
REMARK SMILES O=c1cc(-c2ccc(O)c(O)c2)oc2cc(O)cc(O)c12
REMARK SMILES IDX 4 1 3 2 2 3 1 4 21 5 19 6 18 7 16 8 15 9 14 10 13 11 5 12
REMARK SMILES IDX 6 13 7 14 8 15 12 16 10 17 9 18 11 20 20 22 17 24
REMARK H PARENT 9 19 11 21 20 23 17 25
REMARK Flexibility Score: inf
ROOT
ATOM      1  C   UNL     1       6.190  -3.980 -28.004  1.00  0.00     0.138 A 
ATOM      2  C   UNL     1       6.147  -3.736 -29.384  1.00  0.00     0.100 A 
ATOM      3  C   UNL     1       5.604  -2.541 -29.857  1.00  0.00     0.197 A 
ATOM      4  O   UNL     1       5.636  -2.323 -31.095  1.00  0.00    -0.289 OA
ATOM      5  C   UNL     1       5.071  -1.600 -28.944  1.00  0.00     0.107 A 
ATOM      6  C   UNL     1       4.455  -0.368 -29.314  1.00  0.00     0.134 A 
ATOM      7  C   UNL     1       4.070   0.538 -28.317  1.00  0.00     0.093 A 
ATOM      8  C   UNL     1       4.222   0.228 -26.963  1.00  0.00     0.123 A 
ATOM      9  C   UNL     1       4.773  -0.997 -26.591  1.00  0.00     0.094 A 
ATOM     10  C   UNL     1       5.200  -1.906 -27.562  1.00  0.00     0.146 A 
ATOM     11  O   UNL     1       5.732  -3.056 -27.165  1.00  0.00    -0.456 OA
ENDROOT
BRANCH   1  12
ATOM     12  C   UNL     1       6.756  -5.235 -27.447  1.00  0.00     0.021 A 
ATOM     13  C   UNL     1       6.405  -5.699 -26.164  1.00  0.00     0.016 A 
ATOM     14  C   UNL     1       6.960  -6.880 -25.662  1.00  0.00     0.051 A 
ATOM     15  C   UNL     1       7.880  -7.608 -26.426  1.00  0.00     0.157 A 
ATOM     16  C   UNL     1       7.690  -5.968 -28.201  1.00  0.00     0.062 A 
ATOM     17  C   UNL     1       8.246  -7.151 -27.696  1.00  0.00     0.158 A 
BRANCH  15  18
ATOM     18  O   UNL     1       8.434  -8.786 -25.927  1.00  0.00    -0.504 OA
ATOM     19  H   UNL     1       9.198  -9.255 -26.401  1.00  0.00     0.293 HD
ENDBRANCH  15  18
BRANCH  17  20
ATOM     20  O   UNL     1       9.166  -7.877 -28.453  1.00  0.00    -0.504 OA
ATOM     21  H   UNL     1      10.018  -7.455 -28.800  1.00  0.00     0.293 HD
ENDBRANCH  17  20
ENDBRANCH   1  12
BRANCH   6  22
ATOM     22  O   UNL     1       4.180   0.003 -30.633  1.00  0.00    -0.507 OA
ATOM     23  H   UNL     1       4.876   0.251 -31.319  1.00  0.00     0.293 HD
ENDBRANCH   6  22
BRANCH   8  24
ATOM     24  O   UNL     1       3.822   1.128 -25.978  1.00  0.00    -0.508 OA
ATOM     25  H   UNL     1       3.047   1.765 -26.127  1.00  0.00     0.293 HD
ENDBRANCH   8  24
TORSDOF 5
ENDMDL
MODEL 8
REMARK VINA RESULT:    -7.919      1.448      2.230
REMARK INTER + INTRA:          -9.602
REMARK INTER:                  -9.297
REMARK INTRA:                  -0.305
REMARK UNBOUND:                -0.294
REMARK SMILES O=c1cc(-c2ccc(O)c(O)c2)oc2cc(O)cc(O)c12
REMARK SMILES IDX 4 1 3 2 2 3 1 4 21 5 19 6 18 7 16 8 15 9 14 10 13 11 5 12
REMARK SMILES IDX 6 13 7 14 8 15 12 16 10 17 9 18 11 20 20 22 17 24
REMARK H PARENT 9 19 11 21 20 23 17 25
REMARK Flexibility Score: inf
ROOT
ATOM      1  C   UNL     1       7.298  -5.535 -27.911  1.00  0.00     0.138 A 
ATOM      2  C   UNL     1       8.292  -6.401 -28.387  1.00  0.00     0.100 A 
ATOM      3  C   UNL     1       8.618  -7.545 -27.657  1.00  0.00     0.197 A 
ATOM      4  O   UNL     1       9.468  -8.336 -28.139  1.00  0.00    -0.289 OA
ATOM      5  C   UNL     1       7.966  -7.804 -26.427  1.00  0.00     0.107 A 
ATOM      6  C   UNL     1       8.245  -8.916 -25.578  1.00  0.00     0.134 A 
ATOM      7  C   UNL     1       7.455  -9.133 -24.442  1.00  0.00     0.093 A 
ATOM      8  C   UNL     1       6.436  -8.243 -24.092  1.00  0.00     0.123 A 
ATOM      9  C   UNL     1       6.191  -7.125 -24.887  1.00  0.00     0.094 A 
ATOM     10  C   UNL     1       6.939  -6.900 -26.045  1.00  0.00     0.146 A 
ATOM     11  O   UNL     1       6.663  -5.829 -26.780  1.00  0.00    -0.456 OA
ENDROOT
BRANCH   1  12
ATOM     12  C   UNL     1       6.914  -4.303 -28.647  1.00  0.00     0.021 A 
ATOM     13  C   UNL     1       7.000  -4.223 -30.050  1.00  0.00     0.016 A 
ATOM     14  C   UNL     1       6.640  -3.048 -30.716  1.00  0.00     0.051 A 
ATOM     15  C   UNL     1       6.198  -1.934 -29.992  1.00  0.00     0.157 A 
ATOM     16  C   UNL     1       6.481  -3.174 -27.929  1.00  0.00     0.062 A 
ATOM     17  C   UNL     1       6.120  -1.996 -28.597  1.00  0.00     0.158 A 
BRANCH  15  18
ATOM     18  O   UNL     1       5.838  -0.761 -30.654  1.00  0.00    -0.504 OA
ATOM     19  H   UNL     1       6.532  -0.154 -31.075  1.00  0.00     0.293 HD
ENDBRANCH  15  18
BRANCH  17  20
ATOM     20  O   UNL     1       5.683  -0.883 -27.879  1.00  0.00    -0.504 OA
ATOM     21  H   UNL     1       6.092  -0.634 -26.987  1.00  0.00     0.293 HD
ENDBRANCH  17  20
ENDBRANCH   1  12
BRANCH   6  22
ATOM     22  O   UNL     1       9.293  -9.817 -25.789  1.00  0.00    -0.507 OA
ATOM     23  H   UNL     1      10.273  -9.579 -25.759  1.00  0.00     0.293 HD
ENDBRANCH   6  22
BRANCH   8  24
ATOM     24  O   UNL     1       5.664  -8.458 -22.953  1.00  0.00    -0.508 OA
ATOM     25  H   UNL     1       5.975  -8.150 -22.038  1.00  0.00     0.293 HD
ENDBRANCH   8  24
TORSDOF 5
ENDMDL
MODEL 9
REMARK VINA RESULT:    -7.560      1.711      2.676
REMARK INTER + INTRA:          -9.180
REMARK INTER:                  -8.862
REMARK INTRA:                  -0.318
REMARK UNBOUND:                -0.294
REMARK SMILES O=c1cc(-c2ccc(O)c(O)c2)oc2cc(O)cc(O)c12
REMARK SMILES IDX 4 1 3 2 2 3 1 4 21 5 19 6 18 7 16 8 15 9 14 10 13 11 5 12
REMARK SMILES IDX 6 13 7 14 8 15 12 16 10 17 9 18 11 20 20 22 17 24
REMARK H PARENT 9 19 11 21 20 23 17 25
REMARK Flexibility Score: inf
ROOT
ATOM      1  C   UNL     1       5.969  -3.193 -27.526  1.00  0.00     0.138 A 
ATOM      2  C   UNL     1       6.369  -3.467 -28.842  1.00  0.00     0.100 A 
ATOM      3  C   UNL     1       6.989  -4.682 -29.135  1.00  0.00     0.197 A 
ATOM      4  O   UNL     1       7.281  -4.925 -30.334  1.00  0.00    -0.289 OA
ATOM      5  C   UNL     1       7.239  -5.613 -28.099  1.00  0.00     0.107 A 
ATOM      6  C   UNL     1       7.902  -6.864 -28.273  1.00  0.00     0.134 A 
ATOM      7  C   UNL     1       7.988  -7.755 -27.196  1.00  0.00     0.093 A 
ATOM      8  C   UNL     1       7.491  -7.414 -25.936  1.00  0.00     0.123 A 
ATOM      9  C   UNL     1       6.890  -6.171 -25.743  1.00  0.00     0.094 A 
ATOM     10  C   UNL     1       6.757  -5.275 -26.806  1.00  0.00     0.146 A 
ATOM     11  O   UNL     1       6.166  -4.107 -26.581  1.00  0.00    -0.456 OA
ENDROOT
BRANCH   1  12
ATOM     12  C   UNL     1       5.305  -1.916 -27.158  1.00  0.00     0.021 A 
ATOM     13  C   UNL     1       5.081  -0.899 -28.107  1.00  0.00     0.016 A 
ATOM     14  C   UNL     1       4.462   0.296 -27.730  1.00  0.00     0.051 A 
ATOM     15  C   UNL     1       4.068   0.500 -26.402  1.00  0.00     0.157 A 
ATOM     16  C   UNL     1       4.917  -1.697 -25.825  1.00  0.00     0.062 A 
ATOM     17  C   UNL     1       4.296  -0.498 -25.448  1.00  0.00     0.158 A 
BRANCH  15  18
ATOM     18  O   UNL     1       3.450   1.691 -26.024  1.00  0.00    -0.504 OA
ATOM     19  H   UNL     1       3.686   2.158 -25.156  1.00  0.00     0.293 HD
ENDBRANCH  15  18
BRANCH  17  20
ATOM     20  O   UNL     1       3.906  -0.291 -24.125  1.00  0.00    -0.504 OA
ATOM     21  H   UNL     1       3.438   0.560 -23.838  1.00  0.00     0.293 HD
ENDBRANCH  17  20
ENDBRANCH   1  12
BRANCH   6  22
ATOM     22  O   UNL     1       8.507  -7.268 -29.467  1.00  0.00    -0.507 OA
ATOM     23  H   UNL     1       8.021  -7.424 -30.336  1.00  0.00     0.293 HD
ENDBRANCH   6  22
BRANCH   8  24
ATOM     24  O   UNL     1       7.595  -8.300 -24.866  1.00  0.00    -0.508 OA
ATOM     25  H   UNL     1       7.962  -9.237 -24.989  1.00  0.00     0.293 HD
ENDBRANCH   8  24
TORSDOF 5
ENDMDL
