MODEL 1
REMARK VINA RESULT:    -9.206      0.000      0.000
REMARK INTER + INTRA:         -10.813
REMARK INTER:                 -11.089
REMARK INTRA:                   0.276
REMARK UNBOUND:                 0.276
REMARK SMILES O=c1c(O)c(-c2ccc(O)c(O)c2)oc2cc(O)cc(O)c12
REMARK SMILES IDX 5 1 3 2 2 3 1 4 22 5 20 6 19 7 17 8 16 9 15 10 14 11 6 12
REMARK SMILES IDX 7 13 8 14 9 15 13 16 11 17 10 18 12 20 4 22 21 24 18 26
REMARK H PARENT 10 19 12 21 4 23 21 25 18 27
REMARK Flexibility Score: inf
ROOT
ATOM      1  C   UNL     1     149.452 148.881 150.397  1.00  0.00     0.180 A 
ATOM      2  C   UNL     1     149.567 147.636 149.754  1.00  0.00     0.208 A 
ATOM      3  C   UNL     1     150.788 147.291 149.153  1.00  0.00     0.238 A 
ATOM      4  O   UNL     1     150.906 146.146 148.645  1.00  0.00    -0.285 OA
ATOM      5  C   UNL     1     151.861 148.215 149.154  1.00  0.00     0.111 A 
ATOM      6  C   UNL     1     153.129 147.988 148.536  1.00  0.00     0.134 A 
ATOM      7  C   UNL     1     154.151 148.932 148.691  1.00  0.00     0.093 A 
ATOM      8  C   UNL     1     153.935 150.121 149.387  1.00  0.00     0.123 A 
ATOM      9  C   UNL     1     152.683 150.378 149.947  1.00  0.00     0.094 A 
ATOM     10  C   UNL     1     151.654 149.439 149.842  1.00  0.00     0.146 A 
ATOM     11  O   UNL     1     150.486 149.714 150.409  1.00  0.00    -0.452 OA
ENDROOT
BRANCH   1  12
ATOM     12  C   UNL     1     148.202 149.311 151.066  1.00  0.00     0.025 A 
ATOM     13  C   UNL     1     148.225 150.143 152.197  1.00  0.00     0.016 A 
ATOM     14  C   UNL     1     147.032 150.555 152.795  1.00  0.00     0.051 A 
ATOM     15  C   UNL     1     145.800 150.157 152.267  1.00  0.00     0.157 A 
ATOM     16  C   UNL     1     146.964 148.928 150.524  1.00  0.00     0.062 A 
ATOM     17  C   UNL     1     145.765 149.341 151.123  1.00  0.00     0.158 A 
BRANCH  15  18
ATOM     18  O   UNL     1     144.626 150.582 152.886  1.00  0.00    -0.504 OA
ATOM     19  H   UNL     1     144.126 151.408 152.582  1.00  0.00     0.293 HD
ENDBRANCH  15  18
BRANCH  17  20
ATOM     20  O   UNL     1     144.541 148.945 150.586  1.00  0.00    -0.504 OA
ATOM     21  H   UNL     1     144.406 148.020 150.197  1.00  0.00     0.293 HD
ENDBRANCH  17  20
ENDBRANCH   1  12
BRANCH   2  22
ATOM     22  O   UNL     1     148.472 146.770 149.699  1.00  0.00    -0.502 OA
ATOM     23  H   UNL     1     147.625 146.928 150.232  1.00  0.00     0.293 HD
ENDBRANCH   2  22
BRANCH   6  24
ATOM     24  O   UNL     1     153.425 146.876 147.743  1.00  0.00    -0.507 OA
ATOM     25  H   UNL     1     154.271 146.756 147.206  1.00  0.00     0.293 HD
ENDBRANCH   6  24
BRANCH   8  26
ATOM     26  O   UNL     1     154.970 151.045 149.507  1.00  0.00    -0.508 OA
ATOM     27  H   UNL     1     155.832 150.817 149.989  1.00  0.00     0.293 HD
ENDBRANCH   8  26
TORSDOF 6
ENDMDL
MODEL 2
REMARK VINA RESULT:    -9.095      1.401      6.747
REMARK INTER + INTRA:         -10.679
REMARK INTER:                 -11.132
REMARK INTRA:                   0.453
REMARK UNBOUND:                 0.276
REMARK SMILES O=c1c(O)c(-c2ccc(O)c(O)c2)oc2cc(O)cc(O)c12
REMARK SMILES IDX 5 1 3 2 2 3 1 4 22 5 20 6 19 7 17 8 16 9 15 10 14 11 6 12
REMARK SMILES IDX 7 13 8 14 9 15 13 16 11 17 10 18 12 20 4 22 21 24 18 26
REMARK H PARENT 10 19 12 21 4 23 21 25 18 27
REMARK Flexibility Score: inf
ROOT
ATOM      1  C   UNL     1     151.344 148.993 149.534  1.00  0.00     0.180 A 
ATOM      2  C   UNL     1     150.801 148.110 148.584  1.00  0.00     0.208 A 
ATOM      3  C   UNL     1     149.444 147.762 148.678  1.00  0.00     0.238 A 
ATOM      4  O   UNL     1     148.947 147.031 147.781  1.00  0.00    -0.285 OA
ATOM      5  C   UNL     1     148.661 148.255 149.749  1.00  0.00     0.111 A 
ATOM      6  C   UNL     1     147.286 147.932 149.967  1.00  0.00     0.134 A 
ATOM      7  C   UNL     1     146.584 148.563 151.001  1.00  0.00     0.093 A 
ATOM      8  C   UNL     1     147.219 149.456 151.863  1.00  0.00     0.123 A 
ATOM      9  C   UNL     1     148.575 149.737 151.693  1.00  0.00     0.094 A 
ATOM     10  C   UNL     1     149.294 149.152 150.648  1.00  0.00     0.146 A 
ATOM     11  O   UNL     1     150.576 149.465 150.509  1.00  0.00    -0.452 OA
ENDROOT
BRANCH   1  12
ATOM     12  C   UNL     1     152.762 149.418 149.494  1.00  0.00     0.025 A 
ATOM     13  C   UNL     1     153.682 148.820 148.616  1.00  0.00     0.016 A 
ATOM     14  C   UNL     1     155.008 149.255 148.579  1.00  0.00     0.051 A 
ATOM     15  C   UNL     1     155.434 150.300 149.404  1.00  0.00     0.157 A 
ATOM     16  C   UNL     1     153.186 150.482 150.307  1.00  0.00     0.062 A 
ATOM     17  C   UNL     1     154.519 150.920 150.271  1.00  0.00     0.158 A 
BRANCH  15  18
ATOM     18  O   UNL     1     156.765 150.712 149.347  1.00  0.00    -0.504 OA
ATOM     19  H   UNL     1     157.463 150.203 148.820  1.00  0.00     0.293 HD
ENDBRANCH  15  18
BRANCH  17  20
ATOM     20  O   UNL     1     154.933 151.968 151.092  1.00  0.00    -0.504 OA
ATOM     21  H   UNL     1     154.626 152.043 152.054  1.00  0.00     0.293 HD
ENDBRANCH  17  20
ENDBRANCH   1  12
BRANCH   2  22
ATOM     22  O   UNL     1     151.609 147.575 147.579  1.00  0.00    -0.502 OA
ATOM     23  H   UNL     1     152.253 146.810 147.748  1.00  0.00     0.293 HD
ENDBRANCH   2  22
BRANCH   6  24
ATOM     24  O   UNL     1     146.577 146.987 149.221  1.00  0.00    -0.507 OA
ATOM     25  H   UNL     1     145.629 146.695 149.407  1.00  0.00     0.293 HD
ENDBRANCH   6  24
BRANCH   8  26
ATOM     26  O   UNL     1     146.493 150.052 152.892  1.00  0.00    -0.508 OA
ATOM     27  H   UNL     1     145.484 149.974 152.944  1.00  0.00     0.293 HD
ENDBRANCH   8  26
TORSDOF 6
ENDMDL
MODEL 3
REMARK VINA RESULT:    -8.981      1.258      1.640
REMARK INTER + INTRA:         -10.543
REMARK INTER:                 -10.930
REMARK INTRA:                   0.388
REMARK UNBOUND:                 0.276
REMARK SMILES O=c1c(O)c(-c2ccc(O)c(O)c2)oc2cc(O)cc(O)c12
REMARK SMILES IDX 5 1 3 2 2 3 1 4 22 5 20 6 19 7 17 8 16 9 15 10 14 11 6 12
REMARK SMILES IDX 7 13 8 14 9 15 13 16 11 17 10 18 12 20 4 22 21 24 18 26
REMARK H PARENT 10 19 12 21 4 23 21 25 18 27
REMARK Flexibility Score: inf
ROOT
ATOM      1  C   UNL     1     150.306 148.717 149.556  1.00  0.00     0.180 A 
ATOM      2  C   UNL     1     150.724 147.699 148.682  1.00  0.00     0.208 A 
ATOM      3  C   UNL     1     152.080 147.625 148.324  1.00  0.00     0.238 A 
ATOM      4  O   UNL     1     152.460 146.666 147.602  1.00  0.00    -0.285 OA
ATOM      5  C   UNL     1     152.989 148.601 148.798  1.00  0.00     0.111 A 
ATOM      6  C   UNL     1     154.378 148.648 148.463  1.00  0.00     0.134 A 
ATOM      7  C   UNL     1     155.204 149.598 149.075  1.00  0.00     0.093 A 
ATOM      8  C   UNL     1     154.684 150.541 149.962  1.00  0.00     0.123 A 
ATOM      9  C   UNL     1     153.319 150.539 150.253  1.00  0.00     0.094 A 
ATOM     10  C   UNL     1     152.476 149.579 149.687  1.00  0.00     0.146 A 
ATOM     11  O   UNL     1     151.188 149.599 150.010  1.00  0.00    -0.452 OA
ENDROOT
BRANCH   1  12
ATOM     12  C   UNL     1     148.897 148.853 149.991  1.00  0.00     0.025 A 
ATOM     13  C   UNL     1     148.362 150.096 150.367  1.00  0.00     0.016 A 
ATOM     14  C   UNL     1     147.023 150.203 150.750  1.00  0.00     0.051 A 
ATOM     15  C   UNL     1     146.194 149.077 150.749  1.00  0.00     0.157 A 
ATOM     16  C   UNL     1     148.058 147.726 149.971  1.00  0.00     0.062 A 
ATOM     17  C   UNL     1     146.712 147.832 150.355  1.00  0.00     0.158 A 
BRANCH  15  18
ATOM     18  O   UNL     1     144.862 149.214 151.138  1.00  0.00    -0.504 OA
ATOM     19  H   UNL     1     144.560 149.049 152.090  1.00  0.00     0.293 HD
ENDBRANCH  15  18
BRANCH  17  20
ATOM     20  O   UNL     1     145.891 146.705 150.344  1.00  0.00    -0.504 OA
ATOM     21  H   UNL     1     145.368 146.421 151.164  1.00  0.00     0.293 HD
ENDBRANCH  17  20
ENDBRANCH   1  12
BRANCH   2  22
ATOM     22  O   UNL     1     149.797 146.791 148.165  1.00  0.00    -0.502 OA
ATOM     23  H   UNL     1     149.614 145.894 148.598  1.00  0.00     0.293 HD
ENDBRANCH   2  22
BRANCH   6  24
ATOM     24  O   UNL     1     154.985 147.811 147.523  1.00  0.00    -0.507 OA
ATOM     25  H   UNL     1     155.981 147.686 147.417  1.00  0.00     0.293 HD
ENDBRANCH   6  24
BRANCH   8  26
ATOM     26  O   UNL     1     155.532 151.483 150.539  1.00  0.00    -0.508 OA
ATOM     27  H   UNL     1     156.533 151.461 150.384  1.00  0.00     0.293 HD
ENDBRANCH   8  26
TORSDOF 6
ENDMDL
MODEL 4
REMARK VINA RESULT:    -8.754      1.120      6.720
REMARK INTER + INTRA:         -10.269
REMARK INTER:                 -10.737
REMARK INTRA:                   0.468
REMARK UNBOUND:                 0.276
REMARK SMILES O=c1c(O)c(-c2ccc(O)c(O)c2)oc2cc(O)cc(O)c12
REMARK SMILES IDX 5 1 3 2 2 3 1 4 22 5 20 6 19 7 17 8 16 9 15 10 14 11 6 12
REMARK SMILES IDX 7 13 8 14 9 15 13 16 11 17 10 18 12 20 4 22 21 24 18 26
REMARK H PARENT 10 19 12 21 4 23 21 25 18 27
REMARK Flexibility Score: inf
ROOT
ATOM      1  C   UNL     1     150.692 149.069 149.601  1.00  0.00     0.180 A 
ATOM      2  C   UNL     1     149.988 148.120 148.839  1.00  0.00     0.208 A 
ATOM      3  C   UNL     1     148.626 147.908 149.108  1.00  0.00     0.238 A 
ATOM      4  O   UNL     1     147.984 147.112 148.374  1.00  0.00    -0.285 OA
ATOM      5  C   UNL     1     147.999 148.605 150.169  1.00  0.00     0.111 A 
ATOM      6  C   UNL     1     146.635 148.435 150.559  1.00  0.00     0.134 A 
ATOM      7  C   UNL     1     146.095 149.256 151.557  1.00  0.00     0.093 A 
ATOM      8  C   UNL     1     146.882 150.196 152.222  1.00  0.00     0.123 A 
ATOM      9  C   UNL     1     148.230 150.331 151.887  1.00  0.00     0.094 A 
ATOM     10  C   UNL     1     148.788 149.553 150.870  1.00  0.00     0.146 A 
ATOM     11  O   UNL     1     150.069 149.731 150.569  1.00  0.00    -0.452 OA
ENDROOT
BRANCH   1  12
ATOM     12  C   UNL     1     152.126 149.359 149.368  1.00  0.00     0.025 A 
ATOM     13  C   UNL     1     152.737 150.507 149.899  1.00  0.00     0.016 A 
ATOM     14  C   UNL     1     154.096 150.746 149.686  1.00  0.00     0.051 A 
ATOM     15  C   UNL     1     154.869 149.839 148.956  1.00  0.00     0.157 A 
ATOM     16  C   UNL     1     152.908 148.438 148.651  1.00  0.00     0.062 A 
ATOM     17  C   UNL     1     154.274 148.677 148.437  1.00  0.00     0.158 A 
BRANCH  15  18
ATOM     18  O   UNL     1     156.224 150.105 148.758  1.00  0.00    -0.504 OA
ATOM     19  H   UNL     1     156.564 151.035 148.550  1.00  0.00     0.293 HD
ENDBRANCH  15  18
BRANCH  17  20
ATOM     20  O   UNL     1     155.039 147.763 147.713  1.00  0.00    -0.504 OA
ATOM     21  H   UNL     1     156.011 147.589 147.936  1.00  0.00     0.293 HD
ENDBRANCH  17  20
ENDBRANCH   1  12
BRANCH   2  22
ATOM     22  O   UNL     1     150.643 147.388 147.847  1.00  0.00    -0.502 OA
ATOM     23  H   UNL     1     150.931 147.800 146.967  1.00  0.00     0.293 HD
ENDBRANCH   2  22
BRANCH   6  24
ATOM     24  O   UNL     1     145.783 147.466 150.023  1.00  0.00    -0.507 OA
ATOM     25  H   UNL     1     144.777 147.473 150.101  1.00  0.00     0.293 HD
ENDBRANCH   6  24
BRANCH   8  26
ATOM     26  O   UNL     1     146.315 150.983 153.221  1.00  0.00    -0.508 OA
ATOM     27  H   UNL     1     146.545 150.847 154.198  1.00  0.00     0.293 HD
ENDBRANCH   8  26
TORSDOF 6
ENDMDL
MODEL 5
REMARK VINA RESULT:    -8.750      1.454      7.152
REMARK INTER + INTRA:         -10.264
REMARK INTER:                 -10.572
REMARK INTRA:                   0.309
REMARK UNBOUND:                 0.276
REMARK SMILES O=c1c(O)c(-c2ccc(O)c(O)c2)oc2cc(O)cc(O)c12
REMARK SMILES IDX 5 1 3 2 2 3 1 4 22 5 20 6 19 7 17 8 16 9 15 10 14 11 6 12
REMARK SMILES IDX 7 13 8 14 9 15 13 16 11 17 10 18 12 20 4 22 21 24 18 26
REMARK H PARENT 10 19 12 21 4 23 21 25 18 27
REMARK Flexibility Score: inf
ROOT
ATOM      1  C   UNL     1     150.568 149.469 150.476  1.00  0.00     0.180 A 
ATOM      2  C   UNL     1     150.723 150.269 151.622  1.00  0.00     0.208 A 
ATOM      3  C   UNL     1     149.582 150.634 152.355  1.00  0.00     0.238 A 
ATOM      4  O   UNL     1     149.735 151.287 153.421  1.00  0.00    -0.285 OA
ATOM      5  C   UNL     1     148.299 150.242 151.905  1.00  0.00     0.111 A 
ATOM      6  C   UNL     1     147.071 150.593 152.546  1.00  0.00     0.134 A 
ATOM      7  C   UNL     1     145.867 150.060 152.070  1.00  0.00     0.093 A 
ATOM      8  C   UNL     1     145.837 149.241 150.941  1.00  0.00     0.123 A 
ATOM      9  C   UNL     1     147.025 148.937 150.275  1.00  0.00     0.094 A 
ATOM     10  C   UNL     1     148.246 149.423 150.748  1.00  0.00     0.146 A 
ATOM     11  O   UNL     1     149.354 149.090 150.096  1.00  0.00    -0.452 OA
ENDROOT
BRANCH   1  12
ATOM     12  C   UNL     1     151.723 149.032 149.659  1.00  0.00     0.025 A 
ATOM     13  C   UNL     1     152.913 149.778 149.614  1.00  0.00     0.016 A 
ATOM     14  C   UNL     1     153.998 149.333 148.855  1.00  0.00     0.051 A 
ATOM     15  C   UNL     1     153.919 148.132 148.143  1.00  0.00     0.157 A 
ATOM     16  C   UNL     1     151.653 147.816 148.959  1.00  0.00     0.062 A 
ATOM     17  C   UNL     1     152.742 147.367 148.197  1.00  0.00     0.158 A 
BRANCH  15  18
ATOM     18  O   UNL     1     155.017 147.714 147.392  1.00  0.00    -0.504 OA
ATOM     19  H   UNL     1     155.726 147.099 147.772  1.00  0.00     0.293 HD
ENDBRANCH  15  18
BRANCH  17  20
ATOM     20  O   UNL     1     152.657 146.165 147.496  1.00  0.00    -0.504 OA
ATOM     21  H   UNL     1     153.127 145.328 147.817  1.00  0.00     0.293 HD
ENDBRANCH  17  20
ENDBRANCH   1  12
BRANCH   2  22
ATOM     22  O   UNL     1     151.992 150.709 152.006  1.00  0.00    -0.502 OA
ATOM     23  H   UNL     1     152.228 150.912 152.971  1.00  0.00     0.293 HD
ENDBRANCH   2  22
BRANCH   6  24
ATOM     24  O   UNL     1     146.976 151.474 153.627  1.00  0.00    -0.507 OA
ATOM     25  H   UNL     1     147.745 151.998 154.015  1.00  0.00     0.293 HD
ENDBRANCH   6  24
BRANCH   8  26
ATOM     26  O   UNL     1     144.619 148.743 150.486  1.00  0.00    -0.508 OA
ATOM     27  H   UNL     1     143.869 149.359 150.194  1.00  0.00     0.293 HD
ENDBRANCH   8  26
TORSDOF 6
ENDMDL
MODEL 6
REMARK VINA RESULT:    -8.494      1.383      7.288
REMARK INTER + INTRA:          -9.955
REMARK INTER:                 -10.042
REMARK INTRA:                   0.087
REMARK UNBOUND:                 0.276
REMARK SMILES O=c1c(O)c(-c2ccc(O)c(O)c2)oc2cc(O)cc(O)c12
REMARK SMILES IDX 5 1 3 2 2 3 1 4 22 5 20 6 19 7 17 8 16 9 15 10 14 11 6 12
REMARK SMILES IDX 7 13 8 14 9 15 13 16 11 17 10 18 12 20 4 22 21 24 18 26
REMARK H PARENT 10 19 12 21 4 23 21 25 18 27
REMARK Flexibility Score: inf
ROOT
ATOM      1  C   UNL     1     150.162 149.188 150.403  1.00  0.00     0.180 A 
ATOM      2  C   UNL     1     150.233 150.050 151.511  1.00  0.00     0.208 A 
ATOM      3  C   UNL     1     149.051 150.383 152.191  1.00  0.00     0.238 A 
ATOM      4  O   UNL     1     149.131 151.094 153.227  1.00  0.00    -0.285 OA
ATOM      5  C   UNL     1     147.807 149.896 151.723  1.00  0.00     0.111 A 
ATOM      6  C   UNL     1     146.541 150.205 152.309  1.00  0.00     0.134 A 
ATOM      7  C   UNL     1     145.385 149.581 151.824  1.00  0.00     0.093 A 
ATOM      8  C   UNL     1     145.438 148.708 150.738  1.00  0.00     0.123 A 
ATOM      9  C   UNL     1     146.662 148.442 150.123  1.00  0.00     0.094 A 
ATOM     10  C   UNL     1     147.838 149.020 150.607  1.00  0.00     0.146 A 
ATOM     11  O   UNL     1     148.984 148.722 150.007  1.00  0.00    -0.452 OA
ENDROOT
BRANCH   1  12
ATOM     12  C   UNL     1     151.366 148.781 149.643  1.00  0.00     0.025 A 
ATOM     13  C   UNL     1     151.575 147.444 149.264  1.00  0.00     0.016 A 
ATOM     14  C   UNL     1     152.707 147.088 148.526  1.00  0.00     0.051 A 
ATOM     15  C   UNL     1     153.637 148.059 148.143  1.00  0.00     0.157 A 
ATOM     16  C   UNL     1     152.291 149.758 149.240  1.00  0.00     0.062 A 
ATOM     17  C   UNL     1     153.428 149.402 148.499  1.00  0.00     0.158 A 
BRANCH  15  18
ATOM     18  O   UNL     1     154.758 147.674 147.409  1.00  0.00    -0.504 OA
ATOM     19  H   UNL     1     155.694 147.960 147.666  1.00  0.00     0.293 HD
ENDBRANCH  15  18
BRANCH  17  20
ATOM     20  O   UNL     1     154.347 150.378 148.115  1.00  0.00    -0.504 OA
ATOM     21  H   UNL     1     155.244 150.135 147.713  1.00  0.00     0.293 HD
ENDBRANCH  17  20
ENDBRANCH   1  12
BRANCH   2  22
ATOM     22  O   UNL     1     151.462 150.581 151.911  1.00  0.00    -0.502 OA
ATOM     23  H   UNL     1     151.642 150.880 152.863  1.00  0.00     0.293 HD
ENDBRANCH   2  22
BRANCH   6  24
ATOM     24  O   UNL     1     146.361 151.130 153.341  1.00  0.00    -0.507 OA
ATOM     25  H   UNL     1     146.348 150.905 154.324  1.00  0.00     0.293 HD
ENDBRANCH   6  24
BRANCH   8  26
ATOM     26  O   UNL     1     144.266 148.118 150.271  1.00  0.00    -0.508 OA
ATOM     27  H   UNL     1     144.028 147.160 150.498  1.00  0.00     0.293 HD
ENDBRANCH   8  26
TORSDOF 6
ENDMDL
MODEL 7
REMARK VINA RESULT:    -7.974      1.579      6.862
REMARK INTER + INTRA:          -9.329
REMARK INTER:                  -9.416
REMARK INTRA:                   0.087
REMARK UNBOUND:                 0.276
REMARK SMILES O=c1c(O)c(-c2ccc(O)c(O)c2)oc2cc(O)cc(O)c12
REMARK SMILES IDX 5 1 3 2 2 3 1 4 22 5 20 6 19 7 17 8 16 9 15 10 14 11 6 12
REMARK SMILES IDX 7 13 8 14 9 15 13 16 11 17 10 18 12 20 4 22 21 24 18 26
REMARK H PARENT 10 19 12 21 4 23 21 25 18 27
REMARK Flexibility Score: inf
ROOT
ATOM      1  C   UNL     1     148.670 148.295 150.140  1.00  0.00     0.180 A 
ATOM      2  C   UNL     1     147.459 147.710 149.732  1.00  0.00     0.208 A 
ATOM      3  C   UNL     1     146.262 148.136 150.330  1.00  0.00     0.238 A 
ATOM      4  O   UNL     1     145.176 147.662 149.907  1.00  0.00    -0.285 OA
ATOM      5  C   UNL     1     146.296 149.100 151.366  1.00  0.00     0.111 A 
ATOM      6  C   UNL     1     145.148 149.573 152.074  1.00  0.00     0.134 A 
ATOM      7  C   UNL     1     145.290 150.606 153.008  1.00  0.00     0.093 A 
ATOM      8  C   UNL     1     146.543 151.141 153.307  1.00  0.00     0.123 A 
ATOM      9  C   UNL     1     147.678 150.648 152.662  1.00  0.00     0.094 A 
ATOM     10  C   UNL     1     147.564 149.644 151.697  1.00  0.00     0.146 A 
ATOM     11  O   UNL     1     148.667 149.220 151.092  1.00  0.00    -0.452 OA
ENDROOT
BRANCH   1  12
ATOM     12  C   UNL     1     149.971 147.909 149.546  1.00  0.00     0.025 A 
ATOM     13  C   UNL     1     150.306 146.562 149.328  1.00  0.00     0.016 A 
ATOM     14  C   UNL     1     151.528 146.223 148.744  1.00  0.00     0.051 A 
ATOM     15  C   UNL     1     152.428 147.220 148.356  1.00  0.00     0.157 A 
ATOM     16  C   UNL     1     150.867 148.910 149.137  1.00  0.00     0.062 A 
ATOM     17  C   UNL     1     152.096 148.571 148.550  1.00  0.00     0.158 A 
BRANCH  15  18
ATOM     18  O   UNL     1     153.642 146.852 147.777  1.00  0.00    -0.504 OA
ATOM     19  H   UNL     1     153.841 147.011 146.798  1.00  0.00     0.293 HD
ENDBRANCH  15  18
BRANCH  17  20
ATOM     20  O   UNL     1     152.984 149.573 148.159  1.00  0.00    -0.504 OA
ATOM     21  H   UNL     1     152.841 150.108 147.311  1.00  0.00     0.293 HD
ENDBRANCH  17  20
ENDBRANCH   1  12
BRANCH   2  22
ATOM     22  O   UNL     1     147.455 146.705 148.761  1.00  0.00    -0.502 OA
ATOM     23  H   UNL     1     146.604 146.381 148.317  1.00  0.00     0.293 HD
ENDBRANCH   2  22
BRANCH   6  24
ATOM     24  O   UNL     1     143.862 149.048 151.919  1.00  0.00    -0.507 OA
ATOM     25  H   UNL     1     143.042 149.372 152.408  1.00  0.00     0.293 HD
ENDBRANCH   6  24
BRANCH   8  26
ATOM     26  O   UNL     1     146.649 152.156 154.254  1.00  0.00    -0.508 OA
ATOM     27  H   UNL     1     146.214 152.078 155.166  1.00  0.00     0.293 HD
ENDBRANCH   8  26
TORSDOF 6
ENDMDL
MODEL 8
REMARK VINA RESULT:    -7.969      1.664      3.433
REMARK INTER + INTRA:          -9.324
REMARK INTER:                  -9.794
REMARK INTRA:                   0.471
REMARK UNBOUND:                 0.276
REMARK SMILES O=c1c(O)c(-c2ccc(O)c(O)c2)oc2cc(O)cc(O)c12
REMARK SMILES IDX 5 1 3 2 2 3 1 4 22 5 20 6 19 7 17 8 16 9 15 10 14 11 6 12
REMARK SMILES IDX 7 13 8 14 9 15 13 16 11 17 10 18 12 20 4 22 21 24 18 26
REMARK H PARENT 10 19 12 21 4 23 21 25 18 27
REMARK Flexibility Score: inf
ROOT
ATOM      1  C   UNL     1     149.226 148.865 150.318  1.00  0.00     0.180 A 
ATOM      2  C   UNL     1     150.608 149.124 150.348  1.00  0.00     0.208 A 
ATOM      3  C   UNL     1     151.443 148.464 149.431  1.00  0.00     0.238 A 
ATOM      4  O   UNL     1     152.668 148.757 149.414  1.00  0.00    -0.285 OA
ATOM      5  C   UNL     1     150.897 147.514 148.535  1.00  0.00     0.111 A 
ATOM      6  C   UNL     1     151.657 146.754 147.594  1.00  0.00     0.134 A 
ATOM      7  C   UNL     1     150.995 145.920 146.685  1.00  0.00     0.093 A 
ATOM      8  C   UNL     1     149.609 145.769 146.722  1.00  0.00     0.123 A 
ATOM      9  C   UNL     1     148.862 146.464 147.674  1.00  0.00     0.094 A 
ATOM     10  C   UNL     1     149.490 147.333 148.570  1.00  0.00     0.146 A 
ATOM     11  O   UNL     1     148.739 147.992 149.444  1.00  0.00    -0.452 OA
ENDROOT
BRANCH   1  12
ATOM     12  C   UNL     1     148.280 149.531 151.242  1.00  0.00     0.025 A 
ATOM     13  C   UNL     1     148.719 150.472 152.187  1.00  0.00     0.016 A 
ATOM     14  C   UNL     1     147.805 151.105 153.032  1.00  0.00     0.051 A 
ATOM     15  C   UNL     1     146.439 150.822 152.936  1.00  0.00     0.157 A 
ATOM     16  C   UNL     1     146.906 149.261 151.134  1.00  0.00     0.062 A 
ATOM     17  C   UNL     1     145.985 149.897 151.981  1.00  0.00     0.158 A 
BRANCH  15  18
ATOM     18  O   UNL     1     145.549 151.468 153.794  1.00  0.00    -0.504 OA
ATOM     19  H   UNL     1     145.242 151.051 154.663  1.00  0.00     0.293 HD
ENDBRANCH  15  18
BRANCH  17  20
ATOM     20  O   UNL     1     144.624 149.613 151.874  1.00  0.00    -0.504 OA
ATOM     21  H   UNL     1     143.964 149.898 152.587  1.00  0.00     0.293 HD
ENDBRANCH  17  20
ENDBRANCH   1  12
BRANCH   2  22
ATOM     22  O   UNL     1     151.138 150.008 151.291  1.00  0.00    -0.502 OA
ATOM     23  H   UNL     1     151.976 150.549 151.118  1.00  0.00     0.293 HD
ENDBRANCH   2  22
BRANCH   6  24
ATOM     24  O   UNL     1     153.053 146.761 147.527  1.00  0.00    -0.507 OA
ATOM     25  H   UNL     1     153.592 146.716 146.676  1.00  0.00     0.293 HD
ENDBRANCH   6  24
BRANCH   8  26
ATOM     26  O   UNL     1     148.985 144.917 145.814  1.00  0.00    -0.508 OA
ATOM     27  H   UNL     1     148.350 144.189 146.119  1.00  0.00     0.293 HD
ENDBRANCH   8  26
TORSDOF 6
ENDMDL
MODEL 9
REMARK VINA RESULT:    -7.861      1.298      2.821
REMARK INTER + INTRA:          -9.193
REMARK INTER:                  -9.654
REMARK INTRA:                   0.461
REMARK UNBOUND:                 0.276
REMARK SMILES O=c1c(O)c(-c2ccc(O)c(O)c2)oc2cc(O)cc(O)c12
REMARK SMILES IDX 5 1 3 2 2 3 1 4 22 5 20 6 19 7 17 8 16 9 15 10 14 11 6 12
REMARK SMILES IDX 7 13 8 14 9 15 13 16 11 17 10 18 12 20 4 22 21 24 18 26
REMARK H PARENT 10 19 12 21 4 23 21 25 18 27
REMARK Flexibility Score: inf
ROOT
ATOM      1  C   UNL     1     149.279 149.319 150.752  1.00  0.00     0.180 A 
ATOM      2  C   UNL     1     150.408 150.031 151.194  1.00  0.00     0.208 A 
ATOM      3  C   UNL     1     151.649 149.783 150.586  1.00  0.00     0.238 A 
ATOM      4  O   UNL     1     152.640 150.478 150.935  1.00  0.00    -0.285 OA
ATOM      5  C   UNL     1     151.758 148.789 149.584  1.00  0.00     0.111 A 
ATOM      6  C   UNL     1     152.976 148.423 148.932  1.00  0.00     0.134 A 
ATOM      7  C   UNL     1     152.945 147.499 147.880  1.00  0.00     0.093 A 
ATOM      8  C   UNL     1     151.755 146.880 147.499  1.00  0.00     0.123 A 
ATOM      9  C   UNL     1     150.569 147.189 148.167  1.00  0.00     0.094 A 
ATOM     10  C   UNL     1     150.561 148.136 149.195  1.00  0.00     0.146 A 
ATOM     11  O   UNL     1     149.407 148.415 149.787  1.00  0.00    -0.452 OA
ENDROOT
BRANCH   1  12
ATOM     12  C   UNL     1     147.934 149.535 151.333  1.00  0.00     0.025 A 
ATOM     13  C   UNL     1     147.741 150.376 152.441  1.00  0.00     0.016 A 
ATOM     14  C   UNL     1     146.460 150.583 152.957  1.00  0.00     0.051 A 
ATOM     15  C   UNL     1     145.352 149.968 152.368  1.00  0.00     0.157 A 
ATOM     16  C   UNL     1     146.817 148.933 150.730  1.00  0.00     0.062 A 
ATOM     17  C   UNL     1     145.529 149.141 151.246  1.00  0.00     0.158 A 
BRANCH  15  18
ATOM     18  O   UNL     1     144.085 150.191 152.905  1.00  0.00    -0.504 OA
ATOM     19  H   UNL     1     143.243 150.117 152.348  1.00  0.00     0.293 HD
ENDBRANCH  15  18
BRANCH  17  20
ATOM     20  O   UNL     1     144.429 148.528 150.648  1.00  0.00    -0.504 OA
ATOM     21  H   UNL     1     144.336 147.520 150.612  1.00  0.00     0.293 HD
ENDBRANCH  17  20
ENDBRANCH   1  12
BRANCH   2  22
ATOM     22  O   UNL     1     150.293 150.954 152.237  1.00  0.00    -0.502 OA
ATOM     23  H   UNL     1     149.422 151.113 152.729  1.00  0.00     0.293 HD
ENDBRANCH   2  22
BRANCH   6  24
ATOM     24  O   UNL     1     154.234 148.914 149.291  1.00  0.00    -0.507 OA
ATOM     25  H   UNL     1     154.674 148.776 150.188  1.00  0.00     0.293 HD
ENDBRANCH   6  24
BRANCH   8  26
ATOM     26  O   UNL     1     151.764 145.953 146.460  1.00  0.00    -0.508 OA
ATOM     27  H   UNL     1     151.863 144.960 146.637  1.00  0.00     0.293 HD
ENDBRANCH   8  26
TORSDOF 6
ENDMDL
