MODEL 1
REMARK VINA RESULT:    -7.775      0.000      0.000
REMARK INTER + INTRA:          -9.696
REMARK INTER:                  -9.365
REMARK INTRA:                  -0.331
REMARK UNBOUND:                -0.331
REMARK SMILES O=c1c(O)c(-c2ccc(O)c(O)c2)oc2cc(O)cc(O)c12
REMARK SMILES IDX 5 1 3 2 2 3 1 4 22 5 20 6 19 7 17 8 16 9 15 10 14 11 6 12
REMARK SMILES IDX 7 13 8 14 9 15 13 16 11 17 10 18 12 20 4 22 21 24 18 26
REMARK H PARENT 10 19 12 21 4 23 21 25 18 27
REMARK Flexibility Score: inf
ROOT
ATOM      1  C   UNL     1     -25.279 -19.256 -13.565  1.00  0.00     0.180 A 
ATOM      2  C   UNL     1     -26.051 -19.544 -12.423  1.00  0.00     0.208 A 
ATOM      3  C   UNL     1     -26.433 -20.873 -12.181  1.00  0.00     0.238 A 
ATOM      4  O   UNL     1     -27.134 -21.142 -11.167  1.00  0.00    -0.285 OA
ATOM      5  C   UNL     1     -26.024 -21.889 -13.069  1.00  0.00     0.111 A 
ATOM      6  C   UNL     1     -26.363 -23.254 -12.894  1.00  0.00     0.134 A 
ATOM      7  C   UNL     1     -25.908 -24.206 -13.818  1.00  0.00     0.093 A 
ATOM      8  C   UNL     1     -25.121 -23.822 -14.909  1.00  0.00     0.123 A 
ATOM      9  C   UNL     1     -24.785 -22.480 -15.085  1.00  0.00     0.094 A 
ATOM     10  C   UNL     1     -25.230 -21.514 -14.177  1.00  0.00     0.146 A 
ATOM     11  O   UNL     1     -24.898 -20.243 -14.372  1.00  0.00    -0.452 OA
ENDROOT
BRANCH   1  12
ATOM     12  C   UNL     1     -24.853 -17.878 -13.899  1.00  0.00     0.025 A 
ATOM     13  C   UNL     1     -25.629 -17.053 -14.728  1.00  0.00     0.016 A 
ATOM     14  C   UNL     1     -25.194 -15.765 -15.048  1.00  0.00     0.051 A 
ATOM     15  C   UNL     1     -23.976 -15.280 -14.560  1.00  0.00     0.157 A 
ATOM     16  C   UNL     1     -23.621 -17.402 -13.426  1.00  0.00     0.062 A 
ATOM     17  C   UNL     1     -23.176 -16.112 -13.740  1.00  0.00     0.158 A 
BRANCH  15  18
ATOM     18  O   UNL     1     -23.602 -13.982 -14.913  1.00  0.00    -0.504 OA
ATOM     19  H   UNL     1     -24.129 -13.392 -15.539  1.00  0.00     0.293 HD
ENDBRANCH  15  18
BRANCH  17  20
ATOM     20  O   UNL     1     -21.946 -15.701 -13.224  1.00  0.00    -0.504 OA
ATOM     21  H   UNL     1     -21.802 -15.420 -12.265  1.00  0.00     0.293 HD
ENDBRANCH  17  20
ENDBRANCH   1  12
BRANCH   2  22
ATOM     22  O   UNL     1     -26.402 -18.527 -11.533  1.00  0.00    -0.502 OA
ATOM     23  H   UNL     1     -25.951 -17.619 -11.542  1.00  0.00     0.293 HD
ENDBRANCH   2  22
BRANCH   6  24
ATOM     24  O   UNL     1     -27.146 -23.666 -11.815  1.00  0.00    -0.507 OA
ATOM     25  H   UNL     1     -27.144 -24.627 -11.492  1.00  0.00     0.293 HD
ENDBRANCH   6  24
BRANCH   8  26
ATOM     26  O   UNL     1     -24.669 -24.769 -15.825  1.00  0.00    -0.508 OA
ATOM     27  H   UNL     1     -25.043 -25.711 -15.843  1.00  0.00     0.293 HD
ENDBRANCH   8  26
TORSDOF 6
ENDMDL
MODEL 2
REMARK VINA RESULT:    -7.621      1.946      7.242
REMARK INTER + INTRA:          -9.512
REMARK INTER:                  -9.840
REMARK INTRA:                   0.329
REMARK UNBOUND:                -0.331
REMARK SMILES O=c1c(O)c(-c2ccc(O)c(O)c2)oc2cc(O)cc(O)c12
REMARK SMILES IDX 5 1 3 2 2 3 1 4 22 5 20 6 19 7 17 8 16 9 15 10 14 11 6 12
REMARK SMILES IDX 7 13 8 14 9 15 13 16 11 17 10 18 12 20 4 22 21 24 18 26
REMARK H PARENT 10 19 12 21 4 23 21 25 18 27
REMARK Flexibility Score: inf
ROOT
ATOM      1  C   UNL     1     -23.993 -18.623 -13.776  1.00  0.00     0.180 A 
ATOM      2  C   UNL     1     -25.136 -18.051 -14.369  1.00  0.00     0.208 A 
ATOM      3  C   UNL     1     -25.108 -16.693 -14.723  1.00  0.00     0.238 A 
ATOM      4  O   UNL     1     -26.129 -16.168 -15.244  1.00  0.00    -0.285 OA
ATOM      5  C   UNL     1     -23.939 -15.938 -14.496  1.00  0.00     0.111 A 
ATOM      6  C   UNL     1     -23.828 -14.565 -14.828  1.00  0.00     0.134 A 
ATOM      7  C   UNL     1     -22.627 -13.885 -14.579  1.00  0.00     0.093 A 
ATOM      8  C   UNL     1     -21.536 -14.550 -14.009  1.00  0.00     0.123 A 
ATOM      9  C   UNL     1     -21.641 -15.902 -13.681  1.00  0.00     0.094 A 
ATOM     10  C   UNL     1     -22.831 -16.598 -13.918  1.00  0.00     0.146 A 
ATOM     11  O   UNL     1     -22.903 -17.883 -13.592  1.00  0.00    -0.452 OA
ENDROOT
BRANCH   1  12
ATOM     12  C   UNL     1     -23.951 -20.043 -13.358  1.00  0.00     0.025 A 
ATOM     13  C   UNL     1     -22.755 -20.777 -13.380  1.00  0.00     0.016 A 
ATOM     14  C   UNL     1     -22.745 -22.121 -13.003  1.00  0.00     0.051 A 
ATOM     15  C   UNL     1     -23.925 -22.763 -12.611  1.00  0.00     0.157 A 
ATOM     16  C   UNL     1     -25.140 -20.689 -12.986  1.00  0.00     0.062 A 
ATOM     17  C   UNL     1     -25.141 -22.037 -12.606  1.00  0.00     0.158 A 
BRANCH  15  18
ATOM     18  O   UNL     1     -23.847 -24.106 -12.242  1.00  0.00    -0.504 OA
ATOM     19  H   UNL     1     -24.608 -24.624 -11.827  1.00  0.00     0.293 HD
ENDBRANCH  15  18
BRANCH  17  20
ATOM     20  O   UNL     1     -26.359 -22.610 -12.236  1.00  0.00    -0.504 OA
ATOM     21  H   UNL     1     -26.740 -23.446 -12.655  1.00  0.00     0.293 HD
ENDBRANCH  17  20
ENDBRANCH   1  12
BRANCH   2  22
ATOM     22  O   UNL     1     -26.264 -18.834 -14.627  1.00  0.00    -0.502 OA
ATOM     23  H   UNL     1     -26.203 -19.740 -15.077  1.00  0.00     0.293 HD
ENDBRANCH   2  22
BRANCH   6  24
ATOM     24  O   UNL     1     -24.899 -13.875 -15.398  1.00  0.00    -0.507 OA
ATOM     25  H   UNL     1     -24.800 -12.926 -15.740  1.00  0.00     0.293 HD
ENDBRANCH   6  24
BRANCH   8  26
ATOM     26  O   UNL     1     -20.342 -13.875 -13.764  1.00  0.00    -0.508 OA
ATOM     27  H   UNL     1     -19.528 -14.006 -14.354  1.00  0.00     0.293 HD
ENDBRANCH   8  26
TORSDOF 6
ENDMDL
MODEL 3
REMARK VINA RESULT:    -7.468      0.589      1.435
REMARK INTER + INTRA:          -9.327
REMARK INTER:                  -9.024
REMARK INTRA:                  -0.303
REMARK UNBOUND:                -0.331
REMARK SMILES O=c1c(O)c(-c2ccc(O)c(O)c2)oc2cc(O)cc(O)c12
REMARK SMILES IDX 5 1 3 2 2 3 1 4 22 5 20 6 19 7 17 8 16 9 15 10 14 11 6 12
REMARK SMILES IDX 7 13 8 14 9 15 13 16 11 17 10 18 12 20 4 22 21 24 18 26
REMARK H PARENT 10 19 12 21 4 23 21 25 18 27
REMARK Flexibility Score: inf
ROOT
ATOM      1  C   UNL     1     -25.068 -19.350 -13.532  1.00  0.00     0.180 A 
ATOM      2  C   UNL     1     -25.884 -19.574 -12.406  1.00  0.00     0.208 A 
ATOM      3  C   UNL     1     -26.364 -20.870 -12.164  1.00  0.00     0.238 A 
ATOM      4  O   UNL     1     -27.105 -21.081 -11.165  1.00  0.00    -0.285 OA
ATOM      5  C   UNL     1     -26.009 -21.920 -13.036  1.00  0.00     0.111 A 
ATOM      6  C   UNL     1     -26.447 -23.255 -12.860  1.00  0.00     0.134 A 
ATOM      7  C   UNL     1     -26.041 -24.245 -13.767  1.00  0.00     0.093 A 
ATOM      8  C   UNL     1     -25.205 -23.926 -14.843  1.00  0.00     0.123 A 
ATOM      9  C   UNL     1     -24.771 -22.612 -15.020  1.00  0.00     0.094 A 
ATOM     10  C   UNL     1     -25.166 -21.610 -14.128  1.00  0.00     0.146 A 
ATOM     11  O   UNL     1     -24.741 -20.367 -14.324  1.00  0.00    -0.452 OA
ENDROOT
BRANCH   1  12
ATOM     12  C   UNL     1     -24.539 -18.008 -13.865  1.00  0.00     0.025 A 
ATOM     13  C   UNL     1     -23.244 -17.618 -13.489  1.00  0.00     0.016 A 
ATOM     14  C   UNL     1     -22.775 -16.339 -13.794  1.00  0.00     0.051 A 
ATOM     15  C   UNL     1     -23.589 -15.421 -14.466  1.00  0.00     0.157 A 
ATOM     16  C   UNL     1     -25.365 -17.082 -14.520  1.00  0.00     0.062 A 
ATOM     17  C   UNL     1     -24.904 -15.797 -14.831  1.00  0.00     0.158 A 
BRANCH  15  18
ATOM     18  O   UNL     1     -23.059 -14.160 -14.746  1.00  0.00    -0.504 OA
ATOM     19  H   UNL     1     -22.444 -13.655 -14.125  1.00  0.00     0.293 HD
ENDBRANCH  15  18
BRANCH  17  20
ATOM     20  O   UNL     1     -25.777 -14.934 -15.495  1.00  0.00    -0.504 OA
ATOM     21  H   UNL     1     -26.317 -14.214 -15.037  1.00  0.00     0.293 HD
ENDBRANCH  17  20
ENDBRANCH   1  12
BRANCH   2  22
ATOM     22  O   UNL     1     -26.181 -18.527 -11.530  1.00  0.00    -0.502 OA
ATOM     23  H   UNL     1     -26.823 -17.782 -11.775  1.00  0.00     0.293 HD
ENDBRANCH   2  22
BRANCH   6  24
ATOM     24  O   UNL     1     -27.281 -23.603 -11.796  1.00  0.00    -0.507 OA
ATOM     25  H   UNL     1     -27.607 -24.554 -11.664  1.00  0.00     0.293 HD
ENDBRANCH   6  24
BRANCH   8  26
ATOM     26  O   UNL     1     -24.800 -24.910 -15.743  1.00  0.00    -0.508 OA
ATOM     27  H   UNL     1     -24.350 -25.762 -15.430  1.00  0.00     0.293 HD
ENDBRANCH   8  26
TORSDOF 6
ENDMDL
MODEL 4
REMARK VINA RESULT:    -7.282      1.602      2.715
REMARK INTER + INTRA:          -9.103
REMARK INTER:                  -9.269
REMARK INTRA:                   0.167
REMARK UNBOUND:                -0.331
REMARK SMILES O=c1c(O)c(-c2ccc(O)c(O)c2)oc2cc(O)cc(O)c12
REMARK SMILES IDX 5 1 3 2 2 3 1 4 22 5 20 6 19 7 17 8 16 9 15 10 14 11 6 12
REMARK SMILES IDX 7 13 8 14 9 15 13 16 11 17 10 18 12 20 4 22 21 24 18 26
REMARK H PARENT 10 19 12 21 4 23 21 25 18 27
REMARK Flexibility Score: inf
ROOT
ATOM      1  C   UNL     1     -24.352 -19.390 -13.491  1.00  0.00     0.180 A 
ATOM      2  C   UNL     1     -23.241 -20.254 -13.560  1.00  0.00     0.208 A 
ATOM      3  C   UNL     1     -23.409 -21.603 -13.209  1.00  0.00     0.238 A 
ATOM      4  O   UNL     1     -22.419 -22.383 -13.256  1.00  0.00    -0.285 OA
ATOM      5  C   UNL     1     -24.680 -22.068 -12.815  1.00  0.00     0.111 A 
ATOM      6  C   UNL     1     -24.934 -23.413 -12.449  1.00  0.00     0.134 A 
ATOM      7  C   UNL     1     -26.230 -23.799 -12.078  1.00  0.00     0.093 A 
ATOM      8  C   UNL     1     -27.276 -22.869 -12.066  1.00  0.00     0.123 A 
ATOM      9  C   UNL     1     -27.031 -21.544 -12.425  1.00  0.00     0.094 A 
ATOM     10  C   UNL     1     -25.745 -21.137 -12.797  1.00  0.00     0.146 A 
ATOM     11  O   UNL     1     -25.540 -19.868 -13.130  1.00  0.00    -0.452 OA
ENDROOT
BRANCH   1  12
ATOM     12  C   UNL     1     -24.252 -17.952 -13.827  1.00  0.00     0.025 A 
ATOM     13  C   UNL     1     -25.240 -17.307 -14.588  1.00  0.00     0.016 A 
ATOM     14  C   UNL     1     -25.111 -15.955 -14.911  1.00  0.00     0.051 A 
ATOM     15  C   UNL     1     -23.993 -15.224 -14.497  1.00  0.00     0.157 A 
ATOM     16  C   UNL     1     -23.118 -17.227 -13.428  1.00  0.00     0.062 A 
ATOM     17  C   UNL     1     -22.980 -15.871 -13.747  1.00  0.00     0.158 A 
BRANCH  15  18
ATOM     18  O   UNL     1     -23.926 -13.875 -14.849  1.00  0.00    -0.504 OA
ATOM     19  H   UNL     1     -23.346 -13.512 -15.591  1.00  0.00     0.293 HD
ENDBRANCH  15  18
BRANCH  17  20
ATOM     20  O   UNL     1     -21.832 -15.210 -13.306  1.00  0.00    -0.504 OA
ATOM     21  H   UNL     1     -21.378 -14.466 -13.815  1.00  0.00     0.293 HD
ENDBRANCH  17  20
ENDBRANCH   1  12
BRANCH   2  22
ATOM     22  O   UNL     1     -22.004 -19.779 -14.001  1.00  0.00    -0.502 OA
ATOM     23  H   UNL     1     -21.128 -20.106 -13.611  1.00  0.00     0.293 HD
ENDBRANCH   2  22
BRANCH   6  24
ATOM     24  O   UNL     1     -23.911 -24.362 -12.451  1.00  0.00    -0.507 OA
ATOM     25  H   UNL     1     -24.083 -25.331 -12.206  1.00  0.00     0.293 HD
ENDBRANCH   6  24
BRANCH   8  26
ATOM     26  O   UNL     1     -28.563 -23.254 -11.699  1.00  0.00    -0.508 OA
ATOM     27  H   UNL     1     -29.289 -23.404 -12.390  1.00  0.00     0.293 HD
ENDBRANCH   8  26
TORSDOF 6
ENDMDL
MODEL 5
REMARK VINA RESULT:    -7.122      2.015      2.661
REMARK INTER + INTRA:          -8.910
REMARK INTER:                  -9.341
REMARK INTRA:                   0.431
REMARK UNBOUND:                -0.331
REMARK SMILES O=c1c(O)c(-c2ccc(O)c(O)c2)oc2cc(O)cc(O)c12
REMARK SMILES IDX 5 1 3 2 2 3 1 4 22 5 20 6 19 7 17 8 16 9 15 10 14 11 6 12
REMARK SMILES IDX 7 13 8 14 9 15 13 16 11 17 10 18 12 20 4 22 21 24 18 26
REMARK H PARENT 10 19 12 21 4 23 21 25 18 27
REMARK Flexibility Score: inf
ROOT
ATOM      1  C   UNL     1     -24.449 -20.667 -13.973  1.00  0.00     0.180 A 
ATOM      2  C   UNL     1     -23.325 -21.350 -13.467  1.00  0.00     0.208 A 
ATOM      3  C   UNL     1     -23.347 -22.753 -13.425  1.00  0.00     0.238 A 
ATOM      4  O   UNL     1     -22.352 -23.374 -12.964  1.00  0.00    -0.285 OA
ATOM      5  C   UNL     1     -24.477 -23.447 -13.904  1.00  0.00     0.111 A 
ATOM      6  C   UNL     1     -24.576 -24.860 -13.901  1.00  0.00     0.134 A 
ATOM      7  C   UNL     1     -25.731 -25.476 -14.405  1.00  0.00     0.093 A 
ATOM      8  C   UNL     1     -26.786 -24.709 -14.912  1.00  0.00     0.123 A 
ATOM      9  C   UNL     1     -26.693 -23.317 -14.917  1.00  0.00     0.094 A 
ATOM     10  C   UNL     1     -25.550 -22.683 -14.418  1.00  0.00     0.146 A 
ATOM     11  O   UNL     1     -25.491 -21.356 -14.431  1.00  0.00    -0.452 OA
ENDROOT
BRANCH   1  12
ATOM     12  C   UNL     1     -24.510 -19.189 -14.033  1.00  0.00     0.025 A 
ATOM     13  C   UNL     1     -25.732 -18.512 -14.161  1.00  0.00     0.016 A 
ATOM     14  C   UNL     1     -25.762 -17.118 -14.239  1.00  0.00     0.051 A 
ATOM     15  C   UNL     1     -24.578 -16.374 -14.203  1.00  0.00     0.157 A 
ATOM     16  C   UNL     1     -23.319 -18.447 -14.019  1.00  0.00     0.062 A 
ATOM     17  C   UNL     1     -23.338 -17.049 -14.095  1.00  0.00     0.158 A 
BRANCH  15  18
ATOM     18  O   UNL     1     -24.676 -14.984 -14.280  1.00  0.00    -0.504 OA
ATOM     19  H   UNL     1     -24.705 -14.374 -13.476  1.00  0.00     0.293 HD
ENDBRANCH  15  18
BRANCH  17  20
ATOM     20  O   UNL     1     -22.115 -16.377 -14.062  1.00  0.00    -0.504 OA
ATOM     21  H   UNL     1     -22.023 -15.372 -14.023  1.00  0.00     0.293 HD
ENDBRANCH  17  20
ENDBRANCH   1  12
BRANCH   2  22
ATOM     22  O   UNL     1     -22.199 -20.640 -13.044  1.00  0.00    -0.502 OA
ATOM     23  H   UNL     1     -22.199 -19.631 -12.950  1.00  0.00     0.293 HD
ENDBRANCH   2  22
BRANCH   6  24
ATOM     24  O   UNL     1     -23.541 -25.652 -13.402  1.00  0.00    -0.507 OA
ATOM     25  H   UNL     1     -23.689 -26.305 -12.641  1.00  0.00     0.293 HD
ENDBRANCH   6  24
BRANCH   8  26
ATOM     26  O   UNL     1     -27.932 -25.322 -15.413  1.00  0.00    -0.508 OA
ATOM     27  H   UNL     1     -28.631 -24.798 -15.928  1.00  0.00     0.293 HD
ENDBRANCH   8  26
TORSDOF 6
ENDMDL
MODEL 6
REMARK VINA RESULT:    -7.004      1.965      7.083
REMARK INTER + INTRA:          -8.768
REMARK INTER:                  -8.956
REMARK INTRA:                   0.188
REMARK UNBOUND:                -0.331
REMARK SMILES O=c1c(O)c(-c2ccc(O)c(O)c2)oc2cc(O)cc(O)c12
REMARK SMILES IDX 5 1 3 2 2 3 1 4 22 5 20 6 19 7 17 8 16 9 15 10 14 11 6 12
REMARK SMILES IDX 7 13 8 14 9 15 13 16 11 17 10 18 12 20 4 22 21 24 18 26
REMARK H PARENT 10 19 12 21 4 23 21 25 18 27
REMARK Flexibility Score: inf
ROOT
ATOM      1  C   UNL     1     -24.278 -18.758 -13.724  1.00  0.00     0.180 A 
ATOM      2  C   UNL     1     -25.300 -18.020 -14.353  1.00  0.00     0.208 A 
ATOM      3  C   UNL     1     -25.077 -16.665 -14.644  1.00  0.00     0.238 A 
ATOM      4  O   UNL     1     -25.989 -15.992 -15.197  1.00  0.00    -0.285 OA
ATOM      5  C   UNL     1     -23.837 -16.077 -14.321  1.00  0.00     0.111 A 
ATOM      6  C   UNL     1     -23.531 -14.720 -14.585  1.00  0.00     0.134 A 
ATOM      7  C   UNL     1     -22.269 -14.213 -14.242  1.00  0.00     0.093 A 
ATOM      8  C   UNL     1     -21.309 -15.035 -13.643  1.00  0.00     0.123 A 
ATOM      9  C   UNL     1     -21.605 -16.373 -13.381  1.00  0.00     0.094 A 
ATOM     10  C   UNL     1     -22.859 -16.898 -13.714  1.00  0.00     0.146 A 
ATOM     11  O   UNL     1     -23.115 -18.174 -13.449  1.00  0.00    -0.452 OA
ENDROOT
BRANCH   1  12
ATOM     12  C   UNL     1     -24.444 -20.185 -13.368  1.00  0.00     0.025 A 
ATOM     13  C   UNL     1     -25.684 -20.698 -12.959  1.00  0.00     0.016 A 
ATOM     14  C   UNL     1     -25.810 -22.043 -12.606  1.00  0.00     0.051 A 
ATOM     15  C   UNL     1     -24.703 -22.898 -12.640  1.00  0.00     0.157 A 
ATOM     16  C   UNL     1     -23.327 -21.035 -13.383  1.00  0.00     0.062 A 
ATOM     17  C   UNL     1     -23.443 -22.385 -13.030  1.00  0.00     0.158 A 
BRANCH  15  18
ATOM     18  O   UNL     1     -24.897 -24.232 -12.279  1.00  0.00    -0.504 OA
ATOM     19  H   UNL     1     -25.700 -24.781 -12.551  1.00  0.00     0.293 HD
ENDBRANCH  15  18
BRANCH  17  20
ATOM     20  O   UNL     1     -22.292 -23.174 -13.081  1.00  0.00    -0.504 OA
ATOM     21  H   UNL     1     -21.724 -23.292 -13.907  1.00  0.00     0.293 HD
ENDBRANCH  17  20
ENDBRANCH   1  12
BRANCH   2  22
ATOM     22  O   UNL     1     -26.502 -18.639 -14.706  1.00  0.00    -0.502 OA
ATOM     23  H   UNL     1     -27.392 -18.155 -14.671  1.00  0.00     0.293 HD
ENDBRANCH   2  22
BRANCH   6  24
ATOM     24  O   UNL     1     -24.468 -13.875 -15.182  1.00  0.00    -0.507 OA
ATOM     25  H   UNL     1     -24.432 -12.869 -15.060  1.00  0.00     0.293 HD
ENDBRANCH   6  24
BRANCH   8  26
ATOM     26  O   UNL     1     -20.055 -14.532 -13.303  1.00  0.00    -0.508 OA
ATOM     27  H   UNL     1     -19.409 -14.197 -14.010  1.00  0.00     0.293 HD
ENDBRANCH   8  26
TORSDOF 6
ENDMDL
MODEL 7
REMARK VINA RESULT:    -6.161      1.447      7.111
REMARK INTER + INTRA:          -7.753
REMARK INTER:                  -7.448
REMARK INTRA:                  -0.305
REMARK UNBOUND:                -0.331
REMARK SMILES O=c1c(O)c(-c2ccc(O)c(O)c2)oc2cc(O)cc(O)c12
REMARK SMILES IDX 5 1 3 2 2 3 1 4 22 5 20 6 19 7 17 8 16 9 15 10 14 11 6 12
REMARK SMILES IDX 7 13 8 14 9 15 13 16 11 17 10 18 12 20 4 22 21 24 18 26
REMARK H PARENT 10 19 12 21 4 23 21 25 18 27
REMARK Flexibility Score: inf
ROOT
ATOM      1  C   UNL     1     -24.591 -19.561 -14.137  1.00  0.00     0.180 A 
ATOM      2  C   UNL     1     -23.242 -19.379 -13.777  1.00  0.00     0.208 A 
ATOM      3  C   UNL     1     -22.708 -18.080 -13.784  1.00  0.00     0.238 A 
ATOM      4  O   UNL     1     -21.498 -17.906 -13.474  1.00  0.00    -0.285 OA
ATOM      5  C   UNL     1     -23.531 -16.990 -14.131  1.00  0.00     0.111 A 
ATOM      6  C   UNL     1     -23.071 -15.650 -14.158  1.00  0.00     0.134 A 
ATOM      7  C   UNL     1     -23.956 -14.619 -14.506  1.00  0.00     0.093 A 
ATOM      8  C   UNL     1     -25.290 -14.900 -14.823  1.00  0.00     0.123 A 
ATOM      9  C   UNL     1     -25.747 -16.218 -14.798  1.00  0.00     0.094 A 
ATOM     10  C   UNL     1     -24.880 -17.261 -14.456  1.00  0.00     0.146 A 
ATOM     11  O   UNL     1     -25.342 -18.506 -14.444  1.00  0.00    -0.452 OA
ENDROOT
BRANCH   1  12
ATOM     12  C   UNL     1     -25.222 -20.900 -14.173  1.00  0.00     0.025 A 
ATOM     13  C   UNL     1     -25.015 -21.778 -15.247  1.00  0.00     0.016 A 
ATOM     14  C   UNL     1     -25.639 -23.027 -15.269  1.00  0.00     0.051 A 
ATOM     15  C   UNL     1     -26.490 -23.418 -14.230  1.00  0.00     0.157 A 
ATOM     16  C   UNL     1     -26.092 -21.281 -13.140  1.00  0.00     0.062 A 
ATOM     17  C   UNL     1     -26.723 -22.531 -13.152  1.00  0.00     0.158 A 
BRANCH  15  18
ATOM     18  O   UNL     1     -27.080 -24.681 -14.309  1.00  0.00    -0.504 OA
ATOM     19  H   UNL     1     -28.066 -24.837 -14.461  1.00  0.00     0.293 HD
ENDBRANCH  15  18
BRANCH  17  20
ATOM     20  O   UNL     1     -27.565 -22.847 -12.085  1.00  0.00    -0.504 OA
ATOM     21  H   UNL     1     -27.255 -22.938 -11.128  1.00  0.00     0.293 HD
ENDBRANCH  17  20
ENDBRANCH   1  12
BRANCH   2  22
ATOM     22  O   UNL     1     -22.461 -20.470 -13.390  1.00  0.00    -0.502 OA
ATOM     23  H   UNL     1     -22.531 -20.887 -12.469  1.00  0.00     0.293 HD
ENDBRANCH   2  22
BRANCH   6  24
ATOM     24  O   UNL     1     -21.747 -15.339 -13.846  1.00  0.00    -0.507 OA
ATOM     25  H   UNL     1     -21.436 -15.238 -12.887  1.00  0.00     0.293 HD
ENDBRANCH   6  24
BRANCH   8  26
ATOM     26  O   UNL     1     -26.169 -13.875 -15.166  1.00  0.00    -0.508 OA
ATOM     27  H   UNL     1     -25.911 -12.900 -15.065  1.00  0.00     0.293 HD
ENDBRANCH   8  26
TORSDOF 6
ENDMDL
MODEL 8
REMARK VINA RESULT:    -6.006      1.586      6.781
REMARK INTER + INTRA:          -7.566
REMARK INTER:                  -7.292
REMARK INTRA:                  -0.273
REMARK UNBOUND:                -0.331
REMARK SMILES O=c1c(O)c(-c2ccc(O)c(O)c2)oc2cc(O)cc(O)c12
REMARK SMILES IDX 5 1 3 2 2 3 1 4 22 5 20 6 19 7 17 8 16 9 15 10 14 11 6 12
REMARK SMILES IDX 7 13 8 14 9 15 13 16 11 17 10 18 12 20 4 22 21 24 18 26
REMARK H PARENT 10 19 12 21 4 23 21 25 18 27
REMARK Flexibility Score: inf
ROOT
ATOM      1  C   UNL     1     -25.904 -22.041 -13.495  1.00  0.00     0.180 A 
ATOM      2  C   UNL     1     -26.390 -21.800 -12.195  1.00  0.00     0.208 A 
ATOM      3  C   UNL     1     -26.097 -20.574 -11.578  1.00  0.00     0.238 A 
ATOM      4  O   UNL     1     -26.517 -20.351 -10.410  1.00  0.00    -0.285 OA
ATOM      5  C   UNL     1     -25.342 -19.606 -12.274  1.00  0.00     0.111 A 
ATOM      6  C   UNL     1     -25.007 -18.344 -11.725  1.00  0.00     0.134 A 
ATOM      7  C   UNL     1     -24.261 -17.432 -12.485  1.00  0.00     0.093 A 
ATOM      8  C   UNL     1     -23.845 -17.756 -13.781  1.00  0.00     0.123 A 
ATOM      9  C   UNL     1     -24.173 -18.997 -14.326  1.00  0.00     0.094 A 
ATOM     10  C   UNL     1     -24.915 -19.922 -13.584  1.00  0.00     0.146 A 
ATOM     11  O   UNL     1     -25.209 -21.098 -14.126  1.00  0.00    -0.452 OA
ENDROOT
BRANCH   1  12
ATOM     12  C   UNL     1     -26.154 -23.316 -14.205  1.00  0.00     0.025 A 
ATOM     13  C   UNL     1     -27.404 -23.602 -14.776  1.00  0.00     0.016 A 
ATOM     14  C   UNL     1     -27.623 -24.821 -15.420  1.00  0.00     0.051 A 
ATOM     15  C   UNL     1     -26.609 -25.782 -15.496  1.00  0.00     0.157 A 
ATOM     16  C   UNL     1     -25.142 -24.286 -14.260  1.00  0.00     0.062 A 
ATOM     17  C   UNL     1     -25.352 -25.512 -14.904  1.00  0.00     0.158 A 
BRANCH  15  18
ATOM     18  O   UNL     1     -26.891 -26.978 -16.158  1.00  0.00    -0.504 OA
ATOM     19  H   UNL     1     -26.304 -27.799 -16.117  1.00  0.00     0.293 HD
ENDBRANCH  15  18
BRANCH  17  20
ATOM     20  O   UNL     1     -24.295 -26.424 -14.931  1.00  0.00    -0.504 OA
ATOM     21  H   UNL     1     -23.354 -26.190 -15.213  1.00  0.00     0.293 HD
ENDBRANCH  17  20
ENDBRANCH   1  12
BRANCH   2  22
ATOM     22  O   UNL     1     -27.176 -22.756 -11.548  1.00  0.00    -0.502 OA
ATOM     23  H   UNL     1     -27.554 -23.563 -12.029  1.00  0.00     0.293 HD
ENDBRANCH   2  22
BRANCH   6  24
ATOM     24  O   UNL     1     -25.408 -17.993 -10.435  1.00  0.00    -0.507 OA
ATOM     25  H   UNL     1     -24.738 -17.718  -9.725  1.00  0.00     0.293 HD
ENDBRANCH   6  24
BRANCH   8  26
ATOM     26  O   UNL     1     -23.105 -16.849 -14.537  1.00  0.00    -0.508 OA
ATOM     27  H   UNL     1     -22.540 -17.150 -15.322  1.00  0.00     0.293 HD
ENDBRANCH   8  26
TORSDOF 6
ENDMDL
MODEL 9
REMARK VINA RESULT:    -5.969      3.075      6.064
REMARK INTER + INTRA:          -7.521
REMARK INTER:                  -7.544
REMARK INTRA:                   0.024
REMARK UNBOUND:                -0.331
REMARK SMILES O=c1c(O)c(-c2ccc(O)c(O)c2)oc2cc(O)cc(O)c12
REMARK SMILES IDX 5 1 3 2 2 3 1 4 22 5 20 6 19 7 17 8 16 9 15 10 14 11 6 12
REMARK SMILES IDX 7 13 8 14 9 15 13 16 11 17 10 18 12 20 4 22 21 24 18 26
REMARK H PARENT 10 19 12 21 4 23 21 25 18 27
REMARK Flexibility Score: inf
ROOT
ATOM      1  C   UNL     1     -22.090 -15.762 -13.700  1.00  0.00     0.180 A 
ATOM      2  C   UNL     1     -22.799 -14.997 -14.648  1.00  0.00     0.208 A 
ATOM      3  C   UNL     1     -24.116 -15.363 -14.966  1.00  0.00     0.238 A 
ATOM      4  O   UNL     1     -24.756 -14.693 -15.822  1.00  0.00    -0.285 OA
ATOM      5  C   UNL     1     -24.706 -16.471 -14.324  1.00  0.00     0.111 A 
ATOM      6  C   UNL     1     -26.030 -16.903 -14.585  1.00  0.00     0.134 A 
ATOM      7  C   UNL     1     -26.548 -18.010 -13.896  1.00  0.00     0.093 A 
ATOM      8  C   UNL     1     -25.771 -18.689 -12.951  1.00  0.00     0.123 A 
ATOM      9  C   UNL     1     -24.468 -18.267 -12.690  1.00  0.00     0.094 A 
ATOM     10  C   UNL     1     -23.931 -17.167 -13.368  1.00  0.00     0.146 A 
ATOM     11  O   UNL     1     -22.686 -16.790 -13.102  1.00  0.00    -0.452 OA
ENDROOT
BRANCH   1  12
ATOM     12  C   UNL     1     -20.693 -15.450 -13.325  1.00  0.00     0.025 A 
ATOM     13  C   UNL     1     -20.302 -14.149 -12.975  1.00  0.00     0.016 A 
ATOM     14  C   UNL     1     -18.972 -13.875 -12.647  1.00  0.00     0.051 A 
ATOM     15  C   UNL     1     -18.007 -14.886 -12.675  1.00  0.00     0.157 A 
ATOM     16  C   UNL     1     -19.722 -16.462 -13.375  1.00  0.00     0.062 A 
ATOM     17  C   UNL     1     -18.386 -16.198 -13.048  1.00  0.00     0.158 A 
BRANCH  15  18
ATOM     18  O   UNL     1     -16.696 -14.549 -12.332  1.00  0.00    -0.504 OA
ATOM     19  H   UNL     1     -16.140 -13.867 -12.827  1.00  0.00     0.293 HD
ENDBRANCH  15  18
BRANCH  17  20
ATOM     20  O   UNL     1     -17.478 -17.257 -13.107  1.00  0.00    -0.504 OA
ATOM     21  H   UNL     1     -16.817 -17.475 -12.376  1.00  0.00     0.293 HD
ENDBRANCH  17  20
ENDBRANCH   1  12
BRANCH   2  22
ATOM     22  O   UNL     1     -22.208 -13.875 -15.234  1.00  0.00    -0.502 OA
ATOM     23  H   UNL     1     -21.604 -13.247 -14.715  1.00  0.00     0.293 HD
ENDBRANCH   2  22
BRANCH   6  24
ATOM     24  O   UNL     1     -26.828 -16.245 -15.522  1.00  0.00    -0.507 OA
ATOM     25  H   UNL     1     -26.428 -15.654 -16.241  1.00  0.00     0.293 HD
ENDBRANCH   6  24
BRANCH   8  26
ATOM     26  O   UNL     1     -26.287 -19.787 -12.265  1.00  0.00    -0.508 OA
ATOM     27  H   UNL     1     -27.167 -20.213 -12.533  1.00  0.00     0.293 HD
ENDBRANCH   8  26
TORSDOF 6
ENDMDL
