MODEL 1
REMARK VINA RESULT:    -1.948      0.000      0.000
REMARK INTER + INTRA:          -1.983
REMARK INTER:                  -2.119
REMARK INTRA:                   0.135
REMARK UNBOUND:                 0.135
REMARK SMILES C[C@H]1[C@H](C)CC[C@@]2(C(=O)[O-])CC[C@]3(C)C(=CC[C@@H]4[C@@]5(C)CC[C@@H](O)C(C)(C)[C@H]5CC[C@@]43C)[C@H]12
REMARK SMILES IDX 7 1 6 2 11 3 33 4 5 5 12 6 15 7 2 8 3 9 13 10 16 11 1 12
REMARK SMILES IDX 4 13 14 14 31 15 17 16 18 17 30 18 32 19 19 20 29 21 28 22
REMARK SMILES IDX 21 23 20 24 25 25 22 26 23 27 26 28 27 29 8 30 9 31 10 32
REMARK SMILES IDX 24 33
REMARK H PARENT 24 34
REMARK Flexibility Score: inf
ROOT
ATOM      1  C   UNL     1       9.913  -7.022  -8.784  1.00  0.00     0.017 C 
ATOM      2  C   UNL     1      11.183  -6.794  -7.932  1.00  0.00     0.014 C 
ATOM      3  C   UNL     1       9.738  -8.566  -9.021  1.00  0.00     0.014 C 
ATOM      4  C   UNL     1       8.665  -6.478  -8.015  1.00  0.00     0.030 C 
ATOM      5  C   UNL     1      11.374  -5.315  -7.594  1.00  0.00     0.004 C 
ATOM      6  C   UNL     1       8.301  -9.119  -8.820  1.00  0.00     0.013 C 
ATOM      7  C   UNL     1       7.402  -6.777  -8.859  1.00  0.00    -0.063 C 
ATOM      8  C   UNL     1       8.824  -5.021  -7.438  1.00  0.00    -0.003 C 
ATOM      9  C   UNL     1      10.210  -4.800  -6.743  1.00  0.00    -0.011 C 
ATOM     10  C   UNL     1       7.170  -8.192  -9.384  1.00  0.00    -0.006 C 
ATOM     11  C   UNL     1       6.496  -5.841  -9.174  1.00  0.00    -0.027 C 
ATOM     12  C   UNL     1       7.702  -4.724  -6.408  1.00  0.00     0.008 C 
ATOM     13  C   UNL     1      10.460  -3.319  -6.407  1.00  0.00     0.008 C 
ATOM     14  C   UNL     1       7.353  -8.173 -10.941  1.00  0.00     0.017 C 
ATOM     15  C   UNL     1       5.680  -8.660  -8.990  1.00  0.00    -0.020 C 
ATOM     16  C   UNL     1       5.044  -6.157  -9.388  1.00  0.00     0.032 C 
ATOM     17  C   UNL     1       4.620  -7.656  -9.621  1.00  0.00     0.006 C 
ATOM     18  C   UNL     1       5.470  -8.633  -7.452  1.00  0.00     0.008 C 
ATOM     19  C   UNL     1       5.472 -10.125  -9.490  1.00  0.00     0.012 C 
ATOM     20  C   UNL     1       3.082  -7.891  -9.210  1.00  0.00    -0.025 C 
ATOM     21  C   UNL     1       4.040  -8.986  -7.022  1.00  0.00     0.005 C 
ATOM     22  C   UNL     1       2.924  -8.081  -7.633  1.00  0.00     0.003 C 
ATOM     23  C   UNL     1       2.466  -9.091 -10.027  1.00  0.00     0.010 C 
ATOM     24  C   UNL     1       2.257  -6.630  -9.659  1.00  0.00     0.012 C 
ATOM     25  C   UNL     1       1.444  -8.507  -7.154  1.00  0.00    -0.006 C 
ATOM     26  C   UNL     1       1.590 -10.045  -9.204  1.00  0.00     0.033 C 
ATOM     27  C   UNL     1       0.649  -9.257  -8.289  1.00  0.00     0.120 C 
ATOM     28  C   UNL     1       0.644  -7.237  -6.752  1.00  0.00     0.014 C 
ATOM     29  C   UNL     1       1.464  -9.396  -5.868  1.00  0.00     0.014 C 
ENDROOT
BRANCH   1  30
ATOM     30  C   UNL     1      10.115  -6.318 -10.127  1.00  0.00     0.048 C 
ATOM     31  O   UNL     1      10.714  -6.912 -11.062  1.00  0.00    -0.550 OA
ATOM     32  O   UNL     1       9.668  -5.018 -10.345  1.00  0.00    -0.550 OA
ENDBRANCH   1  30
BRANCH  27  33
ATOM     33  O   UNL     1      -0.320 -10.125  -7.751  1.00  0.00    -0.393 OA
ATOM     34  H   UNL     1      -0.702  -9.682  -6.943  1.00  0.00     0.210 HD
ENDBRANCH  27  33
TORSDOF 2
ENDMDL
MODEL 2
REMARK VINA RESULT:    -1.241      1.219      1.451
REMARK INTER + INTRA:          -1.215
REMARK INTER:                  -1.362
REMARK INTRA:                   0.147
REMARK UNBOUND:                 0.135
REMARK SMILES C[C@H]1[C@H](C)CC[C@@]2(C(=O)[O-])CC[C@]3(C)C(=CC[C@@H]4[C@@]5(C)CC[C@@H](O)C(C)(C)[C@H]5CC[C@@]43C)[C@H]12
REMARK SMILES IDX 7 1 6 2 11 3 33 4 5 5 12 6 15 7 2 8 3 9 13 10 16 11 1 12
REMARK SMILES IDX 4 13 14 14 31 15 17 16 18 17 30 18 32 19 19 20 29 21 28 22
REMARK SMILES IDX 21 23 20 24 25 25 22 26 23 27 26 28 27 29 8 30 9 31 10 32
REMARK SMILES IDX 24 33
REMARK H PARENT 24 34
REMARK Flexibility Score: inf
ROOT
ATOM      1  C   UNL     1      10.736  -6.577  -7.916  1.00  0.00     0.017 C 
ATOM      2  C   UNL     1      11.681  -6.152  -6.767  1.00  0.00     0.014 C 
ATOM      3  C   UNL     1      10.663  -8.148  -7.949  1.00  0.00     0.014 C 
ATOM      4  C   UNL     1       9.306  -6.003  -7.654  1.00  0.00     0.030 C 
ATOM      5  C   UNL     1      11.740  -4.632  -6.624  1.00  0.00     0.004 C 
ATOM      6  C   UNL     1       9.241  -8.751  -8.106  1.00  0.00     0.013 C 
ATOM      7  C   UNL     1       8.367  -6.498  -8.781  1.00  0.00    -0.063 C 
ATOM      8  C   UNL     1       9.262  -4.471  -7.291  1.00  0.00    -0.003 C 
ATOM      9  C   UNL     1      10.364  -4.069  -6.255  1.00  0.00    -0.011 C 
ATOM     10  C   UNL     1       8.325  -7.985  -9.123  1.00  0.00    -0.006 C 
ATOM     11  C   UNL     1       7.590  -5.673  -9.496  1.00  0.00    -0.027 C 
ATOM     12  C   UNL     1       7.874  -4.096  -6.706  1.00  0.00     0.008 C 
ATOM     13  C   UNL     1      10.481  -2.542  -6.095  1.00  0.00     0.008 C 
ATOM     14  C   UNL     1       8.977  -8.181 -10.535  1.00  0.00     0.017 C 
ATOM     15  C   UNL     1       6.793  -8.480  -9.127  1.00  0.00    -0.020 C 
ATOM     16  C   UNL     1       6.277  -6.104 -10.085  1.00  0.00     0.032 C 
ATOM     17  C   UNL     1       5.965  -7.644 -10.198  1.00  0.00     0.006 C 
ATOM     18  C   UNL     1       6.120  -8.242  -7.748  1.00  0.00     0.008 C 
ATOM     19  C   UNL     1       6.767 -10.012  -9.431  1.00  0.00     0.012 C 
ATOM     20  C   UNL     1       4.378  -7.908 -10.237  1.00  0.00    -0.025 C 
ATOM     21  C   UNL     1       4.632  -8.615  -7.719  1.00  0.00     0.005 C 
ATOM     22  C   UNL     1       3.746  -7.877  -8.772  1.00  0.00     0.003 C 
ATOM     23  C   UNL     1       4.057  -9.250 -11.004  1.00  0.00     0.010 C 
ATOM     24  C   UNL     1       3.714  -6.778 -11.105  1.00  0.00     0.012 C 
ATOM     25  C   UNL     1       2.195  -8.317  -8.700  1.00  0.00    -0.006 C 
ATOM     26  C   UNL     1       2.983 -10.125 -10.343  1.00  0.00     0.033 C 
ATOM     27  C   UNL     1       1.797  -9.270  -9.889  1.00  0.00     0.120 C 
ATOM     28  C   UNL     1       1.295  -7.053  -8.762  1.00  0.00     0.014 C 
ATOM     29  C   UNL     1       1.832  -9.006  -7.345  1.00  0.00     0.014 C 
ENDROOT
BRANCH   1  30
ATOM     30  C   UNL     1      11.332  -6.065  -9.228  1.00  0.00     0.048 C 
ATOM     31  O   UNL     1      12.117  -6.797  -9.888  1.00  0.00    -0.550 OA
ATOM     32  O   UNL     1      11.044  -4.793  -9.714  1.00  0.00    -0.550 OA
ENDBRANCH   1  30
BRANCH  27  33
ATOM     33  O   UNL     1       0.721 -10.107  -9.540  1.00  0.00    -0.393 OA
ATOM     34  H   UNL     1      -0.118  -9.650  -9.828  1.00  0.00     0.210 HD
ENDBRANCH  27  33
TORSDOF 2
ENDMDL
MODEL 3
REMARK VINA RESULT:    -1.056      1.588      2.270
REMARK INTER + INTRA:          -1.013
REMARK INTER:                  -1.316
REMARK INTRA:                   0.303
REMARK UNBOUND:                 0.135
REMARK SMILES C[C@H]1[C@H](C)CC[C@@]2(C(=O)[O-])CC[C@]3(C)C(=CC[C@@H]4[C@@]5(C)CC[C@@H](O)C(C)(C)[C@H]5CC[C@@]43C)[C@H]12
REMARK SMILES IDX 7 1 6 2 11 3 33 4 5 5 12 6 15 7 2 8 3 9 13 10 16 11 1 12
REMARK SMILES IDX 4 13 14 14 31 15 17 16 18 17 30 18 32 19 19 20 29 21 28 22
REMARK SMILES IDX 21 23 20 24 25 25 22 26 23 27 26 28 27 29 8 30 9 31 10 32
REMARK SMILES IDX 24 33
REMARK H PARENT 24 34
REMARK Flexibility Score: inf
ROOT
ATOM      1  C   UNL     1       9.219  -6.445  -8.800  1.00  0.00     0.017 C 
ATOM      2  C   UNL     1      10.197  -5.317  -8.395  1.00  0.00     0.014 C 
ATOM      3  C   UNL     1       8.976  -7.370  -7.551  1.00  0.00     0.014 C 
ATOM      4  C   UNL     1       7.857  -5.819  -9.246  1.00  0.00     0.030 C 
ATOM      5  C   UNL     1      10.419  -4.330  -9.540  1.00  0.00     0.004 C 
ATOM      6  C   UNL     1       7.498  -7.763  -7.284  1.00  0.00     0.013 C 
ATOM      7  C   UNL     1       6.878  -6.969  -9.582  1.00  0.00    -0.063 C 
ATOM      8  C   UNL     1       7.977  -4.640 -10.284  1.00  0.00    -0.003 C 
ATOM      9  C   UNL     1       9.111  -3.626  -9.911  1.00  0.00    -0.011 C 
ATOM     10  C   UNL     1       6.677  -8.101  -8.577  1.00  0.00    -0.006 C 
ATOM     11  C   UNL     1       6.199  -7.035 -10.735  1.00  0.00    -0.027 C 
ATOM     12  C   UNL     1       6.635  -3.867 -10.379  1.00  0.00     0.008 C 
ATOM     13  C   UNL     1       9.391  -2.626 -11.046  1.00  0.00     0.008 C 
ATOM     14  C   UNL     1       7.312  -9.404  -9.172  1.00  0.00     0.017 C 
ATOM     15  C   UNL     1       5.100  -8.300  -8.319  1.00  0.00    -0.020 C 
ATOM     16  C   UNL     1       4.851  -7.688 -10.847  1.00  0.00     0.032 C 
ATOM     17  C   UNL     1       4.374  -8.646  -9.691  1.00  0.00     0.006 C 
ATOM     18  C   UNL     1       4.448  -6.999  -7.777  1.00  0.00     0.008 C 
ATOM     19  C   UNL     1       4.910  -9.427  -7.254  1.00  0.00     0.012 C 
ATOM     20  C   UNL     1       2.768  -8.739  -9.645  1.00  0.00    -0.025 C 
ATOM     21  C   UNL     1       2.928  -7.103  -7.595  1.00  0.00     0.005 C 
ATOM     22  C   UNL     1       2.134  -7.488  -8.883  1.00  0.00     0.003 C 
ATOM     23  C   UNL     1       2.309 -10.117  -9.029  1.00  0.00     0.010 C 
ATOM     24  C   UNL     1       2.236  -8.761 -11.125  1.00  0.00     0.012 C 
ATOM     25  C   UNL     1       0.545  -7.594  -8.628  1.00  0.00    -0.006 C 
ATOM     26  C   UNL     1       1.142 -10.019  -8.037  1.00  0.00     0.033 C 
ATOM     27  C   UNL     1       0.053  -9.089  -8.577  1.00  0.00     0.120 C 
ATOM     28  C   UNL     1      -0.213  -6.866  -9.772  1.00  0.00     0.014 C 
ATOM     29  C   UNL     1       0.100  -6.862  -7.320  1.00  0.00     0.014 C 
ENDROOT
BRANCH   1  30
ATOM     30  C   UNL     1       9.874  -7.257  -9.918  1.00  0.00     0.048 C 
ATOM     31  O   UNL     1       9.649  -6.960 -11.122  1.00  0.00    -0.550 OA
ATOM     32  O   UNL     1      10.708  -8.337  -9.646  1.00  0.00    -0.550 OA
ENDBRANCH   1  30
BRANCH  27  33
ATOM     33  O   UNL     1      -1.110  -9.222  -7.795  1.00  0.00    -0.393 OA
ATOM     34  H   UNL     1      -1.786  -8.583  -8.155  1.00  0.00     0.210 HD
ENDBRANCH  27  33
TORSDOF 2
ENDMDL
MODEL 4
REMARK VINA RESULT:    -0.183      1.445      7.930
REMARK INTER + INTRA:          -0.063
REMARK INTER:                  -1.809
REMARK INTRA:                   1.746
REMARK UNBOUND:                 0.135
REMARK SMILES C[C@H]1[C@H](C)CC[C@@]2(C(=O)[O-])CC[C@]3(C)C(=CC[C@@H]4[C@@]5(C)CC[C@@H](O)C(C)(C)[C@H]5CC[C@@]43C)[C@H]12
REMARK SMILES IDX 7 1 6 2 11 3 33 4 5 5 12 6 15 7 2 8 3 9 13 10 16 11 1 12
REMARK SMILES IDX 4 13 14 14 31 15 17 16 18 17 30 18 32 19 19 20 29 21 28 22
REMARK SMILES IDX 21 23 20 24 25 25 22 26 23 27 26 28 27 29 8 30 9 31 10 32
REMARK SMILES IDX 24 33
REMARK H PARENT 24 34
REMARK Flexibility Score: inf
ROOT
ATOM      1  C   UNL     1       1.066  -8.292  -8.587  1.00  0.00     0.017 C 
ATOM      2  C   UNL     1      -0.154  -7.872  -7.734  1.00  0.00     0.014 C 
ATOM      3  C   UNL     1       1.398  -7.131  -9.594  1.00  0.00     0.014 C 
ATOM      4  C   UNL     1       2.298  -8.527  -7.654  1.00  0.00     0.030 C 
ATOM      5  C   UNL     1      -0.487  -8.922  -6.675  1.00  0.00     0.004 C 
ATOM      6  C   UNL     1       2.899  -6.757  -9.718  1.00  0.00     0.013 C 
ATOM      7  C   UNL     1       3.518  -8.882  -8.536  1.00  0.00    -0.063 C 
ATOM      8  C   UNL     1       2.017  -9.441  -6.401  1.00  0.00    -0.003 C 
ATOM      9  C   UNL     1       0.671  -9.080  -5.686  1.00  0.00    -0.011 C 
ATOM     10  C   UNL     1       3.871  -7.988  -9.722  1.00  0.00    -0.006 C 
ATOM     11  C   UNL     1       4.285  -9.960  -8.322  1.00  0.00    -0.027 C 
ATOM     12  C   UNL     1       3.172  -9.315  -5.373  1.00  0.00     0.008 C 
ATOM     13  C   UNL     1       0.279 -10.125  -4.627  1.00  0.00     0.008 C 
ATOM     14  C   UNL     1       3.570  -8.781 -11.040  1.00  0.00     0.017 C 
ATOM     15  C   UNL     1       5.430  -7.593  -9.637  1.00  0.00    -0.020 C 
ATOM     16  C   UNL     1       5.744 -10.002  -8.677  1.00  0.00     0.032 C 
ATOM     17  C   UNL     1       6.317  -8.912  -9.659  1.00  0.00     0.006 C 
ATOM     18  C   UNL     1       5.752  -6.852  -8.310  1.00  0.00     0.008 C 
ATOM     19  C   UNL     1       5.766  -6.640 -10.828  1.00  0.00     0.012 C 
ATOM     20  C   UNL     1       7.899  -8.713  -9.437  1.00  0.00    -0.025 C 
ATOM     21  C   UNL     1       7.241  -6.527  -8.134  1.00  0.00     0.005 C 
ATOM     22  C   UNL     1       8.197  -7.761  -8.191  1.00  0.00     0.003 C 
ATOM     23  C   UNL     1       8.585  -8.203 -10.763  1.00  0.00     0.010 C 
ATOM     24  C   UNL     1       8.538 -10.124  -9.168  1.00  0.00     0.012 C 
ATOM     25  C   UNL     1       9.748  -7.357  -8.011  1.00  0.00    -0.006 C 
ATOM     26  C   UNL     1       9.624  -7.092 -10.561  1.00  0.00     0.033 C 
ATOM     27  C   UNL     1      10.535  -7.416  -9.374  1.00  0.00     0.120 C 
ATOM     28  C   UNL     1      10.425  -8.334  -7.011  1.00  0.00     0.014 C 
ATOM     29  C   UNL     1       9.927  -5.940  -7.375  1.00  0.00     0.014 C 
ENDROOT
BRANCH   1  30
ATOM     30  C   UNL     1       0.683  -9.552  -9.366  1.00  0.00     0.048 C 
ATOM     31  O   UNL     1       1.540 -10.124 -10.090  1.00  0.00    -0.550 OA
ATOM     32  O   UNL     1      -0.602 -10.082  -9.313  1.00  0.00    -0.550 OA
ENDBRANCH   1  30
BRANCH  27  33
ATOM     33  O   UNL     1      11.635  -6.538  -9.372  1.00  0.00    -0.393 OA
ATOM     34  H   UNL     1      11.394  -5.757  -9.944  1.00  0.00     0.210 HD
ENDBRANCH  27  33
TORSDOF 2
ENDMDL
MODEL 5
REMARK VINA RESULT:     0.779      2.071      8.393
REMARK INTER + INTRA:           0.983
REMARK INTER:                   0.507
REMARK INTRA:                   0.476
REMARK UNBOUND:                 0.135
REMARK SMILES C[C@H]1[C@H](C)CC[C@@]2(C(=O)[O-])CC[C@]3(C)C(=CC[C@@H]4[C@@]5(C)CC[C@@H](O)C(C)(C)[C@H]5CC[C@@]43C)[C@H]12
REMARK SMILES IDX 7 1 6 2 11 3 33 4 5 5 12 6 15 7 2 8 3 9 13 10 16 11 1 12
REMARK SMILES IDX 4 13 14 14 31 15 17 16 18 17 30 18 32 19 19 20 29 21 28 22
REMARK SMILES IDX 21 23 20 24 25 25 22 26 23 27 26 28 27 29 8 30 9 31 10 32
REMARK SMILES IDX 24 33
REMARK H PARENT 24 34
REMARK Flexibility Score: inf
ROOT
ATOM      1  C   UNL     1      -0.279  -8.931  -7.712  1.00  0.00     0.017 C 
ATOM      2  C   UNL     1      -1.556  -9.521  -8.355  1.00  0.00     0.014 C 
ATOM      3  C   UNL     1       0.499 -10.090  -6.987  1.00  0.00     0.014 C 
ATOM      4  C   UNL     1       0.632  -8.322  -8.827  1.00  0.00     0.030 C 
ATOM      5  C   UNL     1      -2.325  -8.463  -9.146  1.00  0.00     0.004 C 
ATOM      6  C   UNL     1       2.032 -10.125  -7.230  1.00  0.00     0.013 C 
ATOM      7  C   UNL     1       1.930  -7.799  -8.165  1.00  0.00    -0.063 C 
ATOM      8  C   UNL     1      -0.105  -7.364  -9.837  1.00  0.00    -0.003 C 
ATOM      9  C   UNL     1      -1.482  -7.940 -10.313  1.00  0.00    -0.011 C 
ATOM     10  C   UNL     1       2.716  -8.714  -7.230  1.00  0.00    -0.006 C 
ATOM     11  C   UNL     1       2.398  -6.558  -8.359  1.00  0.00    -0.027 C 
ATOM     12  C   UNL     1       0.782  -7.112 -11.085  1.00  0.00     0.008 C 
ATOM     13  C   UNL     1      -2.306  -6.902 -11.093  1.00  0.00     0.008 C 
ATOM     14  C   UNL     1       2.579  -8.159  -5.771  1.00  0.00     0.017 C 
ATOM     15  C   UNL     1       4.259  -8.734  -7.691  1.00  0.00    -0.020 C 
ATOM     16  C   UNL     1       3.862  -6.226  -8.305  1.00  0.00     0.032 C 
ATOM     17  C   UNL     1       4.850  -7.258  -7.642  1.00  0.00     0.006 C 
ATOM     18  C   UNL     1       4.405  -9.233  -9.154  1.00  0.00     0.008 C 
ATOM     19  C   UNL     1       5.043  -9.710  -6.757  1.00  0.00     0.012 C 
ATOM     20  C   UNL     1       6.345  -7.069  -8.208  1.00  0.00    -0.025 C 
ATOM     21  C   UNL     1       5.847  -9.190  -9.677  1.00  0.00     0.005 C 
ATOM     22  C   UNL     1       6.527  -7.786  -9.622  1.00  0.00     0.003 C 
ATOM     23  C   UNL     1       7.406  -7.551  -7.145  1.00  0.00     0.010 C 
ATOM     24  C   UNL     1       6.614  -5.528  -8.377  1.00  0.00     0.012 C 
ATOM     25  C   UNL     1       8.043  -7.806 -10.173  1.00  0.00    -0.006 C 
ATOM     26  C   UNL     1       8.568  -8.369  -7.725  1.00  0.00     0.033 C 
ATOM     27  C   UNL     1       9.097  -7.719  -9.006  1.00  0.00     0.120 C 
ATOM     28  C   UNL     1       8.264  -6.598 -11.125  1.00  0.00     0.014 C 
ATOM     29  C   UNL     1       8.345  -9.067 -11.047  1.00  0.00     0.014 C 
ENDROOT
BRANCH   1  30
ATOM     30  C   UNL     1      -0.711  -7.883  -6.684  1.00  0.00     0.048 C 
ATOM     31  O   UNL     1      -1.500  -8.205  -5.757  1.00  0.00    -0.550 OA
ATOM     32  O   UNL     1      -0.268  -6.566  -6.752  1.00  0.00    -0.550 OA
ENDBRANCH   1  30
BRANCH  27  33
ATOM     33  O   UNL     1      10.318  -8.320  -9.369  1.00  0.00    -0.393 OA
ATOM     34  H   UNL     1      10.887  -8.353  -8.551  1.00  0.00     0.210 HD
ENDBRANCH  27  33
TORSDOF 2
ENDMDL
