MODEL 1
REMARK VINA RESULT:    -4.235      0.000      0.000
REMARK INTER + INTRA:          -4.682
REMARK INTER:                  -4.482
REMARK INTRA:                  -0.200
REMARK UNBOUND:                -0.200
REMARK SMILES CC1=CC[C@H](C(C)C)C=C1
REMARK SMILES IDX 1 1 2 2 3 3 4 4 5 5 9 6 10 7 6 8 7 9 8 10
REMARK H PARENT
REMARK Flexibility Score: inf
ROOT
ATOM      1  C   UNL     1      13.888  65.733  16.795  1.00  0.00     0.044 C 
ATOM      2  C   UNL     1      15.239  65.298  16.308  1.00  0.00    -0.055 C 
ATOM      3  C   UNL     1      15.425  64.981  15.017  1.00  0.00    -0.023 C 
ATOM      4  C   UNL     1      16.737  64.410  14.546  1.00  0.00     0.035 C 
ATOM      5  C   UNL     1      17.928  64.992  15.352  1.00  0.00     0.018 C 
ATOM      6  C   UNL     1      17.600  64.931  16.835  1.00  0.00    -0.023 C 
ATOM      7  C   UNL     1      16.351  65.135  17.267  1.00  0.00    -0.001 C 
ENDROOT
BRANCH   5   8
ATOM      8  C   UNL     1      19.283  64.283  15.038  1.00  0.00    -0.010 C 
ATOM      9  C   UNL     1      19.999  63.792  16.310  1.00  0.00     0.008 C 
ATOM     10  C   UNL     1      19.078  63.080  14.098  1.00  0.00     0.008 C 
ENDBRANCH   5   8
TORSDOF 1
ENDMDL
MODEL 2
REMARK VINA RESULT:    -4.056      3.958      5.602
REMARK INTER + INTRA:          -4.493
REMARK INTER:                  -4.293
REMARK INTRA:                  -0.200
REMARK UNBOUND:                -0.200
REMARK SMILES CC1=CC[C@H](C(C)C)C=C1
REMARK SMILES IDX 1 1 2 2 3 3 4 4 5 5 9 6 10 7 6 8 7 9 8 10
REMARK H PARENT
REMARK Flexibility Score: inf
ROOT
ATOM      1  C   UNL     1      22.155  63.219  20.351  1.00  0.00     0.044 C 
ATOM      2  C   UNL     1      21.859  63.253  18.881  1.00  0.00    -0.055 C 
ATOM      3  C   UNL     1      20.645  63.618  18.441  1.00  0.00    -0.023 C 
ATOM      4  C   UNL     1      20.294  63.521  16.979  1.00  0.00     0.035 C 
ATOM      5  C   UNL     1      21.528  63.802  16.083  1.00  0.00     0.018 C 
ATOM      6  C   UNL     1      22.711  62.999  16.601  1.00  0.00    -0.023 C 
ATOM      7  C   UNL     1      22.881  62.804  17.913  1.00  0.00    -0.001 C 
ENDROOT
BRANCH   5   8
ATOM      8  C   UNL     1      21.264  63.516  14.571  1.00  0.00    -0.010 C 
ATOM      9  C   UNL     1      22.407  62.721  13.913  1.00  0.00     0.008 C 
ATOM     10  C   UNL     1      19.950  62.738  14.373  1.00  0.00     0.008 C 
ENDBRANCH   5   8
TORSDOF 1
ENDMDL
MODEL 3
REMARK VINA RESULT:    -3.935      1.458      5.021
REMARK INTER + INTRA:          -4.365
REMARK INTER:                  -4.165
REMARK INTRA:                  -0.199
REMARK UNBOUND:                -0.200
REMARK SMILES CC1=CC[C@H](C(C)C)C=C1
REMARK SMILES IDX 1 1 2 2 3 3 4 4 5 5 9 6 10 7 6 8 7 9 8 10
REMARK H PARENT
REMARK Flexibility Score: inf
ROOT
ATOM      1  C   UNL     1      22.407  62.604  14.259  1.00  0.00     0.044 C 
ATOM      2  C   UNL     1      21.119  63.268  14.648  1.00  0.00    -0.055 C 
ATOM      3  C   UNL     1      21.105  64.219  15.595  1.00  0.00    -0.023 C 
ATOM      4  C   UNL     1      19.802  64.791  16.092  1.00  0.00     0.035 C 
ATOM      5  C   UNL     1      18.743  64.848  14.961  1.00  0.00     0.018 C 
ATOM      6  C   UNL     1      18.719  63.511  14.236  1.00  0.00    -0.023 C 
ATOM      7  C   UNL     1      19.847  62.817  14.047  1.00  0.00    -0.001 C 
ENDROOT
BRANCH   5   8
ATOM      8  C   UNL     1      17.322  65.243  15.473  1.00  0.00    -0.010 C 
ATOM      9  C   UNL     1      16.196  64.579  14.659  1.00  0.00     0.008 C 
ATOM     10  C   UNL     1      17.140  64.866  16.956  1.00  0.00     0.008 C 
ENDBRANCH   5   8
TORSDOF 1
ENDMDL
MODEL 4
REMARK VINA RESULT:    -3.874      1.254      2.030
REMARK INTER + INTRA:          -4.300
REMARK INTER:                  -4.151
REMARK INTRA:                  -0.149
REMARK UNBOUND:                -0.200
REMARK SMILES CC1=CC[C@H](C(C)C)C=C1
REMARK SMILES IDX 1 1 2 2 3 3 4 4 5 5 9 6 10 7 6 8 7 9 8 10
REMARK H PARENT
REMARK Flexibility Score: inf
ROOT
ATOM      1  C   UNL     1      13.504  64.663  15.502  1.00  0.00     0.044 C 
ATOM      2  C   UNL     1      14.958  64.851  15.821  1.00  0.00    -0.055 C 
ATOM      3  C   UNL     1      15.353  65.063  17.085  1.00  0.00    -0.023 C 
ATOM      4  C   UNL     1      16.790  65.392  17.398  1.00  0.00     0.035 C 
ATOM      5  C   UNL     1      17.759  64.672  16.424  1.00  0.00     0.018 C 
ATOM      6  C   UNL     1      17.263  64.864  14.999  1.00  0.00    -0.023 C 
ATOM      7  C   UNL     1      15.954  64.885  14.729  1.00  0.00    -0.001 C 
ENDROOT
BRANCH   5   8
ATOM      8  C   UNL     1      19.241  65.138  16.579  1.00  0.00    -0.010 C 
ATOM      9  C   UNL     1      20.189  63.978  16.937  1.00  0.00     0.008 C 
ATOM     10  C   UNL     1      19.752  65.807  15.290  1.00  0.00     0.008 C 
ENDBRANCH   5   8
TORSDOF 1
ENDMDL
MODEL 5
REMARK VINA RESULT:    -3.855      2.576      5.338
REMARK INTER + INTRA:          -4.280
REMARK INTER:                  -4.142
REMARK INTRA:                  -0.137
REMARK UNBOUND:                -0.200
REMARK SMILES CC1=CC[C@H](C(C)C)C=C1
REMARK SMILES IDX 1 1 2 2 3 3 4 4 5 5 9 6 10 7 6 8 7 9 8 10
REMARK H PARENT
REMARK Flexibility Score: inf
ROOT
ATOM      1  C   UNL     1      22.456  63.100  20.055  1.00  0.00     0.044 C 
ATOM      2  C   UNL     1      21.842  63.315  18.703  1.00  0.00    -0.055 C 
ATOM      3  C   UNL     1      22.509  62.969  17.592  1.00  0.00    -0.023 C 
ATOM      4  C   UNL     1      21.963  63.309  16.229  1.00  0.00     0.035 C 
ATOM      5  C   UNL     1      20.413  63.261  16.214  1.00  0.00     0.018 C 
ATOM      6  C   UNL     1      19.882  64.022  17.419  1.00  0.00    -0.023 C 
ATOM      7  C   UNL     1      20.530  63.987  18.589  1.00  0.00    -0.001 C 
ENDROOT
BRANCH   5   8
ATOM      8  C   UNL     1      19.797  63.799  14.884  1.00  0.00    -0.010 C 
ATOM      9  C   UNL     1      19.454  62.671  13.894  1.00  0.00     0.008 C 
ATOM     10  C   UNL     1      18.520  64.618  15.153  1.00  0.00     0.008 C 
ENDBRANCH   5   8
TORSDOF 1
ENDMDL
MODEL 6
REMARK VINA RESULT:    -3.844      3.040      5.090
REMARK INTER + INTRA:          -4.268
REMARK INTER:                  -4.071
REMARK INTRA:                  -0.198
REMARK UNBOUND:                -0.200
REMARK SMILES CC1=CC[C@H](C(C)C)C=C1
REMARK SMILES IDX 1 1 2 2 3 3 4 4 5 5 9 6 10 7 6 8 7 9 8 10
REMARK H PARENT
REMARK Flexibility Score: inf
ROOT
ATOM      1  C   UNL     1      18.531  64.296  14.969  1.00  0.00     0.044 C 
ATOM      2  C   UNL     1      19.930  63.765  15.085  1.00  0.00    -0.055 C 
ATOM      3  C   UNL     1      20.618  63.420  13.985  1.00  0.00    -0.023 C 
ATOM      4  C   UNL     1      21.966  62.757  14.098  1.00  0.00     0.035 C 
ATOM      5  C   UNL     1      22.746  63.269  15.336  1.00  0.00     0.018 C 
ATOM      6  C   UNL     1      21.824  63.250  16.546  1.00  0.00    -0.023 C 
ATOM      7  C   UNL     1      20.525  63.542  16.419  1.00  0.00    -0.001 C 
ENDROOT
BRANCH   5   8
ATOM      8  C   UNL     1      24.058  62.468  15.608  1.00  0.00    -0.010 C 
ATOM      9  C   UNL     1      23.993  61.656  16.914  1.00  0.00     0.008 C 
ATOM     10  C   UNL     1      24.371  61.504  14.448  1.00  0.00     0.008 C 
ENDBRANCH   5   8
TORSDOF 1
ENDMDL
MODEL 7
REMARK VINA RESULT:    -3.803      2.598      6.172
REMARK INTER + INTRA:          -4.224
REMARK INTER:                  -4.041
REMARK INTRA:                  -0.183
REMARK UNBOUND:                -0.200
REMARK SMILES CC1=CC[C@H](C(C)C)C=C1
REMARK SMILES IDX 1 1 2 2 3 3 4 4 5 5 9 6 10 7 6 8 7 9 8 10
REMARK H PARENT
REMARK Flexibility Score: inf
ROOT
ATOM      1  C   UNL     1      24.508  62.354  17.361  1.00  0.00     0.044 C 
ATOM      2  C   UNL     1      23.240  62.740  16.658  1.00  0.00    -0.055 C 
ATOM      3  C   UNL     1      22.165  63.128  17.361  1.00  0.00    -0.023 C 
ATOM      4  C   UNL     1      20.847  63.381  16.677  1.00  0.00     0.035 C 
ATOM      5  C   UNL     1      21.053  63.955  15.251  1.00  0.00     0.018 C 
ATOM      6  C   UNL     1      22.099  63.122  14.527  1.00  0.00    -0.023 C 
ATOM      7  C   UNL     1      23.144  62.613  15.189  1.00  0.00    -0.001 C 
ENDROOT
BRANCH   5   8
ATOM      8  C   UNL     1      19.728  64.044  14.430  1.00  0.00    -0.010 C 
ATOM      9  C   UNL     1      19.289  62.679  13.870  1.00  0.00     0.008 C 
ATOM     10  C   UNL     1      18.580  64.614  15.285  1.00  0.00     0.008 C 
ENDBRANCH   5   8
TORSDOF 1
ENDMDL
MODEL 8
REMARK VINA RESULT:    -3.729      4.304      7.563
REMARK INTER + INTRA:          -4.147
REMARK INTER:                  -3.949
REMARK INTRA:                  -0.197
REMARK UNBOUND:                -0.200
REMARK SMILES CC1=CC[C@H](C(C)C)C=C1
REMARK SMILES IDX 1 1 2 2 3 3 4 4 5 5 9 6 10 7 6 8 7 9 8 10
REMARK H PARENT
REMARK Flexibility Score: inf
ROOT
ATOM      1  C   UNL     1      24.963  61.135  13.064  1.00  0.00     0.044 C 
ATOM      2  C   UNL     1      24.179  61.724  14.199  1.00  0.00    -0.055 C 
ATOM      3  C   UNL     1      24.576  61.536  15.467  1.00  0.00    -0.023 C 
ATOM      4  C   UNL     1      23.722  62.003  16.618  1.00  0.00     0.035 C 
ATOM      5  C   UNL     1      22.954  63.302  16.261  1.00  0.00     0.018 C 
ATOM      6  C   UNL     1      22.305  63.135  14.896  1.00  0.00    -0.023 C 
ATOM      7  C   UNL     1      22.919  62.446  13.928  1.00  0.00    -0.001 C 
ENDROOT
BRANCH   5   8
ATOM      8  C   UNL     1      21.907  63.711  17.344  1.00  0.00    -0.010 C 
ATOM      9  C   UNL     1      20.457  63.538  16.856  1.00  0.00     0.008 C 
ATOM     10  C   UNL     1      22.089  62.888  18.633  1.00  0.00     0.008 C 
ENDBRANCH   5   8
TORSDOF 1
ENDMDL
MODEL 9
REMARK VINA RESULT:    -3.715      2.359      4.238
REMARK INTER + INTRA:          -4.131
REMARK INTER:                  -3.986
REMARK INTRA:                  -0.145
REMARK UNBOUND:                -0.200
REMARK SMILES CC1=CC[C@H](C(C)C)C=C1
REMARK SMILES IDX 1 1 2 2 3 3 4 4 5 5 9 6 10 7 6 8 7 9 8 10
REMARK H PARENT
REMARK Flexibility Score: inf
ROOT
ATOM      1  C   UNL     1      17.383  64.637  14.983  1.00  0.00     0.044 C 
ATOM      2  C   UNL     1      18.849  64.321  15.024  1.00  0.00    -0.055 C 
ATOM      3  C   UNL     1      19.683  65.066  15.766  1.00  0.00    -0.023 C 
ATOM      4  C   UNL     1      21.173  64.846  15.705  1.00  0.00     0.035 C 
ATOM      5  C   UNL     1      21.513  63.350  15.473  1.00  0.00     0.018 C 
ATOM      6  C   UNL     1      20.653  62.816  14.339  1.00  0.00    -0.023 C 
ATOM      7  C   UNL     1      19.393  63.236  14.181  1.00  0.00    -0.001 C 
ENDROOT
BRANCH   5   8
ATOM      8  C   UNL     1      23.031  63.104  15.202  1.00  0.00    -0.010 C 
ATOM      9  C   UNL     1      23.711  62.311  16.333  1.00  0.00     0.008 C 
ATOM     10  C   UNL     1      23.244  62.346  13.878  1.00  0.00     0.008 C 
ENDBRANCH   5   8
TORSDOF 1
ENDMDL
