MODEL 1
REMARK VINA RESULT:    -2.812      0.000      0.000
REMARK INTER + INTRA:          -6.093
REMARK INTER:                  -4.784
REMARK INTRA:                  -1.309
REMARK UNBOUND:                -1.309
REMARK SMILES CCCCCCCCCCCCCC(=O)[O-]
REMARK SMILES IDX 8 1 9 2 10 3 11 4 12 5 13 6 14 7 15 8 16 9 7 10 6 11 5 12
REMARK SMILES IDX 4 13 3 14 2 15 1 16
REMARK H PARENT
REMARK Flexibility Score: inf
ROOT
ATOM      1  C   UNL     1       2.477   8.761   4.912  1.00  0.00     0.000 C 
ENDROOT
BRANCH   1   2
ATOM      2  C   UNL     1       3.479   9.876   4.574  1.00  0.00     0.000 C 
BRANCH   2   3
ATOM      3  C   UNL     1       3.956   9.822   3.115  1.00  0.00     0.000 C 
BRANCH   3   4
ATOM      4  C   UNL     1       4.249   8.380   2.687  1.00  0.00     0.000 C 
BRANCH   4   5
ATOM      5  C   UNL     1       5.697   7.989   3.018  1.00  0.00     0.006 C 
BRANCH   5   6
ATOM      6  C   UNL     1       5.772   6.810   3.997  1.00  0.00     0.053 C 
BRANCH   6   7
ATOM      7  C   UNL     1       5.246   5.547   3.389  1.00  0.00     0.041 C 
ATOM      8  O   UNL     1       5.981   4.850   2.641  1.00  0.00    -0.550 OA
ATOM      9  O   UNL     1       3.956   5.120   3.676  1.00  0.00    -0.550 OA
ENDBRANCH   6   7
ENDBRANCH   5   6
ENDBRANCH   4   5
ENDBRANCH   3   4
ENDBRANCH   2   3
ENDBRANCH   1   2
BRANCH   1  10
ATOM     10  C   UNL     1       1.079   9.304   5.260  1.00  0.00     0.000 C 
BRANCH  10  11
ATOM     11  C   UNL     1       0.225   9.556   3.999  1.00  0.00    -0.000 C 
BRANCH  11  12
ATOM     12  C   UNL     1       0.293   8.415   2.969  1.00  0.00    -0.000 C 
BRANCH  12  13
ATOM     13  C   UNL     1      -0.449   7.150   3.432  1.00  0.00    -0.000 C 
BRANCH  13  14
ATOM     14  C   UNL     1       0.417   5.885   3.317  1.00  0.00    -0.000 C 
BRANCH  14  15
ATOM     15  C   UNL     1       0.375   5.021   4.587  1.00  0.00    -0.003 C 
ATOM     16  C   UNL     1      -0.838   4.096   4.582  1.00  0.00     0.004 C 
ENDBRANCH  14  15
ENDBRANCH  13  14
ENDBRANCH  12  13
ENDBRANCH  11  12
ENDBRANCH  10  11
ENDBRANCH   1  10
TORSDOF 12
ENDMDL
MODEL 2
REMARK VINA RESULT:    -2.795      1.200      1.487
REMARK INTER + INTRA:          -6.065
REMARK INTER:                  -4.319
REMARK INTRA:                  -1.746
REMARK UNBOUND:                -1.309
REMARK SMILES CCCCCCCCCCCCCC(=O)[O-]
REMARK SMILES IDX 8 1 9 2 10 3 11 4 12 5 13 6 14 7 15 8 16 9 7 10 6 11 5 12
REMARK SMILES IDX 4 13 3 14 2 15 1 16
REMARK H PARENT
REMARK Flexibility Score: inf
ROOT
ATOM      1  C   UNL     1       2.455   9.614   5.045  1.00  0.00     0.000 C 
ENDROOT
BRANCH   1   2
ATOM      2  C   UNL     1       3.531   8.748   4.371  1.00  0.00     0.000 C 
BRANCH   2   3
ATOM      3  C   UNL     1       3.638   9.004   2.861  1.00  0.00     0.000 C 
BRANCH   3   4
ATOM      4  C   UNL     1       2.844   7.959   2.069  1.00  0.00     0.000 C 
BRANCH   4   5
ATOM      5  C   UNL     1       3.139   6.540   2.579  1.00  0.00     0.006 C 
BRANCH   5   6
ATOM      6  C   UNL     1       4.427   5.962   1.979  1.00  0.00     0.053 C 
BRANCH   6   7
ATOM      7  C   UNL     1       5.298   5.339   3.025  1.00  0.00     0.041 C 
ATOM      8  O   UNL     1       6.001   6.064   3.778  1.00  0.00    -0.550 OA
ATOM      9  O   UNL     1       5.309   3.960   3.192  1.00  0.00    -0.550 OA
ENDBRANCH   6   7
ENDBRANCH   5   6
ENDBRANCH   4   5
ENDBRANCH   3   4
ENDBRANCH   2   3
ENDBRANCH   1   2
BRANCH   1  10
ATOM     10  C   UNL     1       1.139   8.851   5.280  1.00  0.00     0.000 C 
BRANCH  10  11
ATOM     11  C   UNL     1      -0.042   9.482   4.513  1.00  0.00    -0.000 C 
BRANCH  11  12
ATOM     12  C   UNL     1      -0.464   8.687   3.265  1.00  0.00    -0.000 C 
BRANCH  12  13
ATOM     13  C   UNL     1      -1.032   7.300   3.606  1.00  0.00    -0.000 C 
BRANCH  13  14
ATOM     14  C   UNL     1      -0.638   6.231   2.574  1.00  0.00    -0.000 C 
BRANCH  14  15
ATOM     15  C   UNL     1      -0.390   4.856   3.211  1.00  0.00    -0.003 C 
ATOM     16  C   UNL     1       0.328   4.992   4.551  1.00  0.00     0.004 C 
ENDBRANCH  14  15
ENDBRANCH  13  14
ENDBRANCH  12  13
ENDBRANCH  11  12
ENDBRANCH  10  11
ENDBRANCH   1  10
TORSDOF 12
ENDMDL
MODEL 3
REMARK VINA RESULT:    -2.597      1.803      5.047
REMARK INTER + INTRA:          -5.728
REMARK INTER:                  -4.459
REMARK INTRA:                  -1.269
REMARK UNBOUND:                -1.309
REMARK SMILES CCCCCCCCCCCCCC(=O)[O-]
REMARK SMILES IDX 8 1 9 2 10 3 11 4 12 5 13 6 14 7 15 8 16 9 7 10 6 11 5 12
REMARK SMILES IDX 4 13 3 14 2 15 1 16
REMARK H PARENT
REMARK Flexibility Score: inf
ROOT
ATOM      1  C   UNL     1       2.997   8.282   4.511  1.00  0.00     0.000 C 
ENDROOT
BRANCH   1   2
ATOM      2  C   UNL     1       1.494   8.434   4.794  1.00  0.00     0.000 C 
BRANCH   2   3
ATOM      3  C   UNL     1       0.640   8.362   3.520  1.00  0.00     0.000 C 
BRANCH   3   4
ATOM      4  C   UNL     1       1.245   7.380   2.509  1.00  0.00     0.000 C 
BRANCH   4   5
ATOM      5  C   UNL     1       0.322   6.170   2.296  1.00  0.00     0.006 C 
BRANCH   5   6
ATOM      6  C   UNL     1      -0.630   5.950   3.478  1.00  0.00     0.053 C 
BRANCH   6   7
ATOM      7  C   UNL     1      -0.196   4.802   4.337  1.00  0.00     0.041 C 
ATOM      8  O   UNL     1       1.006   4.701   4.698  1.00  0.00    -0.550 OA
ATOM      9  O   UNL     1      -1.125   3.864   4.768  1.00  0.00    -0.550 OA
ENDBRANCH   6   7
ENDBRANCH   5   6
ENDBRANCH   4   5
ENDBRANCH   3   4
ENDBRANCH   2   3
ENDBRANCH   1   2
BRANCH   1  10
ATOM     10  C   UNL     1       3.721   9.636   4.406  1.00  0.00     0.000 C 
BRANCH  10  11
ATOM     11  C   UNL     1       4.466   9.793   3.063  1.00  0.00    -0.000 C 
BRANCH  11  12
ATOM     12  C   UNL     1       4.878   8.455   2.425  1.00  0.00    -0.000 C 
BRANCH  12  13
ATOM     13  C   UNL     1       6.400   8.240   2.422  1.00  0.00    -0.000 C 
BRANCH  13  14
ATOM     14  C   UNL     1       6.788   6.769   2.646  1.00  0.00    -0.000 C 
BRANCH  14  15
ATOM     15  C   UNL     1       5.675   5.960   3.328  1.00  0.00    -0.003 C 
ATOM     16  C   UNL     1       5.549   4.570   2.710  1.00  0.00     0.004 C 
ENDBRANCH  14  15
ENDBRANCH  13  14
ENDBRANCH  12  13
ENDBRANCH  11  12
ENDBRANCH  10  11
ENDBRANCH   1  10
TORSDOF 12
ENDMDL
MODEL 4
REMARK VINA RESULT:    -2.304      2.102      3.882
REMARK INTER + INTRA:          -5.230
REMARK INTER:                  -3.949
REMARK INTRA:                  -1.281
REMARK UNBOUND:                -1.309
REMARK SMILES CCCCCCCCCCCCCC(=O)[O-]
REMARK SMILES IDX 8 1 9 2 10 3 11 4 12 5 13 6 14 7 15 8 16 9 7 10 6 11 5 12
REMARK SMILES IDX 4 13 3 14 2 15 1 16
REMARK H PARENT
REMARK Flexibility Score: inf
ROOT
ATOM      1  C   UNL     1       1.547   6.002   3.758  1.00  0.00     0.000 C 
ENDROOT
BRANCH   1   2
ATOM      2  C   UNL     1       2.817   6.393   2.984  1.00  0.00     0.000 C 
BRANCH   2   3
ATOM      3  C   UNL     1       4.059   5.623   3.456  1.00  0.00     0.000 C 
BRANCH   3   4
ATOM      4  C   UNL     1       5.214   6.582   3.765  1.00  0.00     0.000 C 
BRANCH   4   5
ATOM      5  C   UNL     1       6.151   6.725   2.555  1.00  0.00     0.006 C 
BRANCH   5   6
ATOM      6  C   UNL     1       6.629   8.169   2.359  1.00  0.00     0.053 C 
BRANCH   6   7
ATOM      7  C   UNL     1       8.106   8.239   2.118  1.00  0.00     0.041 C 
ATOM      8  O   UNL     1       8.758   7.190   1.876  1.00  0.00    -0.550 OA
ATOM      9  O   UNL     1       8.756   9.467   2.126  1.00  0.00    -0.550 OA
ENDBRANCH   6   7
ENDBRANCH   5   6
ENDBRANCH   4   5
ENDBRANCH   3   4
ENDBRANCH   2   3
ENDBRANCH   1   2
BRANCH   1  10
ATOM     10  C   UNL     1       0.274   6.105   2.898  1.00  0.00     0.000 C 
BRANCH  10  11
ATOM     11  C   UNL     1      -0.692   7.189   3.421  1.00  0.00    -0.000 C 
BRANCH  11  12
ATOM     12  C   UNL     1      -0.494   8.564   2.758  1.00  0.00    -0.000 C 
BRANCH  12  13
ATOM     13  C   UNL     1       0.583   9.411   3.454  1.00  0.00    -0.000 C 
BRANCH  13  14
ATOM     14  C   UNL     1       0.453   9.388   4.986  1.00  0.00    -0.000 C 
BRANCH  14  15
ATOM     15  C   UNL     1       1.810   9.253   5.693  1.00  0.00    -0.003 C 
ATOM     16  C   UNL     1       2.960   9.561   4.739  1.00  0.00     0.004 C 
ENDBRANCH  14  15
ENDBRANCH  13  14
ENDBRANCH  12  13
ENDBRANCH  11  12
ENDBRANCH  10  11
ENDBRANCH   1  10
TORSDOF 12
ENDMDL
MODEL 5
REMARK VINA RESULT:    -2.222      2.193      5.790
REMARK INTER + INTRA:          -5.091
REMARK INTER:                  -3.759
REMARK INTRA:                  -1.331
REMARK UNBOUND:                -1.309
REMARK SMILES CCCCCCCCCCCCCC(=O)[O-]
REMARK SMILES IDX 8 1 9 2 10 3 11 4 12 5 13 6 14 7 15 8 16 9 7 10 6 11 5 12
REMARK SMILES IDX 4 13 3 14 2 15 1 16
REMARK H PARENT
REMARK Flexibility Score: inf
ROOT
ATOM      1  C   UNL     1       1.442   6.300   3.138  1.00  0.00     0.000 C 
ENDROOT
BRANCH   1   2
ATOM      2  C   UNL     1      -0.078   6.235   2.917  1.00  0.00     0.000 C 
BRANCH   2   3
ATOM      3  C   UNL     1      -0.842   7.278   3.745  1.00  0.00     0.000 C 
BRANCH   3   4
ATOM      4  C   UNL     1      -0.734   8.669   3.111  1.00  0.00     0.000 C 
BRANCH   4   5
ATOM      5  C   UNL     1      -0.133   9.681   4.098  1.00  0.00     0.006 C 
BRANCH   5   6
ATOM      6  C   UNL     1       1.362   9.918   3.849  1.00  0.00     0.053 C 
BRANCH   6   7
ATOM      7  C   UNL     1       2.210   9.293   4.914  1.00  0.00     0.041 C 
ATOM      8  O   UNL     1       1.699   8.955   6.014  1.00  0.00    -0.550 OA
ATOM      9  O   UNL     1       3.558   9.053   4.680  1.00  0.00    -0.550 OA
ENDBRANCH   6   7
ENDBRANCH   5   6
ENDBRANCH   4   5
ENDBRANCH   3   4
ENDBRANCH   2   3
ENDBRANCH   1   2
BRANCH   1  10
ATOM     10  C   UNL     1       2.205   6.753   1.880  1.00  0.00     0.000 C 
BRANCH  10  11
ATOM     11  C   UNL     1       3.714   6.439   1.973  1.00  0.00    -0.000 C 
BRANCH  11  12
ATOM     12  C   UNL     1       4.137   5.829   3.320  1.00  0.00    -0.000 C 
BRANCH  12  13
ATOM     13  C   UNL     1       5.647   5.949   3.581  1.00  0.00    -0.000 C 
BRANCH  13  14
ATOM     14  C   UNL     1       6.469   5.987   2.282  1.00  0.00    -0.000 C 
BRANCH  14  15
ATOM     15  C   UNL     1       7.502   7.124   2.268  1.00  0.00    -0.003 C 
ATOM     16  C   UNL     1       6.821   8.485   2.369  1.00  0.00     0.004 C 
ENDBRANCH  14  15
ENDBRANCH  13  14
ENDBRANCH  12  13
ENDBRANCH  11  12
ENDBRANCH  10  11
ENDBRANCH   1  10
TORSDOF 12
ENDMDL
MODEL 6
REMARK VINA RESULT:    -2.175      3.028      7.080
REMARK INTER + INTRA:          -5.010
REMARK INTER:                  -4.395
REMARK INTRA:                  -0.614
REMARK UNBOUND:                -1.309
REMARK SMILES CCCCCCCCCCCCCC(=O)[O-]
REMARK SMILES IDX 8 1 9 2 10 3 11 4 12 5 13 6 14 7 15 8 16 9 7 10 6 11 5 12
REMARK SMILES IDX 4 13 3 14 2 15 1 16
REMARK H PARENT
REMARK Flexibility Score: inf
ROOT
ATOM      1  C   UNL     1       4.532   6.857   3.567  1.00  0.00     0.000 C 
ENDROOT
BRANCH   1   2
ATOM      2  C   UNL     1       3.022   7.131   3.474  1.00  0.00     0.000 C 
BRANCH   2   3
ATOM      3  C   UNL     1       2.607   8.418   4.201  1.00  0.00     0.000 C 
BRANCH   3   4
ATOM      4  C   UNL     1       1.138   8.355   4.633  1.00  0.00     0.000 C 
BRANCH   4   5
ATOM      5  C   UNL     1       0.223   8.052   3.435  1.00  0.00     0.006 C 
BRANCH   5   6
ATOM      6  C   UNL     1      -0.852   7.012   3.774  1.00  0.00     0.053 C 
BRANCH   6   7
ATOM      7  C   UNL     1      -0.366   5.614   3.547  1.00  0.00     0.041 C 
ATOM      8  O   UNL     1       0.136   4.956   4.496  1.00  0.00    -0.550 OA
ATOM      9  O   UNL     1      -0.499   5.024   2.296  1.00  0.00    -0.550 OA
ENDBRANCH   6   7
ENDBRANCH   5   6
ENDBRANCH   4   5
ENDBRANCH   3   4
ENDBRANCH   2   3
ENDBRANCH   1   2
BRANCH   1  10
ATOM     10  C   UNL     1       5.368   8.148   3.600  1.00  0.00     0.000 C 
BRANCH  10  11
ATOM     11  C   UNL     1       5.757   8.624   2.183  1.00  0.00    -0.000 C 
BRANCH  11  12
ATOM     12  C   UNL     1       7.131   9.313   2.118  1.00  0.00    -0.000 C 
BRANCH  12  13
ATOM     13  C   UNL     1       8.297   8.313   2.070  1.00  0.00    -0.000 C 
BRANCH  13  14
ATOM     14  C   UNL     1       9.668   9.007   2.017  1.00  0.00    -0.000 C 
BRANCH  14  15
ATOM     15  C   UNL     1      10.792   8.144   2.608  1.00  0.00    -0.003 C 
ATOM     16  C   UNL     1      12.162   8.649   2.166  1.00  0.00     0.004 C 
ENDBRANCH  14  15
ENDBRANCH  13  14
ENDBRANCH  12  13
ENDBRANCH  11  12
ENDBRANCH  10  11
ENDBRANCH   1  10
TORSDOF 12
ENDMDL
MODEL 7
REMARK VINA RESULT:    -2.027      3.545      7.461
REMARK INTER + INTRA:          -4.757
REMARK INTER:                  -4.174
REMARK INTRA:                  -0.583
REMARK UNBOUND:                -1.309
REMARK SMILES CCCCCCCCCCCCCC(=O)[O-]
REMARK SMILES IDX 8 1 9 2 10 3 11 4 12 5 13 6 14 7 15 8 16 9 7 10 6 11 5 12
REMARK SMILES IDX 4 13 3 14 2 15 1 16
REMARK H PARENT
REMARK Flexibility Score: inf
ROOT
ATOM      1  C   UNL     1       5.396   5.797   3.416  1.00  0.00     0.000 C 
ENDROOT
BRANCH   1   2
ATOM      2  C   UNL     1       4.203   6.753   3.577  1.00  0.00     0.000 C 
BRANCH   2   3
ATOM      3  C   UNL     1       3.080   6.476   2.567  1.00  0.00     0.000 C 
BRANCH   3   4
ATOM      4  C   UNL     1       1.725   6.942   3.112  1.00  0.00     0.000 C 
BRANCH   4   5
ATOM      5  C   UNL     1       1.362   8.333   2.570  1.00  0.00     0.006 C 
BRANCH   5   6
ATOM      6  C   UNL     1       1.802   9.458   3.515  1.00  0.00     0.053 C 
BRANCH   6   7
ATOM      7  C   UNL     1       1.076   9.403   4.823  1.00  0.00     0.041 C 
ATOM      8  O   UNL     1      -0.171   9.571   4.863  1.00  0.00    -0.550 OA
ATOM      9  O   UNL     1       1.771   9.132   5.995  1.00  0.00    -0.550 OA
ENDBRANCH   6   7
ENDBRANCH   5   6
ENDBRANCH   4   5
ENDBRANCH   3   4
ENDBRANCH   2   3
ENDBRANCH   1   2
BRANCH   1  10
ATOM     10  C   UNL     1       6.497   6.370   2.506  1.00  0.00     0.000 C 
BRANCH  10  11
ATOM     11  C   UNL     1       6.246   7.851   2.154  1.00  0.00    -0.000 C 
BRANCH  11  12
ATOM     12  C   UNL     1       7.535   8.667   1.955  1.00  0.00    -0.000 C 
BRANCH  12  13
ATOM     13  C   UNL     1       8.792   7.785   1.884  1.00  0.00    -0.000 C 
BRANCH  13  14
ATOM     14  C   UNL     1      10.088   8.589   2.077  1.00  0.00    -0.000 C 
BRANCH  14  15
ATOM     15  C   UNL     1      11.322   7.691   2.253  1.00  0.00    -0.003 C 
ATOM     16  C   UNL     1      12.609   8.469   1.991  1.00  0.00     0.004 C 
ENDBRANCH  14  15
ENDBRANCH  13  14
ENDBRANCH  12  13
ENDBRANCH  11  12
ENDBRANCH  10  11
ENDBRANCH   1  10
TORSDOF 12
ENDMDL
MODEL 8
REMARK VINA RESULT:    -1.441      2.312      5.336
REMARK INTER + INTRA:          -3.761
REMARK INTER:                  -3.082
REMARK INTRA:                  -0.679
REMARK UNBOUND:                -1.309
REMARK SMILES CCCCCCCCCCCCCC(=O)[O-]
REMARK SMILES IDX 8 1 9 2 10 3 11 4 12 5 13 6 14 7 15 8 16 9 7 10 6 11 5 12
REMARK SMILES IDX 4 13 3 14 2 15 1 16
REMARK H PARENT
REMARK Flexibility Score: inf
ROOT
ATOM      1  C   UNL     1       4.802   6.430   2.818  1.00  0.00     0.000 C 
ENDROOT
BRANCH   1   2
ATOM      2  C   UNL     1       3.441   5.835   3.214  1.00  0.00     0.000 C 
BRANCH   2   3
ATOM      3  C   UNL     1       2.274   6.454   2.432  1.00  0.00     0.000 C 
BRANCH   3   4
ATOM      4  C   UNL     1       1.302   7.172   3.374  1.00  0.00     0.000 C 
BRANCH   4   5
ATOM      5  C   UNL     1      -0.117   7.205   2.783  1.00  0.00     0.006 C 
BRANCH   5   6
ATOM      6  C   UNL     1      -1.125   6.441   3.651  1.00  0.00     0.053 C 
BRANCH   6   7
ATOM      7  C   UNL     1      -0.851   4.968   3.657  1.00  0.00     0.041 C 
ATOM      8  O   UNL     1      -0.442   4.396   2.613  1.00  0.00    -0.550 OA
ATOM      9  O   UNL     1      -1.015   4.234   4.825  1.00  0.00    -0.550 OA
ENDBRANCH   6   7
ENDBRANCH   5   6
ENDBRANCH   4   5
ENDBRANCH   3   4
ENDBRANCH   2   3
ENDBRANCH   1   2
BRANCH   1  10
ATOM     10  C   UNL     1       5.223   7.603   3.722  1.00  0.00     0.000 C 
BRANCH  10  11
ATOM     11  C   UNL     1       6.054   8.655   2.958  1.00  0.00    -0.000 C 
BRANCH  11  12
ATOM     12  C   UNL     1       5.203   9.626   2.121  1.00  0.00    -0.000 C 
BRANCH  12  13
ATOM     13  C   UNL     1       3.764   9.759   2.644  1.00  0.00    -0.000 C 
BRANCH  13  14
ATOM     14  C   UNL     1       3.710  10.122   4.136  1.00  0.00    -0.000 C 
BRANCH  14  15
ATOM     15  C   UNL     1       2.290  10.035   4.717  1.00  0.00    -0.003 C 
ATOM     16  C   UNL     1       2.305   9.424   6.115  1.00  0.00     0.004 C 
ENDBRANCH  14  15
ENDBRANCH  13  14
ENDBRANCH  12  13
ENDBRANCH  11  12
ENDBRANCH  10  11
ENDBRANCH   1  10
TORSDOF 12
ENDMDL
MODEL 9
REMARK VINA RESULT:    -1.314      1.913      3.150
REMARK INTER + INTRA:          -3.544
REMARK INTER:                  -2.368
REMARK INTRA:                  -1.176
REMARK UNBOUND:                -1.309
REMARK SMILES CCCCCCCCCCCCCC(=O)[O-]
REMARK SMILES IDX 8 1 9 2 10 3 11 4 12 5 13 6 14 7 15 8 16 9 7 10 6 11 5 12
REMARK SMILES IDX 4 13 3 14 2 15 1 16
REMARK H PARENT
REMARK Flexibility Score: inf
ROOT
ATOM      1  C   UNL     1       1.009   8.368   4.614  1.00  0.00     0.000 C 
ENDROOT
BRANCH   1   2
ATOM      2  C   UNL     1       1.166   9.515   5.625  1.00  0.00     0.000 C 
BRANCH   2   3
ATOM      3  C   UNL     1       2.599  10.065   5.681  1.00  0.00     0.000 C 
BRANCH   3   4
ATOM      4  C   UNL     1       3.540   9.233   4.803  1.00  0.00     0.000 C 
BRANCH   4   5
ATOM      5  C   UNL     1       4.296  10.125   3.806  1.00  0.00     0.006 C 
BRANCH   5   6
ATOM      6  C   UNL     1       4.686   9.369   2.529  1.00  0.00     0.053 C 
BRANCH   6   7
ATOM      7  C   UNL     1       6.104   8.890   2.576  1.00  0.00     0.041 C 
ATOM      8  O   UNL     1       6.367   7.732   2.992  1.00  0.00    -0.550 OA
ATOM      9  O   UNL     1       7.131   9.710   2.126  1.00  0.00    -0.550 OA
ENDBRANCH   6   7
ENDBRANCH   5   6
ENDBRANCH   4   5
ENDBRANCH   3   4
ENDBRANCH   2   3
ENDBRANCH   1   2
BRANCH   1  10
ATOM     10  C   UNL     1      -0.296   8.466   3.804  1.00  0.00     0.000 C 
BRANCH  10  11
ATOM     11  C   UNL     1      -1.125   7.165   3.882  1.00  0.00    -0.000 C 
BRANCH  11  12
ATOM     12  C   UNL     1      -0.735   6.120   2.822  1.00  0.00    -0.000 C 
BRANCH  12  13
ATOM     13  C   UNL     1       0.374   6.614   1.879  1.00  0.00    -0.000 C 
BRANCH  13  14
ATOM     14  C   UNL     1       1.604   5.692   1.883  1.00  0.00    -0.000 C 
BRANCH  14  15
ATOM     15  C   UNL     1       2.906   6.442   2.204  1.00  0.00    -0.003 C 
ATOM     16  C   UNL     1       3.619   5.818   3.400  1.00  0.00     0.004 C 
ENDBRANCH  14  15
ENDBRANCH  13  14
ENDBRANCH  12  13
ENDBRANCH  11  12
ENDBRANCH  10  11
ENDBRANCH   1  10
TORSDOF 12
ENDMDL
