MODEL 1
REMARK VINA RESULT:    -4.099      0.000      0.000
REMARK INTER + INTRA:          -9.389
REMARK INTER:                  -7.693
REMARK INTRA:                  -1.696
REMARK UNBOUND:                -1.696
REMARK SMILES CCCCCCCCC=CCCCCCCCC(=O)[O-]
REMARK SMILES IDX 10 1 9 2 11 3 12 4 13 5 14 6 15 7 16 8 17 9 18 10 19 11
REMARK SMILES IDX 20 12 8 13 7 14 6 15 5 16 4 17 3 18 2 19 1 20
REMARK H PARENT
REMARK Flexibility Score: inf
ROOT
ATOM      1  C   UNL     1     137.617 142.211 143.138  1.00  0.00    -0.031 C 
ATOM      2  C   UNL     1     137.530 143.121 144.120  1.00  0.00    -0.031 C 
ENDROOT
BRANCH   1   3
ATOM      3  C   UNL     1     137.013 142.455 141.784  1.00  0.00     0.027 C 
BRANCH   3   4
ATOM      4  C   UNL     1     136.479 143.891 141.668  1.00  0.00     0.004 C 
BRANCH   4   5
ATOM      5  C   UNL     1     134.944 143.951 141.662  1.00  0.00     0.000 C 
BRANCH   5   6
ATOM      6  C   UNL     1     134.382 144.756 142.848  1.00  0.00     0.000 C 
BRANCH   6   7
ATOM      7  C   UNL     1     135.322 145.888 143.291  1.00  0.00     0.000 C 
BRANCH   7   8
ATOM      8  C   UNL     1     134.725 147.282 143.049  1.00  0.00     0.006 C 
BRANCH   8   9
ATOM      9  C   UNL     1     135.506 148.353 143.817  1.00  0.00     0.053 C 
BRANCH   9  10
ATOM     10  C   UNL     1     136.606 148.908 142.967  1.00  0.00     0.041 C 
ATOM     11  O   UNL     1     136.334 149.540 141.912  1.00  0.00    -0.550 OA
ATOM     12  O   UNL     1     137.929 148.769 143.364  1.00  0.00    -0.550 OA
ENDBRANCH   9  10
ENDBRANCH   8   9
ENDBRANCH   7   8
ENDBRANCH   6   7
ENDBRANCH   5   6
ENDBRANCH   4   5
ENDBRANCH   3   4
ENDBRANCH   1   3
BRANCH   2  13
ATOM     13  C   UNL     1     138.151 142.886 145.469  1.00  0.00     0.027 C 
BRANCH  13  14
ATOM     14  C   UNL     1     137.112 143.023 146.589  1.00  0.00     0.004 C 
BRANCH  14  15
ATOM     15  C   UNL     1     137.762 142.844 147.966  1.00  0.00     0.000 C 
BRANCH  15  16
ATOM     16  C   UNL     1     139.288 142.755 147.848  1.00  0.00     0.000 C 
BRANCH  16  17
ATOM     17  C   UNL     1     139.816 141.465 148.487  1.00  0.00    -0.000 C 
BRANCH  17  18
ATOM     18  C   UNL     1     139.500 140.246 147.610  1.00  0.00    -0.000 C 
BRANCH  18  19
ATOM     19  C   UNL     1     140.391 140.168 146.361  1.00  0.00    -0.003 C 
ATOM     20  C   UNL     1     139.700 139.484 145.182  1.00  0.00     0.004 C 
ENDBRANCH  18  19
ENDBRANCH  17  18
ENDBRANCH  16  17
ENDBRANCH  15  16
ENDBRANCH  14  15
ENDBRANCH  13  14
ENDBRANCH   2  13
TORSDOF 15
ENDMDL
MODEL 2
REMARK VINA RESULT:    -4.048      1.470      3.202
REMARK INTER + INTRA:          -9.293
REMARK INTER:                  -7.564
REMARK INTRA:                  -1.729
REMARK UNBOUND:                -1.696
REMARK SMILES CCCCCCCCC=CCCCCCCCC(=O)[O-]
REMARK SMILES IDX 10 1 9 2 11 3 12 4 13 5 14 6 15 7 16 8 17 9 18 10 19 11
REMARK SMILES IDX 20 12 8 13 7 14 6 15 5 16 4 17 3 18 2 19 1 20
REMARK H PARENT
REMARK Flexibility Score: inf
ROOT
ATOM      1  C   UNL     1     135.187 144.509 141.266  1.00  0.00    -0.031 C 
ATOM      2  C   UNL     1     135.766 144.240 142.446  1.00  0.00    -0.031 C 
ENDROOT
BRANCH   1   3
ATOM      3  C   UNL     1     133.699 144.681 141.140  1.00  0.00     0.027 C 
BRANCH   3   4
ATOM      4  C   UNL     1     133.345 146.099 140.665  1.00  0.00     0.004 C 
BRANCH   4   5
ATOM      5  C   UNL     1     133.063 147.059 141.831  1.00  0.00     0.000 C 
BRANCH   5   6
ATOM      6  C   UNL     1     134.065 148.226 141.889  1.00  0.00     0.000 C 
BRANCH   6   7
ATOM      7  C   UNL     1     134.848 148.266 143.211  1.00  0.00     0.000 C 
BRANCH   7   8
ATOM      8  C   UNL     1     136.281 147.733 143.066  1.00  0.00     0.006 C 
BRANCH   8   9
ATOM      9  C   UNL     1     136.821 147.991 141.656  1.00  0.00     0.053 C 
BRANCH   9  10
ATOM     10  C   UNL     1     137.751 149.163 141.658  1.00  0.00     0.041 C 
ATOM     11  O   UNL     1     137.813 149.924 140.657  1.00  0.00    -0.550 OA
ATOM     12  O   UNL     1     138.516 149.442 142.784  1.00  0.00    -0.550 OA
ENDBRANCH   9  10
ENDBRANCH   8   9
ENDBRANCH   7   8
ENDBRANCH   6   7
ENDBRANCH   5   6
ENDBRANCH   4   5
ENDBRANCH   3   4
ENDBRANCH   1   3
BRANCH   2  13
ATOM     13  C   UNL     1     137.256 144.088 142.577  1.00  0.00     0.027 C 
BRANCH  13  14
ATOM     14  C   UNL     1     137.631 142.671 143.027  1.00  0.00     0.004 C 
BRANCH  14  15
ATOM     15  C   UNL     1     137.724 142.587 144.555  1.00  0.00     0.000 C 
BRANCH  15  16
ATOM     16  C   UNL     1     138.707 141.492 144.987  1.00  0.00     0.000 C 
BRANCH  16  17
ATOM     17  C   UNL     1     138.808 141.413 146.516  1.00  0.00    -0.000 C 
BRANCH  17  18
ATOM     18  C   UNL     1     137.970 142.515 147.180  1.00  0.00    -0.000 C 
BRANCH  18  19
ATOM     19  C   UNL     1     138.754 143.289 148.250  1.00  0.00    -0.003 C 
ATOM     20  C   UNL     1     139.908 144.102 147.665  1.00  0.00     0.004 C 
ENDBRANCH  18  19
ENDBRANCH  17  18
ENDBRANCH  16  17
ENDBRANCH  15  16
ENDBRANCH  14  15
ENDBRANCH  13  14
ENDBRANCH   2  13
TORSDOF 15
ENDMDL
MODEL 3
REMARK VINA RESULT:    -4.038      5.930      8.611
REMARK INTER + INTRA:          -9.274
REMARK INTER:                  -8.082
REMARK INTRA:                  -1.192
REMARK UNBOUND:                -1.696
REMARK SMILES CCCCCCCCC=CCCCCCCCC(=O)[O-]
REMARK SMILES IDX 10 1 9 2 11 3 12 4 13 5 14 6 15 7 16 8 17 9 18 10 19 11
REMARK SMILES IDX 20 12 8 13 7 14 6 15 5 16 4 17 3 18 2 19 1 20
REMARK H PARENT
REMARK Flexibility Score: inf
ROOT
ATOM      1  C   UNL     1     137.484 137.186 145.943  1.00  0.00    -0.031 C 
ATOM      2  C   UNL     1     136.681 136.392 146.668  1.00  0.00    -0.031 C 
ENDROOT
BRANCH   1   3
ATOM      3  C   UNL     1     138.964 136.940 145.858  1.00  0.00     0.027 C 
BRANCH   3   4
ATOM      4  C   UNL     1     139.728 137.815 146.862  1.00  0.00     0.004 C 
BRANCH   4   5
ATOM      5  C   UNL     1     140.640 138.844 146.175  1.00  0.00     0.000 C 
BRANCH   5   6
ATOM      6  C   UNL     1     140.402 140.276 146.687  1.00  0.00     0.000 C 
BRANCH   6   7
ATOM      7  C   UNL     1     139.008 140.457 147.308  1.00  0.00     0.000 C 
BRANCH   7   8
ATOM      8  C   UNL     1     139.023 141.377 148.537  1.00  0.00     0.006 C 
BRANCH   8   9
ATOM      9  C   UNL     1     138.747 142.830 148.137  1.00  0.00     0.053 C 
BRANCH   9  10
ATOM     10  C   UNL     1     140.030 143.544 147.845  1.00  0.00     0.041 C 
ATOM     11  O   UNL     1     140.953 143.564 148.701  1.00  0.00    -0.550 OA
ATOM     12  O   UNL     1     140.224 144.148 146.609  1.00  0.00    -0.550 OA
ENDBRANCH   9  10
ENDBRANCH   8   9
ENDBRANCH   7   8
ENDBRANCH   6   7
ENDBRANCH   5   6
ENDBRANCH   4   5
ENDBRANCH   3   4
ENDBRANCH   1   3
BRANCH   2  13
ATOM     13  C   UNL     1     135.197 136.626 146.738  1.00  0.00     0.027 C 
BRANCH  13  14
ATOM     14  C   UNL     1     134.527 135.649 147.712  1.00  0.00     0.004 C 
BRANCH  14  15
ATOM     15  C   UNL     1     135.496 134.536 148.129  1.00  0.00     0.000 C 
BRANCH  15  16
ATOM     16  C   UNL     1     135.063 133.184 147.551  1.00  0.00     0.000 C 
BRANCH  16  17
ATOM     17  C   UNL     1     135.012 132.108 148.643  1.00  0.00    -0.000 C 
BRANCH  17  18
ATOM     18  C   UNL     1     135.300 132.712 150.025  1.00  0.00    -0.000 C 
BRANCH  18  19
ATOM     19  C   UNL     1     134.138 132.517 151.009  1.00  0.00    -0.003 C 
ATOM     20  C   UNL     1     133.418 133.824 151.341  1.00  0.00     0.004 C 
ENDBRANCH  18  19
ENDBRANCH  17  18
ENDBRANCH  16  17
ENDBRANCH  15  16
ENDBRANCH  14  15
ENDBRANCH  13  14
ENDBRANCH   2  13
TORSDOF 15
ENDMDL
MODEL 4
REMARK VINA RESULT:    -4.036      4.202      8.344
REMARK INTER + INTRA:          -9.271
REMARK INTER:                  -7.581
REMARK INTRA:                  -1.691
REMARK UNBOUND:                -1.696
REMARK SMILES CCCCCCCCC=CCCCCCCCC(=O)[O-]
REMARK SMILES IDX 10 1 9 2 11 3 12 4 13 5 14 6 15 7 16 8 17 9 18 10 19 11
REMARK SMILES IDX 20 12 8 13 7 14 6 15 5 16 4 17 3 18 2 19 1 20
REMARK H PARENT
REMARK Flexibility Score: inf
ROOT
ATOM      1  C   UNL     1     138.106 142.970 145.541  1.00  0.00    -0.031 C 
ATOM      2  C   UNL     1     138.043 142.043 144.573  1.00  0.00    -0.031 C 
ENDROOT
BRANCH   1   3
ATOM      3  C   UNL     1     137.131 142.982 146.685  1.00  0.00     0.027 C 
BRANCH   3   4
ATOM      4  C   UNL     1     137.864 143.024 148.035  1.00  0.00     0.004 C 
BRANCH   4   5
ATOM      5  C   UNL     1     139.278 143.615 147.921  1.00  0.00     0.000 C 
BRANCH   5   6
ATOM      6  C   UNL     1     140.366 142.636 148.394  1.00  0.00     0.000 C 
BRANCH   6   7
ATOM      7  C   UNL     1     139.877 141.179 148.421  1.00  0.00     0.000 C 
BRANCH   7   8
ATOM      8  C   UNL     1     140.199 140.423 147.123  1.00  0.00     0.006 C 
BRANCH   8   9
ATOM      9  C   UNL     1     139.225 139.259 146.913  1.00  0.00     0.053 C 
BRANCH   9  10
ATOM     10  C   UNL     1     139.969 138.016 146.539  1.00  0.00     0.041 C 
ATOM     11  O   UNL     1     141.180 137.882 146.857  1.00  0.00    -0.550 OA
ATOM     12  O   UNL     1     139.312 136.984 145.880  1.00  0.00    -0.550 OA
ENDBRANCH   9  10
ENDBRANCH   8   9
ENDBRANCH   7   8
ENDBRANCH   6   7
ENDBRANCH   5   6
ENDBRANCH   4   5
ENDBRANCH   3   4
ENDBRANCH   1   3
BRANCH   2  13
ATOM     13  C   UNL     1     139.030 142.019 143.439  1.00  0.00     0.027 C 
BRANCH  13  14
ATOM     14  C   UNL     1     138.429 142.631 142.168  1.00  0.00     0.004 C 
BRANCH  14  15
ATOM     15  C   UNL     1     136.942 142.952 142.362  1.00  0.00     0.000 C 
BRANCH  15  16
ATOM     16  C   UNL     1     136.702 144.466 142.369  1.00  0.00     0.000 C 
BRANCH  16  17
ATOM     17  C   UNL     1     135.494 144.829 143.241  1.00  0.00    -0.000 C 
BRANCH  17  18
ATOM     18  C   UNL     1     135.270 146.347 143.267  1.00  0.00    -0.000 C 
BRANCH  18  19
ATOM     19  C   UNL     1     134.643 146.875 141.968  1.00  0.00    -0.003 C 
ATOM     20  C   UNL     1     133.471 147.823 142.219  1.00  0.00     0.004 C 
ENDBRANCH  18  19
ENDBRANCH  17  18
ENDBRANCH  16  17
ENDBRANCH  15  16
ENDBRANCH  14  15
ENDBRANCH  13  14
ENDBRANCH   2  13
TORSDOF 15
ENDMDL
MODEL 5
REMARK VINA RESULT:    -4.006      2.946      7.455
REMARK INTER + INTRA:          -9.214
REMARK INTER:                  -7.338
REMARK INTRA:                  -1.876
REMARK UNBOUND:                -1.696
REMARK SMILES CCCCCCCCC=CCCCCCCCC(=O)[O-]
REMARK SMILES IDX 10 1 9 2 11 3 12 4 13 5 14 6 15 7 16 8 17 9 18 10 19 11
REMARK SMILES IDX 20 12 8 13 7 14 6 15 5 16 4 17 3 18 2 19 1 20
REMARK H PARENT
REMARK Flexibility Score: inf
ROOT
ATOM      1  C   UNL     1     136.264 145.422 143.377  1.00  0.00    -0.031 C 
ATOM      2  C   UNL     1     135.143 146.156 143.313  1.00  0.00    -0.031 C 
ENDROOT
BRANCH   1   3
ATOM      3  C   UNL     1     136.226 143.954 143.699  1.00  0.00     0.027 C 
BRANCH   3   4
ATOM      4  C   UNL     1     137.645 143.369 143.778  1.00  0.00     0.004 C 
BRANCH   4   5
ATOM      5  C   UNL     1     137.922 142.671 145.118  1.00  0.00     0.000 C 
BRANCH   5   6
ATOM      6  C   UNL     1     136.958 143.124 146.229  1.00  0.00     0.000 C 
BRANCH   6   7
ATOM      7  C   UNL     1     137.481 142.792 147.636  1.00  0.00     0.000 C 
BRANCH   7   8
ATOM      8  C   UNL     1     138.605 141.746 147.617  1.00  0.00     0.006 C 
BRANCH   8   9
ATOM      9  C   UNL     1     139.829 142.244 148.392  1.00  0.00     0.053 C 
BRANCH   9  10
ATOM     10  C   UNL     1     140.335 143.523 147.803  1.00  0.00     0.041 C 
ATOM     11  O   UNL     1     140.207 144.605 148.434  1.00  0.00    -0.550 OA
ATOM     12  O   UNL     1     140.992 143.513 146.580  1.00  0.00    -0.550 OA
ENDBRANCH   9  10
ENDBRANCH   8   9
ENDBRANCH   7   8
ENDBRANCH   6   7
ENDBRANCH   5   6
ENDBRANCH   4   5
ENDBRANCH   3   4
ENDBRANCH   1   3
BRANCH   2  13
ATOM     13  C   UNL     1     135.179 147.620 142.971  1.00  0.00     0.027 C 
BRANCH  13  14
ATOM     14  C   UNL     1     134.007 148.005 142.059  1.00  0.00     0.004 C 
BRANCH  14  15
ATOM     15  C   UNL     1     133.052 146.822 141.862  1.00  0.00     0.000 C 
BRANCH  15  16
ATOM     16  C   UNL     1     133.238 146.190 140.477  1.00  0.00     0.000 C 
BRANCH  16  17
ATOM     17  C   UNL     1     133.253 144.659 140.567  1.00  0.00    -0.000 C 
BRANCH  17  18
ATOM     18  C   UNL     1     134.639 144.100 140.216  1.00  0.00    -0.000 C 
BRANCH  18  19
ATOM     19  C   UNL     1     135.380 144.961 139.183  1.00  0.00    -0.003 C 
ATOM     20  C   UNL     1     136.639 145.615 139.751  1.00  0.00     0.004 C 
ENDBRANCH  18  19
ENDBRANCH  17  18
ENDBRANCH  16  17
ENDBRANCH  15  16
ENDBRANCH  14  15
ENDBRANCH  13  14
ENDBRANCH   2  13
TORSDOF 15
ENDMDL
MODEL 6
REMARK VINA RESULT:    -3.990      1.407      2.609
REMARK INTER + INTRA:          -9.185
REMARK INTER:                  -7.621
REMARK INTRA:                  -1.564
REMARK UNBOUND:                -1.696
REMARK SMILES CCCCCCCCC=CCCCCCCCC(=O)[O-]
REMARK SMILES IDX 10 1 9 2 11 3 12 4 13 5 14 6 15 7 16 8 17 9 18 10 19 11
REMARK SMILES IDX 20 12 8 13 7 14 6 15 5 16 4 17 3 18 2 19 1 20
REMARK H PARENT
REMARK Flexibility Score: inf
ROOT
ATOM      1  C   UNL     1     136.580 144.231 143.341  1.00  0.00    -0.031 C 
ATOM      2  C   UNL     1     137.139 143.015 143.436  1.00  0.00    -0.031 C 
ENDROOT
BRANCH   1   3
ATOM      3  C   UNL     1     135.626 144.574 142.231  1.00  0.00     0.027 C 
BRANCH   3   4
ATOM      4  C   UNL     1     134.197 144.752 142.767  1.00  0.00     0.004 C 
BRANCH   4   5
ATOM      5  C   UNL     1     133.167 144.960 141.645  1.00  0.00     0.000 C 
BRANCH   5   6
ATOM      6  C   UNL     1     133.294 146.340 140.977  1.00  0.00     0.000 C 
BRANCH   6   7
ATOM      7  C   UNL     1     133.087 147.497 141.969  1.00  0.00     0.000 C 
BRANCH   7   8
ATOM      8  C   UNL     1     134.287 148.454 142.021  1.00  0.00     0.006 C 
BRANCH   8   9
ATOM      9  C   UNL     1     135.133 148.204 143.274  1.00  0.00     0.053 C 
BRANCH   9  10
ATOM     10  C   UNL     1     136.588 148.185 142.928  1.00  0.00     0.041 C 
ATOM     11  O   UNL     1     137.444 148.578 143.764  1.00  0.00    -0.550 OA
ATOM     12  O   UNL     1     137.004 147.688 141.699  1.00  0.00    -0.550 OA
ENDBRANCH   9  10
ENDBRANCH   8   9
ENDBRANCH   7   8
ENDBRANCH   6   7
ENDBRANCH   5   6
ENDBRANCH   4   5
ENDBRANCH   3   4
ENDBRANCH   1   3
BRANCH   2  13
ATOM     13  C   UNL     1     138.078 142.666 144.557  1.00  0.00     0.027 C 
BRANCH  13  14
ATOM     14  C   UNL     1     139.098 141.608 144.116  1.00  0.00     0.004 C 
BRANCH  14  15
ATOM     15  C   UNL     1     139.954 141.143 145.300  1.00  0.00     0.000 C 
BRANCH  15  16
ATOM     16  C   UNL     1     139.128 140.299 146.278  1.00  0.00     0.000 C 
BRANCH  16  17
ATOM     17  C   UNL     1     139.462 140.655 147.732  1.00  0.00    -0.000 C 
BRANCH  17  18
ATOM     18  C   UNL     1     138.965 142.066 148.081  1.00  0.00    -0.000 C 
BRANCH  18  19
ATOM     19  C   UNL     1     140.115 143.059 148.308  1.00  0.00    -0.003 C 
ATOM     20  C   UNL     1     140.019 144.290 147.408  1.00  0.00     0.004 C 
ENDBRANCH  18  19
ENDBRANCH  17  18
ENDBRANCH  16  17
ENDBRANCH  15  16
ENDBRANCH  14  15
ENDBRANCH  13  14
ENDBRANCH   2  13
TORSDOF 15
ENDMDL
MODEL 7
REMARK VINA RESULT:    -3.949      3.459      7.831
REMARK INTER + INTRA:          -9.109
REMARK INTER:                  -7.350
REMARK INTRA:                  -1.758
REMARK UNBOUND:                -1.696
REMARK SMILES CCCCCCCCC=CCCCCCCCC(=O)[O-]
REMARK SMILES IDX 10 1 9 2 11 3 12 4 13 5 14 6 15 7 16 8 17 9 18 10 19 11
REMARK SMILES IDX 20 12 8 13 7 14 6 15 5 16 4 17 3 18 2 19 1 20
REMARK H PARENT
REMARK Flexibility Score: inf
ROOT
ATOM      1  C   UNL     1     136.321 143.262 142.183  1.00  0.00    -0.031 C 
ATOM      2  C   UNL     1     136.108 144.204 143.114  1.00  0.00    -0.031 C 
ENDROOT
BRANCH   1   3
ATOM      3  C   UNL     1     137.652 142.576 142.048  1.00  0.00     0.027 C 
BRANCH   3   4
ATOM      4  C   UNL     1     137.574 141.120 142.531  1.00  0.00     0.004 C 
BRANCH   4   5
ATOM      5  C   UNL     1     138.559 140.824 143.673  1.00  0.00     0.000 C 
BRANCH   5   6
ATOM      6  C   UNL     1     139.537 141.986 143.924  1.00  0.00     0.000 C 
BRANCH   6   7
ATOM      7  C   UNL     1     139.510 142.474 145.381  1.00  0.00     0.000 C 
BRANCH   7   8
ATOM      8  C   UNL     1     138.134 142.296 146.040  1.00  0.00     0.006 C 
BRANCH   8   9
ATOM      9  C   UNL     1     138.244 142.369 147.566  1.00  0.00     0.053 C 
BRANCH   9  10
ATOM     10  C   UNL     1     139.234 141.365 148.067  1.00  0.00     0.041 C 
ATOM     11  O   UNL     1     139.071 140.140 147.825  1.00  0.00    -0.550 OA
ATOM     12  O   UNL     1     140.360 141.786 148.762  1.00  0.00    -0.550 OA
ENDBRANCH   9  10
ENDBRANCH   8   9
ENDBRANCH   7   8
ENDBRANCH   6   7
ENDBRANCH   5   6
ENDBRANCH   4   5
ENDBRANCH   3   4
ENDBRANCH   1   3
BRANCH   2  13
ATOM     13  C   UNL     1     134.771 144.877 143.263  1.00  0.00     0.027 C 
BRANCH  13  14
ATOM     14  C   UNL     1     133.840 144.523 142.097  1.00  0.00     0.004 C 
BRANCH  14  15
ATOM     15  C   UNL     1     132.930 145.704 141.741  1.00  0.00     0.000 C 
BRANCH  15  16
ATOM     16  C   UNL     1     133.390 146.382 140.445  1.00  0.00     0.000 C 
BRANCH  16  17
ATOM     17  C   UNL     1     133.581 147.890 140.649  1.00  0.00    -0.000 C 
BRANCH  17  18
ATOM     18  C   UNL     1     133.733 148.229 142.139  1.00  0.00    -0.000 C 
BRANCH  18  19
ATOM     19  C   UNL     1     135.181 148.567 142.524  1.00  0.00    -0.003 C 
ATOM     20  C   UNL     1     135.464 148.348 144.010  1.00  0.00     0.004 C 
ENDBRANCH  18  19
ENDBRANCH  17  18
ENDBRANCH  16  17
ENDBRANCH  15  16
ENDBRANCH  14  15
ENDBRANCH  13  14
ENDBRANCH   2  13
TORSDOF 15
ENDMDL
MODEL 8
REMARK VINA RESULT:    -3.933      3.816      7.896
REMARK INTER + INTRA:          -9.077
REMARK INTER:                  -6.991
REMARK INTRA:                  -2.086
REMARK UNBOUND:                -1.696
REMARK SMILES CCCCCCCCC=CCCCCCCCC(=O)[O-]
REMARK SMILES IDX 10 1 9 2 11 3 12 4 13 5 14 6 15 7 16 8 17 9 18 10 19 11
REMARK SMILES IDX 20 12 8 13 7 14 6 15 5 16 4 17 3 18 2 19 1 20
REMARK H PARENT
REMARK Flexibility Score: inf
ROOT
ATOM      1  C   UNL     1     138.098 142.967 145.487  1.00  0.00    -0.031 C 
ATOM      2  C   UNL     1     137.976 142.101 144.469  1.00  0.00    -0.031 C 
ENDROOT
BRANCH   1   3
ATOM      3  C   UNL     1     137.213 142.888 146.698  1.00  0.00     0.027 C 
BRANCH   3   4
ATOM      4  C   UNL     1     138.025 143.075 147.989  1.00  0.00     0.004 C 
BRANCH   4   5
ATOM      5  C   UNL     1     139.464 142.552 147.862  1.00  0.00     0.000 C 
BRANCH   5   6
ATOM      6  C   UNL     1     139.613 141.108 148.372  1.00  0.00     0.000 C 
BRANCH   6   7
ATOM      7  C   UNL     1     139.461 140.068 147.251  1.00  0.00     0.000 C 
BRANCH   7   8
ATOM      8  C   UNL     1     140.813 139.610 146.682  1.00  0.00     0.006 C 
BRANCH   8   9
ATOM      9  C   UNL     1     141.123 140.327 145.364  1.00  0.00     0.053 C 
BRANCH   9  10
ATOM     10  C   UNL     1     142.218 139.620 144.629  1.00  0.00     0.041 C 
ATOM     11  O   UNL     1     142.037 139.225 143.447  1.00  0.00    -0.550 OA
ATOM     12  O   UNL     1     143.456 139.440 145.233  1.00  0.00    -0.550 OA
ENDBRANCH   9  10
ENDBRANCH   8   9
ENDBRANCH   7   8
ENDBRANCH   6   7
ENDBRANCH   5   6
ENDBRANCH   4   5
ENDBRANCH   3   4
ENDBRANCH   1   3
BRANCH   2  13
ATOM     13  C   UNL     1     138.874 142.167 143.266  1.00  0.00     0.027 C 
BRANCH  13  14
ATOM     14  C   UNL     1     138.080 141.969 141.969  1.00  0.00     0.004 C 
BRANCH  14  15
ATOM     15  C   UNL     1     136.829 142.855 141.950  1.00  0.00     0.000 C 
BRANCH  15  16
ATOM     16  C   UNL     1     137.195 144.319 141.681  1.00  0.00     0.000 C 
BRANCH  16  17
ATOM     17  C   UNL     1     136.648 145.236 142.782  1.00  0.00    -0.000 C 
BRANCH  17  18
ATOM     18  C   UNL     1     135.281 144.745 143.279  1.00  0.00    -0.000 C 
BRANCH  18  19
ATOM     19  C   UNL     1     134.110 145.375 142.510  1.00  0.00    -0.003 C 
ATOM     20  C   UNL     1     133.513 144.432 141.466  1.00  0.00     0.004 C 
ENDBRANCH  18  19
ENDBRANCH  17  18
ENDBRANCH  16  17
ENDBRANCH  15  16
ENDBRANCH  14  15
ENDBRANCH  13  14
ENDBRANCH   2  13
TORSDOF 15
ENDMDL
MODEL 9
REMARK VINA RESULT:    -3.930      3.195      7.667
REMARK INTER + INTRA:          -9.072
REMARK INTER:                  -7.207
REMARK INTRA:                  -1.865
REMARK UNBOUND:                -1.696
REMARK SMILES CCCCCCCCC=CCCCCCCCC(=O)[O-]
REMARK SMILES IDX 10 1 9 2 11 3 12 4 13 5 14 6 15 7 16 8 17 9 18 10 19 11
REMARK SMILES IDX 20 12 8 13 7 14 6 15 5 16 4 17 3 18 2 19 1 20
REMARK H PARENT
REMARK Flexibility Score: inf
ROOT
ATOM      1  C   UNL     1     134.933 144.826 141.034  1.00  0.00    -0.031 C 
ATOM      2  C   UNL     1     134.181 145.520 141.902  1.00  0.00    -0.031 C 
ENDROOT
BRANCH   1   3
ATOM      3  C   UNL     1     135.831 143.709 141.488  1.00  0.00     0.027 C 
BRANCH   3   4
ATOM      4  C   UNL     1     136.989 144.245 142.343  1.00  0.00     0.004 C 
BRANCH   4   5
ATOM      5  C   UNL     1     136.854 143.864 143.826  1.00  0.00     0.000 C 
BRANCH   5   6
ATOM      6  C   UNL     1     137.735 142.662 144.208  1.00  0.00     0.000 C 
BRANCH   6   7
ATOM      7  C   UNL     1     138.528 142.900 145.503  1.00  0.00     0.000 C 
BRANCH   7   8
ATOM      8  C   UNL     1     137.740 142.505 146.761  1.00  0.00     0.006 C 
BRANCH   8   9
ATOM      9  C   UNL     1     138.362 143.129 148.014  1.00  0.00     0.053 C 
BRANCH   9  10
ATOM     10  C   UNL     1     139.724 142.562 148.261  1.00  0.00     0.041 C 
ATOM     11  O   UNL     1     139.873 141.324 148.437  1.00  0.00    -0.550 OA
ATOM     12  O   UNL     1     140.836 143.394 148.249  1.00  0.00    -0.550 OA
ENDBRANCH   9  10
ENDBRANCH   8   9
ENDBRANCH   7   8
ENDBRANCH   6   7
ENDBRANCH   5   6
ENDBRANCH   4   5
ENDBRANCH   3   4
ENDBRANCH   1   3
BRANCH   2  13
ATOM     13  C   UNL     1     133.268 146.624 141.447  1.00  0.00     0.027 C 
BRANCH  13  14
ATOM     14  C   UNL     1     133.585 147.940 142.169  1.00  0.00     0.004 C 
BRANCH  14  15
ATOM     15  C   UNL     1     134.785 147.775 143.109  1.00  0.00     0.000 C 
BRANCH  15  16
ATOM     16  C   UNL     1     135.840 148.857 142.848  1.00  0.00     0.000 C 
BRANCH  16  17
ATOM     17  C   UNL     1     135.539 149.620 141.551  1.00  0.00    -0.000 C 
BRANCH  17  18
ATOM     18  C   UNL     1     136.620 149.354 140.494  1.00  0.00    -0.000 C 
BRANCH  18  19
ATOM     19  C   UNL     1     136.528 147.943 139.895  1.00  0.00    -0.003 C 
ATOM     20  C   UNL     1     137.809 147.133 140.091  1.00  0.00     0.004 C 
ENDBRANCH  18  19
ENDBRANCH  17  18
ENDBRANCH  16  17
ENDBRANCH  15  16
ENDBRANCH  14  15
ENDBRANCH  13  14
ENDBRANCH   2  13
TORSDOF 15
ENDMDL
