MODEL 1
REMARK VINA RESULT:    -4.703      0.000      0.000
REMARK INTER + INTRA:          -5.448
REMARK INTER:                  -5.665
REMARK INTRA:                   0.217
REMARK UNBOUND:                 0.217
REMARK SMILES O=c1c(O)c(-c2ccc(O)cc2O)oc2cc(O)cc(O)c12
REMARK SMILES IDX 5 1 3 2 2 3 1 4 22 5 20 6 19 7 17 8 16 9 15 10 14 11 6 12
REMARK SMILES IDX 8 13 7 14 9 15 11 16 12 17 10 18 13 20 4 22 21 24 18 26
REMARK H PARENT 10 19 13 21 4 23 21 25 18 27
REMARK Flexibility Score: inf
ROOT
ATOM      1  C   UNL     1      15.773  15.526  13.885  1.00  0.00     0.184 A 
ATOM      2  C   UNL     1      15.996  16.678  14.656  1.00  0.00     0.208 A 
ATOM      3  C   UNL     1      15.048  17.044  15.623  1.00  0.00     0.238 A 
ATOM      4  O   UNL     1      15.228  18.107  16.273  1.00  0.00    -0.285 OA
ATOM      5  C   UNL     1      13.897  16.243  15.819  1.00  0.00     0.111 A 
ATOM      6  C   UNL     1      12.890  16.496  16.799  1.00  0.00     0.134 A 
ATOM      7  C   UNL     1      11.731  15.712  16.816  1.00  0.00     0.093 A 
ATOM      8  C   UNL     1      11.569  14.644  15.933  1.00  0.00     0.123 A 
ATOM      9  C   UNL     1      12.574  14.351  15.010  1.00  0.00     0.094 A 
ATOM     10  C   UNL     1      13.727  15.137  14.944  1.00  0.00     0.146 A 
ATOM     11  O   UNL     1      14.653  14.831  14.044  1.00  0.00    -0.451 OA
ENDROOT
BRANCH   1  12
ATOM     12  C   UNL     1      16.739  15.076  12.861  1.00  0.00     0.063 A 
ATOM     13  C   UNL     1      19.035  15.004  12.062  1.00  0.00     0.047 A 
ATOM     14  C   UNL     1      18.094  15.409  13.014  1.00  0.00     0.020 A 
ATOM     15  C   UNL     1      18.631  14.276  10.940  1.00  0.00     0.119 A 
ATOM     16  C   UNL     1      17.277  13.960  10.767  1.00  0.00     0.093 A 
ATOM     17  C   UNL     1      16.327  14.367  11.715  1.00  0.00     0.130 A 
BRANCH  15  18
ATOM     18  O   UNL     1      19.580  13.877  10.003  1.00  0.00    -0.508 OA
ATOM     19  H   UNL     1      19.374  13.166   9.310  1.00  0.00     0.293 HD
ENDBRANCH  15  18
BRANCH  17  20
ATOM     20  O   UNL     1      14.976  14.089  11.505  1.00  0.00    -0.507 OA
ATOM     21  H   UNL     1      14.663  13.179  11.191  1.00  0.00     0.293 HD
ENDBRANCH  17  20
ENDBRANCH   1  12
BRANCH   2  22
ATOM     22  O   UNL     1      17.132  17.460  14.429  1.00  0.00    -0.502 OA
ATOM     23  H   UNL     1      17.931  17.452  15.053  1.00  0.00     0.293 HD
ENDBRANCH   2  22
BRANCH   6  24
ATOM     24  O   UNL     1      12.993  17.480  17.787  1.00  0.00    -0.507 OA
ATOM     25  H   UNL     1      12.410  17.532  18.609  1.00  0.00     0.293 HD
ENDBRANCH   6  24
BRANCH   8  26
ATOM     26  O   UNL     1      10.408  13.876  15.989  1.00  0.00    -0.508 OA
ATOM     27  H   UNL     1       9.830  13.849  16.821  1.00  0.00     0.293 HD
ENDBRANCH   8  26
TORSDOF 6
ENDMDL
MODEL 2
REMARK VINA RESULT:    -4.576      1.402      6.540
REMARK INTER + INTRA:          -5.296
REMARK INTER:                  -5.697
REMARK INTRA:                   0.401
REMARK UNBOUND:                 0.217
REMARK SMILES O=c1c(O)c(-c2ccc(O)cc2O)oc2cc(O)cc(O)c12
REMARK SMILES IDX 5 1 3 2 2 3 1 4 22 5 20 6 19 7 17 8 16 9 15 10 14 11 6 12
REMARK SMILES IDX 8 13 7 14 9 15 11 16 12 17 10 18 13 20 4 22 21 24 18 26
REMARK H PARENT 10 19 13 21 4 23 21 25 18 27
REMARK Flexibility Score: inf
ROOT
ATOM      1  C   UNL     1      13.188  15.563  15.656  1.00  0.00     0.184 A 
ATOM      2  C   UNL     1      13.886  16.665  16.174  1.00  0.00     0.208 A 
ATOM      3  C   UNL     1      15.092  17.051  15.569  1.00  0.00     0.238 A 
ATOM      4  O   UNL     1      15.741  18.006  16.071  1.00  0.00    -0.285 OA
ATOM      5  C   UNL     1      15.574  16.341  14.443  1.00  0.00     0.111 A 
ATOM      6  C   UNL     1      16.764  16.670  13.725  1.00  0.00     0.134 A 
ATOM      7  C   UNL     1      17.213  15.820  12.708  1.00  0.00     0.093 A 
ATOM      8  C   UNL     1      16.484  14.690  12.338  1.00  0.00     0.123 A 
ATOM      9  C   UNL     1      15.289  14.391  12.993  1.00  0.00     0.094 A 
ATOM     10  C   UNL     1      14.833  15.200  14.036  1.00  0.00     0.146 A 
ATOM     11  O   UNL     1      13.696  14.875  14.641  1.00  0.00    -0.451 OA
ENDROOT
BRANCH   1  12
ATOM     12  C   UNL     1      11.904  15.114  16.236  1.00  0.00     0.063 A 
ATOM     13  C   UNL     1      10.393  15.057  18.140  1.00  0.00     0.047 A 
ATOM     14  C   UNL     1      11.596  15.469  17.559  1.00  0.00     0.020 A 
ATOM     15  C   UNL     1       9.492  14.275  17.413  1.00  0.00     0.119 A 
ATOM     16  C   UNL     1       9.802  13.896  16.100  1.00  0.00     0.093 A 
ATOM     17  C   UNL     1      11.010  14.300  15.512  1.00  0.00     0.130 A 
BRANCH  15  18
ATOM     18  O   UNL     1       8.297  13.876  18.005  1.00  0.00    -0.508 OA
ATOM     19  H   UNL     1       7.455  13.739  17.457  1.00  0.00     0.293 HD
ENDBRANCH  15  18
BRANCH  17  20
ATOM     20  O   UNL     1      11.329  13.875  14.222  1.00  0.00    -0.507 OA
ATOM     21  H   UNL     1      11.014  14.380  13.403  1.00  0.00     0.293 HD
ENDBRANCH  17  20
ENDBRANCH   1  12
BRANCH   2  22
ATOM     22  O   UNL     1      13.397  17.337  17.297  1.00  0.00    -0.502 OA
ATOM     23  H   UNL     1      12.701  16.933  17.912  1.00  0.00     0.293 HD
ENDBRANCH   2  22
BRANCH   6  24
ATOM     24  O   UNL     1      17.519  17.824  13.953  1.00  0.00    -0.507 OA
ATOM     25  H   UNL     1      18.266  18.149  13.358  1.00  0.00     0.293 HD
ENDBRANCH   6  24
BRANCH   8  26
ATOM     26  O   UNL     1      16.954  13.875  11.309  1.00  0.00    -0.508 OA
ATOM     27  H   UNL     1      17.936  13.636  11.230  1.00  0.00     0.293 HD
ENDBRANCH   8  26
TORSDOF 6
ENDMDL
MODEL 3
REMARK VINA RESULT:    -4.386      1.753      3.279
REMARK INTER + INTRA:          -5.066
REMARK INTER:                  -4.985
REMARK INTRA:                  -0.081
REMARK UNBOUND:                 0.217
REMARK SMILES O=c1c(O)c(-c2ccc(O)cc2O)oc2cc(O)cc(O)c12
REMARK SMILES IDX 5 1 3 2 2 3 1 4 22 5 20 6 19 7 17 8 16 9 15 10 14 11 6 12
REMARK SMILES IDX 8 13 7 14 9 15 11 16 12 17 10 18 13 20 4 22 21 24 18 26
REMARK H PARENT 10 19 13 21 4 23 21 25 18 27
REMARK Flexibility Score: inf
ROOT
ATOM      1  C   UNL     1      14.661  14.550  14.089  1.00  0.00     0.184 A 
ATOM      2  C   UNL     1      13.346  14.410  13.618  1.00  0.00     0.208 A 
ATOM      3  C   UNL     1      12.301  14.280  14.545  1.00  0.00     0.238 A 
ATOM      4  O   UNL     1      11.131  14.100  14.115  1.00  0.00    -0.285 OA
ATOM      5  C   UNL     1      12.583  14.309  15.932  1.00  0.00     0.111 A 
ATOM      6  C   UNL     1      11.597  14.226  16.961  1.00  0.00     0.134 A 
ATOM      7  C   UNL     1      12.001  14.134  18.298  1.00  0.00     0.093 A 
ATOM      8  C   UNL     1      13.350  14.187  18.649  1.00  0.00     0.123 A 
ATOM      9  C   UNL     1      14.319  14.327  17.655  1.00  0.00     0.094 A 
ATOM     10  C   UNL     1      13.950  14.386  16.309  1.00  0.00     0.146 A 
ATOM     11  O   UNL     1      14.903  14.508  15.394  1.00  0.00    -0.451 OA
ENDROOT
BRANCH   1  12
ATOM     12  C   UNL     1      15.805  14.709  13.167  1.00  0.00     0.063 A 
ATOM     13  C   UNL     1      16.961  13.994  11.151  1.00  0.00     0.047 A 
ATOM     14  C   UNL     1      15.890  13.875  12.041  1.00  0.00     0.020 A 
ATOM     15  C   UNL     1      17.966  14.936  11.382  1.00  0.00     0.119 A 
ATOM     16  C   UNL     1      17.903  15.756  12.517  1.00  0.00     0.093 A 
ATOM     17  C   UNL     1      16.834  15.639  13.418  1.00  0.00     0.130 A 
BRANCH  15  18
ATOM     18  O   UNL     1      19.025  15.045  10.484  1.00  0.00    -0.508 OA
ATOM     19  H   UNL     1      19.676  14.282  10.338  1.00  0.00     0.293 HD
ENDBRANCH  15  18
BRANCH  17  20
ATOM     20  O   UNL     1      16.808  16.426  14.569  1.00  0.00    -0.507 OA
ATOM     21  H   UNL     1      17.451  16.269  15.336  1.00  0.00     0.293 HD
ENDBRANCH  17  20
ENDBRANCH   1  12
BRANCH   2  22
ATOM     22  O   UNL     1      13.098  14.367  12.243  1.00  0.00    -0.502 OA
ATOM     23  H   UNL     1      13.037  15.203  11.675  1.00  0.00     0.293 HD
ENDBRANCH   2  22
BRANCH   6  24
ATOM     24  O   UNL     1      10.219  14.258  16.727  1.00  0.00    -0.507 OA
ATOM     25  H   UNL     1       9.789  14.182  15.817  1.00  0.00     0.293 HD
ENDBRANCH   6  24
BRANCH   8  26
ATOM     26  O   UNL     1      13.714  14.108  19.992  1.00  0.00    -0.508 OA
ATOM     27  H   UNL     1      14.594  13.695  20.278  1.00  0.00     0.293 HD
ENDBRANCH   8  26
TORSDOF 6
ENDMDL
MODEL 4
REMARK VINA RESULT:    -3.471      2.196      7.298
REMARK INTER + INTRA:          -3.964
REMARK INTER:                  -4.575
REMARK INTRA:                   0.611
REMARK UNBOUND:                 0.217
REMARK SMILES O=c1c(O)c(-c2ccc(O)cc2O)oc2cc(O)cc(O)c12
REMARK SMILES IDX 5 1 3 2 2 3 1 4 22 5 20 6 19 7 17 8 16 9 15 10 14 11 6 12
REMARK SMILES IDX 8 13 7 14 9 15 11 16 12 17 10 18 13 20 4 22 21 24 18 26
REMARK H PARENT 10 19 13 21 4 23 21 25 18 27
REMARK Flexibility Score: inf
ROOT
ATOM      1  C   UNL     1      12.588  15.335  15.650  1.00  0.00     0.184 A 
ATOM      2  C   UNL     1      12.792  14.721  14.404  1.00  0.00     0.208 A 
ATOM      3  C   UNL     1      13.969  14.999  13.692  1.00  0.00     0.238 A 
ATOM      4  O   UNL     1      14.121  14.488  12.552  1.00  0.00    -0.285 OA
ATOM      5  C   UNL     1      14.935  15.874  14.245  1.00  0.00     0.111 A 
ATOM      6  C   UNL     1      16.183  16.196  13.630  1.00  0.00     0.134 A 
ATOM      7  C   UNL     1      17.003  17.174  14.204  1.00  0.00     0.093 A 
ATOM      8  C   UNL     1      16.654  17.795  15.404  1.00  0.00     0.123 A 
ATOM      9  C   UNL     1      15.465  17.445  16.044  1.00  0.00     0.094 A 
ATOM     10  C   UNL     1      14.607  16.499  15.477  1.00  0.00     0.146 A 
ATOM     11  O   UNL     1      13.480  16.202  16.113  1.00  0.00    -0.451 OA
ENDROOT
BRANCH   1  12
ATOM     12  C   UNL     1      11.378  15.073  16.457  1.00  0.00     0.063 A 
ATOM     13  C   UNL     1       9.270  13.889  16.714  1.00  0.00     0.047 A 
ATOM     14  C   UNL     1      10.428  14.156  15.979  1.00  0.00     0.020 A 
ATOM     15  C   UNL     1       9.041  14.543  17.927  1.00  0.00     0.119 A 
ATOM     16  C   UNL     1       9.971  15.476  18.401  1.00  0.00     0.093 A 
ATOM     17  C   UNL     1      11.133  15.755  17.666  1.00  0.00     0.130 A 
BRANCH  15  18
ATOM     18  O   UNL     1       7.884  14.262  18.650  1.00  0.00    -0.508 OA
ATOM     19  H   UNL     1       7.074  13.841  18.210  1.00  0.00     0.293 HD
ENDBRANCH  15  18
BRANCH  17  20
ATOM     20  O   UNL     1      12.027  16.723  18.123  1.00  0.00    -0.507 OA
ATOM     21  H   UNL     1      11.932  17.699  17.868  1.00  0.00     0.293 HD
ENDBRANCH  17  20
ENDBRANCH   1  12
BRANCH   2  22
ATOM     22  O   UNL     1      11.813  13.875  13.874  1.00  0.00    -0.502 OA
ATOM     23  H   UNL     1      11.720  12.907  14.157  1.00  0.00     0.293 HD
ENDBRANCH   2  22
BRANCH   6  24
ATOM     24  O   UNL     1      16.671  15.569  12.479  1.00  0.00    -0.507 OA
ATOM     25  H   UNL     1      16.973  16.052  11.646  1.00  0.00     0.293 HD
ENDBRANCH   6  24
BRANCH   8  26
ATOM     26  O   UNL     1      17.503  18.753  15.955  1.00  0.00    -0.508 OA
ATOM     27  H   UNL     1      18.316  19.091  15.453  1.00  0.00     0.293 HD
ENDBRANCH   8  26
TORSDOF 6
ENDMDL
MODEL 5
REMARK VINA RESULT:    -3.050      1.731      7.277
REMARK INTER + INTRA:          -3.458
REMARK INTER:                  -3.395
REMARK INTRA:                  -0.063
REMARK UNBOUND:                 0.217
REMARK SMILES O=c1c(O)c(-c2ccc(O)cc2O)oc2cc(O)cc(O)c12
REMARK SMILES IDX 5 1 3 2 2 3 1 4 22 5 20 6 19 7 17 8 16 9 15 10 14 11 6 12
REMARK SMILES IDX 8 13 7 14 9 15 11 16 12 17 10 18 13 20 4 22 21 24 18 26
REMARK H PARENT 10 19 13 21 4 23 21 25 18 27
REMARK Flexibility Score: inf
ROOT
ATOM      1  C   UNL     1      12.913  15.006  15.261  1.00  0.00     0.184 A 
ATOM      2  C   UNL     1      12.550  14.404  14.046  1.00  0.00     0.208 A 
ATOM      3  C   UNL     1      13.483  14.369  12.998  1.00  0.00     0.238 A 
ATOM      4  O   UNL     1      13.134  13.876  11.894  1.00  0.00    -0.285 OA
ATOM      5  C   UNL     1      14.774  14.920  13.187  1.00  0.00     0.111 A 
ATOM      6  C   UNL     1      15.813  14.903  12.208  1.00  0.00     0.134 A 
ATOM      7  C   UNL     1      17.005  15.593  12.456  1.00  0.00     0.093 A 
ATOM      8  C   UNL     1      17.223  16.244  13.670  1.00  0.00     0.123 A 
ATOM      9  C   UNL     1      16.237  16.217  14.657  1.00  0.00     0.094 A 
ATOM     10  C   UNL     1      15.022  15.567  14.426  1.00  0.00     0.146 A 
ATOM     11  O   UNL     1      14.106  15.574  15.387  1.00  0.00    -0.451 OA
ENDROOT
BRANCH   1  12
ATOM     12  C   UNL     1      11.983  15.062  16.408  1.00  0.00     0.063 A 
ATOM     13  C   UNL     1      10.308  13.955  17.780  1.00  0.00     0.047 A 
ATOM     14  C   UNL     1      11.202  13.935  16.705  1.00  0.00     0.020 A 
ATOM     15  C   UNL     1      10.174  15.106  18.561  1.00  0.00     0.119 A 
ATOM     16  C   UNL     1      10.932  16.244  18.258  1.00  0.00     0.093 A 
ATOM     17  C   UNL     1      11.826  16.234  17.177  1.00  0.00     0.130 A 
BRANCH  15  18
ATOM     18  O   UNL     1       9.282  15.110  19.630  1.00  0.00    -0.508 OA
ATOM     19  H   UNL     1       8.281  15.050  19.485  1.00  0.00     0.293 HD
ENDBRANCH  15  18
BRANCH  17  20
ATOM     20  O   UNL     1      12.539  17.389  16.855  1.00  0.00    -0.507 OA
ATOM     21  H   UNL     1      13.526  17.361  16.632  1.00  0.00     0.293 HD
ENDBRANCH  17  20
ENDBRANCH   1  12
BRANCH   2  22
ATOM     22  O   UNL     1      11.263  13.883  13.881  1.00  0.00    -0.502 OA
ATOM     23  H   UNL     1      11.086  13.022  13.378  1.00  0.00     0.293 HD
ENDBRANCH   2  22
BRANCH   6  24
ATOM     24  O   UNL     1      15.735  14.207  10.998  1.00  0.00    -0.507 OA
ATOM     25  H   UNL     1      16.523  13.804  10.515  1.00  0.00     0.293 HD
ENDBRANCH   6  24
BRANCH   8  26
ATOM     26  O   UNL     1      18.429  16.908  13.888  1.00  0.00    -0.508 OA
ATOM     27  H   UNL     1      18.468  17.915  13.992  1.00  0.00     0.293 HD
ENDBRANCH   8  26
TORSDOF 6
ENDMDL
MODEL 6
REMARK VINA RESULT:    -2.963      2.085      3.456
REMARK INTER + INTRA:          -3.352
REMARK INTER:                  -3.015
REMARK INTRA:                  -0.338
REMARK UNBOUND:                 0.217
REMARK SMILES O=c1c(O)c(-c2ccc(O)cc2O)oc2cc(O)cc(O)c12
REMARK SMILES IDX 5 1 3 2 2 3 1 4 22 5 20 6 19 7 17 8 16 9 15 10 14 11 6 12
REMARK SMILES IDX 8 13 7 14 9 15 11 16 12 17 10 18 13 20 4 22 21 24 18 26
REMARK H PARENT 10 19 13 21 4 23 21 25 18 27
REMARK Flexibility Score: inf
ROOT
ATOM      1  C   UNL     1      13.803  14.792  15.686  1.00  0.00     0.184 A 
ATOM      2  C   UNL     1      13.967  14.832  17.080  1.00  0.00     0.208 A 
ATOM      3  C   UNL     1      12.851  14.616  17.902  1.00  0.00     0.238 A 
ATOM      4  O   UNL     1      12.993  14.707  19.150  1.00  0.00    -0.285 OA
ATOM      5  C   UNL     1      11.589  14.345  17.320  1.00  0.00     0.111 A 
ATOM      6  C   UNL     1      10.398  14.071  18.058  1.00  0.00     0.134 A 
ATOM      7  C   UNL     1       9.180  13.946  17.380  1.00  0.00     0.093 A 
ATOM      8  C   UNL     1       9.118  14.020  15.988  1.00  0.00     0.123 A 
ATOM      9  C   UNL     1      10.285  14.229  15.253  1.00  0.00     0.094 A 
ATOM     10  C   UNL     1      11.511  14.394  15.903  1.00  0.00     0.146 A 
ATOM     11  O   UNL     1      12.596  14.601  15.167  1.00  0.00    -0.451 OA
ENDROOT
BRANCH   1  12
ATOM     12  C   UNL     1      14.940  14.994  14.764  1.00  0.00     0.063 A 
ATOM     13  C   UNL     1      16.596  14.031  13.266  1.00  0.00     0.047 A 
ATOM     14  C   UNL     1      15.515  13.877  14.139  1.00  0.00     0.020 A 
ATOM     15  C   UNL     1      17.123  15.301  13.017  1.00  0.00     0.119 A 
ATOM     16  C   UNL     1      16.571  16.420  13.655  1.00  0.00     0.093 A 
ATOM     17  C   UNL     1      15.491  16.272  14.537  1.00  0.00     0.130 A 
BRANCH  15  18
ATOM     18  O   UNL     1      18.197  15.439  12.142  1.00  0.00    -0.508 OA
ATOM     19  H   UNL     1      18.077  15.351  11.139  1.00  0.00     0.293 HD
ENDBRANCH  15  18
BRANCH  17  20
ATOM     20  O   UNL     1      14.983  17.387  15.204  1.00  0.00    -0.507 OA
ATOM     21  H   UNL     1      14.103  17.353  15.704  1.00  0.00     0.293 HD
ENDBRANCH  17  20
ENDBRANCH   1  12
BRANCH   2  22
ATOM     22  O   UNL     1      15.220  15.119  17.628  1.00  0.00    -0.502 OA
ATOM     23  H   UNL     1      15.500  14.792  18.544  1.00  0.00     0.293 HD
ENDBRANCH   2  22
BRANCH   6  24
ATOM     24  O   UNL     1      10.363  13.887  19.443  1.00  0.00    -0.507 OA
ATOM     25  H   UNL     1      11.164  13.956  20.053  1.00  0.00     0.293 HD
ENDBRANCH   6  24
BRANCH   8  26
ATOM     26  O   UNL     1       7.889  13.875  15.346  1.00  0.00    -0.508 OA
ATOM     27  H   UNL     1       7.656  14.415  14.521  1.00  0.00     0.293 HD
ENDBRANCH   8  26
TORSDOF 6
ENDMDL
MODEL 7
REMARK VINA RESULT:    -2.473      1.542      7.029
REMARK INTER + INTRA:          -2.763
REMARK INTER:                  -2.419
REMARK INTRA:                  -0.343
REMARK UNBOUND:                 0.217
REMARK SMILES O=c1c(O)c(-c2ccc(O)cc2O)oc2cc(O)cc(O)c12
REMARK SMILES IDX 5 1 3 2 2 3 1 4 22 5 20 6 19 7 17 8 16 9 15 10 14 11 6 12
REMARK SMILES IDX 8 13 7 14 9 15 11 16 12 17 10 18 13 20 4 22 21 24 18 26
REMARK H PARENT 10 19 13 21 4 23 21 25 18 27
REMARK Flexibility Score: inf
ROOT
ATOM      1  C   UNL     1      15.356  14.694  14.040  1.00  0.00     0.184 A 
ATOM      2  C   UNL     1      15.028  14.659  12.676  1.00  0.00     0.208 A 
ATOM      3  C   UNL     1      16.054  14.489  11.733  1.00  0.00     0.238 A 
ATOM      4  O   UNL     1      15.760  14.513  10.509  1.00  0.00    -0.285 OA
ATOM      5  C   UNL     1      17.393  14.338  12.169  1.00  0.00     0.111 A 
ATOM      6  C   UNL     1      18.507  14.118  11.305  1.00  0.00     0.134 A 
ATOM      7  C   UNL     1      19.802  14.114  11.835  1.00  0.00     0.093 A 
ATOM      8  C   UNL     1      20.020  14.255  13.206  1.00  0.00     0.123 A 
ATOM      9  C   UNL     1      18.934  14.411  14.067  1.00  0.00     0.094 A 
ATOM     10  C   UNL     1      17.632  14.456  13.564  1.00  0.00     0.146 A 
ATOM     11  O   UNL     1      16.627  14.616  14.417  1.00  0.00    -0.451 OA
ENDROOT
BRANCH   1  12
ATOM     12  C   UNL     1      14.322  14.854  15.084  1.00  0.00     0.063 A 
ATOM     13  C   UNL     1      12.312  14.013  16.161  1.00  0.00     0.047 A 
ATOM     14  C   UNL     1      13.308  13.890  15.189  1.00  0.00     0.020 A 
ATOM     15  C   UNL     1      12.308  15.107  17.030  1.00  0.00     0.119 A 
ATOM     16  C   UNL     1      13.302  16.088  16.917  1.00  0.00     0.093 A 
ATOM     17  C   UNL     1      14.302  15.974  15.940  1.00  0.00     0.130 A 
BRANCH  15  18
ATOM     18  O   UNL     1      11.310  15.214  17.995  1.00  0.00    -0.508 OA
ATOM     19  H   UNL     1      11.439  14.849  18.932  1.00  0.00     0.293 HD
ENDBRANCH  15  18
BRANCH  17  20
ATOM     20  O   UNL     1      15.258  16.982  15.805  1.00  0.00    -0.507 OA
ATOM     21  H   UNL     1      15.095  17.795  15.224  1.00  0.00     0.293 HD
ENDBRANCH  17  20
ENDBRANCH   1  12
BRANCH   2  22
ATOM     22  O   UNL     1      13.701  14.829  12.272  1.00  0.00    -0.502 OA
ATOM     23  H   UNL     1      13.168  14.089  11.830  1.00  0.00     0.293 HD
ENDBRANCH   2  22
BRANCH   6  24
ATOM     24  O   UNL     1      18.394  13.875   9.932  1.00  0.00    -0.507 OA
ATOM     25  H   UNL     1      17.533  13.923   9.409  1.00  0.00     0.293 HD
ENDBRANCH   6  24
BRANCH   8  26
ATOM     26  O   UNL     1      21.323  14.229  13.701  1.00  0.00    -0.508 OA
ATOM     27  H   UNL     1      21.562  14.663  14.585  1.00  0.00     0.293 HD
ENDBRANCH   8  26
TORSDOF 6
ENDMDL
MODEL 8
REMARK VINA RESULT:    -2.421      1.983      3.343
REMARK INTER + INTRA:          -2.700
REMARK INTER:                  -2.981
REMARK INTRA:                   0.281
REMARK UNBOUND:                 0.217
REMARK SMILES O=c1c(O)c(-c2ccc(O)cc2O)oc2cc(O)cc(O)c12
REMARK SMILES IDX 5 1 3 2 2 3 1 4 22 5 20 6 19 7 17 8 16 9 15 10 14 11 6 12
REMARK SMILES IDX 8 13 7 14 9 15 11 16 12 17 10 18 13 20 4 22 21 24 18 26
REMARK H PARENT 10 19 13 21 4 23 21 25 18 27
REMARK Flexibility Score: inf
ROOT
ATOM      1  C   UNL     1      12.892  15.352  15.556  1.00  0.00     0.184 A 
ATOM      2  C   UNL     1      13.180  16.364  16.485  1.00  0.00     0.208 A 
ATOM      3  C   UNL     1      12.232  16.671  17.474  1.00  0.00     0.238 A 
ATOM      4  O   UNL     1      12.473  17.616  18.270  1.00  0.00    -0.285 OA
ATOM      5  C   UNL     1      11.016  15.948  17.531  1.00  0.00     0.111 A 
ATOM      6  C   UNL     1      10.000  16.146  18.515  1.00  0.00     0.134 A 
ATOM      7  C   UNL     1       8.783  15.466  18.397  1.00  0.00     0.093 A 
ATOM      8  C   UNL     1       8.567  14.546  17.371  1.00  0.00     0.123 A 
ATOM      9  C   UNL     1       9.575  14.301  16.438  1.00  0.00     0.094 A 
ATOM     10  C   UNL     1      10.788  14.991  16.507  1.00  0.00     0.146 A 
ATOM     11  O   UNL     1      11.717  14.736  15.593  1.00  0.00    -0.451 OA
ENDROOT
BRANCH   1  12
ATOM     12  C   UNL     1      13.853  14.969  14.502  1.00  0.00     0.063 A 
ATOM     13  C   UNL     1      16.156  14.868  13.728  1.00  0.00     0.047 A 
ATOM     14  C   UNL     1      15.220  15.213  14.707  1.00  0.00     0.020 A 
ATOM     15  C   UNL     1      15.737  14.289  12.527  1.00  0.00     0.119 A 
ATOM     16  C   UNL     1      14.373  14.064  12.303  1.00  0.00     0.093 A 
ATOM     17  C   UNL     1      13.427  14.412  13.278  1.00  0.00     0.130 A 
BRANCH  15  18
ATOM     18  O   UNL     1      16.682  13.948  11.563  1.00  0.00    -0.508 OA
ATOM     19  H   UNL     1      17.598  13.599  11.820  1.00  0.00     0.293 HD
ENDBRANCH  15  18
BRANCH  17  20
ATOM     20  O   UNL     1      12.067  14.228  13.023  1.00  0.00    -0.507 OA
ATOM     21  H   UNL     1      11.695  13.328  12.747  1.00  0.00     0.293 HD
ENDBRANCH  17  20
ENDBRANCH   1  12
BRANCH   2  22
ATOM     22  O   UNL     1      14.380  17.074  16.395  1.00  0.00    -0.502 OA
ATOM     23  H   UNL     1      14.626  17.626  15.582  1.00  0.00     0.293 HD
ENDBRANCH   2  22
BRANCH   6  24
ATOM     24  O   UNL     1      10.147  16.974  19.632  1.00  0.00    -0.507 OA
ATOM     25  H   UNL     1      10.820  16.829  20.370  1.00  0.00     0.293 HD
ENDBRANCH   6  24
BRANCH   8  26
ATOM     26  O   UNL     1       7.348  13.875  17.294  1.00  0.00    -0.508 OA
ATOM     27  H   UNL     1       7.127  13.105  17.915  1.00  0.00     0.293 HD
ENDBRANCH   8  26
TORSDOF 6
ENDMDL
