MODEL 1
REMARK VINA RESULT:    58.628      0.000      0.000
REMARK INTER + INTRA:          84.105
REMARK INTER:                  84.334
REMARK INTRA:                  -0.229
REMARK UNBOUND:                -0.229
REMARK SMILES O=c1c(O[C@@H]2O[C@H](CO)[C@@H](O)[C@H](O)[C@H]2O)c(-c2ccc(O)cc2)oc2cc(O)cc(O)c12
REMARK SMILES IDX 4 1 3 2 16 3 24 4 2 5 25 6 1 7 32 8 26 9 30 10 27 11 29 12
REMARK SMILES IDX 17 13 18 14 19 15 20 16 23 17 22 18 21 19 31 21 28 23 5 25
REMARK SMILES IDX 14 26 6 27 12 28 7 29 10 30 15 31 13 33 8 35 9 36 11 38
REMARK H PARENT 21 20 31 22 28 24 15 32 13 34 9 37 11 39
REMARK Flexibility Score: inf
ROOT
ATOM      1  O   UNL     1      19.972  41.282   8.873  1.00  0.00    -0.454 OA
ENDROOT
BRANCH   1   2
ATOM      2  C   UNL     1      20.069  41.241  10.359  1.00  0.00     0.214 A 
ATOM      3  C   UNL     1      19.435  42.123  11.408  1.00  0.00     0.180 A 
ATOM      4  O   UNL     1      18.087  42.092  11.437  1.00  0.00    -0.452 OA
ATOM      5  C   UNL     1      19.391  40.018  10.082  1.00  0.00     0.239 A 
ATOM      6  C   UNL     1      17.335  41.142  10.813  1.00  0.00     0.146 A 
ATOM      7  O   UNL     1      20.068  39.028   9.593  1.00  0.00    -0.285 OA
ATOM      8  C   UNL     1      17.957  40.045  10.150  1.00  0.00     0.111 A 
ATOM      9  C   UNL     1      15.911  41.330  10.757  1.00  0.00     0.094 A 
ATOM     10  C   UNL     1      17.216  39.212   9.234  1.00  0.00     0.134 A 
ATOM     11  C   UNL     1      15.275  40.592   9.752  1.00  0.00     0.123 A 
ATOM     12  C   UNL     1      15.872  39.536   9.032  1.00  0.00     0.093 A 
BRANCH   3  13
ATOM     13  C   UNL     1      20.081  42.966  12.632  1.00  0.00     0.021 A 
ATOM     14  C   UNL     1      21.424  42.543  12.880  1.00  0.00     0.016 A 
ATOM     15  C   UNL     1      22.504  43.199  12.192  1.00  0.00     0.047 A 
ATOM     16  C   UNL     1      22.259  44.439  11.665  1.00  0.00     0.115 A 
ATOM     17  C   UNL     1      19.975  44.352  12.527  1.00  0.00     0.016 A 
ATOM     18  C   UNL     1      21.036  45.125  11.963  1.00  0.00     0.047 A 
BRANCH  16  19
ATOM     19  O   UNL     1      23.160  45.119  10.753  1.00  0.00    -0.508 OA
ATOM     20  H   UNL     1      22.999  45.190   9.724  1.00  0.00     0.293 HD
ENDBRANCH  16  19
ENDBRANCH   3  13
BRANCH  10  21
ATOM     21  O   UNL     1      17.816  38.166   8.588  1.00  0.00    -0.507 OA
ATOM     22  H   UNL     1      18.715  38.276   8.136  1.00  0.00     0.293 HD
ENDBRANCH  10  21
BRANCH  11  23
ATOM     23  O   UNL     1      13.987  41.010   9.384  1.00  0.00    -0.508 OA
ATOM     24  H   UNL     1      13.557  41.947   9.794  1.00  0.00     0.293 HD
ENDBRANCH  11  23
ENDBRANCH   1   2
BRANCH   1  25
ATOM     25  C   UNL     1      21.071  41.435   7.917  1.00  0.00     0.339 C 
ATOM     26  C   UNL     1      21.691  40.060   7.425  1.00  0.00     0.214 C 
ATOM     27  O   UNL     1      20.970  42.611   7.058  1.00  0.00    -0.332 OA
ATOM     28  C   UNL     1      22.828  40.271   6.351  1.00  0.00     0.180 C 
ATOM     29  C   UNL     1      22.096  42.798   6.212  1.00  0.00     0.179 C 
ATOM     30  C   UNL     1      23.312  41.749   6.364  1.00  0.00     0.177 C 
BRANCH  26  31
ATOM     31  O   UNL     1      22.288  39.490   8.580  1.00  0.00    -0.384 OA
ATOM     32  H   UNL     1      22.076  38.566   8.629  1.00  0.00     0.211 HD
ENDBRANCH  26  31
BRANCH  28  33
ATOM     33  O   UNL     1      22.512  39.758   5.004  1.00  0.00    -0.387 OA
ATOM     34  H   UNL     1      22.786  40.527   4.266  1.00  0.00     0.211 HD
ENDBRANCH  28  33
BRANCH  29  35
ATOM     35  C   UNL     1      21.902  43.645   4.986  1.00  0.00     0.191 C 
BRANCH  35  36
ATOM     36  O   UNL     1      20.952  44.688   5.148  1.00  0.00    -0.394 OA
ATOM     37  H   UNL     1      21.014  45.213   4.245  1.00  0.00     0.210 HD
ENDBRANCH  35  36
ENDBRANCH  29  35
BRANCH  30  38
ATOM     38  O   UNL     1      24.025  41.953   7.612  1.00  0.00    -0.387 OA
ATOM     39  H   UNL     1      25.057  41.976   7.512  1.00  0.00     0.211 HD
ENDBRANCH  30  38
ENDBRANCH   1  25
TORSDOF 11
ENDMDL
