MODEL 1
REMARK VINA RESULT:    -5.652      0.000      0.000
REMARK INTER + INTRA:         -10.147
REMARK INTER:                  -8.956
REMARK INTRA:                  -1.191
REMARK UNBOUND:                -1.191
REMARK SMILES CCCCCCCCCCCC(=O)[O-]
REMARK SMILES IDX 7 1 8 2 9 3 10 4 11 5 12 6 13 7 14 8 6 9 5 10 4 11 3 12 2 13
REMARK SMILES IDX 1 14
REMARK H PARENT
REMARK Flexibility Score: inf
ROOT
ATOM      1  C   UNL     1      -4.241  34.601 100.176  1.00  0.00     0.000 C 
ENDROOT
BRANCH   1   2
ATOM      2  C   UNL     1      -3.977  34.450  98.666  1.00  0.00     0.000 C 
BRANCH   2   3
ATOM      3  C   UNL     1      -2.783  35.287  98.179  1.00  0.00     0.000 C 
BRANCH   3   4
ATOM      4  C   UNL     1      -3.215  36.601  97.501  1.00  0.00     0.006 C 
BRANCH   4   5
ATOM      5  C   UNL     1      -4.656  36.594  96.964  1.00  0.00     0.053 C 
BRANCH   5   6
ATOM      6  C   UNL     1      -5.433  37.789  97.422  1.00  0.00     0.041 C 
ATOM      7  O   UNL     1      -6.581  38.016  96.958  1.00  0.00    -0.550 OA
ATOM      8  O   UNL     1      -4.901  38.636  98.387  1.00  0.00    -0.550 OA
ENDBRANCH   5   6
ENDBRANCH   4   5
ENDBRANCH   3   4
ENDBRANCH   2   3
ENDBRANCH   1   2
BRANCH   1   9
ATOM      9  C   UNL     1      -5.332  35.619 100.559  1.00  0.00     0.000 C 
BRANCH   9  10
ATOM     10  C   UNL     1      -4.795  36.785 101.405  1.00  0.00    -0.000 C 
BRANCH  10  11
ATOM     11  C   UNL     1      -3.259  36.782 101.528  1.00  0.00    -0.000 C 
BRANCH  11  12
ATOM     12  C   UNL     1      -2.586  38.159 101.386  1.00  0.00    -0.000 C 
BRANCH  12  13
ATOM     13  C   UNL     1      -2.664  39.001 102.667  1.00  0.00    -0.003 C 
ATOM     14  C   UNL     1      -2.710  40.491 102.343  1.00  0.00     0.004 C 
ENDBRANCH  12  13
ENDBRANCH  11  12
ENDBRANCH  10  11
ENDBRANCH   9  10
ENDBRANCH   1   9
TORSDOF 10
ENDMDL
MODEL 2
REMARK VINA RESULT:    -5.639      2.601      4.966
REMARK INTER + INTRA:         -10.126
REMARK INTER:                  -8.786
REMARK INTRA:                  -1.340
REMARK UNBOUND:                -1.191
REMARK SMILES CCCCCCCCCCCC(=O)[O-]
REMARK SMILES IDX 7 1 8 2 9 3 10 4 11 5 12 6 13 7 14 8 6 9 5 10 4 11 3 12 2 13
REMARK SMILES IDX 1 14
REMARK H PARENT
REMARK Flexibility Score: inf
ROOT
ATOM      1  C   UNL     1      -5.269  35.400 100.642  1.00  0.00     0.000 C 
ENDROOT
BRANCH   1   2
ATOM      2  C   UNL     1      -4.983  36.849 101.080  1.00  0.00     0.000 C 
BRANCH   2   3
ATOM      3  C   UNL     1      -3.704  36.980 101.925  1.00  0.00     0.000 C 
BRANCH   3   4
ATOM      4  C   UNL     1      -2.606  37.798 101.220  1.00  0.00     0.006 C 
BRANCH   4   5
ATOM      5  C   UNL     1      -2.818  39.321 101.272  1.00  0.00     0.053 C 
BRANCH   5   6
ATOM      6  C   UNL     1      -2.277  39.921 102.533  1.00  0.00     0.041 C 
ATOM      7  O   UNL     1      -3.043  40.152 103.504  1.00  0.00    -0.550 OA
ATOM      8  O   UNL     1      -0.919  40.195 102.646  1.00  0.00    -0.550 OA
ENDBRANCH   5   6
ENDBRANCH   4   5
ENDBRANCH   3   4
ENDBRANCH   2   3
ENDBRANCH   1   2
BRANCH   1   9
ATOM      9  C   UNL     1      -4.033  34.575 100.238  1.00  0.00     0.000 C 
BRANCH   9  10
ATOM     10  C   UNL     1      -3.849  34.475  98.714  1.00  0.00    -0.000 C 
BRANCH  10  11
ATOM     11  C   UNL     1      -2.802  35.466  98.169  1.00  0.00    -0.000 C 
BRANCH  11  12
ATOM     12  C   UNL     1      -3.353  36.846  97.766  1.00  0.00    -0.000 C 
BRANCH  12  13
ATOM     13  C   UNL     1      -4.553  36.759  96.813  1.00  0.00    -0.003 C 
ATOM     14  C   UNL     1      -5.785  37.427  97.417  1.00  0.00     0.004 C 
ENDBRANCH  12  13
ENDBRANCH  11  12
ENDBRANCH  10  11
ENDBRANCH   9  10
ENDBRANCH   1   9
TORSDOF 10
ENDMDL
MODEL 3
REMARK VINA RESULT:    -5.571      0.695      1.184
REMARK INTER + INTRA:         -10.019
REMARK INTER:                  -8.879
REMARK INTRA:                  -1.140
REMARK UNBOUND:                -1.191
REMARK SMILES CCCCCCCCCCCC(=O)[O-]
REMARK SMILES IDX 7 1 8 2 9 3 10 4 11 5 12 6 13 7 14 8 6 9 5 10 4 11 3 12 2 13
REMARK SMILES IDX 1 14
REMARK H PARENT
REMARK Flexibility Score: inf
ROOT
ATOM      1  C   UNL     1      -5.233  35.442 100.578  1.00  0.00     0.000 C 
ENDROOT
BRANCH   1   2
ATOM      2  C   UNL     1      -4.050  34.562 100.131  1.00  0.00     0.000 C 
BRANCH   2   3
ATOM      3  C   UNL     1      -3.787  34.634  98.617  1.00  0.00     0.000 C 
BRANCH   3   4
ATOM      4  C   UNL     1      -2.911  35.838  98.222  1.00  0.00     0.006 C 
BRANCH   4   5
ATOM      5  C   UNL     1      -3.513  36.727  97.121  1.00  0.00     0.053 C 
BRANCH   5   6
ATOM      6  C   UNL     1      -4.622  37.591  97.637  1.00  0.00     0.041 C 
ATOM      7  O   UNL     1      -5.820  37.233  97.500  1.00  0.00    -0.550 OA
ATOM      8  O   UNL     1      -4.328  38.775  98.302  1.00  0.00    -0.550 OA
ENDBRANCH   5   6
ENDBRANCH   4   5
ENDBRANCH   3   4
ENDBRANCH   2   3
ENDBRANCH   1   2
BRANCH   1   9
ATOM      9  C   UNL     1      -4.850  36.774 101.249  1.00  0.00     0.000 C 
BRANCH   9  10
ATOM     10  C   UNL     1      -3.445  36.751 101.874  1.00  0.00    -0.000 C 
BRANCH  10  11
ATOM     11  C   UNL     1      -2.491  37.784 101.245  1.00  0.00    -0.000 C 
BRANCH  11  12
ATOM     12  C   UNL     1      -2.859  39.258 101.499  1.00  0.00    -0.000 C 
BRANCH  12  13
ATOM     13  C   UNL     1      -2.439  39.750 102.892  1.00  0.00    -0.003 C 
ATOM     14  C   UNL     1      -2.927  41.173 103.142  1.00  0.00     0.004 C 
ENDBRANCH  12  13
ENDBRANCH  11  12
ENDBRANCH  10  11
ENDBRANCH   9  10
ENDBRANCH   1   9
TORSDOF 10
ENDMDL
MODEL 4
REMARK VINA RESULT:    -5.477      2.277      4.956
REMARK INTER + INTRA:          -9.871
REMARK INTER:                  -8.723
REMARK INTRA:                  -1.148
REMARK UNBOUND:                -1.191
REMARK SMILES CCCCCCCCCCCC(=O)[O-]
REMARK SMILES IDX 7 1 8 2 9 3 10 4 11 5 12 6 13 7 14 8 6 9 5 10 4 11 3 12 2 13
REMARK SMILES IDX 1 14
REMARK H PARENT
REMARK Flexibility Score: inf
ROOT
ATOM      1  C   UNL     1      -4.217  34.538 100.156  1.00  0.00     0.000 C 
ENDROOT
BRANCH   1   2
ATOM      2  C   UNL     1      -5.445  35.413 100.474  1.00  0.00     0.000 C 
BRANCH   2   3
ATOM      3  C   UNL     1      -5.108  36.617 101.371  1.00  0.00     0.000 C 
BRANCH   3   4
ATOM      4  C   UNL     1      -3.964  37.479 100.804  1.00  0.00     0.006 C 
BRANCH   4   5
ATOM      5  C   UNL     1      -2.726  37.568 101.713  1.00  0.00     0.053 C 
BRANCH   5   6
ATOM      6  C   UNL     1      -2.823  38.701 102.686  1.00  0.00     0.041 C 
ATOM      7  O   UNL     1      -2.851  38.473 103.924  1.00  0.00    -0.550 OA
ATOM      8  O   UNL     1      -2.851  40.012 102.227  1.00  0.00    -0.550 OA
ENDBRANCH   5   6
ENDBRANCH   4   5
ENDBRANCH   3   4
ENDBRANCH   2   3
ENDBRANCH   1   2
BRANCH   1   9
ATOM      9  C   UNL     1      -3.868  34.406  98.662  1.00  0.00     0.000 C 
BRANCH   9  10
ATOM     10  C   UNL     1      -2.741  35.354  98.221  1.00  0.00    -0.000 C 
BRANCH  10  11
ATOM     11  C   UNL     1      -3.251  36.552  97.398  1.00  0.00    -0.000 C 
BRANCH  11  12
ATOM     12  C   UNL     1      -4.712  36.448  96.924  1.00  0.00    -0.000 C 
BRANCH  12  13
ATOM     13  C   UNL     1      -5.291  37.794  96.464  1.00  0.00    -0.003 C 
ATOM     14  C   UNL     1      -6.577  38.124  97.215  1.00  0.00     0.004 C 
ENDBRANCH  12  13
ENDBRANCH  11  12
ENDBRANCH  10  11
ENDBRANCH   9  10
ENDBRANCH   1   9
TORSDOF 10
ENDMDL
MODEL 5
REMARK VINA RESULT:    -5.376      2.510      5.249
REMARK INTER + INTRA:          -9.710
REMARK INTER:                  -8.649
REMARK INTRA:                  -1.061
REMARK UNBOUND:                -1.191
REMARK SMILES CCCCCCCCCCCC(=O)[O-]
REMARK SMILES IDX 7 1 8 2 9 3 10 4 11 5 12 6 13 7 14 8 6 9 5 10 4 11 3 12 2 13
REMARK SMILES IDX 1 14
REMARK H PARENT
REMARK Flexibility Score: inf
ROOT
ATOM      1  C   UNL     1      -2.769  35.945 100.861  1.00  0.00     0.000 C 
ENDROOT
BRANCH   1   2
ATOM      2  C   UNL     1      -3.586  37.138 101.394  1.00  0.00     0.000 C 
BRANCH   2   3
ATOM      3  C   UNL     1      -3.070  38.494 100.885  1.00  0.00     0.000 C 
BRANCH   3   4
ATOM      4  C   UNL     1      -2.078  39.157 101.860  1.00  0.00     0.006 C 
BRANCH   4   5
ATOM      5  C   UNL     1      -2.740  39.919 103.020  1.00  0.00     0.053 C 
BRANCH   5   6
ATOM      6  C   UNL     1      -2.646  41.403 102.844  1.00  0.00     0.041 C 
ATOM      7  O   UNL     1      -3.431  42.000 102.063  1.00  0.00    -0.550 OA
ATOM      8  O   UNL     1      -1.711  42.131 103.570  1.00  0.00    -0.550 OA
ENDBRANCH   5   6
ENDBRANCH   4   5
ENDBRANCH   3   4
ENDBRANCH   2   3
ENDBRANCH   1   2
BRANCH   1   9
ATOM      9  C   UNL     1      -3.593  34.718 100.429  1.00  0.00     0.000 C 
BRANCH   9  10
ATOM     10  C   UNL     1      -3.893  34.696  98.921  1.00  0.00    -0.000 C 
BRANCH  10  11
ATOM     11  C   UNL     1      -2.829  35.433  98.086  1.00  0.00    -0.000 C 
BRANCH  11  12
ATOM     12  C   UNL     1      -3.344  36.650  97.295  1.00  0.00    -0.000 C 
BRANCH  12  13
ATOM     13  C   UNL     1      -4.875  36.761  97.292  1.00  0.00    -0.003 C 
ATOM     14  C   UNL     1      -5.335  38.037  97.992  1.00  0.00     0.004 C 
ENDBRANCH  12  13
ENDBRANCH  11  12
ENDBRANCH  10  11
ENDBRANCH   9  10
ENDBRANCH   1   9
TORSDOF 10
ENDMDL
MODEL 6
REMARK VINA RESULT:    -5.259      2.751      5.775
REMARK INTER + INTRA:          -9.525
REMARK INTER:                  -8.718
REMARK INTRA:                  -0.807
REMARK UNBOUND:                -1.191
REMARK SMILES CCCCCCCCCCCC(=O)[O-]
REMARK SMILES IDX 7 1 8 2 9 3 10 4 11 5 12 6 13 7 14 8 6 9 5 10 4 11 3 12 2 13
REMARK SMILES IDX 1 14
REMARK H PARENT
REMARK Flexibility Score: inf
ROOT
ATOM      1  C   UNL     1      -3.496  38.571  99.103  1.00  0.00     0.000 C 
ENDROOT
BRANCH   1   2
ATOM      2  C   UNL     1      -3.706  38.275 100.600  1.00  0.00     0.000 C 
BRANCH   2   3
ATOM      3  C   UNL     1      -2.390  38.238 101.395  1.00  0.00     0.000 C 
BRANCH   3   4
ATOM      4  C   UNL     1      -2.447  39.086 102.680  1.00  0.00     0.006 C 
BRANCH   4   5
ATOM      5  C   UNL     1      -1.404  40.215 102.743  1.00  0.00     0.053 C 
BRANCH   5   6
ATOM      6  C   UNL     1      -2.026  41.537 103.074  1.00  0.00     0.041 C 
ATOM      7  O   UNL     1      -3.244  41.741 102.836  1.00  0.00    -0.550 OA
ATOM      8  O   UNL     1      -1.265  42.531 103.676  1.00  0.00    -0.550 OA
ENDBRANCH   5   6
ENDBRANCH   4   5
ENDBRANCH   3   4
ENDBRANCH   2   3
ENDBRANCH   1   2
BRANCH   1   9
ATOM      9  C   UNL     1      -4.713  38.305  98.199  1.00  0.00     0.000 C 
BRANCH   9  10
ATOM     10  C   UNL     1      -4.498  37.130  97.230  1.00  0.00    -0.000 C 
BRANCH  10  11
ATOM     11  C   UNL     1      -3.201  36.347  97.514  1.00  0.00    -0.000 C 
BRANCH  11  12
ATOM     12  C   UNL     1      -3.341  35.187  98.516  1.00  0.00    -0.000 C 
BRANCH  12  13
ATOM     13  C   UNL     1      -4.776  34.650  98.618  1.00  0.00    -0.003 C 
ATOM     14  C   UNL     1      -5.401  35.005  99.963  1.00  0.00     0.004 C 
ENDBRANCH  12  13
ENDBRANCH  11  12
ENDBRANCH  10  11
ENDBRANCH   9  10
ENDBRANCH   1   9
TORSDOF 10
ENDMDL
MODEL 7
REMARK VINA RESULT:    -5.127      2.228      3.288
REMARK INTER + INTRA:          -9.315
REMARK INTER:                  -8.455
REMARK INTRA:                  -0.860
REMARK UNBOUND:                -1.191
REMARK SMILES CCCCCCCCCCCC(=O)[O-]
REMARK SMILES IDX 7 1 8 2 9 3 10 4 11 5 12 6 13 7 14 8 6 9 5 10 4 11 3 12 2 13
REMARK SMILES IDX 1 14
REMARK H PARENT
REMARK Flexibility Score: inf
ROOT
ATOM      1  C   UNL     1      -3.609  38.314  98.573  1.00  0.00     0.000 C 
ENDROOT
BRANCH   1   2
ATOM      2  C   UNL     1      -4.954  38.454  97.834  1.00  0.00     0.000 C 
BRANCH   2   3
ATOM      3  C   UNL     1      -5.789  37.163  97.858  1.00  0.00     0.000 C 
BRANCH   3   4
ATOM      4  C   UNL     1      -4.980  35.923  97.437  1.00  0.00     0.006 C 
BRANCH   4   5
ATOM      5  C   UNL     1      -5.000  34.774  98.459  1.00  0.00     0.053 C 
BRANCH   5   6
ATOM      6  C   UNL     1      -3.713  34.674  99.218  1.00  0.00     0.041 C 
ATOM      7  O   UNL     1      -3.716  34.345 100.433  1.00  0.00    -0.550 OA
ATOM      8  O   UNL     1      -2.505  34.913  98.573  1.00  0.00    -0.550 OA
ENDBRANCH   5   6
ENDBRANCH   4   5
ENDBRANCH   3   4
ENDBRANCH   2   3
ENDBRANCH   1   2
BRANCH   1   9
ATOM      9  C   UNL     1      -3.633  38.686 100.067  1.00  0.00     0.000 C 
BRANCH   9  10
ATOM     10  C   UNL     1      -2.647  37.859 100.908  1.00  0.00    -0.000 C 
BRANCH  10  11
ATOM     11  C   UNL     1      -3.218  37.460 102.283  1.00  0.00    -0.000 C 
BRANCH  11  12
ATOM     12  C   UNL     1      -2.861  38.409 103.442  1.00  0.00    -0.000 C 
BRANCH  12  13
ATOM     13  C   UNL     1      -2.038  39.624 102.992  1.00  0.00    -0.003 C 
ATOM     14  C   UNL     1      -2.833  40.916 103.150  1.00  0.00     0.004 C 
ENDBRANCH  12  13
ENDBRANCH  11  12
ENDBRANCH  10  11
ENDBRANCH   9  10
ENDBRANCH   1   9
TORSDOF 10
ENDMDL
MODEL 8
REMARK VINA RESULT:    -5.117      1.450      2.447
REMARK INTER + INTRA:          -9.300
REMARK INTER:                  -8.702
REMARK INTRA:                  -0.598
REMARK UNBOUND:                -1.191
REMARK SMILES CCCCCCCCCCCC(=O)[O-]
REMARK SMILES IDX 7 1 8 2 9 3 10 4 11 5 12 6 13 7 14 8 6 9 5 10 4 11 3 12 2 13
REMARK SMILES IDX 1 14
REMARK H PARENT
REMARK Flexibility Score: inf
ROOT
ATOM      1  C   UNL     1      -2.521  35.879 100.571  1.00  0.00     0.000 C 
ENDROOT
BRANCH   1   2
ATOM      2  C   UNL     1      -3.965  35.348 100.498  1.00  0.00     0.000 C 
BRANCH   2   3
ATOM      3  C   UNL     1      -4.135  34.211  99.476  1.00  0.00     0.000 C 
BRANCH   3   4
ATOM      4  C   UNL     1      -5.124  34.567  98.349  1.00  0.00     0.006 C 
BRANCH   4   5
ATOM      5  C   UNL     1      -5.416  36.071  98.213  1.00  0.00     0.053 C 
BRANCH   5   6
ATOM      6  C   UNL     1      -4.647  36.694  97.089  1.00  0.00     0.041 C 
ATOM      7  O   UNL     1      -3.389  36.710  97.114  1.00  0.00    -0.550 OA
ATOM      8  O   UNL     1      -5.321  37.226  95.996  1.00  0.00    -0.550 OA
ENDBRANCH   5   6
ENDBRANCH   4   5
ENDBRANCH   3   4
ENDBRANCH   2   3
ENDBRANCH   1   2
BRANCH   1   9
ATOM      9  C   UNL     1      -2.353  37.248 101.256  1.00  0.00     0.000 C 
BRANCH   9  10
ATOM     10  C   UNL     1      -3.104  37.347 102.595  1.00  0.00    -0.000 C 
BRANCH  10  11
ATOM     11  C   UNL     1      -2.869  38.687 103.317  1.00  0.00    -0.000 C 
BRANCH  11  12
ATOM     12  C   UNL     1      -2.714  39.912 102.397  1.00  0.00    -0.000 C 
BRANCH  12  13
ATOM     13  C   UNL     1      -2.596  41.233 103.169  1.00  0.00    -0.003 C 
ATOM     14  C   UNL     1      -1.152  41.724 103.200  1.00  0.00     0.004 C 
ENDBRANCH  12  13
ENDBRANCH  11  12
ENDBRANCH  10  11
ENDBRANCH   9  10
ENDBRANCH   1   9
TORSDOF 10
ENDMDL
MODEL 9
REMARK VINA RESULT:    -4.843      2.819      5.999
REMARK INTER + INTRA:          -8.866
REMARK INTER:                  -8.245
REMARK INTRA:                  -0.621
REMARK UNBOUND:                -1.191
REMARK SMILES CCCCCCCCCCCC(=O)[O-]
REMARK SMILES IDX 7 1 8 2 9 3 10 4 11 5 12 6 13 7 14 8 6 9 5 10 4 11 3 12 2 13
REMARK SMILES IDX 1 14
REMARK H PARENT
REMARK Flexibility Score: inf
ROOT
ATOM      1  C   UNL     1      -2.963  38.337 101.161  1.00  0.00     0.000 C 
ENDROOT
BRANCH   1   2
ATOM      2  C   UNL     1      -1.755  39.191 101.591  1.00  0.00     0.000 C 
BRANCH   2   3
ATOM      3  C   UNL     1      -1.868  39.706 103.036  1.00  0.00     0.000 C 
BRANCH   3   4
ATOM      4  C   UNL     1      -2.917  40.824 103.188  1.00  0.00     0.006 C 
BRANCH   4   5
ATOM      5  C   UNL     1      -2.333  42.247 103.179  1.00  0.00     0.053 C 
BRANCH   5   6
ATOM      6  C   UNL     1      -3.200  43.206 102.423  1.00  0.00     0.041 C 
ATOM      7  O   UNL     1      -3.896  42.803 101.455  1.00  0.00    -0.550 OA
ATOM      8  O   UNL     1      -3.265  44.539 102.810  1.00  0.00    -0.550 OA
ENDBRANCH   5   6
ENDBRANCH   4   5
ENDBRANCH   3   4
ENDBRANCH   2   3
ENDBRANCH   1   2
BRANCH   1   9
ATOM      9  C   UNL     1      -3.421  38.525  99.703  1.00  0.00     0.000 C 
BRANCH   9  10
ATOM     10  C   UNL     1      -4.755  37.826  99.396  1.00  0.00    -0.000 C 
BRANCH  10  11
ATOM     11  C   UNL     1      -5.072  36.680 100.376  1.00  0.00    -0.000 C 
BRANCH  11  12
ATOM     12  C   UNL     1      -5.186  35.283  99.738  1.00  0.00    -0.000 C 
BRANCH  12  13
ATOM     13  C   UNL     1      -3.884  34.474  99.826  1.00  0.00    -0.003 C 
ATOM     14  C   UNL     1      -2.891  34.915  98.755  1.00  0.00     0.004 C 
ENDBRANCH  12  13
ENDBRANCH  11  12
ENDBRANCH  10  11
ENDBRANCH   9  10
ENDBRANCH   1   9
TORSDOF 10
ENDMDL
