MODEL 1
REMARK VINA RESULT:    -4.293      0.000      0.000
REMARK INTER + INTRA:          -7.837
REMARK INTER:                  -6.802
REMARK INTRA:                  -1.034
REMARK UNBOUND:                -1.034
REMARK SMILES CCCCCCCCCCCC(=O)[O-]
REMARK SMILES IDX 7 1 8 2 9 3 10 4 11 5 12 6 13 7 14 8 6 9 5 10 4 11 3 12 2 13
REMARK SMILES IDX 1 14
REMARK H PARENT
REMARK Flexibility Score: inf
ROOT
ATOM      1  C   UNL     1     -29.518 -12.580  16.678  1.00  0.00     0.000 C 
ENDROOT
BRANCH   1   2
ATOM      2  C   UNL     1     -30.134 -13.589  17.664  1.00  0.00     0.000 C 
BRANCH   2   3
ATOM      3  C   UNL     1     -31.652 -13.798  17.515  1.00  0.00     0.000 C 
BRANCH   3   4
ATOM      4  C   UNL     1     -32.114 -13.814  16.048  1.00  0.00     0.006 C 
BRANCH   4   5
ATOM      5  C   UNL     1     -32.446 -15.230  15.561  1.00  0.00     0.053 C 
BRANCH   5   6
ATOM      6  C   UNL     1     -31.255 -15.900  14.946  1.00  0.00     0.041 C 
ATOM      7  O   UNL     1     -30.347 -15.213  14.409  1.00  0.00    -0.550 OA
ATOM      8  O   UNL     1     -31.136 -17.283  14.990  1.00  0.00    -0.550 OA
ENDBRANCH   5   6
ENDBRANCH   4   5
ENDBRANCH   3   4
ENDBRANCH   2   3
ENDBRANCH   1   2
BRANCH   1   9
ATOM      9  C   UNL     1     -29.189 -11.227  17.332  1.00  0.00     0.000 C 
BRANCH   9  10
ATOM     10  C   UNL     1     -27.696 -11.107  17.704  1.00  0.00    -0.000 C 
BRANCH  10  11
ATOM     11  C   UNL     1     -26.743 -11.570  16.588  1.00  0.00    -0.000 C 
BRANCH  11  12
ATOM     12  C   UNL     1     -25.535 -12.356  17.124  1.00  0.00    -0.000 C 
BRANCH  12  13
ATOM     13  C   UNL     1     -25.943 -13.455  18.118  1.00  0.00    -0.003 C 
ATOM     14  C   UNL     1     -26.363 -14.753  17.428  1.00  0.00     0.004 C 
ENDBRANCH  12  13
ENDBRANCH  11  12
ENDBRANCH  10  11
ENDBRANCH   9  10
ENDBRANCH   1   9
TORSDOF 10
ENDMDL
MODEL 2
REMARK VINA RESULT:    -4.281      1.712      4.590
REMARK INTER + INTRA:          -7.818
REMARK INTER:                  -6.889
REMARK INTRA:                  -0.929
REMARK UNBOUND:                -1.034
REMARK SMILES CCCCCCCCCCCC(=O)[O-]
REMARK SMILES IDX 7 1 8 2 9 3 10 4 11 5 12 6 13 7 14 8 6 9 5 10 4 11 3 12 2 13
REMARK SMILES IDX 1 14
REMARK H PARENT
REMARK Flexibility Score: inf
ROOT
ATOM      1  C   UNL     1     -26.906 -11.668  16.691  1.00  0.00     0.000 C 
ENDROOT
BRANCH   1   2
ATOM      2  C   UNL     1     -25.508 -11.860  17.307  1.00  0.00     0.000 C 
BRANCH   2   3
ATOM      3  C   UNL     1     -25.299 -13.198  18.039  1.00  0.00     0.000 C 
BRANCH   3   4
ATOM      4  C   UNL     1     -26.542 -14.103  17.998  1.00  0.00     0.006 C 
BRANCH   4   5
ATOM      5  C   UNL     1     -26.241 -15.471  17.370  1.00  0.00     0.053 C 
BRANCH   5   6
ATOM      6  C   UNL     1     -27.491 -16.268  17.152  1.00  0.00     0.041 C 
ATOM      7  O   UNL     1     -27.519 -17.181  16.285  1.00  0.00    -0.550 OA
ATOM      8  O   UNL     1     -28.617 -16.021  17.927  1.00  0.00    -0.550 OA
ENDBRANCH   5   6
ENDBRANCH   4   5
ENDBRANCH   3   4
ENDBRANCH   2   3
ENDBRANCH   1   2
BRANCH   1   9
ATOM      9  C   UNL     1     -27.718 -10.557  17.380  1.00  0.00     0.000 C 
BRANCH   9  10
ATOM     10  C   UNL     1     -29.224 -10.890  17.440  1.00  0.00    -0.000 C 
BRANCH  10  11
ATOM     11  C   UNL     1     -29.582 -12.247  16.809  1.00  0.00    -0.000 C 
BRANCH  11  12
ATOM     12  C   UNL     1     -30.620 -13.030  17.628  1.00  0.00    -0.000 C 
BRANCH  12  13
ATOM     13  C   UNL     1     -31.425 -14.017  16.767  1.00  0.00    -0.003 C 
ATOM     14  C   UNL     1     -30.620 -14.574  15.593  1.00  0.00     0.004 C 
ENDBRANCH  12  13
ENDBRANCH  11  12
ENDBRANCH  10  11
ENDBRANCH   9  10
ENDBRANCH   1   9
TORSDOF 10
ENDMDL
MODEL 3
REMARK VINA RESULT:    -4.273      1.652      2.134
REMARK INTER + INTRA:          -7.805
REMARK INTER:                  -6.822
REMARK INTRA:                  -0.983
REMARK UNBOUND:                -1.034
REMARK SMILES CCCCCCCCCCCC(=O)[O-]
REMARK SMILES IDX 7 1 8 2 9 3 10 4 11 5 12 6 13 7 14 8 6 9 5 10 4 11 3 12 2 13
REMARK SMILES IDX 1 14
REMARK H PARENT
REMARK Flexibility Score: inf
ROOT
ATOM      1  C   UNL     1     -30.455 -13.133  17.533  1.00  0.00     0.000 C 
ENDROOT
BRANCH   1   2
ATOM      2  C   UNL     1     -30.321 -14.641  17.253  1.00  0.00     0.000 C 
BRANCH   2   3
ATOM      3  C   UNL     1     -29.929 -15.001  15.808  1.00  0.00     0.000 C 
BRANCH   3   4
ATOM      4  C   UNL     1     -31.145 -15.294  14.913  1.00  0.00     0.006 C 
BRANCH   4   5
ATOM      5  C   UNL     1     -32.364 -15.751  15.725  1.00  0.00     0.053 C 
BRANCH   5   6
ATOM      6  C   UNL     1     -33.560 -14.886  15.465  1.00  0.00     0.041 C 
ATOM      7  O   UNL     1     -33.418 -13.651  15.264  1.00  0.00    -0.550 OA
ATOM      8  O   UNL     1     -34.828 -15.450  15.418  1.00  0.00    -0.550 OA
ENDBRANCH   5   6
ENDBRANCH   4   5
ENDBRANCH   3   4
ENDBRANCH   2   3
ENDBRANCH   1   2
BRANCH   1   9
ATOM      9  C   UNL     1     -29.536 -12.274  16.648  1.00  0.00     0.000 C 
BRANCH   9  10
ATOM     10  C   UNL     1     -29.142 -10.948  17.332  1.00  0.00    -0.000 C 
BRANCH  10  11
ATOM     11  C   UNL     1     -27.639 -10.834  17.639  1.00  0.00    -0.000 C 
BRANCH  11  12
ATOM     12  C   UNL     1     -26.763 -11.563  16.607  1.00  0.00    -0.000 C 
BRANCH  12  13
ATOM     13  C   UNL     1     -25.687 -12.441  17.265  1.00  0.00    -0.003 C 
ATOM     14  C   UNL     1     -26.269 -13.673  17.958  1.00  0.00     0.004 C 
ENDBRANCH  12  13
ENDBRANCH  11  12
ENDBRANCH  10  11
ENDBRANCH   9  10
ENDBRANCH   1   9
TORSDOF 10
ENDMDL
MODEL 4
REMARK VINA RESULT:    -4.130      1.293      3.917
REMARK INTER + INTRA:          -7.579
REMARK INTER:                  -6.363
REMARK INTRA:                  -1.215
REMARK UNBOUND:                -1.034
REMARK SMILES CCCCCCCCCCCC(=O)[O-]
REMARK SMILES IDX 7 1 8 2 9 3 10 4 11 5 12 6 13 7 14 8 6 9 5 10 4 11 3 12 2 13
REMARK SMILES IDX 1 14
REMARK H PARENT
REMARK Flexibility Score: inf
ROOT
ATOM      1  C   UNL     1     -25.579 -12.584  17.020  1.00  0.00     0.000 C 
ENDROOT
BRANCH   1   2
ATOM      2  C   UNL     1     -26.013 -13.577  18.113  1.00  0.00     0.000 C 
BRANCH   2   3
ATOM      3  C   UNL     1     -26.096 -15.046  17.662  1.00  0.00     0.000 C 
BRANCH   3   4
ATOM      4  C   UNL     1     -27.511 -15.634  17.795  1.00  0.00     0.006 C 
BRANCH   4   5
ATOM      5  C   UNL     1     -27.880 -16.532  16.606  1.00  0.00     0.053 C 
BRANCH   5   6
ATOM      6  C   UNL     1     -29.343 -16.461  16.290  1.00  0.00     0.041 C 
ATOM      7  O   UNL     1     -29.729 -16.076  15.156  1.00  0.00    -0.550 OA
ATOM      8  O   UNL     1     -30.279 -16.847  17.241  1.00  0.00    -0.550 OA
ENDBRANCH   5   6
ENDBRANCH   4   5
ENDBRANCH   3   4
ENDBRANCH   2   3
ENDBRANCH   1   2
BRANCH   1   9
ATOM      9  C   UNL     1     -26.475 -11.335  16.953  1.00  0.00     0.000 C 
BRANCH   9  10
ATOM     10  C   UNL     1     -27.757 -11.492  17.798  1.00  0.00    -0.000 C 
BRANCH  10  11
ATOM     11  C   UNL     1     -29.053 -11.390  16.976  1.00  0.00    -0.000 C 
BRANCH  11  12
ATOM     12  C   UNL     1     -29.636 -12.764  16.608  1.00  0.00    -0.000 C 
BRANCH  12  13
ATOM     13  C   UNL     1     -30.626 -13.284  17.663  1.00  0.00    -0.003 C 
ATOM     14  C   UNL     1     -31.946 -13.757  17.054  1.00  0.00     0.004 C 
ENDBRANCH  12  13
ENDBRANCH  11  12
ENDBRANCH  10  11
ENDBRANCH   9  10
ENDBRANCH   1   9
TORSDOF 10
ENDMDL
MODEL 5
REMARK VINA RESULT:    -4.094      1.884      4.411
REMARK INTER + INTRA:          -7.521
REMARK INTER:                  -6.525
REMARK INTRA:                  -0.996
REMARK UNBOUND:                -1.034
REMARK SMILES CCCCCCCCCCCC(=O)[O-]
REMARK SMILES IDX 7 1 8 2 9 3 10 4 11 5 12 6 13 7 14 8 6 9 5 10 4 11 3 12 2 13
REMARK SMILES IDX 1 14
REMARK H PARENT
REMARK Flexibility Score: inf
ROOT
ATOM      1  C   UNL     1     -25.493 -11.873  17.178  1.00  0.00     0.000 C 
ENDROOT
BRANCH   1   2
ATOM      2  C   UNL     1     -25.415 -13.084  18.125  1.00  0.00     0.000 C 
BRANCH   2   3
ATOM      3  C   UNL     1     -26.490 -14.162  17.892  1.00  0.00     0.000 C 
BRANCH   3   4
ATOM      4  C   UNL     1     -25.894 -15.560  17.657  1.00  0.00     0.006 C 
BRANCH   4   5
ATOM      5  C   UNL     1     -26.930 -16.673  17.866  1.00  0.00     0.053 C 
BRANCH   5   6
ATOM      6  C   UNL     1     -27.228 -17.401  16.591  1.00  0.00     0.041 C 
ATOM      7  O   UNL     1     -26.518 -18.378  16.237  1.00  0.00    -0.550 OA
ATOM      8  O   UNL     1     -28.308 -17.015  15.807  1.00  0.00    -0.550 OA
ENDBRANCH   5   6
ENDBRANCH   4   5
ENDBRANCH   3   4
ENDBRANCH   2   3
ENDBRANCH   1   2
BRANCH   1   9
ATOM      9  C   UNL     1     -26.898 -11.663  16.587  1.00  0.00     0.000 C 
BRANCH   9  10
ATOM     10  C   UNL     1     -27.724 -10.641  17.396  1.00  0.00    -0.000 C 
BRANCH  10  11
ATOM     11  C   UNL     1     -29.231 -10.946  17.420  1.00  0.00    -0.000 C 
BRANCH  11  12
ATOM     12  C   UNL     1     -29.575 -12.303  16.785  1.00  0.00    -0.000 C 
BRANCH  12  13
ATOM     13  C   UNL     1     -30.419 -13.191  17.714  1.00  0.00    -0.003 C 
ATOM     14  C   UNL     1     -30.289 -14.679  17.391  1.00  0.00     0.004 C 
ENDBRANCH  12  13
ENDBRANCH  11  12
ENDBRANCH  10  11
ENDBRANCH   9  10
ENDBRANCH   1   9
TORSDOF 10
ENDMDL
MODEL 6
REMARK VINA RESULT:    -4.079      1.674      3.277
REMARK INTER + INTRA:          -7.498
REMARK INTER:                  -6.491
REMARK INTRA:                  -1.008
REMARK UNBOUND:                -1.034
REMARK SMILES CCCCCCCCCCCC(=O)[O-]
REMARK SMILES IDX 7 1 8 2 9 3 10 4 11 5 12 6 13 7 14 8 6 9 5 10 4 11 3 12 2 13
REMARK SMILES IDX 1 14
REMARK H PARENT
REMARK Flexibility Score: inf
ROOT
ATOM      1  C   UNL     1     -26.542 -11.352  16.743  1.00  0.00     0.000 C 
ENDROOT
BRANCH   1   2
ATOM      2  C   UNL     1     -27.751 -11.407  17.694  1.00  0.00     0.000 C 
BRANCH   2   3
ATOM      3  C   UNL     1     -29.092 -11.756  17.022  1.00  0.00     0.000 C 
BRANCH   3   4
ATOM      4  C   UNL     1     -29.650 -13.117  17.471  1.00  0.00     0.006 C 
BRANCH   4   5
ATOM      5  C   UNL     1     -30.102 -13.978  16.284  1.00  0.00     0.053 C 
BRANCH   5   6
ATOM      6  C   UNL     1     -31.589 -14.159  16.263  1.00  0.00     0.041 C 
ATOM      7  O   UNL     1     -32.298 -13.700  17.197  1.00  0.00    -0.550 OA
ATOM      8  O   UNL     1     -32.195 -14.813  15.198  1.00  0.00    -0.550 OA
ENDBRANCH   5   6
ENDBRANCH   4   5
ENDBRANCH   3   4
ENDBRANCH   2   3
ENDBRANCH   1   2
BRANCH   1   9
ATOM      9  C   UNL     1     -25.440 -12.358  17.115  1.00  0.00     0.000 C 
BRANCH   9  10
ATOM     10  C   UNL     1     -25.967 -13.491  18.021  1.00  0.00    -0.000 C 
BRANCH  10  11
ATOM     11  C   UNL     1     -25.883 -14.886  17.376  1.00  0.00    -0.000 C 
BRANCH  11  12
ATOM     12  C   UNL     1     -27.065 -15.791  17.758  1.00  0.00    -0.000 C 
BRANCH  12  13
ATOM     13  C   UNL     1     -27.192 -17.014  16.836  1.00  0.00    -0.003 C 
ATOM     14  C   UNL     1     -25.840 -17.640  16.492  1.00  0.00     0.004 C 
ENDBRANCH  12  13
ENDBRANCH  11  12
ENDBRANCH  10  11
ENDBRANCH   9  10
ENDBRANCH   1   9
TORSDOF 10
ENDMDL
MODEL 7
REMARK VINA RESULT:    -4.060      1.858      2.598
REMARK INTER + INTRA:          -7.469
REMARK INTER:                  -6.719
REMARK INTRA:                  -0.749
REMARK UNBOUND:                -1.034
REMARK SMILES CCCCCCCCCCCC(=O)[O-]
REMARK SMILES IDX 7 1 8 2 9 3 10 4 11 5 12 6 13 7 14 8 6 9 5 10 4 11 3 12 2 13
REMARK SMILES IDX 1 14
REMARK H PARENT
REMARK Flexibility Score: inf
ROOT
ATOM      1  C   UNL     1     -29.113 -14.086  17.410  1.00  0.00     0.000 C 
ENDROOT
BRANCH   1   2
ATOM      2  C   UNL     1     -29.286 -15.387  16.607  1.00  0.00     0.000 C 
BRANCH   2   3
ATOM      3  C   UNL     1     -30.569 -15.463  15.760  1.00  0.00     0.000 C 
BRANCH   3   4
ATOM      4  C   UNL     1     -30.288 -15.710  14.268  1.00  0.00     0.006 C 
BRANCH   4   5
ATOM      5  C   UNL     1     -30.216 -17.206  13.932  1.00  0.00     0.053 C 
BRANCH   5   6
ATOM      6  C   UNL     1     -28.937 -17.558  13.236  1.00  0.00     0.041 C 
ATOM      7  O   UNL     1     -28.204 -18.479  13.682  1.00  0.00    -0.550 OA
ATOM      8  O   UNL     1     -28.568 -16.885  12.078  1.00  0.00    -0.550 OA
ENDBRANCH   5   6
ENDBRANCH   4   5
ENDBRANCH   3   4
ENDBRANCH   2   3
ENDBRANCH   1   2
BRANCH   1   9
ATOM      9  C   UNL     1     -29.873 -12.896  16.796  1.00  0.00     0.000 C 
BRANCH   9  10
ATOM     10  C   UNL     1     -29.134 -11.559  17.014  1.00  0.00    -0.000 C 
BRANCH  10  11
ATOM     11  C   UNL     1     -27.789 -11.709  17.746  1.00  0.00    -0.000 C 
BRANCH  11  12
ATOM     12  C   UNL     1     -26.581 -11.471  16.826  1.00  0.00    -0.000 C 
BRANCH  12  13
ATOM     13  C   UNL     1     -25.312 -12.181  17.325  1.00  0.00    -0.003 C 
ATOM     14  C   UNL     1     -25.610 -13.519  18.002  1.00  0.00     0.004 C 
ENDBRANCH  12  13
ENDBRANCH  11  12
ENDBRANCH  10  11
ENDBRANCH   9  10
ENDBRANCH   1   9
TORSDOF 10
ENDMDL
MODEL 8
REMARK VINA RESULT:    -4.040      1.615      2.240
REMARK INTER + INTRA:          -7.437
REMARK INTER:                  -6.621
REMARK INTRA:                  -0.816
REMARK UNBOUND:                -1.034
REMARK SMILES CCCCCCCCCCCC(=O)[O-]
REMARK SMILES IDX 7 1 8 2 9 3 10 4 11 5 12 6 13 7 14 8 6 9 5 10 4 11 3 12 2 13
REMARK SMILES IDX 1 14
REMARK H PARENT
REMARK Flexibility Score: inf
ROOT
ATOM      1  C   UNL     1     -28.993 -11.227  17.480  1.00  0.00     0.000 C 
ENDROOT
BRANCH   1   2
ATOM      2  C   UNL     1     -29.826 -12.521  17.521  1.00  0.00     0.000 C 
BRANCH   2   3
ATOM      3  C   UNL     1     -29.883 -13.299  16.193  1.00  0.00     0.000 C 
BRANCH   3   4
ATOM      4  C   UNL     1     -30.839 -14.503  16.245  1.00  0.00     0.006 C 
BRANCH   4   5
ATOM      5  C   UNL     1     -32.239 -14.110  16.736  1.00  0.00     0.053 C 
BRANCH   5   6
ATOM      6  C   UNL     1     -33.289 -14.402  15.708  1.00  0.00     0.041 C 
ATOM      7  O   UNL     1     -33.507 -15.586  15.341  1.00  0.00    -0.550 OA
ATOM      8  O   UNL     1     -34.046 -13.366  15.175  1.00  0.00    -0.550 OA
ENDBRANCH   5   6
ENDBRANCH   4   5
ENDBRANCH   3   4
ENDBRANCH   2   3
ENDBRANCH   1   2
BRANCH   1   9
ATOM      9  C   UNL     1     -27.705 -11.368  16.650  1.00  0.00     0.000 C 
BRANCH   9  10
ATOM     10  C   UNL     1     -26.443 -11.407  17.536  1.00  0.00    -0.000 C 
BRANCH  10  11
ATOM     11  C   UNL     1     -25.475 -12.549  17.181  1.00  0.00    -0.000 C 
BRANCH  11  12
ATOM     12  C   UNL     1     -25.613 -13.761  18.117  1.00  0.00    -0.000 C 
BRANCH  12  13
ATOM     13  C   UNL     1     -26.757 -14.699  17.699  1.00  0.00    -0.003 C 
ATOM     14  C   UNL     1     -26.271 -16.102  17.337  1.00  0.00     0.004 C 
ENDBRANCH  12  13
ENDBRANCH  11  12
ENDBRANCH  10  11
ENDBRANCH   9  10
ENDBRANCH   1   9
TORSDOF 10
ENDMDL
MODEL 9
REMARK VINA RESULT:    -4.027      3.018      5.811
REMARK INTER + INTRA:          -7.416
REMARK INTER:                  -6.787
REMARK INTRA:                  -0.629
REMARK UNBOUND:                -1.034
REMARK SMILES CCCCCCCCCCCC(=O)[O-]
REMARK SMILES IDX 7 1 8 2 9 3 10 4 11 5 12 6 13 7 14 8 6 9 5 10 4 11 3 12 2 13
REMARK SMILES IDX 1 14
REMARK H PARENT
REMARK Flexibility Score: inf
ROOT
ATOM      1  C   UNL     1     -30.017 -13.550  16.216  1.00  0.00     0.000 C 
ENDROOT
BRANCH   1   2
ATOM      2  C   UNL     1     -30.094 -12.576  17.406  1.00  0.00     0.000 C 
BRANCH   2   3
ATOM      3  C   UNL     1     -29.316 -11.260  17.220  1.00  0.00     0.000 C 
BRANCH   3   4
ATOM      4  C   UNL     1     -27.892 -11.320  17.797  1.00  0.00     0.006 C 
BRANCH   4   5
ATOM      5  C   UNL     1     -26.837 -11.567  16.711  1.00  0.00     0.053 C 
BRANCH   5   6
ATOM      6  C   UNL     1     -25.778 -12.521  17.173  1.00  0.00     0.041 C 
ATOM      7  O   UNL     1     -26.063 -13.726  17.398  1.00  0.00    -0.550 OA
ATOM      8  O   UNL     1     -24.469 -12.083  17.329  1.00  0.00    -0.550 OA
ENDBRANCH   5   6
ENDBRANCH   4   5
ENDBRANCH   3   4
ENDBRANCH   2   3
ENDBRANCH   1   2
BRANCH   1   9
ATOM      9  C   UNL     1     -29.294 -14.864  16.562  1.00  0.00     0.000 C 
BRANCH   9  10
ATOM     10  C   UNL     1     -29.963 -16.087  15.899  1.00  0.00    -0.000 C 
BRANCH  10  11
ATOM     11  C   UNL     1     -30.361 -15.852  14.431  1.00  0.00    -0.000 C 
BRANCH  11  12
ATOM     12  C   UNL     1     -30.328 -17.139  13.591  1.00  0.00    -0.000 C 
BRANCH  12  13
ATOM     13  C   UNL     1     -29.080 -17.227  12.699  1.00  0.00    -0.003 C 
ATOM     14  C   UNL     1     -28.242 -18.475  12.973  1.00  0.00     0.004 C 
ENDBRANCH  12  13
ENDBRANCH  11  12
ENDBRANCH  10  11
ENDBRANCH   9  10
ENDBRANCH   1   9
TORSDOF 10
ENDMDL
