MODEL 1
REMARK VINA RESULT:    -4.273      0.000      0.000
REMARK INTER + INTRA:         -10.743
REMARK INTER:                  -9.769
REMARK INTRA:                  -0.973
REMARK UNBOUND:                -0.973
REMARK SMILES CCCCCCCCCCCCCCCCCCCCCCCC(=O)[O-]
REMARK SMILES IDX 13 1 14 2 15 3 16 4 17 5 18 6 19 7 20 8 21 9 22 10 23 11
REMARK SMILES IDX 24 12 25 13 26 14 12 15 11 16 10 17 9 18 8 19 7 20 6 21 5 22
REMARK SMILES IDX 4 23 3 24 2 25 1 26
REMARK H PARENT
REMARK Flexibility Score: inf
ROOT
ATOM      1  C   UNL     1      41.355  65.613  22.587  1.00  0.00     0.000 C 
ENDROOT
BRANCH   1   2
ATOM      2  C   UNL     1      41.361  64.670  23.804  1.00  0.00     0.000 C 
BRANCH   2   3
ATOM      3  C   UNL     1      41.947  65.334  25.063  1.00  0.00     0.000 C 
BRANCH   3   4
ATOM      4  C   UNL     1      41.064  66.481  25.585  1.00  0.00     0.000 C 
BRANCH   4   5
ATOM      5  C   UNL     1      41.764  67.848  25.513  1.00  0.00     0.000 C 
BRANCH   5   6
ATOM      6  C   UNL     1      41.977  68.329  24.069  1.00  0.00     0.000 C 
BRANCH   6   7
ATOM      7  C   UNL     1      43.342  69.012  23.912  1.00  0.00     0.000 C 
BRANCH   7   8
ATOM      8  C   UNL     1      43.600  69.997  25.062  1.00  0.00     0.000 C 
BRANCH   8   9
ATOM      9  C   UNL     1      44.248  71.306  24.588  1.00  0.00     0.000 C 
BRANCH   9  10
ATOM     10  C   UNL     1      43.558  72.552  25.174  1.00  0.00     0.006 C 
BRANCH  10  11
ATOM     11  C   UNL     1      42.607  73.215  24.167  1.00  0.00     0.053 C 
BRANCH  11  12
ATOM     12  C   UNL     1      41.379  73.755  24.833  1.00  0.00     0.041 C 
ATOM     13  O   UNL     1      41.322  73.831  26.088  1.00  0.00    -0.550 OA
ATOM     14  O   UNL     1      40.308  74.196  24.067  1.00  0.00    -0.550 OA
ENDBRANCH  11  12
ENDBRANCH  10  11
ENDBRANCH   9  10
ENDBRANCH   8   9
ENDBRANCH   7   8
ENDBRANCH   6   7
ENDBRANCH   5   6
ENDBRANCH   4   5
ENDBRANCH   3   4
ENDBRANCH   2   3
ENDBRANCH   1   2
BRANCH   1  15
ATOM     15  C   UNL     1      39.936  65.915  22.080  1.00  0.00     0.000 C 
BRANCH  15  16
ATOM     16  C   UNL     1      39.289  67.112  22.800  1.00  0.00     0.000 C 
BRANCH  16  17
ATOM     17  C   UNL     1      38.529  66.693  24.069  1.00  0.00     0.000 C 
BRANCH  17  18
ATOM     18  C   UNL     1      37.448  67.710  24.477  1.00  0.00    -0.000 C 
BRANCH  18  19
ATOM     19  C   UNL     1      36.916  67.462  25.897  1.00  0.00    -0.000 C 
BRANCH  19  20
ATOM     20  C   UNL     1      35.393  67.660  25.998  1.00  0.00    -0.000 C 
BRANCH  20  21
ATOM     21  C   UNL     1      34.658  66.413  26.523  1.00  0.00    -0.000 C 
BRANCH  21  22
ATOM     22  C   UNL     1      34.580  65.236  25.535  1.00  0.00    -0.000 C 
BRANCH  22  23
ATOM     23  C   UNL     1      34.615  63.864  26.231  1.00  0.00    -0.000 C 
BRANCH  23  24
ATOM     24  C   UNL     1      35.217  63.925  27.646  1.00  0.00    -0.000 C 
BRANCH  24  25
ATOM     25  C   UNL     1      34.251  63.548  28.785  1.00  0.00    -0.003 C 
ATOM     26  C   UNL     1      33.666  62.144  28.633  1.00  0.00     0.004 C 
ENDBRANCH  24  25
ENDBRANCH  23  24
ENDBRANCH  22  23
ENDBRANCH  21  22
ENDBRANCH  20  21
ENDBRANCH  19  20
ENDBRANCH  18  19
ENDBRANCH  17  18
ENDBRANCH  16  17
ENDBRANCH  15  16
ENDBRANCH   1  15
TORSDOF 22
ENDMDL
MODEL 2
REMARK VINA RESULT:    -4.076      3.116      6.607
REMARK INTER + INTRA:         -10.292
REMARK INTER:                  -9.519
REMARK INTRA:                  -0.772
REMARK UNBOUND:                -0.973
REMARK SMILES CCCCCCCCCCCCCCCCCCCCCCCC(=O)[O-]
REMARK SMILES IDX 13 1 14 2 15 3 16 4 17 5 18 6 19 7 20 8 21 9 22 10 23 11
REMARK SMILES IDX 24 12 25 13 26 14 12 15 11 16 10 17 9 18 8 19 7 20 6 21 5 22
REMARK SMILES IDX 4 23 3 24 2 25 1 26
REMARK H PARENT
REMARK Flexibility Score: inf
ROOT
ATOM      1  C   UNL     1      38.814  67.145  23.850  1.00  0.00     0.000 C 
ENDROOT
BRANCH   1   2
ATOM      2  C   UNL     1      39.523  66.337  22.748  1.00  0.00     0.000 C 
BRANCH   2   3
ATOM      3  C   UNL     1      40.407  67.216  21.847  1.00  0.00     0.000 C 
BRANCH   3   4
ATOM      4  C   UNL     1      41.844  67.345  22.383  1.00  0.00     0.000 C 
BRANCH   4   5
ATOM      5  C   UNL     1      41.954  68.340  23.551  1.00  0.00     0.000 C 
BRANCH   5   6
ATOM      6  C   UNL     1      43.339  69.001  23.638  1.00  0.00     0.000 C 
BRANCH   6   7
ATOM      7  C   UNL     1      43.426  69.940  24.848  1.00  0.00     0.000 C 
BRANCH   7   8
ATOM      8  C   UNL     1      44.598  70.922  24.698  1.00  0.00     0.000 C 
BRANCH   8   9
ATOM      9  C   UNL     1      44.254  72.335  25.192  1.00  0.00     0.000 C 
BRANCH   9  10
ATOM     10  C   UNL     1      42.870  72.808  24.711  1.00  0.00     0.006 C 
BRANCH  10  11
ATOM     11  C   UNL     1      41.960  73.220  25.877  1.00  0.00     0.053 C 
BRANCH  11  12
ATOM     12  C   UNL     1      40.978  74.276  25.472  1.00  0.00     0.041 C 
ATOM     13  O   UNL     1      40.620  75.156  26.297  1.00  0.00    -0.550 OA
ATOM     14  O   UNL     1      40.476  74.301  24.177  1.00  0.00    -0.550 OA
ENDBRANCH  11  12
ENDBRANCH  10  11
ENDBRANCH   9  10
ENDBRANCH   8   9
ENDBRANCH   7   8
ENDBRANCH   6   7
ENDBRANCH   5   6
ENDBRANCH   4   5
ENDBRANCH   3   4
ENDBRANCH   2   3
ENDBRANCH   1   2
BRANCH   1  15
ATOM     15  C   UNL     1      39.198  66.679  25.264  1.00  0.00     0.000 C 
BRANCH  15  16
ATOM     16  C   UNL     1      40.695  66.862  25.565  1.00  0.00     0.000 C 
BRANCH  16  17
ATOM     17  C   UNL     1      41.408  65.526  25.831  1.00  0.00     0.000 C 
BRANCH  17  18
ATOM     18  C   UNL     1      41.789  64.787  24.536  1.00  0.00    -0.000 C 
BRANCH  18  19
ATOM     19  C   UNL     1      41.791  63.260  24.710  1.00  0.00    -0.000 C 
BRANCH  19  20
ATOM     20  C   UNL     1      42.483  62.817  26.011  1.00  0.00    -0.000 C 
BRANCH  20  21
ATOM     21  C   UNL     1      43.524  61.704  25.789  1.00  0.00    -0.000 C 
BRANCH  21  22
ATOM     22  C   UNL     1      44.958  62.053  26.227  1.00  0.00    -0.000 C 
BRANCH  22  23
ATOM     23  C   UNL     1      45.902  62.311  25.039  1.00  0.00    -0.000 C 
BRANCH  23  24
ATOM     24  C   UNL     1      47.213  63.004  25.455  1.00  0.00    -0.000 C 
BRANCH  24  25
ATOM     25  C   UNL     1      47.243  63.530  26.902  1.00  0.00    -0.003 C 
ATOM     26  C   UNL     1      48.439  63.014  27.702  1.00  0.00     0.004 C 
ENDBRANCH  24  25
ENDBRANCH  23  24
ENDBRANCH  22  23
ENDBRANCH  21  22
ENDBRANCH  20  21
ENDBRANCH  19  20
ENDBRANCH  18  19
ENDBRANCH  17  18
ENDBRANCH  16  17
ENDBRANCH  15  16
ENDBRANCH   1  15
TORSDOF 22
ENDMDL
MODEL 3
REMARK VINA RESULT:    -4.049      4.763      8.995
REMARK INTER + INTRA:         -10.229
REMARK INTER:                  -8.962
REMARK INTRA:                  -1.267
REMARK UNBOUND:                -0.973
REMARK SMILES CCCCCCCCCCCCCCCCCCCCCCCC(=O)[O-]
REMARK SMILES IDX 13 1 14 2 15 3 16 4 17 5 18 6 19 7 20 8 21 9 22 10 23 11
REMARK SMILES IDX 24 12 25 13 26 14 12 15 11 16 10 17 9 18 8 19 7 20 6 21 5 22
REMARK SMILES IDX 4 23 3 24 2 25 1 26
REMARK H PARENT
REMARK Flexibility Score: inf
ROOT
ATOM      1  C   UNL     1      39.029  66.566  23.698  1.00  0.00     0.000 C 
ENDROOT
BRANCH   1   2
ATOM      2  C   UNL     1      39.619  67.277  22.467  1.00  0.00     0.000 C 
BRANCH   2   3
ATOM      3  C   UNL     1      40.574  66.375  21.666  1.00  0.00     0.000 C 
BRANCH   3   4
ATOM      4  C   UNL     1      40.675  64.958  22.257  1.00  0.00     0.000 C 
BRANCH   4   5
ATOM      5  C   UNL     1      41.728  64.855  23.373  1.00  0.00     0.000 C 
BRANCH   5   6
ATOM      6  C   UNL     1      41.458  63.690  24.337  1.00  0.00     0.000 C 
BRANCH   6   7
ATOM      7  C   UNL     1      42.505  63.647  25.458  1.00  0.00     0.000 C 
BRANCH   7   8
ATOM      8  C   UNL     1      42.436  62.318  26.224  1.00  0.00     0.000 C 
BRANCH   8   9
ATOM      9  C   UNL     1      43.701  61.465  26.045  1.00  0.00     0.000 C 
BRANCH   9  10
ATOM     10  C   UNL     1      44.912  62.295  25.580  1.00  0.00     0.006 C 
BRANCH  10  11
ATOM     11  C   UNL     1      45.800  62.732  26.753  1.00  0.00     0.053 C 
BRANCH  11  12
ATOM     12  C   UNL     1      47.129  63.243  26.287  1.00  0.00     0.041 C 
ATOM     13  O   UNL     1      48.042  63.482  27.120  1.00  0.00    -0.550 OA
ATOM     14  O   UNL     1      47.366  63.433  24.932  1.00  0.00    -0.550 OA
ENDBRANCH  11  12
ENDBRANCH  10  11
ENDBRANCH   9  10
ENDBRANCH   8   9
ENDBRANCH   7   8
ENDBRANCH   6   7
ENDBRANCH   5   6
ENDBRANCH   4   5
ENDBRANCH   3   4
ENDBRANCH   2   3
ENDBRANCH   1   2
BRANCH   1  15
ATOM     15  C   UNL     1      39.308  67.322  25.008  1.00  0.00     0.000 C 
BRANCH  15  16
ATOM     16  C   UNL     1      40.628  66.893  25.672  1.00  0.00     0.000 C 
BRANCH  16  17
ATOM     17  C   UNL     1      41.732  67.952  25.521  1.00  0.00     0.000 C 
BRANCH  17  18
ATOM     18  C   UNL     1      42.079  68.243  24.050  1.00  0.00    -0.000 C 
BRANCH  18  19
ATOM     19  C   UNL     1      43.348  69.099  23.905  1.00  0.00    -0.000 C 
BRANCH  19  20
ATOM     20  C   UNL     1      43.542  70.069  25.085  1.00  0.00    -0.000 C 
BRANCH  20  21
ATOM     21  C   UNL     1      44.297  71.351  24.690  1.00  0.00    -0.000 C 
BRANCH  21  22
ATOM     22  C   UNL     1      43.598  72.667  25.077  1.00  0.00    -0.000 C 
BRANCH  22  23
ATOM     23  C   UNL     1      42.681  73.208  23.967  1.00  0.00    -0.000 C 
BRANCH  23  24
ATOM     24  C   UNL     1      41.364  73.792  24.509  1.00  0.00    -0.000 C 
BRANCH  24  25
ATOM     25  C   UNL     1      41.252  73.837  26.045  1.00  0.00    -0.003 C 
ATOM     26  C   UNL     1      40.939  75.233  26.582  1.00  0.00     0.004 C 
ENDBRANCH  24  25
ENDBRANCH  23  24
ENDBRANCH  22  23
ENDBRANCH  21  22
ENDBRANCH  20  21
ENDBRANCH  19  20
ENDBRANCH  18  19
ENDBRANCH  17  18
ENDBRANCH  16  17
ENDBRANCH  15  16
ENDBRANCH   1  15
TORSDOF 22
ENDMDL
MODEL 4
REMARK VINA RESULT:    -4.043      5.045      9.180
REMARK INTER + INTRA:         -10.217
REMARK INTER:                  -9.613
REMARK INTRA:                  -0.604
REMARK UNBOUND:                -0.973
REMARK SMILES CCCCCCCCCCCCCCCCCCCCCCCC(=O)[O-]
REMARK SMILES IDX 13 1 14 2 15 3 16 4 17 5 18 6 19 7 20 8 21 9 22 10 23 11
REMARK SMILES IDX 24 12 25 13 26 14 12 15 11 16 10 17 9 18 8 19 7 20 6 21 5 22
REMARK SMILES IDX 4 23 3 24 2 25 1 26
REMARK H PARENT
REMARK Flexibility Score: inf
ROOT
ATOM      1  C   UNL     1      41.807  68.267  23.813  1.00  0.00     0.000 C 
ENDROOT
BRANCH   1   2
ATOM      2  C   UNL     1      41.455  67.490  22.533  1.00  0.00     0.000 C 
BRANCH   2   3
ATOM      3  C   UNL     1      40.352  66.441  22.762  1.00  0.00     0.000 C 
BRANCH   3   4
ATOM      4  C   UNL     1      40.092  66.183  24.257  1.00  0.00     0.000 C 
BRANCH   4   5
ATOM      5  C   UNL     1      41.350  65.709  25.004  1.00  0.00     0.000 C 
BRANCH   5   6
ATOM      6  C   UNL     1      41.773  64.286  24.609  1.00  0.00     0.000 C 
BRANCH   6   7
ATOM      7  C   UNL     1      42.216  63.481  25.838  1.00  0.00     0.000 C 
BRANCH   7   8
ATOM      8  C   UNL     1      42.588  62.043  25.448  1.00  0.00     0.000 C 
BRANCH   8   9
ATOM      9  C   UNL     1      43.669  61.442  26.360  1.00  0.00     0.000 C 
BRANCH   9  10
ATOM     10  C   UNL     1      44.882  62.375  26.530  1.00  0.00     0.006 C 
BRANCH  10  11
ATOM     11  C   UNL     1      45.917  62.190  25.412  1.00  0.00     0.053 C 
BRANCH  11  12
ATOM     12  C   UNL     1      47.069  63.136  25.556  1.00  0.00     0.041 C 
ATOM     13  O   UNL     1      47.647  63.588  24.533  1.00  0.00    -0.550 OA
ATOM     14  O   UNL     1      47.489  63.536  26.817  1.00  0.00    -0.550 OA
ENDBRANCH  11  12
ENDBRANCH  10  11
ENDBRANCH   9  10
ENDBRANCH   8   9
ENDBRANCH   7   8
ENDBRANCH   6   7
ENDBRANCH   5   6
ENDBRANCH   4   5
ENDBRANCH   3   4
ENDBRANCH   2   3
ENDBRANCH   1   2
BRANCH   1  15
ATOM     15  C   UNL     1      43.168  68.977  23.719  1.00  0.00     0.000 C 
BRANCH  15  16
ATOM     16  C   UNL     1      43.450  69.885  24.928  1.00  0.00     0.000 C 
BRANCH  16  17
ATOM     17  C   UNL     1      44.387  71.053  24.578  1.00  0.00     0.000 C 
BRANCH  17  18
ATOM     18  C   UNL     1      43.949  72.380  25.223  1.00  0.00    -0.000 C 
BRANCH  18  19
ATOM     19  C   UNL     1      42.719  72.990  24.531  1.00  0.00    -0.000 C 
BRANCH  19  20
ATOM     20  C   UNL     1      41.664  73.487  25.536  1.00  0.00    -0.000 C 
BRANCH  20  21
ATOM     21  C   UNL     1      40.613  74.411  24.895  1.00  0.00    -0.000 C 
BRANCH  21  22
ATOM     22  C   UNL     1      40.100  73.960  23.515  1.00  0.00    -0.000 C 
BRANCH  22  23
ATOM     23  C   UNL     1      38.883  74.768  23.033  1.00  0.00    -0.000 C 
BRANCH  23  24
ATOM     24  C   UNL     1      37.704  73.877  22.603  1.00  0.00    -0.000 C 
BRANCH  24  25
ATOM     25  C   UNL     1      36.560  74.612  21.880  1.00  0.00    -0.003 C 
ATOM     26  C   UNL     1      37.047  75.770  21.009  1.00  0.00     0.004 C 
ENDBRANCH  24  25
ENDBRANCH  23  24
ENDBRANCH  22  23
ENDBRANCH  21  22
ENDBRANCH  20  21
ENDBRANCH  19  20
ENDBRANCH  18  19
ENDBRANCH  17  18
ENDBRANCH  16  17
ENDBRANCH  15  16
ENDBRANCH   1  15
TORSDOF 22
ENDMDL
MODEL 5
REMARK VINA RESULT:    -4.014      0.894      2.340
REMARK INTER + INTRA:         -10.151
REMARK INTER:                  -9.228
REMARK INTRA:                  -0.923
REMARK UNBOUND:                -0.973
REMARK SMILES CCCCCCCCCCCCCCCCCCCCCCCC(=O)[O-]
REMARK SMILES IDX 13 1 14 2 15 3 16 4 17 5 18 6 19 7 20 8 21 9 22 10 23 11
REMARK SMILES IDX 24 12 25 13 26 14 12 15 11 16 10 17 9 18 8 19 7 20 6 21 5 22
REMARK SMILES IDX 4 23 3 24 2 25 1 26
REMARK H PARENT
REMARK Flexibility Score: inf
ROOT
ATOM      1  C   UNL     1      41.743  65.090  23.515  1.00  0.00     0.000 C 
ENDROOT
BRANCH   1   2
ATOM      2  C   UNL     1      40.658  65.139  22.424  1.00  0.00     0.000 C 
BRANCH   2   3
ATOM      3  C   UNL     1      40.407  66.565  21.905  1.00  0.00     0.000 C 
BRANCH   3   4
ATOM      4  C   UNL     1      41.661  67.452  22.001  1.00  0.00     0.000 C 
BRANCH   4   5
ATOM      5  C   UNL     1      41.800  68.137  23.371  1.00  0.00     0.000 C 
BRANCH   5   6
ATOM      6  C   UNL     1      43.227  68.639  23.641  1.00  0.00     0.000 C 
BRANCH   6   7
ATOM      7  C   UNL     1      43.226  69.766  24.682  1.00  0.00     0.000 C 
BRANCH   7   8
ATOM      8  C   UNL     1      44.390  70.739  24.440  1.00  0.00     0.000 C 
BRANCH   8   9
ATOM      9  C   UNL     1      44.221  72.065  25.197  1.00  0.00     0.000 C 
BRANCH   9  10
ATOM     10  C   UNL     1      43.039  72.899  24.669  1.00  0.00     0.006 C 
BRANCH  10  11
ATOM     11  C   UNL     1      42.019  73.219  25.770  1.00  0.00     0.053 C 
BRANCH  11  12
ATOM     12  C   UNL     1      41.044  74.271  25.339  1.00  0.00     0.041 C 
ATOM     13  O   UNL     1      40.577  74.259  24.169  1.00  0.00    -0.550 OA
ATOM     14  O   UNL     1      40.633  75.250  26.233  1.00  0.00    -0.550 OA
ENDBRANCH  11  12
ENDBRANCH  10  11
ENDBRANCH   9  10
ENDBRANCH   8   9
ENDBRANCH   7   8
ENDBRANCH   6   7
ENDBRANCH   5   6
ENDBRANCH   4   5
ENDBRANCH   3   4
ENDBRANCH   2   3
ENDBRANCH   1   2
BRANCH   1  15
ATOM     15  C   UNL     1      41.188  64.661  24.883  1.00  0.00     0.000 C 
BRANCH  15  16
ATOM     16  C   UNL     1      41.518  65.665  26.000  1.00  0.00     0.000 C 
BRANCH  16  17
ATOM     17  C   UNL     1      40.868  67.039  25.766  1.00  0.00     0.000 C 
BRANCH  17  18
ATOM     18  C   UNL     1      39.340  67.012  25.949  1.00  0.00    -0.000 C 
BRANCH  18  19
ATOM     19  C   UNL     1      38.592  66.868  24.615  1.00  0.00    -0.000 C 
BRANCH  19  20
ATOM     20  C   UNL     1      37.290  67.689  24.578  1.00  0.00    -0.000 C 
BRANCH  20  21
ATOM     21  C   UNL     1      36.591  67.768  25.947  1.00  0.00    -0.000 C 
BRANCH  21  22
ATOM     22  C   UNL     1      35.074  67.504  25.923  1.00  0.00    -0.000 C 
BRANCH  22  23
ATOM     23  C   UNL     1      34.676  66.226  26.681  1.00  0.00    -0.000 C 
BRANCH  23  24
ATOM     24  C   UNL     1      34.718  64.967  25.798  1.00  0.00    -0.000 C 
BRANCH  24  25
ATOM     25  C   UNL     1      34.748  63.631  26.564  1.00  0.00    -0.003 C 
ATOM     26  C   UNL     1      35.093  63.797  28.044  1.00  0.00     0.004 C 
ENDBRANCH  24  25
ENDBRANCH  23  24
ENDBRANCH  22  23
ENDBRANCH  21  22
ENDBRANCH  20  21
ENDBRANCH  19  20
ENDBRANCH  18  19
ENDBRANCH  17  18
ENDBRANCH  16  17
ENDBRANCH  15  16
ENDBRANCH   1  15
TORSDOF 22
ENDMDL
MODEL 6
REMARK VINA RESULT:    -3.979      4.247      8.424
REMARK INTER + INTRA:         -10.071
REMARK INTER:                 -10.074
REMARK INTRA:                   0.003
REMARK UNBOUND:                -0.973
REMARK SMILES CCCCCCCCCCCCCCCCCCCCCCCC(=O)[O-]
REMARK SMILES IDX 13 1 14 2 15 3 16 4 17 5 18 6 19 7 20 8 21 9 22 10 23 11
REMARK SMILES IDX 24 12 25 13 26 14 12 15 11 16 10 17 9 18 8 19 7 20 6 21 5 22
REMARK SMILES IDX 4 23 3 24 2 25 1 26
REMARK H PARENT
REMARK Flexibility Score: inf
ROOT
ATOM      1  C   UNL     1      42.114  67.383  22.977  1.00  0.00     0.000 C 
ENDROOT
BRANCH   1   2
ATOM      2  C   UNL     1      42.221  68.600  23.914  1.00  0.00     0.000 C 
BRANCH   2   3
ATOM      3  C   UNL     1      41.853  68.260  25.369  1.00  0.00     0.000 C 
BRANCH   3   4
ATOM      4  C   UNL     1      41.062  66.944  25.480  1.00  0.00     0.000 C 
BRANCH   4   5
ATOM      5  C   UNL     1      39.561  67.174  25.724  1.00  0.00     0.000 C 
BRANCH   5   6
ATOM      6  C   UNL     1      38.708  66.893  24.476  1.00  0.00     0.000 C 
BRANCH   6   7
ATOM      7  C   UNL     1      37.377  67.653  24.537  1.00  0.00     0.000 C 
BRANCH   7   8
ATOM      8  C   UNL     1      36.756  67.562  25.939  1.00  0.00     0.000 C 
BRANCH   8   9
ATOM      9  C   UNL     1      35.220  67.582  25.909  1.00  0.00     0.000 C 
BRANCH   9  10
ATOM     10  C   UNL     1      34.612  66.167  25.874  1.00  0.00     0.006 C 
BRANCH  10  11
ATOM     11  C   UNL     1      34.966  65.353  27.126  1.00  0.00     0.053 C 
BRANCH  11  12
ATOM     12  C   UNL     1      34.830  63.880  26.891  1.00  0.00     0.041 C 
ATOM     13  O   UNL     1      34.908  63.076  27.856  1.00  0.00    -0.550 OA
ATOM     14  O   UNL     1      34.596  63.398  25.610  1.00  0.00    -0.550 OA
ENDBRANCH  11  12
ENDBRANCH  10  11
ENDBRANCH   9  10
ENDBRANCH   8   9
ENDBRANCH   7   8
ENDBRANCH   6   7
ENDBRANCH   5   6
ENDBRANCH   4   5
ENDBRANCH   3   4
ENDBRANCH   2   3
ENDBRANCH   1   2
BRANCH   1  15
ATOM     15  C   UNL     1      40.862  67.431  22.087  1.00  0.00     0.000 C 
BRANCH  15  16
ATOM     16  C   UNL     1      40.684  66.157  21.243  1.00  0.00     0.000 C 
BRANCH  16  17
ATOM     17  C   UNL     1      40.624  64.885  22.105  1.00  0.00     0.000 C 
BRANCH  17  18
ATOM     18  C   UNL     1      41.435  65.012  23.407  1.00  0.00    -0.000 C 
BRANCH  18  19
ATOM     19  C   UNL     1      41.590  63.667  24.135  1.00  0.00    -0.000 C 
BRANCH  19  20
ATOM     20  C   UNL     1      42.220  63.822  25.531  1.00  0.00    -0.000 C 
BRANCH  20  21
ATOM     21  C   UNL     1      42.380  62.481  26.270  1.00  0.00    -0.000 C 
BRANCH  21  22
ATOM     22  C   UNL     1      43.501  61.570  25.738  1.00  0.00    -0.000 C 
BRANCH  22  23
ATOM     23  C   UNL     1      44.884  61.923  26.312  1.00  0.00    -0.000 C 
BRANCH  23  24
ATOM     24  C   UNL     1      45.911  62.283  25.223  1.00  0.00    -0.000 C 
BRANCH  24  25
ATOM     25  C   UNL     1      47.076  63.175  25.693  1.00  0.00    -0.003 C 
ATOM     26  C   UNL     1      47.066  63.430  27.200  1.00  0.00     0.004 C 
ENDBRANCH  24  25
ENDBRANCH  23  24
ENDBRANCH  22  23
ENDBRANCH  21  22
ENDBRANCH  20  21
ENDBRANCH  19  20
ENDBRANCH  18  19
ENDBRANCH  17  18
ENDBRANCH  16  17
ENDBRANCH  15  16
ENDBRANCH   1  15
TORSDOF 22
ENDMDL
MODEL 7
REMARK VINA RESULT:    -3.948      4.603      8.827
REMARK INTER + INTRA:         -10.000
REMARK INTER:                  -9.132
REMARK INTRA:                  -0.868
REMARK UNBOUND:                -0.973
REMARK SMILES CCCCCCCCCCCCCCCCCCCCCCCC(=O)[O-]
REMARK SMILES IDX 13 1 14 2 15 3 16 4 17 5 18 6 19 7 20 8 21 9 22 10 23 11
REMARK SMILES IDX 24 12 25 13 26 14 12 15 11 16 10 17 9 18 8 19 7 20 6 21 5 22
REMARK SMILES IDX 4 23 3 24 2 25 1 26
REMARK H PARENT
REMARK Flexibility Score: inf
ROOT
ATOM      1  C   UNL     1      39.315  66.295  23.315  1.00  0.00     0.000 C 
ENDROOT
BRANCH   1   2
ATOM      2  C   UNL     1      38.636  67.164  24.388  1.00  0.00     0.000 C 
BRANCH   2   3
ATOM      3  C   UNL     1      39.240  66.953  25.788  1.00  0.00     0.000 C 
BRANCH   3   4
ATOM      4  C   UNL     1      40.777  66.885  25.758  1.00  0.00     0.000 C 
BRANCH   4   5
ATOM      5  C   UNL     1      41.309  65.448  25.891  1.00  0.00     0.000 C 
BRANCH   5   6
ATOM      6  C   UNL     1      41.718  64.840  24.540  1.00  0.00     0.000 C 
BRANCH   6   7
ATOM      7  C   UNL     1      41.962  63.331  24.666  1.00  0.00     0.000 C 
BRANCH   7   8
ATOM      8  C   UNL     1      42.416  62.964  26.087  1.00  0.00     0.000 C 
BRANCH   8   9
ATOM      9  C   UNL     1      43.133  61.607  26.149  1.00  0.00     0.000 C 
BRANCH   9  10
ATOM     10  C   UNL     1      44.601  61.735  26.594  1.00  0.00     0.006 C 
BRANCH  10  11
ATOM     11  C   UNL     1      45.504  62.261  25.471  1.00  0.00     0.053 C 
BRANCH  11  12
ATOM     12  C   UNL     1      46.651  63.063  26.006  1.00  0.00     0.041 C 
ATOM     13  O   UNL     1      46.708  63.344  27.232  1.00  0.00    -0.550 OA
ATOM     14  O   UNL     1      47.666  63.481  25.156  1.00  0.00    -0.550 OA
ENDBRANCH  11  12
ENDBRANCH  10  11
ENDBRANCH   9  10
ENDBRANCH   8   9
ENDBRANCH   7   8
ENDBRANCH   6   7
ENDBRANCH   5   6
ENDBRANCH   4   5
ENDBRANCH   3   4
ENDBRANCH   2   3
ENDBRANCH   1   2
BRANCH   1  15
ATOM     15  C   UNL     1      39.562  67.060  22.004  1.00  0.00     0.000 C 
BRANCH  15  16
ATOM     16  C   UNL     1      40.873  66.648  21.313  1.00  0.00     0.000 C 
BRANCH  16  17
ATOM     17  C   UNL     1      42.116  67.068  22.114  1.00  0.00     0.000 C 
BRANCH  17  18
ATOM     18  C   UNL     1      41.841  68.251  23.059  1.00  0.00    -0.000 C 
BRANCH  18  19
ATOM     19  C   UNL     1      42.873  68.348  24.194  1.00  0.00    -0.000 C 
BRANCH  19  20
ATOM     20  C   UNL     1      43.005  69.777  24.751  1.00  0.00    -0.000 C 
BRANCH  20  21
ATOM     21  C   UNL     1      44.348  70.439  24.394  1.00  0.00    -0.000 C 
BRANCH  21  22
ATOM     22  C   UNL     1      44.449  71.937  24.735  1.00  0.00    -0.000 C 
BRANCH  22  23
ATOM     23  C   UNL     1      43.110  72.540  25.194  1.00  0.00    -0.000 C 
BRANCH  23  24
ATOM     24  C   UNL     1      42.451  73.423  24.119  1.00  0.00    -0.000 C 
BRANCH  24  25
ATOM     25  C   UNL     1      41.055  73.963  24.483  1.00  0.00    -0.003 C 
ATOM     26  C   UNL     1      40.904  74.278  25.971  1.00  0.00     0.004 C 
ENDBRANCH  24  25
ENDBRANCH  23  24
ENDBRANCH  22  23
ENDBRANCH  21  22
ENDBRANCH  20  21
ENDBRANCH  19  20
ENDBRANCH  18  19
ENDBRANCH  17  18
ENDBRANCH  16  17
ENDBRANCH  15  16
ENDBRANCH   1  15
TORSDOF 22
ENDMDL
MODEL 8
REMARK VINA RESULT:    -3.948      5.175      6.609
REMARK INTER + INTRA:         -10.000
REMARK INTER:                  -9.225
REMARK INTRA:                  -0.774
REMARK UNBOUND:                -0.973
REMARK SMILES CCCCCCCCCCCCCCCCCCCCCCCC(=O)[O-]
REMARK SMILES IDX 13 1 14 2 15 3 16 4 17 5 18 6 19 7 20 8 21 9 22 10 23 11
REMARK SMILES IDX 24 12 25 13 26 14 12 15 11 16 10 17 9 18 8 19 7 20 6 21 5 22
REMARK SMILES IDX 4 23 3 24 2 25 1 26
REMARK H PARENT
REMARK Flexibility Score: inf
ROOT
ATOM      1  C   UNL     1      41.751  64.790  24.183  1.00  0.00     0.000 C 
ENDROOT
BRANCH   1   2
ATOM      2  C   UNL     1      41.678  63.319  24.632  1.00  0.00     0.000 C 
BRANCH   2   3
ATOM      3  C   UNL     1      42.517  63.044  25.892  1.00  0.00     0.000 C 
BRANCH   3   4
ATOM      4  C   UNL     1      43.065  61.606  25.928  1.00  0.00     0.000 C 
BRANCH   4   5
ATOM      5  C   UNL     1      44.455  61.518  26.580  1.00  0.00     0.000 C 
BRANCH   5   6
ATOM      6  C   UNL     1      45.522  62.316  25.813  1.00  0.00     0.000 C 
BRANCH   6   7
ATOM      7  C   UNL     1      46.502  62.995  26.778  1.00  0.00     0.000 C 
BRANCH   7   8
ATOM      8  C   UNL     1      47.733  63.524  26.028  1.00  0.00     0.000 C 
BRANCH   8   9
ATOM      9  C   UNL     1      47.478  63.709  24.524  1.00  0.00     0.000 C 
BRANCH   9  10
ATOM     10  C   UNL     1      48.781  63.869  23.720  1.00  0.00     0.006 C 
BRANCH  10  11
ATOM     11  C   UNL     1      48.777  65.139  22.857  1.00  0.00     0.053 C 
BRANCH  11  12
ATOM     12  C   UNL     1      50.023  65.257  22.033  1.00  0.00     0.041 C 
ATOM     13  O   UNL     1      50.429  66.388  21.660  1.00  0.00    -0.550 OA
ATOM     14  O   UNL     1      50.746  64.120  21.696  1.00  0.00    -0.550 OA
ENDBRANCH  11  12
ENDBRANCH  10  11
ENDBRANCH   9  10
ENDBRANCH   8   9
ENDBRANCH   7   8
ENDBRANCH   6   7
ENDBRANCH   5   6
ENDBRANCH   4   5
ENDBRANCH   3   4
ENDBRANCH   2   3
ENDBRANCH   1   2
BRANCH   1  15
ATOM     15  C   UNL     1      41.404  65.771  25.315  1.00  0.00     0.000 C 
BRANCH  15  16
ATOM     16  C   UNL     1      41.482  67.242  24.871  1.00  0.00     0.000 C 
BRANCH  16  17
ATOM     17  C   UNL     1      40.863  67.469  23.482  1.00  0.00     0.000 C 
BRANCH  17  18
ATOM     18  C   UNL     1      39.407  66.979  23.393  1.00  0.00    -0.000 C 
BRANCH  18  19
ATOM     19  C   UNL     1      38.656  67.125  24.726  1.00  0.00    -0.000 C 
BRANCH  19  20
ATOM     20  C   UNL     1      37.169  67.473  24.530  1.00  0.00    -0.000 C 
BRANCH  20  21
ATOM     21  C   UNL     1      36.475  67.898  25.837  1.00  0.00    -0.000 C 
BRANCH  21  22
ATOM     22  C   UNL     1      35.023  67.411  25.993  1.00  0.00    -0.000 C 
BRANCH  22  23
ATOM     23  C   UNL     1      34.918  66.063  26.728  1.00  0.00    -0.000 C 
BRANCH  23  24
ATOM     24  C   UNL     1      34.581  64.892  25.788  1.00  0.00    -0.000 C 
BRANCH  24  25
ATOM     25  C   UNL     1      34.669  63.494  26.428  1.00  0.00    -0.003 C 
ATOM     26  C   UNL     1      34.925  63.539  27.934  1.00  0.00     0.004 C 
ENDBRANCH  24  25
ENDBRANCH  23  24
ENDBRANCH  22  23
ENDBRANCH  21  22
ENDBRANCH  20  21
ENDBRANCH  19  20
ENDBRANCH  18  19
ENDBRANCH  17  18
ENDBRANCH  16  17
ENDBRANCH  15  16
ENDBRANCH   1  15
TORSDOF 22
ENDMDL
MODEL 9
REMARK VINA RESULT:    -3.887     12.807     14.739
REMARK INTER + INTRA:          -9.859
REMARK INTER:                  -8.472
REMARK INTRA:                  -1.387
REMARK UNBOUND:                -0.973
REMARK SMILES CCCCCCCCCCCCCCCCCCCCCCCC(=O)[O-]
REMARK SMILES IDX 13 1 14 2 15 3 16 4 17 5 18 6 19 7 20 8 21 9 22 10 23 11
REMARK SMILES IDX 24 12 25 13 26 14 12 15 11 16 10 17 9 18 8 19 7 20 6 21 5 22
REMARK SMILES IDX 4 23 3 24 2 25 1 26
REMARK H PARENT
REMARK Flexibility Score: inf
ROOT
ATOM      1  C   UNL     1      41.031  68.153  11.880  1.00  0.00     0.000 C 
ENDROOT
BRANCH   1   2
ATOM      2  C   UNL     1      41.002  66.700  12.387  1.00  0.00     0.000 C 
BRANCH   2   3
ATOM      3  C   UNL     1      42.410  66.100  12.542  1.00  0.00     0.000 C 
BRANCH   3   4
ATOM      4  C   UNL     1      42.506  64.676  11.968  1.00  0.00     0.000 C 
BRANCH   4   5
ATOM      5  C   UNL     1      43.900  64.054  12.154  1.00  0.00     0.000 C 
BRANCH   5   6
ATOM      6  C   UNL     1      44.019  63.242  13.454  1.00  0.00     0.000 C 
BRANCH   6   7
ATOM      7  C   UNL     1      43.061  62.043  13.443  1.00  0.00     0.000 C 
BRANCH   7   8
ATOM      8  C   UNL     1      42.948  61.443  12.034  1.00  0.00     0.000 C 
BRANCH   8   9
ATOM      9  C   UNL     1      43.730  60.128  11.885  1.00  0.00     0.000 C 
BRANCH   9  10
ATOM     10  C   UNL     1      42.864  58.890  12.179  1.00  0.00     0.006 C 
BRANCH  10  11
ATOM     11  C   UNL     1      43.701  57.697  12.659  1.00  0.00     0.053 C 
BRANCH  11  12
ATOM     12  C   UNL     1      43.790  57.643  14.154  1.00  0.00     0.041 C 
ATOM     13  O   UNL     1      44.447  56.728  14.715  1.00  0.00    -0.550 OA
ATOM     14  O   UNL     1      43.165  58.614  14.925  1.00  0.00    -0.550 OA
ENDBRANCH  11  12
ENDBRANCH  10  11
ENDBRANCH   9  10
ENDBRANCH   8   9
ENDBRANCH   7   8
ENDBRANCH   6   7
ENDBRANCH   5   6
ENDBRANCH   4   5
ENDBRANCH   3   4
ENDBRANCH   2   3
ENDBRANCH   1   2
BRANCH   1  15
ATOM     15  C   UNL     1      40.294  69.122  12.820  1.00  0.00     0.000 C 
BRANCH  15  16
ATOM     16  C   UNL     1      38.777  69.156  12.569  1.00  0.00     0.000 C 
BRANCH  16  17
ATOM     17  C   UNL     1      37.979  68.502  13.709  1.00  0.00     0.000 C 
BRANCH  17  18
ATOM     18  C   UNL     1      36.471  68.422  13.409  1.00  0.00    -0.000 C 
BRANCH  18  19
ATOM     19  C   UNL     1      36.165  67.581  12.159  1.00  0.00    -0.000 C 
BRANCH  19  20
ATOM     20  C   UNL     1      37.254  66.531  11.875  1.00  0.00    -0.000 C 
BRANCH  20  21
ATOM     21  C   UNL     1      36.736  65.085  11.989  1.00  0.00    -0.000 C 
BRANCH  21  22
ATOM     22  C   UNL     1      37.233  64.308  13.221  1.00  0.00    -0.000 C 
BRANCH  22  23
ATOM     23  C   UNL     1      37.198  62.783  13.023  1.00  0.00    -0.000 C 
BRANCH  23  24
ATOM     24  C   UNL     1      37.910  62.015  14.152  1.00  0.00    -0.000 C 
BRANCH  24  25
ATOM     25  C   UNL     1      38.725  60.791  13.696  1.00  0.00    -0.003 C 
ATOM     26  C   UNL     1      39.506  61.037  12.405  1.00  0.00     0.004 C 
ENDBRANCH  24  25
ENDBRANCH  23  24
ENDBRANCH  22  23
ENDBRANCH  21  22
ENDBRANCH  20  21
ENDBRANCH  19  20
ENDBRANCH  18  19
ENDBRANCH  17  18
ENDBRANCH  16  17
ENDBRANCH  15  16
ENDBRANCH   1  15
TORSDOF 22
ENDMDL
