MODEL 1
REMARK VINA RESULT:    -4.848      0.000      0.000
REMARK INTER + INTRA:         -16.595
REMARK INTER:                 -12.784
REMARK INTRA:                  -3.811
REMARK UNBOUND:                -3.811
REMARK SMILES CCCCCCCCCCCCCCCCCCCCCCCCCCCCCC(=O)[O-]
REMARK SMILES IDX 16 1 17 2 18 3 19 4 20 5 21 6 22 7 23 8 24 9 25 10 26 11
REMARK SMILES IDX 27 12 28 13 29 14 30 15 31 16 32 17 15 18 14 19 13 20 12 21
REMARK SMILES IDX 11 22 10 23 9 24 8 25 7 26 6 27 5 28 4 29 3 30 2 31 1 32
REMARK H PARENT
REMARK Flexibility Score: inf
ROOT
ATOM      1  C   UNL     1      13.388  18.832  23.363  1.00  0.00     0.000 C 
ENDROOT
BRANCH   1   2
ATOM      2  C   UNL     1      13.892  19.174  21.945  1.00  0.00     0.000 C 
BRANCH   2   3
ATOM      3  C   UNL     1      15.308  18.639  21.676  1.00  0.00     0.000 C 
BRANCH   3   4
ATOM      4  C   UNL     1      16.329  19.760  21.411  1.00  0.00     0.000 C 
BRANCH   4   5
ATOM      5  C   UNL     1      17.620  19.579  22.239  1.00  0.00     0.000 C 
BRANCH   5   6
ATOM      6  C   UNL     1      17.788  20.611  23.368  1.00  0.00     0.000 C 
BRANCH   6   7
ATOM      7  C   UNL     1      16.474  21.309  23.748  1.00  0.00     0.000 C 
BRANCH   7   8
ATOM      8  C   UNL     1      16.662  22.826  23.846  1.00  0.00     0.000 C 
BRANCH   8   9
ATOM      9  C   UNL     1      15.324  23.560  23.701  1.00  0.00     0.000 C 
BRANCH   9  10
ATOM     10  C   UNL     1      14.227  22.607  23.200  1.00  0.00     0.000 C 
BRANCH  10  11
ATOM     11  C   UNL     1      13.610  23.062  21.867  1.00  0.00     0.000 C 
BRANCH  11  12
ATOM     12  C   UNL     1      14.382  22.573  20.619  1.00  0.00     0.000 C 
BRANCH  12  13
ATOM     13  C   UNL     1      13.833  23.146  19.296  1.00  0.00     0.006 C 
BRANCH  13  14
ATOM     14  C   UNL     1      12.321  23.413  19.311  1.00  0.00     0.053 C 
BRANCH  14  15
ATOM     15  C   UNL     1      11.535  22.191  18.947  1.00  0.00     0.041 C 
ATOM     16  O   UNL     1      12.049  21.297  18.224  1.00  0.00    -0.550 OA
ATOM     17  O   UNL     1      10.224  22.051  19.382  1.00  0.00    -0.550 OA
ENDBRANCH  14  15
ENDBRANCH  13  14
ENDBRANCH  12  13
ENDBRANCH  11  12
ENDBRANCH  10  11
ENDBRANCH   9  10
ENDBRANCH   8   9
ENDBRANCH   7   8
ENDBRANCH   6   7
ENDBRANCH   5   6
ENDBRANCH   4   5
ENDBRANCH   3   4
ENDBRANCH   2   3
ENDBRANCH   1   2
BRANCH   1  18
ATOM     18  C   UNL     1      14.399  17.994  24.165  1.00  0.00     0.000 C 
BRANCH  18  19
ATOM     19  C   UNL     1      14.787  18.610  25.521  1.00  0.00     0.000 C 
BRANCH  19  20
ATOM     20  C   UNL     1      14.573  17.638  26.694  1.00  0.00     0.000 C 
BRANCH  20  21
ATOM     21  C   UNL     1      13.096  17.615  27.110  1.00  0.00     0.000 C 
BRANCH  21  22
ATOM     22  C   UNL     1      12.640  16.191  27.473  1.00  0.00     0.000 C 
BRANCH  22  23
ATOM     23  C   UNL     1      11.601  16.170  28.609  1.00  0.00     0.000 C 
BRANCH  23  24
ATOM     24  C   UNL     1      11.307  17.538  29.265  1.00  0.00    -0.000 C 
BRANCH  24  25
ATOM     25  C   UNL     1      11.726  17.632  30.749  1.00  0.00    -0.000 C 
BRANCH  25  26
ATOM     26  C   UNL     1      11.868  16.248  31.412  1.00  0.00    -0.000 C 
BRANCH  26  27
ATOM     27  C   UNL     1      10.999  16.096  32.671  1.00  0.00    -0.000 C 
BRANCH  27  28
ATOM     28  C   UNL     1       9.586  16.674  32.492  1.00  0.00    -0.000 C 
BRANCH  28  29
ATOM     29  C   UNL     1       8.489  15.666  32.894  1.00  0.00    -0.000 C 
BRANCH  29  30
ATOM     30  C   UNL     1       8.854  14.212  32.553  1.00  0.00    -0.000 C 
BRANCH  30  31
ATOM     31  C   UNL     1       8.484  13.829  31.112  1.00  0.00    -0.003 C 
ATOM     32  C   UNL     1       9.722  13.399  30.327  1.00  0.00     0.004 C 
ENDBRANCH  30  31
ENDBRANCH  29  30
ENDBRANCH  28  29
ENDBRANCH  27  28
ENDBRANCH  26  27
ENDBRANCH  25  26
ENDBRANCH  24  25
ENDBRANCH  23  24
ENDBRANCH  22  23
ENDBRANCH  21  22
ENDBRANCH  20  21
ENDBRANCH  19  20
ENDBRANCH  18  19
ENDBRANCH   1  18
TORSDOF 28
ENDMDL
MODEL 2
REMARK VINA RESULT:    -4.782      4.069     10.048
REMARK INTER + INTRA:         -16.422
REMARK INTER:                 -11.055
REMARK INTRA:                  -5.367
REMARK UNBOUND:                -3.811
REMARK SMILES CCCCCCCCCCCCCCCCCCCCCCCCCCCCCC(=O)[O-]
REMARK SMILES IDX 16 1 17 2 18 3 19 4 20 5 21 6 22 7 23 8 24 9 25 10 26 11
REMARK SMILES IDX 27 12 28 13 29 14 30 15 31 16 32 17 15 18 14 19 13 20 12 21
REMARK SMILES IDX 11 22 10 23 9 24 8 25 7 26 6 27 5 28 4 29 3 30 2 31 1 32
REMARK H PARENT
REMARK Flexibility Score: inf
ROOT
ATOM      1  C   UNL     1      12.678  16.354  27.145  1.00  0.00     0.000 C 
ENDROOT
BRANCH   1   2
ATOM      2  C   UNL     1      11.681  16.736  28.261  1.00  0.00     0.000 C 
BRANCH   2   3
ATOM      3  C   UNL     1      10.410  17.406  27.714  1.00  0.00     0.000 C 
BRANCH   3   4
ATOM      4  C   UNL     1      10.335  18.907  28.048  1.00  0.00     0.000 C 
BRANCH   4   5
ATOM      5  C   UNL     1      10.581  19.792  26.807  1.00  0.00     0.000 C 
BRANCH   5   6
ATOM      6  C   UNL     1      11.850  20.658  26.899  1.00  0.00     0.000 C 
BRANCH   6   7
ATOM      7  C   UNL     1      12.814  20.202  28.003  1.00  0.00     0.000 C 
BRANCH   7   8
ATOM      8  C   UNL     1      12.953  21.270  29.092  1.00  0.00     0.000 C 
BRANCH   8   9
ATOM      9  C   UNL     1      12.783  20.662  30.490  1.00  0.00     0.000 C 
BRANCH   9  10
ATOM     10  C   UNL     1      11.415  21.030  31.085  1.00  0.00     0.000 C 
BRANCH  10  11
ATOM     11  C   UNL     1      10.669  19.810  31.654  1.00  0.00     0.000 C 
BRANCH  11  12
ATOM     12  C   UNL     1      11.402  18.467  31.433  1.00  0.00     0.000 C 
BRANCH  12  13
ATOM     13  C   UNL     1      10.722  17.275  32.137  1.00  0.00     0.006 C 
BRANCH  13  14
ATOM     14  C   UNL     1       9.614  16.609  31.308  1.00  0.00     0.053 C 
BRANCH  14  15
ATOM     15  C   UNL     1       9.758  15.119  31.280  1.00  0.00     0.041 C 
ATOM     16  O   UNL     1       9.778  14.502  30.182  1.00  0.00    -0.550 OA
ATOM     17  O   UNL     1       9.841  14.405  32.469  1.00  0.00    -0.550 OA
ENDBRANCH  14  15
ENDBRANCH  13  14
ENDBRANCH  12  13
ENDBRANCH  11  12
ENDBRANCH  10  11
ENDBRANCH   9  10
ENDBRANCH   8   9
ENDBRANCH   7   8
ENDBRANCH   6   7
ENDBRANCH   5   6
ENDBRANCH   4   5
ENDBRANCH   3   4
ENDBRANCH   2   3
ENDBRANCH   1   2
BRANCH   1  18
ATOM     18  C   UNL     1      12.133  16.653  25.738  1.00  0.00     0.000 C 
BRANCH  18  19
ATOM     19  C   UNL     1      13.011  17.616  24.918  1.00  0.00     0.000 C 
BRANCH  19  20
ATOM     20  C   UNL     1      14.352  17.923  25.606  1.00  0.00     0.000 C 
BRANCH  20  21
ATOM     21  C   UNL     1      15.085  19.053  24.872  1.00  0.00     0.000 C 
BRANCH  21  22
ATOM     22  C   UNL     1      14.092  20.048  24.245  1.00  0.00     0.000 C 
BRANCH  22  23
ATOM     23  C   UNL     1      14.619  21.495  24.247  1.00  0.00     0.000 C 
BRANCH  23  24
ATOM     24  C   UNL     1      15.543  21.866  23.065  1.00  0.00    -0.000 C 
BRANCH  24  25
ATOM     25  C   UNL     1      17.050  21.833  23.406  1.00  0.00    -0.000 C 
BRANCH  25  26
ATOM     26  C   UNL     1      17.810  20.748  22.620  1.00  0.00    -0.000 C 
BRANCH  26  27
ATOM     27  C   UNL     1      16.905  19.959  21.661  1.00  0.00    -0.000 C 
BRANCH  27  28
ATOM     28  C   UNL     1      17.401  18.524  21.419  1.00  0.00    -0.000 C 
BRANCH  28  29
ATOM     29  C   UNL     1      16.236  17.521  21.280  1.00  0.00    -0.000 C 
BRANCH  29  30
ATOM     30  C   UNL     1      14.853  18.186  21.378  1.00  0.00    -0.000 C 
BRANCH  30  31
ATOM     31  C   UNL     1      13.733  17.317  20.788  1.00  0.00    -0.003 C 
ATOM     32  C   UNL     1      13.516  16.061  21.630  1.00  0.00     0.004 C 
ENDBRANCH  30  31
ENDBRANCH  29  30
ENDBRANCH  28  29
ENDBRANCH  27  28
ENDBRANCH  26  27
ENDBRANCH  25  26
ENDBRANCH  24  25
ENDBRANCH  23  24
ENDBRANCH  22  23
ENDBRANCH  21  22
ENDBRANCH  20  21
ENDBRANCH  19  20
ENDBRANCH  18  19
ENDBRANCH   1  18
TORSDOF 28
ENDMDL
MODEL 3
REMARK VINA RESULT:    -4.718      4.173      8.562
REMARK INTER + INTRA:         -16.251
REMARK INTER:                 -11.103
REMARK INTRA:                  -5.148
REMARK UNBOUND:                -3.811
REMARK SMILES CCCCCCCCCCCCCCCCCCCCCCCCCCCCCC(=O)[O-]
REMARK SMILES IDX 16 1 17 2 18 3 19 4 20 5 21 6 22 7 23 8 24 9 25 10 26 11
REMARK SMILES IDX 27 12 28 13 29 14 30 15 31 16 32 17 15 18 14 19 13 20 12 21
REMARK SMILES IDX 11 22 10 23 9 24 8 25 7 26 6 27 5 28 4 29 3 30 2 31 1 32
REMARK H PARENT
REMARK Flexibility Score: inf
ROOT
ATOM      1  C   UNL     1      15.092  22.232  23.610  1.00  0.00     0.000 C 
ENDROOT
BRANCH   1   2
ATOM      2  C   UNL     1      14.399  23.515  24.116  1.00  0.00     0.000 C 
BRANCH   2   3
ATOM      3  C   UNL     1      15.062  24.086  25.380  1.00  0.00     0.000 C 
BRANCH   3   4
ATOM      4  C   UNL     1      14.045  24.669  26.377  1.00  0.00     0.000 C 
BRANCH   4   5
ATOM      5  C   UNL     1      12.638  24.059  26.196  1.00  0.00     0.000 C 
BRANCH   5   6
ATOM      6  C   UNL     1      11.776  24.088  27.471  1.00  0.00     0.000 C 
BRANCH   6   7
ATOM      7  C   UNL     1      11.531  22.694  28.066  1.00  0.00     0.000 C 
BRANCH   7   8
ATOM      8  C   UNL     1      12.840  22.063  28.551  1.00  0.00     0.000 C 
BRANCH   8   9
ATOM      9  C   UNL     1      12.821  20.540  28.370  1.00  0.00     0.000 C 
BRANCH   9  10
ATOM     10  C   UNL     1      12.489  19.835  29.694  1.00  0.00     0.000 C 
BRANCH  10  11
ATOM     11  C   UNL     1      11.196  19.005  29.616  1.00  0.00     0.000 C 
BRANCH  11  12
ATOM     12  C   UNL     1      11.100  17.891  30.684  1.00  0.00     0.000 C 
BRANCH  12  13
ATOM     13  C   UNL     1      11.606  16.521  30.188  1.00  0.00     0.006 C 
BRANCH  13  14
ATOM     14  C   UNL     1      11.354  15.369  31.171  1.00  0.00     0.053 C 
BRANCH  14  15
ATOM     15  C   UNL     1      10.133  14.581  30.807  1.00  0.00     0.041 C 
ATOM     16  O   UNL     1       9.211  15.113  30.135  1.00  0.00    -0.550 OA
ATOM     17  O   UNL     1      10.000  13.266  31.233  1.00  0.00    -0.550 OA
ENDBRANCH  14  15
ENDBRANCH  13  14
ENDBRANCH  12  13
ENDBRANCH  11  12
ENDBRANCH  10  11
ENDBRANCH   9  10
ENDBRANCH   8   9
ENDBRANCH   7   8
ENDBRANCH   6   7
ENDBRANCH   5   6
ENDBRANCH   4   5
ENDBRANCH   3   4
ENDBRANCH   2   3
ENDBRANCH   1   2
BRANCH   1  18
ATOM     18  C   UNL     1      16.612  22.247  23.848  1.00  0.00     0.000 C 
BRANCH  18  19
ATOM     19  C   UNL     1      17.367  21.108  23.140  1.00  0.00     0.000 C 
BRANCH  19  20
ATOM     20  C   UNL     1      16.720  20.711  21.803  1.00  0.00     0.000 C 
BRANCH  20  21
ATOM     21  C   UNL     1      16.312  19.231  21.822  1.00  0.00     0.000 C 
BRANCH  21  22
ATOM     22  C   UNL     1      14.787  19.071  21.699  1.00  0.00     0.000 C 
BRANCH  22  23
ATOM     23  C   UNL     1      14.143  18.502  22.977  1.00  0.00     0.000 C 
BRANCH  23  24
ATOM     24  C   UNL     1      15.091  18.359  24.190  1.00  0.00    -0.000 C 
BRANCH  24  25
ATOM     25  C   UNL     1      14.466  18.788  25.536  1.00  0.00    -0.000 C 
BRANCH  25  26
ATOM     26  C   UNL     1      14.610  17.708  26.625  1.00  0.00    -0.000 C 
BRANCH  26  27
ATOM     27  C   UNL     1      13.263  17.095  27.042  1.00  0.00    -0.000 C 
BRANCH  27  28
ATOM     28  C   UNL     1      12.285  16.950  25.865  1.00  0.00    -0.000 C 
BRANCH  28  29
ATOM     29  C   UNL     1      10.951  17.679  26.123  1.00  0.00    -0.000 C 
BRANCH  29  30
ATOM     30  C   UNL     1      10.588  18.681  25.015  1.00  0.00    -0.000 C 
BRANCH  30  31
ATOM     31  C   UNL     1      10.736  20.142  25.464  1.00  0.00    -0.003 C 
ATOM     32  C   UNL     1      11.666  20.910  24.526  1.00  0.00     0.004 C 
ENDBRANCH  30  31
ENDBRANCH  29  30
ENDBRANCH  28  29
ENDBRANCH  27  28
ENDBRANCH  26  27
ENDBRANCH  25  26
ENDBRANCH  24  25
ENDBRANCH  23  24
ENDBRANCH  22  23
ENDBRANCH  21  22
ENDBRANCH  20  21
ENDBRANCH  19  20
ENDBRANCH  18  19
ENDBRANCH   1  18
TORSDOF 28
ENDMDL
MODEL 4
REMARK VINA RESULT:    -4.707      2.904      9.113
REMARK INTER + INTRA:         -16.224
REMARK INTER:                 -10.918
REMARK INTRA:                  -5.307
REMARK UNBOUND:                -3.811
REMARK SMILES CCCCCCCCCCCCCCCCCCCCCCCCCCCCCC(=O)[O-]
REMARK SMILES IDX 16 1 17 2 18 3 19 4 20 5 21 6 22 7 23 8 24 9 25 10 26 11
REMARK SMILES IDX 27 12 28 13 29 14 30 15 31 16 32 17 15 18 14 19 13 20 12 21
REMARK SMILES IDX 11 22 10 23 9 24 8 25 7 26 6 27 5 28 4 29 3 30 2 31 1 32
REMARK H PARENT
REMARK Flexibility Score: inf
ROOT
ATOM      1  C   UNL     1      12.925  19.027  23.406  1.00  0.00     0.000 C 
ENDROOT
BRANCH   1   2
ATOM      2  C   UNL     1      12.902  19.289  24.928  1.00  0.00     0.000 C 
BRANCH   2   3
ATOM      3  C   UNL     1      14.172  18.787  25.633  1.00  0.00     0.000 C 
BRANCH   3   4
ATOM      4  C   UNL     1      13.880  18.136  26.997  1.00  0.00     0.000 C 
BRANCH   4   5
ATOM      5  C   UNL     1      13.039  16.848  26.858  1.00  0.00     0.000 C 
BRANCH   5   6
ATOM      6  C   UNL     1      11.708  16.886  27.630  1.00  0.00     0.000 C 
BRANCH   6   7
ATOM      7  C   UNL     1      11.826  16.350  29.064  1.00  0.00     0.000 C 
BRANCH   7   8
ATOM      8  C   UNL     1      11.213  17.329  30.071  1.00  0.00     0.000 C 
BRANCH   8   9
ATOM      9  C   UNL     1      11.128  18.744  29.488  1.00  0.00     0.000 C 
BRANCH   9  10
ATOM     10  C   UNL     1      12.212  19.652  30.091  1.00  0.00     0.000 C 
BRANCH  10  11
ATOM     11  C   UNL     1      12.551  20.850  29.189  1.00  0.00     0.000 C 
BRANCH  11  12
ATOM     12  C   UNL     1      11.677  20.946  27.916  1.00  0.00     0.000 C 
BRANCH  12  13
ATOM     13  C   UNL     1      11.817  22.291  27.176  1.00  0.00     0.006 C 
BRANCH  13  14
ATOM     14  C   UNL     1      13.228  22.893  27.237  1.00  0.00     0.053 C 
BRANCH  14  15
ATOM     15  C   UNL     1      13.250  24.312  26.756  1.00  0.00     0.041 C 
ATOM     16  O   UNL     1      14.317  24.820  26.321  1.00  0.00    -0.550 OA
ATOM     17  O   UNL     1      12.098  25.085  26.815  1.00  0.00    -0.550 OA
ENDBRANCH  14  15
ENDBRANCH  13  14
ENDBRANCH  12  13
ENDBRANCH  11  12
ENDBRANCH  10  11
ENDBRANCH   9  10
ENDBRANCH   8   9
ENDBRANCH   7   8
ENDBRANCH   6   7
ENDBRANCH   5   6
ENDBRANCH   4   5
ENDBRANCH   3   4
ENDBRANCH   2   3
ENDBRANCH   1   2
BRANCH   1  18
ATOM     18  C   UNL     1      13.395  17.604  23.058  1.00  0.00     0.000 C 
BRANCH  18  19
ATOM     19  C   UNL     1      14.685  17.558  22.221  1.00  0.00     0.000 C 
BRANCH  19  20
ATOM     20  C   UNL     1      15.022  18.915  21.580  1.00  0.00     0.000 C 
BRANCH  20  21
ATOM     21  C   UNL     1      16.477  19.302  21.875  1.00  0.00     0.000 C 
BRANCH  21  22
ATOM     22  C   UNL     1      16.638  19.809  23.319  1.00  0.00     0.000 C 
BRANCH  22  23
ATOM     23  C   UNL     1      17.429  21.128  23.403  1.00  0.00     0.000 C 
BRANCH  23  24
ATOM     24  C   UNL     1      16.584  22.390  23.692  1.00  0.00    -0.000 C 
BRANCH  24  25
ATOM     25  C   UNL     1      15.100  22.099  24.007  1.00  0.00    -0.000 C 
BRANCH  25  26
ATOM     26  C   UNL     1      14.149  22.630  22.917  1.00  0.00    -0.000 C 
BRANCH  26  27
ATOM     27  C   UNL     1      14.732  22.503  21.501  1.00  0.00    -0.000 C 
BRANCH  27  28
ATOM     28  C   UNL     1      13.690  22.770  20.402  1.00  0.00    -0.000 C 
BRANCH  28  29
ATOM     29  C   UNL     1      12.681  21.611  20.263  1.00  0.00    -0.000 C 
BRANCH  29  30
ATOM     30  C   UNL     1      12.161  21.434  18.828  1.00  0.00    -0.000 C 
BRANCH  30  31
ATOM     31  C   UNL     1      11.466  20.082  18.610  1.00  0.00    -0.003 C 
ATOM     32  C   UNL     1      11.826  19.098  19.723  1.00  0.00     0.004 C 
ENDBRANCH  30  31
ENDBRANCH  29  30
ENDBRANCH  28  29
ENDBRANCH  27  28
ENDBRANCH  26  27
ENDBRANCH  25  26
ENDBRANCH  24  25
ENDBRANCH  23  24
ENDBRANCH  22  23
ENDBRANCH  21  22
ENDBRANCH  20  21
ENDBRANCH  19  20
ENDBRANCH  18  19
ENDBRANCH   1  18
TORSDOF 28
ENDMDL
MODEL 5
REMARK VINA RESULT:    -4.695      4.574      8.145
REMARK INTER + INTRA:         -16.190
REMARK INTER:                 -11.060
REMARK INTRA:                  -5.130
REMARK UNBOUND:                -3.811
REMARK SMILES CCCCCCCCCCCCCCCCCCCCCCCCCCCCCC(=O)[O-]
REMARK SMILES IDX 16 1 17 2 18 3 19 4 20 5 21 6 22 7 23 8 24 9 25 10 26 11
REMARK SMILES IDX 27 12 28 13 29 14 30 15 31 16 32 17 15 18 14 19 13 20 12 21
REMARK SMILES IDX 11 22 10 23 9 24 8 25 7 26 6 27 5 28 4 29 3 30 2 31 1 32
REMARK H PARENT
REMARK Flexibility Score: inf
ROOT
ATOM      1  C   UNL     1      17.072  20.528  23.351  1.00  0.00     0.000 C 
ENDROOT
BRANCH   1   2
ATOM      2  C   UNL     1      17.266  19.943  21.936  1.00  0.00     0.000 C 
BRANCH   2   3
ATOM      3  C   UNL     1      16.120  19.006  21.521  1.00  0.00     0.000 C 
BRANCH   3   4
ATOM      4  C   UNL     1      16.610  17.599  21.134  1.00  0.00     0.000 C 
BRANCH   4   5
ATOM      5  C   UNL     1      15.580  16.505  21.493  1.00  0.00     0.000 C 
BRANCH   5   6
ATOM      6  C   UNL     1      14.484  16.307  20.431  1.00  0.00     0.000 C 
BRANCH   6   7
ATOM      7  C   UNL     1      13.637  15.048  20.666  1.00  0.00     0.000 C 
BRANCH   7   8
ATOM      8  C   UNL     1      12.429  15.353  21.557  1.00  0.00     0.000 C 
BRANCH   8   9
ATOM      9  C   UNL     1      11.257  14.417  21.241  1.00  0.00     0.000 C 
BRANCH   9  10
ATOM     10  C   UNL     1      10.744  14.643  19.810  1.00  0.00     0.000 C 
BRANCH  10  11
ATOM     11  C   UNL     1      10.326  16.101  19.555  1.00  0.00     0.000 C 
BRANCH  11  12
ATOM     12  C   UNL     1      11.154  16.810  18.458  1.00  0.00     0.000 C 
BRANCH  12  13
ATOM     13  C   UNL     1      10.293  17.386  17.315  1.00  0.00     0.006 C 
BRANCH  13  14
ATOM     14  C   UNL     1      11.069  18.282  16.340  1.00  0.00     0.053 C 
BRANCH  14  15
ATOM     15  C   UNL     1      11.248  17.628  15.004  1.00  0.00     0.041 C 
ATOM     16  O   UNL     1      12.217  16.850  14.802  1.00  0.00    -0.550 OA
ATOM     17  O   UNL     1      10.360  17.901  13.971  1.00  0.00    -0.550 OA
ENDBRANCH  14  15
ENDBRANCH  13  14
ENDBRANCH  12  13
ENDBRANCH  11  12
ENDBRANCH  10  11
ENDBRANCH   9  10
ENDBRANCH   8   9
ENDBRANCH   7   8
ENDBRANCH   6   7
ENDBRANCH   5   6
ENDBRANCH   4   5
ENDBRANCH   3   4
ENDBRANCH   2   3
ENDBRANCH   1   2
BRANCH   1  18
ATOM     18  C   UNL     1      15.688  21.173  23.539  1.00  0.00     0.000 C 
BRANCH  18  19
ATOM     19  C   UNL     1      15.521  22.519  22.811  1.00  0.00     0.000 C 
BRANCH  19  20
ATOM     20  C   UNL     1      14.288  22.545  21.892  1.00  0.00     0.000 C 
BRANCH  20  21
ATOM     21  C   UNL     1      14.694  22.259  20.440  1.00  0.00     0.000 C 
BRANCH  21  22
ATOM     22  C   UNL     1      13.918  23.153  19.457  1.00  0.00     0.000 C 
BRANCH  22  23
ATOM     23  C   UNL     1      12.448  22.722  19.294  1.00  0.00     0.000 C 
BRANCH  23  24
ATOM     24  C   UNL     1      12.225  21.416  18.497  1.00  0.00    -0.000 C 
BRANCH  24  25
ATOM     25  C   UNL     1      11.453  20.326  19.274  1.00  0.00    -0.000 C 
BRANCH  25  26
ATOM     26  C   UNL     1      11.694  20.400  20.794  1.00  0.00    -0.000 C 
BRANCH  26  27
ATOM     27  C   UNL     1      12.167  19.065  21.391  1.00  0.00    -0.000 C 
BRANCH  27  28
ATOM     28  C   UNL     1      12.618  19.195  22.855  1.00  0.00    -0.000 C 
BRANCH  28  29
ATOM     29  C   UNL     1      11.939  18.152  23.767  1.00  0.00    -0.000 C 
BRANCH  29  30
ATOM     30  C   UNL     1      12.897  17.543  24.803  1.00  0.00    -0.000 C 
BRANCH  30  31
ATOM     31  C   UNL     1      14.336  18.059  24.658  1.00  0.00    -0.003 C 
ATOM     32  C   UNL     1      15.096  17.939  25.978  1.00  0.00     0.004 C 
ENDBRANCH  30  31
ENDBRANCH  29  30
ENDBRANCH  28  29
ENDBRANCH  27  28
ENDBRANCH  26  27
ENDBRANCH  25  26
ENDBRANCH  24  25
ENDBRANCH  23  24
ENDBRANCH  22  23
ENDBRANCH  21  22
ENDBRANCH  20  21
ENDBRANCH  19  20
ENDBRANCH  18  19
ENDBRANCH   1  18
TORSDOF 28
ENDMDL
MODEL 6
REMARK VINA RESULT:    -4.691      2.710      5.168
REMARK INTER + INTRA:         -16.181
REMARK INTER:                 -10.823
REMARK INTRA:                  -5.358
REMARK UNBOUND:                -3.811
REMARK SMILES CCCCCCCCCCCCCCCCCCCCCCCCCCCCCC(=O)[O-]
REMARK SMILES IDX 16 1 17 2 18 3 19 4 20 5 21 6 22 7 23 8 24 9 25 10 26 11
REMARK SMILES IDX 27 12 28 13 29 14 30 15 31 16 32 17 15 18 14 19 13 20 12 21
REMARK SMILES IDX 11 22 10 23 9 24 8 25 7 26 6 27 5 28 4 29 3 30 2 31 1 32
REMARK H PARENT
REMARK Flexibility Score: inf
ROOT
ATOM      1  C   UNL     1      13.288  18.285  26.653  1.00  0.00     0.000 C 
ENDROOT
BRANCH   1   2
ATOM      2  C   UNL     1      13.945  19.254  25.647  1.00  0.00     0.000 C 
BRANCH   2   3
ATOM      3  C   UNL     1      15.119  18.613  24.889  1.00  0.00     0.000 C 
BRANCH   3   4
ATOM      4  C   UNL     1      15.939  19.636  24.083  1.00  0.00     0.000 C 
BRANCH   4   5
ATOM      5  C   UNL     1      16.116  19.210  22.610  1.00  0.00     0.000 C 
BRANCH   5   6
ATOM      6  C   UNL     1      16.538  20.356  21.674  1.00  0.00     0.000 C 
BRANCH   6   7
ATOM      7  C   UNL     1      15.477  21.459  21.554  1.00  0.00     0.000 C 
BRANCH   7   8
ATOM      8  C   UNL     1      14.118  20.877  21.151  1.00  0.00     0.000 C 
BRANCH   8   9
ATOM      9  C   UNL     1      13.025  21.278  22.149  1.00  0.00     0.000 C 
BRANCH   9  10
ATOM     10  C   UNL     1      12.205  20.054  22.585  1.00  0.00     0.000 C 
BRANCH  10  11
ATOM     11  C   UNL     1      12.485  18.814  21.718  1.00  0.00     0.000 C 
BRANCH  11  12
ATOM     12  C   UNL     1      12.515  17.487  22.511  1.00  0.00     0.000 C 
BRANCH  12  13
ATOM     13  C   UNL     1      13.673  16.554  22.101  1.00  0.00     0.006 C 
BRANCH  13  14
ATOM     14  C   UNL     1      14.131  16.730  20.646  1.00  0.00     0.053 C 
BRANCH  14  15
ATOM     15  C   UNL     1      13.412  15.798  19.719  1.00  0.00     0.041 C 
ATOM     16  O   UNL     1      12.846  16.241  18.686  1.00  0.00    -0.550 OA
ATOM     17  O   UNL     1      13.342  14.442  20.012  1.00  0.00    -0.550 OA
ENDBRANCH  14  15
ENDBRANCH  13  14
ENDBRANCH  12  13
ENDBRANCH  11  12
ENDBRANCH  10  11
ENDBRANCH   9  10
ENDBRANCH   8   9
ENDBRANCH   7   8
ENDBRANCH   6   7
ENDBRANCH   5   6
ENDBRANCH   4   5
ENDBRANCH   3   4
ENDBRANCH   2   3
ENDBRANCH   1   2
BRANCH   1  18
ATOM     18  C   UNL     1      11.763  18.192  26.476  1.00  0.00     0.000 C 
BRANCH  18  19
ATOM     19  C   UNL     1      11.119  17.000  27.206  1.00  0.00     0.000 C 
BRANCH  19  20
ATOM     20  C   UNL     1      12.045  16.390  28.272  1.00  0.00     0.000 C 
BRANCH  20  21
ATOM     21  C   UNL     1      11.220  15.758  29.401  1.00  0.00     0.000 C 
BRANCH  21  22
ATOM     22  C   UNL     1      11.927  15.906  30.760  1.00  0.00     0.000 C 
BRANCH  22  23
ATOM     23  C   UNL     1      10.964  15.759  31.952  1.00  0.00     0.000 C 
BRANCH  23  24
ATOM     24  C   UNL     1      10.008  16.952  32.184  1.00  0.00    -0.000 C 
BRANCH  24  25
ATOM     25  C   UNL     1      10.689  18.335  32.086  1.00  0.00    -0.000 C 
BRANCH  25  26
ATOM     26  C   UNL     1       9.911  19.314  31.186  1.00  0.00    -0.000 C 
BRANCH  26  27
ATOM     27  C   UNL     1      10.638  19.622  29.867  1.00  0.00    -0.000 C 
BRANCH  27  28
ATOM     28  C   UNL     1      12.166  19.511  29.990  1.00  0.00    -0.000 C 
BRANCH  28  29
ATOM     29  C   UNL     1      12.847  20.894  30.063  1.00  0.00    -0.000 C 
BRANCH  29  30
ATOM     30  C   UNL     1      12.103  21.974  29.261  1.00  0.00    -0.000 C 
BRANCH  30  31
ATOM     31  C   UNL     1      12.633  22.118  27.827  1.00  0.00    -0.003 C 
ATOM     32  C   UNL     1      11.531  21.831  26.807  1.00  0.00     0.004 C 
ENDBRANCH  30  31
ENDBRANCH  29  30
ENDBRANCH  28  29
ENDBRANCH  27  28
ENDBRANCH  26  27
ENDBRANCH  25  26
ENDBRANCH  24  25
ENDBRANCH  23  24
ENDBRANCH  22  23
ENDBRANCH  21  22
ENDBRANCH  20  21
ENDBRANCH  19  20
ENDBRANCH  18  19
ENDBRANCH   1  18
TORSDOF 28
ENDMDL
MODEL 7
REMARK VINA RESULT:    -4.686      3.200      4.611
REMARK INTER + INTRA:         -16.167
REMARK INTER:                 -12.606
REMARK INTRA:                  -3.561
REMARK UNBOUND:                -3.811
REMARK SMILES CCCCCCCCCCCCCCCCCCCCCCCCCCCCCC(=O)[O-]
REMARK SMILES IDX 16 1 17 2 18 3 19 4 20 5 21 6 22 7 23 8 24 9 25 10 26 11
REMARK SMILES IDX 27 12 28 13 29 14 30 15 31 16 32 17 15 18 14 19 13 20 12 21
REMARK SMILES IDX 11 22 10 23 9 24 8 25 7 26 6 27 5 28 4 29 3 30 2 31 1 32
REMARK H PARENT
REMARK Flexibility Score: inf
ROOT
ATOM      1  C   UNL     1      14.117  19.259  22.881  1.00  0.00     0.000 C 
ENDROOT
BRANCH   1   2
ATOM      2  C   UNL     1      14.875  19.318  21.537  1.00  0.00     0.000 C 
BRANCH   2   3
ATOM      3  C   UNL     1      16.283  18.709  21.625  1.00  0.00     0.000 C 
BRANCH   3   4
ATOM      4  C   UNL     1      17.398  19.766  21.538  1.00  0.00     0.000 C 
BRANCH   4   5
ATOM      5  C   UNL     1      17.803  20.302  22.929  1.00  0.00     0.000 C 
BRANCH   5   6
ATOM      6  C   UNL     1      17.477  21.790  23.144  1.00  0.00     0.000 C 
BRANCH   6   7
ATOM      7  C   UNL     1      16.206  22.015  23.976  1.00  0.00     0.000 C 
BRANCH   7   8
ATOM      8  C   UNL     1      15.146  22.774  23.171  1.00  0.00     0.000 C 
BRANCH   8   9
ATOM      9  C   UNL     1      14.020  23.284  24.079  1.00  0.00     0.000 C 
BRANCH   9  10
ATOM     10  C   UNL     1      14.080  22.607  25.457  1.00  0.00     0.000 C 
BRANCH  10  11
ATOM     11  C   UNL     1      12.688  22.413  26.082  1.00  0.00     0.000 C 
BRANCH  11  12
ATOM     12  C   UNL     1      12.602  21.225  27.069  1.00  0.00     0.000 C 
BRANCH  12  13
ATOM     13  C   UNL     1      12.991  21.599  28.513  1.00  0.00     0.006 C 
BRANCH  13  14
ATOM     14  C   UNL     1      11.936  21.220  29.562  1.00  0.00     0.053 C 
BRANCH  14  15
ATOM     15  C   UNL     1      10.665  21.992  29.379  1.00  0.00     0.041 C 
ATOM     16  O   UNL     1      10.701  23.222  29.115  1.00  0.00    -0.550 OA
ATOM     17  O   UNL     1       9.438  21.358  29.529  1.00  0.00    -0.550 OA
ENDBRANCH  14  15
ENDBRANCH  13  14
ENDBRANCH  12  13
ENDBRANCH  11  12
ENDBRANCH  10  11
ENDBRANCH   9  10
ENDBRANCH   8   9
ENDBRANCH   7   8
ENDBRANCH   6   7
ENDBRANCH   5   6
ENDBRANCH   4   5
ENDBRANCH   3   4
ENDBRANCH   2   3
ENDBRANCH   1   2
BRANCH   1  18
ATOM     18  C   UNL     1      14.706  18.217  23.847  1.00  0.00     0.000 C 
BRANCH  18  19
ATOM     19  C   UNL     1      15.040  18.775  25.243  1.00  0.00     0.000 C 
BRANCH  19  20
ATOM     20  C   UNL     1      14.774  17.757  26.365  1.00  0.00     0.000 C 
BRANCH  20  21
ATOM     21  C   UNL     1      13.286  17.752  26.742  1.00  0.00     0.000 C 
BRANCH  21  22
ATOM     22  C   UNL     1      12.897  16.447  27.460  1.00  0.00     0.000 C 
BRANCH  22  23
ATOM     23  C   UNL     1      11.581  16.572  28.250  1.00  0.00     0.000 C 
BRANCH  23  24
ATOM     24  C   UNL     1      11.580  17.633  29.374  1.00  0.00    -0.000 C 
BRANCH  24  25
ATOM     25  C   UNL     1      11.260  17.068  30.776  1.00  0.00    -0.000 C 
BRANCH  25  26
ATOM     26  C   UNL     1      11.632  15.580  30.914  1.00  0.00    -0.000 C 
BRANCH  26  27
ATOM     27  C   UNL     1      10.527  14.745  31.580  1.00  0.00    -0.000 C 
BRANCH  27  28
ATOM     28  C   UNL     1       9.797  13.824  30.589  1.00  0.00    -0.000 C 
BRANCH  28  29
ATOM     29  C   UNL     1       8.278  13.771  30.855  1.00  0.00    -0.000 C 
BRANCH  29  30
ATOM     30  C   UNL     1       7.711  12.342  30.827  1.00  0.00    -0.000 C 
BRANCH  30  31
ATOM     31  C   UNL     1       6.694  12.085  31.948  1.00  0.00    -0.003 C 
ATOM     32  C   UNL     1       6.618  10.597  32.287  1.00  0.00     0.004 C 
ENDBRANCH  30  31
ENDBRANCH  29  30
ENDBRANCH  28  29
ENDBRANCH  27  28
ENDBRANCH  26  27
ENDBRANCH  25  26
ENDBRANCH  24  25
ENDBRANCH  23  24
ENDBRANCH  22  23
ENDBRANCH  21  22
ENDBRANCH  20  21
ENDBRANCH  19  20
ENDBRANCH  18  19
ENDBRANCH   1  18
TORSDOF 28
ENDMDL
MODEL 8
REMARK VINA RESULT:    -4.671      3.997     10.343
REMARK INTER + INTRA:         -16.128
REMARK INTER:                 -12.146
REMARK INTRA:                  -3.981
REMARK UNBOUND:                -3.811
REMARK SMILES CCCCCCCCCCCCCCCCCCCCCCCCCCCCCC(=O)[O-]
REMARK SMILES IDX 16 1 17 2 18 3 19 4 20 5 21 6 22 7 23 8 24 9 25 10 26 11
REMARK SMILES IDX 27 12 28 13 29 14 30 15 31 16 32 17 15 18 14 19 13 20 12 21
REMARK SMILES IDX 11 22 10 23 9 24 8 25 7 26 6 27 5 28 4 29 3 30 2 31 1 32
REMARK H PARENT
REMARK Flexibility Score: inf
ROOT
ATOM      1  C   UNL     1      15.747  22.829  24.077  1.00  0.00     0.000 C 
ENDROOT
BRANCH   1   2
ATOM      2  C   UNL     1      14.242  23.110  24.275  1.00  0.00     0.000 C 
BRANCH   2   3
ATOM      3  C   UNL     1      13.658  22.376  25.493  1.00  0.00     0.000 C 
BRANCH   3   4
ATOM      4  C   UNL     1      12.454  21.487  25.133  1.00  0.00     0.000 C 
BRANCH   4   5
ATOM      5  C   UNL     1      12.711  20.000  25.459  1.00  0.00     0.000 C 
BRANCH   5   6
ATOM      6  C   UNL     1      13.911  19.394  24.709  1.00  0.00     0.000 C 
BRANCH   6   7
ATOM      7  C   UNL     1      14.677  18.352  25.538  1.00  0.00     0.000 C 
BRANCH   7   8
ATOM      8  C   UNL     1      14.059  18.191  26.931  1.00  0.00     0.000 C 
BRANCH   8   9
ATOM      9  C   UNL     1      13.258  16.887  27.034  1.00  0.00     0.000 C 
BRANCH   9  10
ATOM     10  C   UNL     1      11.920  17.121  27.753  1.00  0.00     0.000 C 
BRANCH  10  11
ATOM     11  C   UNL     1      11.526  15.949  28.667  1.00  0.00     0.000 C 
BRANCH  11  12
ATOM     12  C   UNL     1      11.764  16.217  30.172  1.00  0.00     0.000 C 
BRANCH  12  13
ATOM     13  C   UNL     1      10.767  15.482  31.091  1.00  0.00     0.006 C 
BRANCH  13  14
ATOM     14  C   UNL     1       9.496  15.002  30.376  1.00  0.00     0.053 C 
BRANCH  14  15
ATOM     15  C   UNL     1       9.103  13.622  30.804  1.00  0.00     0.041 C 
ATOM     16  O   UNL     1       7.923  13.215  30.636  1.00  0.00    -0.550 OA
ATOM     17  O   UNL     1      10.033  12.792  31.418  1.00  0.00    -0.550 OA
ENDBRANCH  14  15
ENDBRANCH  13  14
ENDBRANCH  12  13
ENDBRANCH  11  12
ENDBRANCH  10  11
ENDBRANCH   9  10
ENDBRANCH   8   9
ENDBRANCH   7   8
ENDBRANCH   6   7
ENDBRANCH   5   6
ENDBRANCH   4   5
ENDBRANCH   3   4
ENDBRANCH   2   3
ENDBRANCH   1   2
BRANCH   1  18
ATOM     18  C   UNL     1      16.023  21.901  22.882  1.00  0.00     0.000 C 
BRANCH  18  19
ATOM     19  C   UNL     1      16.716  20.580  23.263  1.00  0.00     0.000 C 
BRANCH  19  20
ATOM     20  C   UNL     1      17.856  20.211  22.298  1.00  0.00     0.000 C 
BRANCH  20  21
ATOM     21  C   UNL     1      17.427  19.064  21.374  1.00  0.00     0.000 C 
BRANCH  21  22
ATOM     22  C   UNL     1      16.182  18.342  21.920  1.00  0.00     0.000 C 
BRANCH  22  23
ATOM     23  C   UNL     1      15.964  16.961  21.276  1.00  0.00     0.000 C 
BRANCH  23  24
ATOM     24  C   UNL     1      14.515  16.656  20.834  1.00  0.00    -0.000 C 
BRANCH  24  25
ATOM     25  C   UNL     1      13.444  17.519  21.540  1.00  0.00    -0.000 C 
BRANCH  25  26
ATOM     26  C   UNL     1      12.301  17.933  20.594  1.00  0.00    -0.000 C 
BRANCH  26  27
ATOM     27  C   UNL     1      12.319  19.432  20.253  1.00  0.00    -0.000 C 
BRANCH  27  28
ATOM     28  C   UNL     1      13.042  20.275  21.316  1.00  0.00    -0.000 C 
BRANCH  28  29
ATOM     29  C   UNL     1      12.428  21.683  21.458  1.00  0.00    -0.000 C 
BRANCH  29  30
ATOM     30  C   UNL     1      12.872  22.649  20.347  1.00  0.00    -0.000 C 
BRANCH  30  31
ATOM     31  C   UNL     1      14.376  22.561  20.051  1.00  0.00    -0.003 C 
ATOM     32  C   UNL     1      14.730  23.346  18.788  1.00  0.00     0.004 C 
ENDBRANCH  30  31
ENDBRANCH  29  30
ENDBRANCH  28  29
ENDBRANCH  27  28
ENDBRANCH  26  27
ENDBRANCH  25  26
ENDBRANCH  24  25
ENDBRANCH  23  24
ENDBRANCH  22  23
ENDBRANCH  21  22
ENDBRANCH  20  21
ENDBRANCH  19  20
ENDBRANCH  18  19
ENDBRANCH   1  18
TORSDOF 28
ENDMDL
MODEL 9
REMARK VINA RESULT:    -4.625      3.426      9.360
REMARK INTER + INTRA:         -16.006
REMARK INTER:                 -10.658
REMARK INTRA:                  -5.349
REMARK UNBOUND:                -3.811
REMARK SMILES CCCCCCCCCCCCCCCCCCCCCCCCCCCCCC(=O)[O-]
REMARK SMILES IDX 16 1 17 2 18 3 19 4 20 5 21 6 22 7 23 8 24 9 25 10 26 11
REMARK SMILES IDX 27 12 28 13 29 14 30 15 31 16 32 17 15 18 14 19 13 20 12 21
REMARK SMILES IDX 11 22 10 23 9 24 8 25 7 26 6 27 5 28 4 29 3 30 2 31 1 32
REMARK H PARENT
REMARK Flexibility Score: inf
ROOT
ATOM      1  C   UNL     1      11.457  16.278  28.696  1.00  0.00     0.000 C 
ENDROOT
BRANCH   1   2
ATOM      2  C   UNL     1      11.084  16.329  30.194  1.00  0.00     0.000 C 
BRANCH   2   3
ATOM      3  C   UNL     1      11.385  17.694  30.832  1.00  0.00     0.000 C 
BRANCH   3   4
ATOM      4  C   UNL     1      10.112  18.452  31.250  1.00  0.00     0.000 C 
BRANCH   4   5
ATOM      5  C   UNL     1       9.461  19.194  30.063  1.00  0.00     0.000 C 
BRANCH   5   6
ATOM      6  C   UNL     1       9.362  20.718  30.257  1.00  0.00     0.000 C 
BRANCH   6   7
ATOM      7  C   UNL     1      10.131  21.220  31.487  1.00  0.00     0.000 C 
BRANCH   7   8
ATOM      8  C   UNL     1      11.250  22.185  31.083  1.00  0.00     0.000 C 
BRANCH   8   9
ATOM      9  C   UNL     1      12.619  21.495  31.123  1.00  0.00     0.000 C 
BRANCH   9  10
ATOM     10  C   UNL     1      12.962  20.878  29.758  1.00  0.00     0.000 C 
BRANCH  10  11
ATOM     11  C   UNL     1      12.856  21.891  28.606  1.00  0.00     0.000 C 
BRANCH  11  12
ATOM     12  C   UNL     1      11.965  21.419  27.434  1.00  0.00     0.000 C 
BRANCH  12  13
ATOM     13  C   UNL     1      10.896  22.452  27.022  1.00  0.00     0.006 C 
BRANCH  13  14
ATOM     14  C   UNL     1      10.891  23.722  27.884  1.00  0.00     0.053 C 
BRANCH  14  15
ATOM     15  C   UNL     1      11.417  24.907  27.134  1.00  0.00     0.041 C 
ATOM     16  O   UNL     1      10.672  25.895  26.903  1.00  0.00    -0.550 OA
ATOM     17  O   UNL     1      12.724  24.909  26.664  1.00  0.00    -0.550 OA
ENDBRANCH  14  15
ENDBRANCH  13  14
ENDBRANCH  12  13
ENDBRANCH  11  12
ENDBRANCH  10  11
ENDBRANCH   9  10
ENDBRANCH   8   9
ENDBRANCH   7   8
ENDBRANCH   6   7
ENDBRANCH   5   6
ENDBRANCH   4   5
ENDBRANCH   3   4
ENDBRANCH   2   3
ENDBRANCH   1   2
BRANCH   1  18
ATOM     18  C   UNL     1      12.175  17.553  28.222  1.00  0.00     0.000 C 
BRANCH  18  19
ATOM     19  C   UNL     1      13.070  17.345  26.987  1.00  0.00     0.000 C 
BRANCH  19  20
ATOM     20  C   UNL     1      13.983  18.551  26.709  1.00  0.00     0.000 C 
BRANCH  20  21
ATOM     21  C   UNL     1      14.060  18.830  25.202  1.00  0.00     0.000 C 
BRANCH  21  22
ATOM     22  C   UNL     1      15.519  18.872  24.716  1.00  0.00     0.000 C 
BRANCH  22  23
ATOM     23  C   UNL     1      15.642  19.277  23.235  1.00  0.00     0.000 C 
BRANCH  23  24
ATOM     24  C   UNL     1      14.594  18.650  22.287  1.00  0.00    -0.000 C 
BRANCH  24  25
ATOM     25  C   UNL     1      13.814  19.678  21.437  1.00  0.00    -0.000 C 
BRANCH  25  26
ATOM     26  C   UNL     1      14.452  21.080  21.472  1.00  0.00    -0.000 C 
BRANCH  26  27
ATOM     27  C   UNL     1      13.413  22.211  21.421  1.00  0.00    -0.000 C 
BRANCH  27  28
ATOM     28  C   UNL     1      13.460  23.119  22.661  1.00  0.00    -0.000 C 
BRANCH  28  29
ATOM     29  C   UNL     1      13.582  22.311  23.970  1.00  0.00    -0.000 C 
BRANCH  29  30
ATOM     30  C   UNL     1      14.733  22.789  24.868  1.00  0.00    -0.000 C 
BRANCH  30  31
ATOM     31  C   UNL     1      15.842  23.504  24.082  1.00  0.00    -0.003 C 
ATOM     32  C   UNL     1      17.083  22.620  23.962  1.00  0.00     0.004 C 
ENDBRANCH  30  31
ENDBRANCH  29  30
ENDBRANCH  28  29
ENDBRANCH  27  28
ENDBRANCH  26  27
ENDBRANCH  25  26
ENDBRANCH  24  25
ENDBRANCH  23  24
ENDBRANCH  22  23
ENDBRANCH  21  22
ENDBRANCH  20  21
ENDBRANCH  19  20
ENDBRANCH  18  19
ENDBRANCH   1  18
TORSDOF 28
ENDMDL
