MODEL 1
REMARK VINA RESULT:    -5.919      0.000      0.000
REMARK INTER + INTRA:          -5.919
REMARK INTER:                  -5.919
REMARK INTRA:                   0.000
REMARK UNBOUND:                 0.000
REMARK SMILES CC1(C)O[C@]2(C)CC[C@H]1CC2
REMARK SMILES IDX 1 1 2 2 9 3 8 4 7 5 5 6 4 7 11 8 10 9 6 10 3 11
REMARK H PARENT
REMARK Flexibility Score: inf
ROOT
ATOM      1  C   UNL     1     -32.558  12.397  56.992  1.00  0.00     0.042 C 
ATOM      2  C   UNL     1     -34.060  12.604  56.696  1.00  0.00     0.066 C 
ATOM      3  C   UNL     1     -34.346  14.100  56.285  1.00  0.00     0.021 C 
ATOM      4  C   UNL     1     -33.998  15.013  57.485  1.00  0.00     0.009 C 
ATOM      5  C   UNL     1     -34.717  14.485  58.750  1.00  0.00     0.035 C 
ATOM      6  C   UNL     1     -35.619  13.274  58.378  1.00  0.00     0.066 C 
ATOM      7  O   UNL     1     -34.802  12.221  57.864  1.00  0.00    -0.369 OA
ATOM      8  C   UNL     1     -36.631  13.715  57.282  1.00  0.00     0.035 C 
ATOM      9  C   UNL     1     -35.867  14.260  56.051  1.00  0.00     0.009 C 
ATOM     10  C   UNL     1     -36.363  12.762  59.616  1.00  0.00     0.042 C 
ATOM     11  C   UNL     1     -34.438  11.640  55.551  1.00  0.00     0.042 C 
ENDROOT
TORSDOF 0
ENDMDL
MODEL 2
REMARK VINA RESULT:    -5.887      2.017      3.619
REMARK INTER + INTRA:          -5.887
REMARK INTER:                  -5.887
REMARK INTRA:                   0.000
REMARK UNBOUND:                 0.000
REMARK SMILES CC1(C)O[C@]2(C)CC[C@H]1CC2
REMARK SMILES IDX 1 1 2 2 9 3 8 4 7 5 5 6 4 7 11 8 10 9 6 10 3 11
REMARK H PARENT
REMARK Flexibility Score: inf
ROOT
ATOM      1  C   UNL     1     -34.876  15.759  54.764  1.00  0.00     0.042 C 
ATOM      2  C   UNL     1     -34.604  14.827  55.965  1.00  0.00     0.066 C 
ATOM      3  C   UNL     1     -34.110  15.657  57.213  1.00  0.00     0.021 C 
ATOM      4  C   UNL     1     -32.761  16.325  56.853  1.00  0.00     0.009 C 
ATOM      5  C   UNL     1     -31.793  15.252  56.299  1.00  0.00     0.035 C 
ATOM      6  C   UNL     1     -32.462  13.850  56.373  1.00  0.00     0.066 C 
ATOM      7  O   UNL     1     -33.637  13.847  55.560  1.00  0.00    -0.369 OA
ATOM      8  C   UNL     1     -32.862  13.558  57.848  1.00  0.00     0.035 C 
ATOM      9  C   UNL     1     -33.805  14.670  58.366  1.00  0.00     0.009 C 
ATOM     10  C   UNL     1     -31.502  12.773  55.857  1.00  0.00     0.042 C 
ATOM     11  C   UNL     1     -35.925  14.094  56.285  1.00  0.00     0.042 C 
ENDROOT
TORSDOF 0
ENDMDL
MODEL 3
REMARK VINA RESULT:    -5.885      7.162      8.931
REMARK INTER + INTRA:          -5.885
REMARK INTER:                  -5.885
REMARK INTRA:                   0.000
REMARK UNBOUND:                 0.000
REMARK SMILES CC1(C)O[C@]2(C)CC[C@H]1CC2
REMARK SMILES IDX 1 1 2 2 9 3 8 4 7 5 5 6 4 7 11 8 10 9 6 10 3 11
REMARK H PARENT
REMARK Flexibility Score: inf
ROOT
ATOM      1  C   UNL     1     -30.452  19.148  58.075  1.00  0.00     0.042 C 
ATOM      2  C   UNL     1     -29.463  18.224  57.330  1.00  0.00     0.066 C 
ATOM      3  C   UNL     1     -28.037  18.276  58.004  1.00  0.00     0.021 C 
ATOM      4  C   UNL     1     -27.487  19.716  57.874  1.00  0.00     0.009 C 
ATOM      5  C   UNL     1     -27.578  20.165  56.396  1.00  0.00     0.035 C 
ATOM      6  C   UNL     1     -28.105  18.992  55.521  1.00  0.00     0.066 C 
ATOM      7  O   UNL     1     -29.418  18.634  55.955  1.00  0.00    -0.369 OA
ATOM      8  C   UNL     1     -27.160  17.767  55.694  1.00  0.00     0.035 C 
ATOM      9  C   UNL     1     -27.079  17.375  57.189  1.00  0.00     0.009 C 
ATOM     10  C   UNL     1     -28.169  19.411  54.049  1.00  0.00     0.042 C 
ATOM     11  C   UNL     1     -30.042  16.794  57.385  1.00  0.00     0.042 C 
ENDROOT
TORSDOF 0
ENDMDL
MODEL 4
REMARK VINA RESULT:    -5.877      6.979      8.443
REMARK INTER + INTRA:          -5.877
REMARK INTER:                  -5.877
REMARK INTRA:                   0.000
REMARK UNBOUND:                 0.000
REMARK SMILES CC1(C)O[C@]2(C)CC[C@H]1CC2
REMARK SMILES IDX 1 1 2 2 9 3 8 4 7 5 5 6 4 7 11 8 10 9 6 10 3 11
REMARK H PARENT
REMARK Flexibility Score: inf
ROOT
ATOM      1  C   UNL     1     -28.806  17.276  57.686  1.00  0.00     0.042 C 
ATOM      2  C   UNL     1     -29.612  18.221  56.768  1.00  0.00     0.066 C 
ATOM      3  C   UNL     1     -28.710  18.755  55.588  1.00  0.00     0.021 C 
ATOM      4  C   UNL     1     -27.559  19.594  56.194  1.00  0.00     0.009 C 
ATOM      5  C   UNL     1     -28.152  20.653  57.154  1.00  0.00     0.035 C 
ATOM      6  C   UNL     1     -29.706  20.582  57.123  1.00  0.00     0.066 C 
ATOM      7  O   UNL     1     -30.127  19.293  57.573  1.00  0.00    -0.369 OA
ATOM      8  C   UNL     1     -30.192  20.795  55.660  1.00  0.00     0.035 C 
ATOM      9  C   UNL     1     -29.552  19.733  54.734  1.00  0.00     0.009 C 
ATOM     10  C   UNL     1     -30.307  21.648  58.045  1.00  0.00     0.042 C 
ATOM     11  C   UNL     1     -30.810  17.416  56.219  1.00  0.00     0.042 C 
ENDROOT
TORSDOF 0
ENDMDL
MODEL 5
REMARK VINA RESULT:    -5.852      7.013      8.837
REMARK INTER + INTRA:          -5.852
REMARK INTER:                  -5.852
REMARK INTRA:                   0.000
REMARK UNBOUND:                 0.000
REMARK SMILES CC1(C)O[C@]2(C)CC[C@H]1CC2
REMARK SMILES IDX 1 1 2 2 9 3 8 4 7 5 5 6 4 7 11 8 10 9 6 10 3 11
REMARK H PARENT
REMARK Flexibility Score: inf
ROOT
ATOM      1  C   UNL     1     -31.112  17.921  57.400  1.00  0.00     0.042 C 
ATOM      2  C   UNL     1     -29.671  18.395  57.108  1.00  0.00     0.066 C 
ATOM      3  C   UNL     1     -29.372  19.757  57.846  1.00  0.00     0.021 C 
ATOM      4  C   UNL     1     -30.321  20.839  57.279  1.00  0.00     0.009 C 
ATOM      5  C   UNL     1     -30.222  20.845  55.735  1.00  0.00     0.035 C 
ATOM      6  C   UNL     1     -29.139  19.829  55.272  1.00  0.00     0.066 C 
ATOM      7  O   UNL     1     -29.520  18.515  55.685  1.00  0.00    -0.369 OA
ATOM      8  C   UNL     1     -27.782  20.198  55.938  1.00  0.00     0.035 C 
ATOM      9  C   UNL     1     -27.938  20.208  57.478  1.00  0.00     0.009 C 
ATOM     10  C   UNL     1     -29.007  19.847  53.746  1.00  0.00     0.042 C 
ATOM     11  C   UNL     1     -28.715  17.286  57.599  1.00  0.00     0.042 C 
ENDROOT
TORSDOF 0
ENDMDL
MODEL 6
REMARK VINA RESULT:    -5.833      6.991      8.636
REMARK INTER + INTRA:          -5.833
REMARK INTER:                  -5.833
REMARK INTRA:                   0.000
REMARK UNBOUND:                 0.000
REMARK SMILES CC1(C)O[C@]2(C)CC[C@H]1CC2
REMARK SMILES IDX 1 1 2 2 9 3 8 4 7 5 5 6 4 7 11 8 10 9 6 10 3 11
REMARK H PARENT
REMARK Flexibility Score: inf
ROOT
ATOM      1  C   UNL     1     -29.828  18.388  55.511  1.00  0.00     0.042 C 
ATOM      2  C   UNL     1     -29.871  18.584  57.043  1.00  0.00     0.066 C 
ATOM      3  C   UNL     1     -29.938  20.118  57.407  1.00  0.00     0.021 C 
ATOM      4  C   UNL     1     -28.641  20.797  56.906  1.00  0.00     0.009 C 
ATOM      5  C   UNL     1     -27.418  20.007  57.430  1.00  0.00     0.035 C 
ATOM      6  C   UNL     1     -27.894  18.852  58.357  1.00  0.00     0.066 C 
ATOM      7  O   UNL     1     -28.711  17.953  57.606  1.00  0.00    -0.369 OA
ATOM      8  C   UNL     1     -28.734  19.452  59.522  1.00  0.00     0.035 C 
ATOM      9  C   UNL     1     -29.927  20.255  58.948  1.00  0.00     0.009 C 
ATOM     10  C   UNL     1     -26.691  18.081  58.911  1.00  0.00     0.042 C 
ATOM     11  C   UNL     1     -31.121  17.843  57.565  1.00  0.00     0.042 C 
ENDROOT
TORSDOF 0
ENDMDL
MODEL 7
REMARK VINA RESULT:    -5.809      6.410      7.848
REMARK INTER + INTRA:          -5.809
REMARK INTER:                  -5.809
REMARK INTRA:                   0.000
REMARK UNBOUND:                 0.000
REMARK SMILES CC1(C)O[C@]2(C)CC[C@H]1CC2
REMARK SMILES IDX 1 1 2 2 9 3 8 4 7 5 5 6 4 7 11 8 10 9 6 10 3 11
REMARK H PARENT
REMARK Flexibility Score: inf
ROOT
ATOM      1  C   UNL     1     -28.013  18.381  54.407  1.00  0.00     0.042 C 
ATOM      2  C   UNL     1     -29.134  18.925  55.319  1.00  0.00     0.066 C 
ATOM      3  C   UNL     1     -28.524  19.641  56.586  1.00  0.00     0.021 C 
ATOM      4  C   UNL     1     -27.746  18.590  57.414  1.00  0.00     0.009 C 
ATOM      5  C   UNL     1     -28.659  17.369  57.674  1.00  0.00     0.035 C 
ATOM      6  C   UNL     1     -30.078  17.640  57.098  1.00  0.00     0.066 C 
ATOM      7  O   UNL     1     -29.984  17.827  55.685  1.00  0.00    -0.369 OA
ATOM      8  C   UNL     1     -30.649  18.934  57.748  1.00  0.00     0.035 C 
ATOM      9  C   UNL     1     -29.689  20.119  57.486  1.00  0.00     0.009 C 
ATOM     10  C   UNL     1     -31.004  16.451  57.378  1.00  0.00     0.042 C 
ATOM     11  C   UNL     1     -29.967  19.917  54.479  1.00  0.00     0.042 C 
ENDROOT
TORSDOF 0
ENDMDL
MODEL 8
REMARK VINA RESULT:    -5.797      1.079      2.611
REMARK INTER + INTRA:          -5.797
REMARK INTER:                  -5.797
REMARK INTRA:                   0.000
REMARK UNBOUND:                 0.000
REMARK SMILES CC1(C)O[C@]2(C)CC[C@H]1CC2
REMARK SMILES IDX 1 1 2 2 9 3 8 4 7 5 5 6 4 7 11 8 10 9 6 10 3 11
REMARK H PARENT
REMARK Flexibility Score: inf
ROOT
ATOM      1  C   UNL     1     -34.051  11.105  57.755  1.00  0.00     0.042 C 
ATOM      2  C   UNL     1     -33.852  12.528  57.187  1.00  0.00     0.066 C 
ATOM      3  C   UNL     1     -34.229  13.616  58.266  1.00  0.00     0.021 C 
ATOM      4  C   UNL     1     -35.734  13.475  58.597  1.00  0.00     0.009 C 
ATOM      5  C   UNL     1     -36.548  13.484  57.281  1.00  0.00     0.035 C 
ATOM      6  C   UNL     1     -35.596  13.722  56.074  1.00  0.00     0.066 C 
ATOM      7  O   UNL     1     -34.652  12.652  56.002  1.00  0.00    -0.369 OA
ATOM      8  C   UNL     1     -34.833  15.061  56.289  1.00  0.00     0.035 C 
ATOM      9  C   UNL     1     -34.059  15.016  57.628  1.00  0.00     0.009 C 
ATOM     10  C   UNL     1     -36.393  13.766  54.766  1.00  0.00     0.042 C 
ATOM     11  C   UNL     1     -32.368  12.654  56.779  1.00  0.00     0.042 C 
ENDROOT
TORSDOF 0
ENDMDL
MODEL 9
REMARK VINA RESULT:    -5.741      1.383      3.236
REMARK INTER + INTRA:          -5.741
REMARK INTER:                  -5.741
REMARK INTRA:                   0.000
REMARK UNBOUND:                 0.000
REMARK SMILES CC1(C)O[C@]2(C)CC[C@H]1CC2
REMARK SMILES IDX 1 1 2 2 9 3 8 4 7 5 5 6 4 7 11 8 10 9 6 10 3 11
REMARK H PARENT
REMARK Flexibility Score: inf
ROOT
ATOM      1  C   UNL     1     -33.550  14.610  59.266  1.00  0.00     0.042 C 
ATOM      2  C   UNL     1     -34.365  13.838  58.205  1.00  0.00     0.066 C 
ATOM      3  C   UNL     1     -33.503  12.673  57.580  1.00  0.00     0.021 C 
ATOM      4  C   UNL     1     -32.294  13.300  56.845  1.00  0.00     0.009 C 
ATOM      5  C   UNL     1     -32.800  14.394  55.874  1.00  0.00     0.035 C 
ATOM      6  C   UNL     1     -34.354  14.437  55.892  1.00  0.00     0.066 C 
ATOM      7  O   UNL     1     -34.800  14.774  57.207  1.00  0.00    -0.369 OA
ATOM      8  C   UNL     1     -34.903  13.031  55.512  1.00  0.00     0.035 C 
ATOM      9  C   UNL     1     -34.348  11.969  56.492  1.00  0.00     0.009 C 
ATOM     10  C   UNL     1     -34.870  15.494  54.910  1.00  0.00     0.042 C 
ATOM     11  C   UNL     1     -35.617  13.273  58.910  1.00  0.00     0.042 C 
ENDROOT
TORSDOF 0
ENDMDL
