MODEL 1
REMARK VINA RESULT:    -7.829      0.000      0.000
REMARK INTER + INTRA:         -14.935
REMARK INTER:                 -12.863
REMARK INTRA:                  -2.073
REMARK UNBOUND:                -2.073
REMARK SMILES C[C@H]1O[C@@H](OC[C@H]2O[C@@H](Oc3c(-c4ccc(O)c(O)c4)oc4cc(O)cc(O)c4c3=O)[C@@H](O)[C@@H](O)[C@H]2O)[C@@H](O)[C@H](O)[C@@H]1O
REMARK SMILES IDX 7 1 36 2 34 3 32 4 9 5 8 6 6 7 5 8 4 9 1 10 2 11 42 12 3 13
REMARK SMILES IDX 40 14 38 15 43 16 41 18 39 20 37 22 35 24 10 26 11 27 12 28
REMARK SMILES IDX 30 29 21 30 29 31 31 32 22 33 27 34 23 35 26 36 24 37 13 38
REMARK SMILES IDX 20 39 14 40 18 41 15 42 16 43 19 44 17 46 28 48 25 50 33 52
REMARK H PARENT 43 17 41 19 39 21 37 23 35 25 19 45 17 47 28 49 25 51 33 53
REMARK Flexibility Score: inf
ROOT
ATOM      1  C   UNL     1       0.751 -30.778 -52.762  1.00  0.00     0.180 C 
ATOM      2  C   UNL     1       0.591 -32.242 -52.233  1.00  0.00     0.177 C 
ATOM      3  C   UNL     1      -0.881 -32.612 -51.888  1.00  0.00     0.180 C 
ATOM      4  C   UNL     1      -1.521 -31.462 -51.094  1.00  0.00     0.214 C 
ATOM      5  C   UNL     1      -1.243 -30.045 -51.672  1.00  0.00     0.339 C 
ATOM      6  O   UNL     1       0.129 -29.818 -51.898  1.00  0.00    -0.332 OA
ENDROOT
BRANCH   1   7
ATOM      7  C   UNL     1       0.444 -30.509 -54.237  1.00  0.00     0.198 C 
BRANCH   7   8
ATOM      8  O   UNL     1       1.206 -29.402 -54.706  1.00  0.00    -0.347 OA
BRANCH   8   9
ATOM      9  C   UNL     1       1.350 -29.389 -56.115  1.00  0.00     0.281 C 
ATOM     10  C   UNL     1       4.123 -29.876 -54.719  1.00  0.00     0.041 C 
ATOM     11  C   UNL     1       3.742 -29.626 -56.185  1.00  0.00     0.150 C 
ATOM     12  C   UNL     1       3.923 -28.157 -56.634  1.00  0.00     0.174 C 
ATOM     13  O   UNL     1       2.461 -30.183 -56.505  1.00  0.00    -0.344 OA
ATOM     14  C   UNL     1       2.738 -27.289 -56.188  1.00  0.00     0.179 C 
ATOM     15  C   UNL     1       1.429 -27.940 -56.651  1.00  0.00     0.202 C 
BRANCH  12  16
ATOM     16  O   UNL     1       4.124 -28.062 -58.025  1.00  0.00    -0.388 OA
ATOM     17  H   UNL     1       4.518 -28.916 -58.347  1.00  0.00     0.211 HD
ENDBRANCH  12  16
BRANCH  14  18
ATOM     18  O   UNL     1       2.862 -26.007 -56.763  1.00  0.00    -0.387 OA
ATOM     19  H   UNL     1       2.934 -25.362 -56.009  1.00  0.00     0.211 HD
ENDBRANCH  14  18
BRANCH  15  20
ATOM     20  O   UNL     1       0.345 -27.185 -56.171  1.00  0.00    -0.385 OA
ATOM     21  H   UNL     1       0.694 -26.264 -56.011  1.00  0.00     0.211 HD
ENDBRANCH  15  20
ENDBRANCH   8   9
ENDBRANCH   7   8
ENDBRANCH   1   7
BRANCH   2  22
ATOM     22  O   UNL     1       1.156 -33.209 -53.095  1.00  0.00    -0.387 OA
ATOM     23  H   UNL     1       0.444 -33.465 -53.745  1.00  0.00     0.211 HD
ENDBRANCH   2  22
BRANCH   3  24
ATOM     24  O   UNL     1      -1.652 -33.052 -53.005  1.00  0.00    -0.387 OA
ATOM     25  H   UNL     1      -2.601 -33.120 -52.741  1.00  0.00     0.211 HD
ENDBRANCH   3  24
BRANCH   5  26
ATOM     26  O   UNL     1      -2.007 -29.793 -52.853  1.00  0.00    -0.454 OA
BRANCH  26  27
ATOM     27  C   UNL     1      -2.712 -28.608 -53.117  1.00  0.00     0.214 A 
ATOM     28  C   UNL     1      -4.108 -28.495 -52.953  1.00  0.00     0.180 A 
ATOM     29  C   UNL     1      -1.993 -27.500 -53.572  1.00  0.00     0.239 A 
ATOM     30  O   UNL     1      -4.722 -27.383 -53.332  1.00  0.00    -0.452 OA
ATOM     31  C   UNL     1      -2.674 -26.299 -53.901  1.00  0.00     0.111 A 
ATOM     32  O   UNL     1      -0.748 -27.602 -53.719  1.00  0.00    -0.285 OA
ATOM     33  C   UNL     1      -4.087 -26.313 -53.802  1.00  0.00     0.146 A 
ATOM     34  C   UNL     1      -2.034 -25.111 -54.359  1.00  0.00     0.134 A 
ATOM     35  C   UNL     1      -4.834 -25.197 -54.185  1.00  0.00     0.094 A 
ATOM     36  C   UNL     1      -2.810 -24.028 -54.788  1.00  0.00     0.093 A 
ATOM     37  C   UNL     1      -4.203 -24.063 -54.691  1.00  0.00     0.123 A 
BRANCH  28  38
ATOM     38  C   UNL     1      -4.927 -29.566 -52.336  1.00  0.00     0.025 A 
ATOM     39  C   UNL     1      -5.502 -29.384 -51.066  1.00  0.00     0.062 A 
ATOM     40  C   UNL     1      -5.145 -30.771 -53.022  1.00  0.00     0.016 A 
ATOM     41  C   UNL     1      -6.217 -30.419 -50.451  1.00  0.00     0.158 A 
ATOM     42  C   UNL     1      -5.858 -31.809 -52.412  1.00  0.00     0.051 A 
ATOM     43  C   UNL     1      -6.384 -31.642 -51.120  1.00  0.00     0.157 A 
BRANCH  41  44
ATOM     44  O   UNL     1      -6.732 -30.225 -49.168  1.00  0.00    -0.504 OA
ATOM     45  H   UNL     1      -6.134 -30.146 -48.356  1.00  0.00     0.293 HD
ENDBRANCH  41  44
BRANCH  43  46
ATOM     46  O   UNL     1      -7.068 -32.688 -50.501  1.00  0.00    -0.504 OA
ATOM     47  H   UNL     1      -7.612 -32.548 -49.660  1.00  0.00     0.293 HD
ENDBRANCH  43  46
ENDBRANCH  28  38
BRANCH  34  48
ATOM     48  O   UNL     1      -0.646 -24.937 -54.394  1.00  0.00    -0.507 OA
ATOM     49  H   UNL     1      -0.180 -24.186 -54.885  1.00  0.00     0.293 HD
ENDBRANCH  34  48
BRANCH  37  50
ATOM     50  O   UNL     1      -4.961 -22.963 -55.086  1.00  0.00    -0.508 OA
ATOM     51  H   UNL     1      -5.932 -22.854 -54.809  1.00  0.00     0.293 HD
ENDBRANCH  37  50
ENDBRANCH  26  27
ENDBRANCH   5  26
BRANCH   4  52
ATOM     52  O   UNL     1      -2.886 -31.661 -50.835  1.00  0.00    -0.384 OA
ATOM     53  H   UNL     1      -2.959 -32.292 -50.067  1.00  0.00     0.211 HD
ENDBRANCH   4  52
TORSDOF 16
ENDMDL
MODEL 2
REMARK VINA RESULT:    -7.726      2.898      6.426
REMARK INTER + INTRA:         -14.767
REMARK INTER:                 -13.457
REMARK INTRA:                  -1.310
REMARK UNBOUND:                -2.073
REMARK SMILES C[C@H]1O[C@@H](OC[C@H]2O[C@@H](Oc3c(-c4ccc(O)c(O)c4)oc4cc(O)cc(O)c4c3=O)[C@@H](O)[C@@H](O)[C@H]2O)[C@@H](O)[C@H](O)[C@@H]1O
REMARK SMILES IDX 7 1 36 2 34 3 32 4 9 5 8 6 6 7 5 8 4 9 1 10 2 11 42 12 3 13
REMARK SMILES IDX 40 14 38 15 43 16 41 18 39 20 37 22 35 24 10 26 11 27 12 28
REMARK SMILES IDX 30 29 21 30 29 31 31 32 22 33 27 34 23 35 26 36 24 37 13 38
REMARK SMILES IDX 20 39 14 40 18 41 15 42 16 43 19 44 17 46 28 48 25 50 33 52
REMARK H PARENT 43 17 41 19 39 21 37 23 35 25 19 45 17 47 28 49 25 51 33 53
REMARK Flexibility Score: inf
ROOT
ATOM      1  C   UNL     1      -4.500 -28.720 -52.002  1.00  0.00     0.180 C 
ATOM      2  C   UNL     1      -5.632 -29.637 -52.574  1.00  0.00     0.177 C 
ATOM      3  C   UNL     1      -6.076 -29.239 -54.012  1.00  0.00     0.180 C 
ATOM      4  C   UNL     1      -6.249 -27.713 -54.086  1.00  0.00     0.214 C 
ATOM      5  C   UNL     1      -5.098 -26.900 -53.429  1.00  0.00     0.339 C 
ATOM      6  O   UNL     1      -4.823 -27.328 -52.114  1.00  0.00    -0.332 OA
ENDROOT
BRANCH   1   7
ATOM      7  C   UNL     1      -3.058 -29.012 -52.420  1.00  0.00     0.198 C 
BRANCH   7   8
ATOM      8  O   UNL     1      -2.756 -30.389 -52.225  1.00  0.00    -0.347 OA
BRANCH   8   9
ATOM      9  C   UNL     1      -1.871 -30.904 -53.204  1.00  0.00     0.281 C 
ATOM     10  C   UNL     1      -2.840 -33.186 -51.272  1.00  0.00     0.041 C 
ATOM     11  C   UNL     1      -1.785 -33.164 -52.386  1.00  0.00     0.150 C 
ATOM     12  C   UNL     1      -0.339 -32.974 -51.872  1.00  0.00     0.174 C 
ATOM     13  O   UNL     1      -2.150 -32.275 -53.449  1.00  0.00    -0.344 OA
ATOM     14  C   UNL     1      -0.043 -31.497 -51.576  1.00  0.00     0.179 C 
ATOM     15  C   UNL     1      -0.398 -30.652 -52.807  1.00  0.00     0.202 C 
BRANCH  12  16
ATOM     16  O   UNL     1       0.605 -33.509 -52.770  1.00  0.00    -0.388 OA
ATOM     17  H   UNL     1       0.585 -32.973 -53.607  1.00  0.00     0.211 HD
ENDBRANCH  12  16
BRANCH  14  18
ATOM     18  O   UNL     1       1.327 -31.350 -51.277  1.00  0.00    -0.387 OA
ATOM     19  H   UNL     1       1.440 -30.439 -50.894  1.00  0.00     0.211 HD
ENDBRANCH  14  18
BRANCH  15  20
ATOM     20  O   UNL     1      -0.202 -29.294 -52.504  1.00  0.00    -0.385 OA
ATOM     21  H   UNL     1      -0.528 -28.781 -53.295  1.00  0.00     0.211 HD
ENDBRANCH  15  20
ENDBRANCH   8   9
ENDBRANCH   7   8
ENDBRANCH   1   7
BRANCH   2  22
ATOM     22  O   UNL     1      -5.314 -31.013 -52.517  1.00  0.00    -0.387 OA
ATOM     23  H   UNL     1      -4.387 -31.108 -52.873  1.00  0.00     0.211 HD
ENDBRANCH   2  22
BRANCH   3  24
ATOM     24  O   UNL     1      -5.264 -29.787 -55.049  1.00  0.00    -0.387 OA
ATOM     25  H   UNL     1      -5.320 -30.772 -55.023  1.00  0.00     0.211 HD
ENDBRANCH   3  24
BRANCH   5  26
ATOM     26  O   UNL     1      -3.914 -26.909 -54.230  1.00  0.00    -0.454 OA
BRANCH  26  27
ATOM     27  C   UNL     1      -3.003 -25.847 -54.329  1.00  0.00     0.214 A 
ATOM     28  C   UNL     1      -3.239 -24.707 -55.126  1.00  0.00     0.180 A 
ATOM     29  C   UNL     1      -1.807 -25.934 -53.612  1.00  0.00     0.239 A 
ATOM     30  O   UNL     1      -2.284 -23.798 -55.264  1.00  0.00    -0.452 OA
ATOM     31  C   UNL     1      -0.835 -24.907 -53.726  1.00  0.00     0.111 A 
ATOM     32  O   UNL     1      -1.597 -26.951 -52.902  1.00  0.00    -0.285 OA
ATOM     33  C   UNL     1      -1.116 -23.852 -54.629  1.00  0.00     0.146 A 
ATOM     34  C   UNL     1       0.407 -24.893 -53.028  1.00  0.00     0.134 A 
ATOM     35  C   UNL     1      -0.175 -22.846 -54.858  1.00  0.00     0.094 A 
ATOM     36  C   UNL     1       1.354 -23.903 -53.317  1.00  0.00     0.093 A 
ATOM     37  C   UNL     1       1.062 -22.876 -54.218  1.00  0.00     0.123 A 
BRANCH  28  38
ATOM     38  C   UNL     1      -4.536 -24.461 -55.799  1.00  0.00     0.025 A 
ATOM     39  C   UNL     1      -4.742 -24.873 -57.128  1.00  0.00     0.062 A 
ATOM     40  C   UNL     1      -5.578 -23.821 -55.110  1.00  0.00     0.016 A 
ATOM     41  C   UNL     1      -5.940 -24.578 -57.789  1.00  0.00     0.158 A 
ATOM     42  C   UNL     1      -6.779 -23.524 -55.767  1.00  0.00     0.051 A 
ATOM     43  C   UNL     1      -6.958 -23.889 -57.112  1.00  0.00     0.157 A 
BRANCH  41  44
ATOM     44  O   UNL     1      -6.093 -24.956 -59.125  1.00  0.00    -0.504 OA
ATOM     45  H   UNL     1      -7.004 -25.094 -59.542  1.00  0.00     0.293 HD
ENDBRANCH  41  44
BRANCH  43  46
ATOM     46  O   UNL     1      -8.142 -23.565 -57.773  1.00  0.00    -0.504 OA
ATOM     47  H   UNL     1      -8.688 -22.751 -57.526  1.00  0.00     0.293 HD
ENDBRANCH  43  46
ENDBRANCH  28  38
BRANCH  34  48
ATOM     48  O   UNL     1       0.752 -25.815 -52.032  1.00  0.00    -0.507 OA
ATOM     49  H   UNL     1       0.888 -26.803 -52.195  1.00  0.00     0.293 HD
ENDBRANCH  34  48
BRANCH  37  50
ATOM     50  O   UNL     1       1.999 -21.875 -54.468  1.00  0.00    -0.508 OA
ATOM     51  H   UNL     1       2.496 -21.815 -55.350  1.00  0.00     0.293 HD
ENDBRANCH  37  50
ENDBRANCH  26  27
ENDBRANCH   5  26
BRANCH   4  52
ATOM     52  O   UNL     1      -6.541 -27.252 -55.379  1.00  0.00    -0.384 OA
ATOM     53  H   UNL     1      -6.337 -27.991 -56.017  1.00  0.00     0.211 HD
ENDBRANCH   4  52
TORSDOF 16
ENDMDL
MODEL 3
REMARK VINA RESULT:    -7.148      2.447      7.306
REMARK INTER + INTRA:         -13.817
REMARK INTER:                 -12.491
REMARK INTRA:                  -1.326
REMARK UNBOUND:                -2.073
REMARK SMILES C[C@H]1O[C@@H](OC[C@H]2O[C@@H](Oc3c(-c4ccc(O)c(O)c4)oc4cc(O)cc(O)c4c3=O)[C@@H](O)[C@@H](O)[C@H]2O)[C@@H](O)[C@H](O)[C@@H]1O
REMARK SMILES IDX 7 1 36 2 34 3 32 4 9 5 8 6 6 7 5 8 4 9 1 10 2 11 42 12 3 13
REMARK SMILES IDX 40 14 38 15 43 16 41 18 39 20 37 22 35 24 10 26 11 27 12 28
REMARK SMILES IDX 30 29 21 30 29 31 31 32 22 33 27 34 23 35 26 36 24 37 13 38
REMARK SMILES IDX 20 39 14 40 18 41 15 42 16 43 19 44 17 46 28 48 25 50 33 52
REMARK H PARENT 43 17 41 19 39 21 37 23 35 25 19 45 17 47 28 49 25 51 33 53
REMARK Flexibility Score: inf
ROOT
ATOM      1  C   UNL     1      -1.473 -25.413 -53.752  1.00  0.00     0.180 C 
ATOM      2  C   UNL     1      -0.278 -25.110 -54.715  1.00  0.00     0.177 C 
ATOM      3  C   UNL     1       0.504 -26.386 -55.143  1.00  0.00     0.180 C 
ATOM      4  C   UNL     1       0.751 -27.269 -53.908  1.00  0.00     0.214 C 
ATOM      5  C   UNL     1      -0.487 -27.448 -52.985  1.00  0.00     0.339 C 
ATOM      6  O   UNL     1      -1.077 -26.217 -52.634  1.00  0.00    -0.332 OA
ENDROOT
BRANCH   1   7
ATOM      7  C   UNL     1      -2.790 -25.890 -54.367  1.00  0.00     0.198 C 
BRANCH   7   8
ATOM      8  O   UNL     1      -3.682 -24.795 -54.537  1.00  0.00    -0.347 OA
BRANCH   8   9
ATOM      9  C   UNL     1      -3.649 -24.253 -55.846  1.00  0.00     0.281 C 
ATOM     10  C   UNL     1      -4.626 -22.099 -53.776  1.00  0.00     0.041 C 
ATOM     11  C   UNL     1      -4.552 -22.090 -55.309  1.00  0.00     0.150 C 
ATOM     12  C   UNL     1      -5.894 -22.426 -56.001  1.00  0.00     0.174 C 
ATOM     13  O   UNL     1      -3.438 -22.849 -55.793  1.00  0.00    -0.344 OA
ATOM     14  C   UNL     1      -6.141 -23.940 -56.031  1.00  0.00     0.179 C 
ATOM     15  C   UNL     1      -4.919 -24.641 -56.638  1.00  0.00     0.202 C 
BRANCH  12  16
ATOM     16  O   UNL     1      -5.961 -21.875 -57.296  1.00  0.00    -0.388 OA
ATOM     17  H   UNL     1      -5.286 -21.150 -57.367  1.00  0.00     0.211 HD
ENDBRANCH  12  16
BRANCH  14  18
ATOM     18  O   UNL     1      -7.281 -24.207 -56.816  1.00  0.00    -0.387 OA
ATOM     19  H   UNL     1      -7.072 -23.898 -57.738  1.00  0.00     0.211 HD
ENDBRANCH  14  18
BRANCH  15  20
ATOM     20  O   UNL     1      -5.115 -26.032 -56.590  1.00  0.00    -0.385 OA
ATOM     21  H   UNL     1      -4.993 -26.365 -57.523  1.00  0.00     0.211 HD
ENDBRANCH  15  20
ENDBRANCH   8   9
ENDBRANCH   7   8
ENDBRANCH   1   7
BRANCH   2  22
ATOM     22  O   UNL     1      -0.656 -24.357 -55.850  1.00  0.00    -0.387 OA
ATOM     23  H   UNL     1      -1.653 -24.362 -55.878  1.00  0.00     0.211 HD
ENDBRANCH   2  22
BRANCH   3  24
ATOM     24  O   UNL     1      -0.066 -27.079 -56.252  1.00  0.00    -0.387 OA
ATOM     25  H   UNL     1      -0.220 -28.022 -56.005  1.00  0.00     0.211 HD
ENDBRANCH   3  24
BRANCH   5  26
ATOM     26  O   UNL     1      -1.451 -28.336 -53.555  1.00  0.00    -0.454 OA
BRANCH  26  27
ATOM     27  C   UNL     1      -1.916 -29.514 -52.950  1.00  0.00     0.214 A 
ATOM     28  C   UNL     1      -3.282 -29.758 -52.698  1.00  0.00     0.180 A 
ATOM     29  C   UNL     1      -0.977 -30.477 -52.572  1.00  0.00     0.239 A 
ATOM     30  O   UNL     1      -3.637 -30.839 -52.017  1.00  0.00    -0.452 OA
ATOM     31  C   UNL     1      -1.398 -31.659 -51.910  1.00  0.00     0.111 A 
ATOM     32  O   UNL     1       0.242 -30.258 -52.797  1.00  0.00    -0.285 OA
ATOM     33  C   UNL     1      -2.778 -31.769 -51.608  1.00  0.00     0.146 A 
ATOM     34  C   UNL     1      -0.524 -32.706 -51.498  1.00  0.00     0.134 A 
ATOM     35  C   UNL     1      -3.260 -32.864 -50.886  1.00  0.00     0.094 A 
ATOM     36  C   UNL     1      -1.025 -33.763 -50.728  1.00  0.00     0.093 A 
ATOM     37  C   UNL     1      -2.388 -33.850 -50.433  1.00  0.00     0.123 A 
BRANCH  28  38
ATOM     38  C   UNL     1      -4.356 -28.866 -53.196  1.00  0.00     0.025 A 
ATOM     39  C   UNL     1      -4.777 -27.761 -52.434  1.00  0.00     0.062 A 
ATOM     40  C   UNL     1      -4.956 -29.111 -54.440  1.00  0.00     0.016 A 
ATOM     41  C   UNL     1      -5.839 -26.958 -52.868  1.00  0.00     0.158 A 
ATOM     42  C   UNL     1      -6.019 -28.311 -54.879  1.00  0.00     0.051 A 
ATOM     43  C   UNL     1      -6.472 -27.242 -54.088  1.00  0.00     0.157 A 
BRANCH  41  44
ATOM     44  O   UNL     1      -6.267 -25.900 -52.065  1.00  0.00    -0.504 OA
ATOM     45  H   UNL     1      -7.158 -25.915 -51.587  1.00  0.00     0.293 HD
ENDBRANCH  41  44
BRANCH  43  46
ATOM     46  O   UNL     1      -7.550 -26.465 -54.512  1.00  0.00    -0.504 OA
ATOM     47  H   UNL     1      -7.802 -25.602 -54.050  1.00  0.00     0.293 HD
ENDBRANCH  43  46
ENDBRANCH  28  38
BRANCH  34  48
ATOM     48  O   UNL     1       0.833 -32.765 -51.831  1.00  0.00    -0.507 OA
ATOM     49  H   UNL     1       1.571 -32.341 -51.286  1.00  0.00     0.293 HD
ENDBRANCH  34  48
BRANCH  37  50
ATOM     50  O   UNL     1      -2.878 -34.928 -49.699  1.00  0.00    -0.508 OA
ATOM     51  H   UNL     1      -2.270 -35.667 -49.361  1.00  0.00     0.293 HD
ENDBRANCH  37  50
ENDBRANCH  26  27
ENDBRANCH   5  26
BRANCH   4  52
ATOM     52  O   UNL     1       1.354 -28.497 -54.218  1.00  0.00    -0.384 OA
ATOM     53  H   UNL     1       1.381 -28.579 -55.211  1.00  0.00     0.211 HD
ENDBRANCH   4  52
TORSDOF 16
ENDMDL
MODEL 4
REMARK VINA RESULT:    -6.849      2.056      6.195
REMARK INTER + INTRA:         -13.325
REMARK INTER:                 -10.490
REMARK INTRA:                  -2.835
REMARK UNBOUND:                -2.073
REMARK SMILES C[C@H]1O[C@@H](OC[C@H]2O[C@@H](Oc3c(-c4ccc(O)c(O)c4)oc4cc(O)cc(O)c4c3=O)[C@@H](O)[C@@H](O)[C@H]2O)[C@@H](O)[C@H](O)[C@@H]1O
REMARK SMILES IDX 7 1 36 2 34 3 32 4 9 5 8 6 6 7 5 8 4 9 1 10 2 11 42 12 3 13
REMARK SMILES IDX 40 14 38 15 43 16 41 18 39 20 37 22 35 24 10 26 11 27 12 28
REMARK SMILES IDX 30 29 21 30 29 31 31 32 22 33 27 34 23 35 26 36 24 37 13 38
REMARK SMILES IDX 20 39 14 40 18 41 15 42 16 43 19 44 17 46 28 48 25 50 33 52
REMARK H PARENT 43 17 41 19 39 21 37 23 35 25 19 45 17 47 28 49 25 51 33 53
REMARK Flexibility Score: inf
ROOT
ATOM      1  C   UNL     1      -0.920 -23.539 -54.918  1.00  0.00     0.180 C 
ATOM      2  C   UNL     1       0.500 -23.336 -54.291  1.00  0.00     0.177 C 
ATOM      3  C   UNL     1       0.917 -24.490 -53.333  1.00  0.00     0.180 C 
ATOM      4  C   UNL     1      -0.261 -24.833 -52.407  1.00  0.00     0.214 C 
ATOM      5  C   UNL     1      -1.636 -24.945 -53.125  1.00  0.00     0.339 C 
ATOM      6  O   UNL     1      -1.916 -23.819 -53.925  1.00  0.00    -0.332 OA
ENDROOT
BRANCH   1   7
ATOM      7  C   UNL     1      -1.044 -24.459 -56.134  1.00  0.00     0.198 C 
BRANCH   7   8
ATOM      8  O   UNL     1       0.183 -25.140 -56.366  1.00  0.00    -0.347 OA
BRANCH   8   9
ATOM      9  C   UNL     1       0.383 -25.469 -57.729  1.00  0.00     0.281 C 
ATOM     10  C   UNL     1       1.083 -27.914 -55.883  1.00  0.00     0.041 C 
ATOM     11  C   UNL     1       1.261 -27.682 -57.390  1.00  0.00     0.150 C 
ATOM     12  C   UNL     1       2.685 -27.230 -57.788  1.00  0.00     0.174 C 
ATOM     13  O   UNL     1       0.215 -26.865 -57.930  1.00  0.00    -0.344 OA
ATOM     14  C   UNL     1       2.882 -25.727 -57.543  1.00  0.00     0.179 C 
ATOM     15  C   UNL     1       1.751 -24.949 -58.230  1.00  0.00     0.202 C 
BRANCH  12  16
ATOM     16  O   UNL     1       2.982 -27.568 -59.123  1.00  0.00    -0.388 OA
ATOM     17  H   UNL     1       2.282 -27.179 -59.712  1.00  0.00     0.211 HD
ENDBRANCH  12  16
BRANCH  14  18
ATOM     18  O   UNL     1       4.125 -25.330 -58.076  1.00  0.00    -0.387 OA
ATOM     19  H   UNL     1       3.930 -24.826 -58.911  1.00  0.00     0.211 HD
ENDBRANCH  14  18
BRANCH  15  20
ATOM     20  O   UNL     1       1.889 -23.582 -57.936  1.00  0.00    -0.385 OA
ATOM     21  H   UNL     1       2.205 -23.145 -58.775  1.00  0.00     0.211 HD
ENDBRANCH  15  20
ENDBRANCH   8   9
ENDBRANCH   7   8
ENDBRANCH   1   7
BRANCH   2  22
ATOM     22  O   UNL     1       1.506 -23.106 -55.256  1.00  0.00    -0.387 OA
ATOM     23  H   UNL     1       1.552 -22.119 -55.392  1.00  0.00     0.211 HD
ENDBRANCH   2  22
BRANCH   3  24
ATOM     24  O   UNL     1       1.493 -25.618 -53.989  1.00  0.00    -0.387 OA
ATOM     25  H   UNL     1       0.773 -26.200 -54.332  1.00  0.00     0.211 HD
ENDBRANCH   3  24
BRANCH   5  26
ATOM     26  O   UNL     1      -1.744 -26.153 -53.882  1.00  0.00    -0.454 OA
BRANCH  26  27
ATOM     27  C   UNL     1      -2.605 -27.218 -53.576  1.00  0.00     0.214 A 
ATOM     28  C   UNL     1      -4.004 -27.142 -53.738  1.00  0.00     0.180 A 
ATOM     29  C   UNL     1      -2.046 -28.398 -53.080  1.00  0.00     0.239 A 
ATOM     30  O   UNL     1      -4.765 -28.144 -53.319  1.00  0.00    -0.452 OA
ATOM     31  C   UNL     1      -2.885 -29.480 -52.708  1.00  0.00     0.111 A 
ATOM     32  O   UNL     1      -0.798 -28.465 -52.935  1.00  0.00    -0.285 OA
ATOM     33  C   UNL     1      -4.283 -29.274 -52.810  1.00  0.00     0.146 A 
ATOM     34  C   UNL     1      -2.414 -30.728 -52.207  1.00  0.00     0.134 A 
ATOM     35  C   UNL     1      -5.177 -30.261 -52.387  1.00  0.00     0.094 A 
ATOM     36  C   UNL     1      -3.332 -31.677 -51.739  1.00  0.00     0.093 A 
ATOM     37  C   UNL     1      -4.707 -31.452 -51.839  1.00  0.00     0.123 A 
BRANCH  28  38
ATOM     38  C   UNL     1      -4.669 -25.991 -54.395  1.00  0.00     0.025 A 
ATOM     39  C   UNL     1      -4.895 -25.993 -55.783  1.00  0.00     0.062 A 
ATOM     40  C   UNL     1      -5.089 -24.891 -53.632  1.00  0.00     0.016 A 
ATOM     41  C   UNL     1      -5.459 -24.878 -56.415  1.00  0.00     0.158 A 
ATOM     42  C   UNL     1      -5.653 -23.773 -54.260  1.00  0.00     0.051 A 
ATOM     43  C   UNL     1      -5.826 -23.757 -55.654  1.00  0.00     0.157 A 
BRANCH  41  44
ATOM     44  O   UNL     1      -5.623 -24.891 -57.802  1.00  0.00    -0.504 OA
ATOM     45  H   UNL     1      -6.105 -25.642 -58.278  1.00  0.00     0.293 HD
ENDBRANCH  41  44
BRANCH  43  46
ATOM     46  O   UNL     1      -6.359 -22.632 -56.281  1.00  0.00    -0.504 OA
ATOM     47  H   UNL     1      -6.744 -21.858 -55.755  1.00  0.00     0.293 HD
ENDBRANCH  43  46
ENDBRANCH  28  38
BRANCH  34  48
ATOM     48  O   UNL     1      -1.064 -31.091 -52.162  1.00  0.00    -0.507 OA
ATOM     49  H   UNL     1      -0.351 -30.568 -51.673  1.00  0.00     0.293 HD
ENDBRANCH  34  48
BRANCH  37  50
ATOM     50  O   UNL     1      -5.609 -32.421 -51.406  1.00  0.00    -0.508 OA
ATOM     51  H   UNL     1      -5.946 -33.153 -52.023  1.00  0.00     0.293 HD
ENDBRANCH  37  50
ENDBRANCH  26  27
ENDBRANCH   5  26
BRANCH   4  52
ATOM     52  O   UNL     1      -0.012 -25.940 -51.582  1.00  0.00    -0.384 OA
ATOM     53  H   UNL     1       0.569 -26.571 -52.090  1.00  0.00     0.211 HD
ENDBRANCH   4  52
TORSDOF 16
ENDMDL
MODEL 5
REMARK VINA RESULT:    -6.665      2.476      5.534
REMARK INTER + INTRA:         -13.024
REMARK INTER:                 -11.604
REMARK INTRA:                  -1.420
REMARK UNBOUND:                -2.073
REMARK SMILES C[C@H]1O[C@@H](OC[C@H]2O[C@@H](Oc3c(-c4ccc(O)c(O)c4)oc4cc(O)cc(O)c4c3=O)[C@@H](O)[C@@H](O)[C@H]2O)[C@@H](O)[C@H](O)[C@@H]1O
REMARK SMILES IDX 7 1 36 2 34 3 32 4 9 5 8 6 6 7 5 8 4 9 1 10 2 11 42 12 3 13
REMARK SMILES IDX 40 14 38 15 43 16 41 18 39 20 37 22 35 24 10 26 11 27 12 28
REMARK SMILES IDX 30 29 21 30 29 31 31 32 22 33 27 34 23 35 26 36 24 37 13 38
REMARK SMILES IDX 20 39 14 40 18 41 15 42 16 43 19 44 17 46 28 48 25 50 33 52
REMARK H PARENT 43 17 41 19 39 21 37 23 35 25 19 45 17 47 28 49 25 51 33 53
REMARK Flexibility Score: inf
ROOT
ATOM      1  C   UNL     1      -0.549 -27.232 -53.733  1.00  0.00     0.180 C 
ATOM      2  C   UNL     1       0.384 -26.308 -52.882  1.00  0.00     0.177 C 
ATOM      3  C   UNL     1      -0.144 -24.848 -52.763  1.00  0.00     0.180 C 
ATOM      4  C   UNL     1      -0.611 -24.361 -54.144  1.00  0.00     0.214 C 
ATOM      5  C   UNL     1      -1.477 -25.386 -54.930  1.00  0.00     0.339 C 
ATOM      6  O   UNL     1      -0.870 -26.656 -55.005  1.00  0.00    -0.332 OA
ENDROOT
BRANCH   1   7
ATOM      7  C   UNL     1      -1.777 -27.839 -53.050  1.00  0.00     0.198 C 
BRANCH   7   8
ATOM      8  O   UNL     1      -1.723 -29.260 -53.109  1.00  0.00    -0.347 OA
BRANCH   8   9
ATOM      9  C   UNL     1      -1.271 -29.846 -51.901  1.00  0.00     0.281 C 
ATOM     10  C   UNL     1       0.703 -30.496 -54.258  1.00  0.00     0.041 C 
ATOM     11  C   UNL     1       0.636 -30.995 -52.808  1.00  0.00     0.150 C 
ATOM     12  C   UNL     1      -0.058 -32.368 -52.653  1.00  0.00     0.174 C 
ATOM     13  O   UNL     1       0.142 -29.986 -51.919  1.00  0.00    -0.344 OA
ATOM     14  C   UNL     1      -1.586 -32.225 -52.664  1.00  0.00     0.179 C 
ATOM     15  C   UNL     1      -2.005 -31.179 -51.623  1.00  0.00     0.202 C 
BRANCH  12  16
ATOM     16  O   UNL     1       0.379 -33.041 -51.494  1.00  0.00    -0.388 OA
ATOM     17  H   UNL     1      -0.061 -33.932 -51.460  1.00  0.00     0.211 HD
ENDBRANCH  12  16
BRANCH  14  18
ATOM     18  O   UNL     1      -2.170 -33.469 -52.349  1.00  0.00    -0.387 OA
ATOM     19  H   UNL     1      -1.710 -34.150 -52.910  1.00  0.00     0.211 HD
ENDBRANCH  14  18
BRANCH  15  20
ATOM     20  O   UNL     1      -3.396 -30.992 -51.692  1.00  0.00    -0.385 OA
ATOM     21  H   UNL     1      -3.805 -31.730 -51.161  1.00  0.00     0.211 HD
ENDBRANCH  15  20
ENDBRANCH   8   9
ENDBRANCH   7   8
ENDBRANCH   1   7
BRANCH   2  22
ATOM     22  O   UNL     1       0.673 -26.836 -51.604  1.00  0.00    -0.387 OA
ATOM     23  H   UNL     1       1.656 -27.005 -51.579  1.00  0.00     0.211 HD
ENDBRANCH   2  22
BRANCH   3  24
ATOM     24  O   UNL     1      -1.098 -24.652 -51.720  1.00  0.00    -0.387 OA
ATOM     25  H   UNL     1      -0.670 -24.829 -50.848  1.00  0.00     0.211 HD
ENDBRANCH   3  24
BRANCH   5  26
ATOM     26  O   UNL     1      -2.801 -25.481 -54.400  1.00  0.00    -0.454 OA
BRANCH  26  27
ATOM     27  C   UNL     1      -3.970 -25.116 -55.087  1.00  0.00     0.214 A 
ATOM     28  C   UNL     1      -5.220 -25.721 -54.846  1.00  0.00     0.180 A 
ATOM     29  C   UNL     1      -3.880 -24.116 -56.058  1.00  0.00     0.239 A 
ATOM     30  O   UNL     1      -6.255 -25.409 -55.613  1.00  0.00    -0.452 OA
ATOM     31  C   UNL     1      -5.025 -23.753 -56.812  1.00  0.00     0.111 A 
ATOM     32  O   UNL     1      -2.763 -23.576 -56.273  1.00  0.00    -0.285 OA
ATOM     33  C   UNL     1      -6.212 -24.487 -56.572  1.00  0.00     0.146 A 
ATOM     34  C   UNL     1      -5.042 -22.739 -57.813  1.00  0.00     0.134 A 
ATOM     35  C   UNL     1      -7.360 -24.246 -57.330  1.00  0.00     0.094 A 
ATOM     36  C   UNL     1      -6.189 -22.556 -58.595  1.00  0.00     0.093 A 
ATOM     37  C   UNL     1      -7.348 -23.296 -58.348  1.00  0.00     0.123 A 
BRANCH  28  38
ATOM     38  C   UNL     1      -5.441 -26.681 -53.737  1.00  0.00     0.025 A 
ATOM     39  C   UNL     1      -5.997 -26.250 -52.519  1.00  0.00     0.062 A 
ATOM     40  C   UNL     1      -5.105 -28.033 -53.898  1.00  0.00     0.016 A 
ATOM     41  C   UNL     1      -6.141 -27.139 -51.447  1.00  0.00     0.158 A 
ATOM     42  C   UNL     1      -5.247 -28.926 -52.829  1.00  0.00     0.051 A 
ATOM     43  C   UNL     1      -5.751 -28.479 -51.597  1.00  0.00     0.157 A 
BRANCH  41  44
ATOM     44  O   UNL     1      -6.649 -26.668 -50.235  1.00  0.00    -0.504 OA
ATOM     45  H   UNL     1      -6.051 -26.288 -49.514  1.00  0.00     0.293 HD
ENDBRANCH  41  44
BRANCH  43  46
ATOM     46  O   UNL     1      -5.863 -29.362 -50.524  1.00  0.00    -0.504 OA
ATOM     47  H   UNL     1      -6.621 -29.300 -49.856  1.00  0.00     0.293 HD
ENDBRANCH  43  46
ENDBRANCH  28  38
BRANCH  34  48
ATOM     48  O   UNL     1      -3.970 -21.875 -58.066  1.00  0.00    -0.507 OA
ATOM     49  H   UNL     1      -3.907 -20.930 -57.713  1.00  0.00     0.293 HD
ENDBRANCH  34  48
BRANCH  37  50
ATOM     50  O   UNL     1      -8.495 -23.077 -59.109  1.00  0.00    -0.508 OA
ATOM     51  H   UNL     1      -9.058 -23.844 -59.462  1.00  0.00     0.293 HD
ENDBRANCH  37  50
ENDBRANCH  26  27
ENDBRANCH   5  26
BRANCH   4  52
ATOM     52  O   UNL     1      -1.207 -23.092 -54.111  1.00  0.00    -0.384 OA
ATOM     53  H   UNL     1      -2.076 -23.178 -53.630  1.00  0.00     0.211 HD
ENDBRANCH   4  52
TORSDOF 16
ENDMDL
MODEL 6
REMARK VINA RESULT:    -6.639      1.886      6.201
REMARK INTER + INTRA:         -12.981
REMARK INTER:                 -11.817
REMARK INTRA:                  -1.164
REMARK UNBOUND:                -2.073
REMARK SMILES C[C@H]1O[C@@H](OC[C@H]2O[C@@H](Oc3c(-c4ccc(O)c(O)c4)oc4cc(O)cc(O)c4c3=O)[C@@H](O)[C@@H](O)[C@H]2O)[C@@H](O)[C@H](O)[C@@H]1O
REMARK SMILES IDX 7 1 36 2 34 3 32 4 9 5 8 6 6 7 5 8 4 9 1 10 2 11 42 12 3 13
REMARK SMILES IDX 40 14 38 15 43 16 41 18 39 20 37 22 35 24 10 26 11 27 12 28
REMARK SMILES IDX 30 29 21 30 29 31 31 32 22 33 27 34 23 35 26 36 24 37 13 38
REMARK SMILES IDX 20 39 14 40 18 41 15 42 16 43 19 44 17 46 28 48 25 50 33 52
REMARK H PARENT 43 17 41 19 39 21 37 23 35 25 19 45 17 47 28 49 25 51 33 53
REMARK Flexibility Score: inf
ROOT
ATOM      1  C   UNL     1       0.245 -24.951 -55.278  1.00  0.00     0.180 C 
ATOM      2  C   UNL     1       0.568 -23.487 -54.829  1.00  0.00     0.177 C 
ATOM      3  C   UNL     1      -0.402 -22.954 -53.735  1.00  0.00     0.180 C 
ATOM      4  C   UNL     1      -1.847 -23.310 -54.119  1.00  0.00     0.214 C 
ATOM      5  C   UNL     1      -2.042 -24.771 -54.614  1.00  0.00     0.339 C 
ATOM      6  O   UNL     1      -1.133 -25.117 -55.635  1.00  0.00    -0.332 OA
ENDROOT
BRANCH   1   7
ATOM      7  C   UNL     1       0.757 -26.100 -54.407  1.00  0.00     0.198 C 
BRANCH   7   8
ATOM      8  O   UNL     1       1.671 -26.908 -55.141  1.00  0.00    -0.347 OA
BRANCH   8   9
ATOM      9  C   UNL     1       1.090 -28.111 -55.610  1.00  0.00     0.281 C 
ATOM     10  C   UNL     1       4.125 -28.540 -54.912  1.00  0.00     0.041 C 
ATOM     11  C   UNL     1       3.088 -29.450 -55.585  1.00  0.00     0.150 C 
ATOM     12  C   UNL     1       3.165 -29.449 -57.129  1.00  0.00     0.174 C 
ATOM     13  O   UNL     1       1.771 -29.233 -55.065  1.00  0.00    -0.344 OA
ATOM     14  C   UNL     1       2.458 -28.222 -57.722  1.00  0.00     0.179 C 
ATOM     15  C   UNL     1       1.035 -28.135 -57.156  1.00  0.00     0.202 C 
BRANCH  12  16
ATOM     16  O   UNL     1       2.651 -30.642 -57.675  1.00  0.00    -0.388 OA
ATOM     17  H   UNL     1       2.939 -30.707 -58.624  1.00  0.00     0.211 HD
ENDBRANCH  12  16
BRANCH  14  18
ATOM     18  O   UNL     1       2.405 -28.351 -59.125  1.00  0.00    -0.387 OA
ATOM     19  H   UNL     1       2.479 -27.433 -59.499  1.00  0.00     0.211 HD
ENDBRANCH  14  18
BRANCH  15  20
ATOM     20  O   UNL     1       0.419 -26.967 -57.637  1.00  0.00    -0.385 OA
ATOM     21  H   UNL     1       0.803 -26.801 -58.543  1.00  0.00     0.211 HD
ENDBRANCH  15  20
ENDBRANCH   8   9
ENDBRANCH   7   8
ENDBRANCH   1   7
BRANCH   2  22
ATOM     22  O   UNL     1       1.912 -23.313 -54.427  1.00  0.00    -0.387 OA
ATOM     23  H   UNL     1       2.034 -22.339 -54.248  1.00  0.00     0.211 HD
ENDBRANCH   2  22
BRANCH   3  24
ATOM     24  O   UNL     1      -0.043 -23.320 -52.403  1.00  0.00    -0.387 OA
ATOM     25  H   UNL     1      -0.555 -24.120 -52.134  1.00  0.00     0.211 HD
ENDBRANCH   3  24
BRANCH   5  26
ATOM     26  O   UNL     1      -1.986 -25.710 -53.538  1.00  0.00    -0.454 OA
BRANCH  26  27
ATOM     27  C   UNL     1      -2.749 -26.885 -53.456  1.00  0.00     0.214 A 
ATOM     28  C   UNL     1      -4.091 -26.958 -53.886  1.00  0.00     0.180 A 
ATOM     29  C   UNL     1      -2.151 -28.025 -52.914  1.00  0.00     0.239 A 
ATOM     30  O   UNL     1      -4.786 -28.066 -53.670  1.00  0.00    -0.452 OA
ATOM     31  C   UNL     1      -2.903 -29.219 -52.765  1.00  0.00     0.111 A 
ATOM     32  O   UNL     1      -0.954 -27.959 -52.531  1.00  0.00    -0.285 OA
ATOM     33  C   UNL     1      -4.271 -29.167 -53.129  1.00  0.00     0.146 A 
ATOM     34  C   UNL     1      -2.383 -30.437 -52.239  1.00  0.00     0.134 A 
ATOM     35  C   UNL     1      -5.098 -30.276 -52.935  1.00  0.00     0.094 A 
ATOM     36  C   UNL     1      -3.247 -31.514 -52.004  1.00  0.00     0.093 A 
ATOM     37  C   UNL     1      -4.596 -31.441 -52.361  1.00  0.00     0.123 A 
BRANCH  28  38
ATOM     38  C   UNL     1      -4.758 -25.847 -54.606  1.00  0.00     0.025 A 
ATOM     39  C   UNL     1      -4.914 -25.893 -56.003  1.00  0.00     0.062 A 
ATOM     40  C   UNL     1      -5.251 -24.742 -53.896  1.00  0.00     0.016 A 
ATOM     41  C   UNL     1      -5.480 -24.815 -56.693  1.00  0.00     0.158 A 
ATOM     42  C   UNL     1      -5.818 -23.661 -54.582  1.00  0.00     0.051 A 
ATOM     43  C   UNL     1      -5.921 -23.687 -55.982  1.00  0.00     0.157 A 
BRANCH  41  44
ATOM     44  O   UNL     1      -5.574 -24.869 -58.085  1.00  0.00    -0.504 OA
ATOM     45  H   UNL     1      -6.142 -24.219 -58.611  1.00  0.00     0.293 HD
ENDBRANCH  41  44
BRANCH  43  46
ATOM     46  O   UNL     1      -6.458 -22.597 -56.666  1.00  0.00    -0.504 OA
ATOM     47  H   UNL     1      -7.281 -22.110 -56.335  1.00  0.00     0.293 HD
ENDBRANCH  43  46
ENDBRANCH  28  38
BRANCH  34  48
ATOM     48  O   UNL     1      -1.031 -30.646 -51.947  1.00  0.00    -0.507 OA
ATOM     49  H   UNL     1      -0.695 -31.270 -51.226  1.00  0.00     0.293 HD
ENDBRANCH  34  48
BRANCH  37  50
ATOM     50  O   UNL     1      -5.435 -32.534 -52.158  1.00  0.00    -0.508 OA
ATOM     51  H   UNL     1      -5.146 -33.336 -51.607  1.00  0.00     0.293 HD
ENDBRANCH  37  50
ENDBRANCH  26  27
ENDBRANCH   5  26
BRANCH   4  52
ATOM     52  O   UNL     1      -2.783 -22.965 -53.132  1.00  0.00    -0.384 OA
ATOM     53  H   UNL     1      -2.278 -22.726 -52.307  1.00  0.00     0.211 HD
ENDBRANCH   4  52
TORSDOF 16
ENDMDL
MODEL 7
REMARK VINA RESULT:    -6.443      2.072      6.670
REMARK INTER + INTRA:         -12.659
REMARK INTER:                 -11.925
REMARK INTRA:                  -0.733
REMARK UNBOUND:                -2.073
REMARK SMILES C[C@H]1O[C@@H](OC[C@H]2O[C@@H](Oc3c(-c4ccc(O)c(O)c4)oc4cc(O)cc(O)c4c3=O)[C@@H](O)[C@@H](O)[C@H]2O)[C@@H](O)[C@H](O)[C@@H]1O
REMARK SMILES IDX 7 1 36 2 34 3 32 4 9 5 8 6 6 7 5 8 4 9 1 10 2 11 42 12 3 13
REMARK SMILES IDX 40 14 38 15 43 16 41 18 39 20 37 22 35 24 10 26 11 27 12 28
REMARK SMILES IDX 30 29 21 30 29 31 31 32 22 33 27 34 23 35 26 36 24 37 13 38
REMARK SMILES IDX 20 39 14 40 18 41 15 42 16 43 19 44 17 46 28 48 25 50 33 52
REMARK H PARENT 43 17 41 19 39 21 37 23 35 25 19 45 17 47 28 49 25 51 33 53
REMARK Flexibility Score: inf
ROOT
ATOM      1  C   UNL     1      -5.211 -27.996 -54.619  1.00  0.00     0.180 C 
ATOM      2  C   UNL     1      -6.487 -27.960 -53.713  1.00  0.00     0.177 C 
ATOM      3  C   UNL     1      -6.190 -28.296 -52.222  1.00  0.00     0.180 C 
ATOM      4  C   UNL     1      -5.264 -29.521 -52.152  1.00  0.00     0.214 C 
ATOM      5  C   UNL     1      -4.066 -29.482 -53.142  1.00  0.00     0.339 C 
ATOM      6  O   UNL     1      -4.471 -29.214 -54.465  1.00  0.00    -0.332 OA
ENDROOT
BRANCH   1   7
ATOM      7  C   UNL     1      -4.301 -26.766 -54.628  1.00  0.00     0.198 C 
BRANCH   7   8
ATOM      8  O   UNL     1      -5.048 -25.600 -54.957  1.00  0.00    -0.347 OA
BRANCH   8   9
ATOM      9  C   UNL     1      -4.934 -25.239 -56.322  1.00  0.00     0.281 C 
ATOM     10  C   UNL     1      -3.494 -23.129 -54.492  1.00  0.00     0.041 C 
ATOM     11  C   UNL     1      -3.797 -23.146 -55.996  1.00  0.00     0.150 C 
ATOM     12  C   UNL     1      -5.061 -22.344 -56.386  1.00  0.00     0.174 C 
ATOM     13  O   UNL     1      -3.757 -24.473 -56.534  1.00  0.00    -0.344 OA
ATOM     14  C   UNL     1      -6.338 -23.157 -56.130  1.00  0.00     0.179 C 
ATOM     15  C   UNL     1      -6.214 -24.524 -56.815  1.00  0.00     0.202 C 
BRANCH  12  16
ATOM     16  O   UNL     1      -5.002 -21.902 -57.723  1.00  0.00    -0.388 OA
ATOM     17  H   UNL     1      -5.609 -21.122 -57.826  1.00  0.00     0.211 HD
ENDBRANCH  12  16
BRANCH  14  18
ATOM     18  O   UNL     1      -7.444 -22.460 -56.656  1.00  0.00    -0.387 OA
ATOM     19  H   UNL     1      -7.786 -21.875 -55.928  1.00  0.00     0.211 HD
ENDBRANCH  14  18
BRANCH  15  20
ATOM     20  O   UNL     1      -7.349 -25.295 -56.510  1.00  0.00    -0.385 OA
ATOM     21  H   UNL     1      -8.019 -25.101 -57.223  1.00  0.00     0.211 HD
ENDBRANCH  15  20
ENDBRANCH   8   9
ENDBRANCH   7   8
ENDBRANCH   1   7
BRANCH   2  22
ATOM     22  O   UNL     1      -7.205 -26.747 -53.813  1.00  0.00    -0.387 OA
ATOM     23  H   UNL     1      -6.836 -26.259 -54.601  1.00  0.00     0.211 HD
ENDBRANCH   2  22
BRANCH   3  24
ATOM     24  O   UNL     1      -5.747 -27.183 -51.447  1.00  0.00    -0.387 OA
ATOM     25  H   UNL     1      -6.522 -26.765 -51.002  1.00  0.00     0.211 HD
ENDBRANCH   3  24
BRANCH   5  26
ATOM     26  O   UNL     1      -3.055 -28.565 -52.718  1.00  0.00    -0.454 OA
BRANCH  26  27
ATOM     27  C   UNL     1      -1.744 -28.527 -53.218  1.00  0.00     0.214 A 
ATOM     28  C   UNL     1      -0.864 -29.627 -53.143  1.00  0.00     0.180 A 
ATOM     29  C   UNL     1      -1.293 -27.341 -53.803  1.00  0.00     0.239 A 
ATOM     30  O   UNL     1       0.396 -29.482 -53.529  1.00  0.00    -0.452 OA
ATOM     31  C   UNL     1       0.041 -27.243 -54.272  1.00  0.00     0.111 A 
ATOM     32  O   UNL     1      -2.079 -26.360 -53.868  1.00  0.00    -0.285 OA
ATOM     33  C   UNL     1       0.881 -28.364 -54.062  1.00  0.00     0.146 A 
ATOM     34  C   UNL     1       0.592 -26.086 -54.896  1.00  0.00     0.134 A 
ATOM     35  C   UNL     1       2.230 -28.317 -54.422  1.00  0.00     0.094 A 
ATOM     36  C   UNL     1       1.959 -26.046 -55.196  1.00  0.00     0.093 A 
ATOM     37  C   UNL     1       2.774 -27.159 -54.972  1.00  0.00     0.123 A 
BRANCH  28  38
ATOM     38  C   UNL     1      -1.300 -30.966 -52.678  1.00  0.00     0.025 A 
ATOM     39  C   UNL     1      -1.621 -31.183 -51.326  1.00  0.00     0.062 A 
ATOM     40  C   UNL     1      -1.405 -32.029 -53.587  1.00  0.00     0.016 A 
ATOM     41  C   UNL     1      -1.964 -32.461 -50.870  1.00  0.00     0.158 A 
ATOM     42  C   UNL     1      -1.748 -33.310 -53.137  1.00  0.00     0.051 A 
ATOM     43  C   UNL     1      -2.014 -33.533 -51.776  1.00  0.00     0.157 A 
BRANCH  41  44
ATOM     44  O   UNL     1      -2.228 -32.654 -49.513  1.00  0.00    -0.504 OA
ATOM     45  H   UNL     1      -3.171 -32.685 -49.149  1.00  0.00     0.293 HD
ENDBRANCH  41  44
BRANCH  43  46
ATOM     46  O   UNL     1      -2.325 -34.814 -51.324  1.00  0.00    -0.504 OA
ATOM     47  H   UNL     1      -2.133 -35.109 -50.375  1.00  0.00     0.293 HD
ENDBRANCH  43  46
ENDBRANCH  28  38
BRANCH  34  48
ATOM     48  O   UNL     1      -0.159 -24.962 -55.256  1.00  0.00    -0.507 OA
ATOM     49  H   UNL     1      -0.335 -24.679 -56.210  1.00  0.00     0.293 HD
ENDBRANCH  34  48
BRANCH  37  50
ATOM     50  O   UNL     1       4.125 -27.118 -55.312  1.00  0.00    -0.508 OA
ATOM     51  H   UNL     1       4.507 -26.387 -55.903  1.00  0.00     0.293 HD
ENDBRANCH  37  50
ENDBRANCH  26  27
ENDBRANCH   5  26
BRANCH   4  52
ATOM     52  O   UNL     1      -4.852 -29.829 -50.847  1.00  0.00    -0.384 OA
ATOM     53  H   UNL     1      -5.297 -30.682 -50.583  1.00  0.00     0.211 HD
ENDBRANCH   4  52
TORSDOF 16
ENDMDL
MODEL 8
REMARK VINA RESULT:    -6.429      2.524      7.532
REMARK INTER + INTRA:         -12.637
REMARK INTER:                  -9.481
REMARK INTRA:                  -3.156
REMARK UNBOUND:                -2.073
REMARK SMILES C[C@H]1O[C@@H](OC[C@H]2O[C@@H](Oc3c(-c4ccc(O)c(O)c4)oc4cc(O)cc(O)c4c3=O)[C@@H](O)[C@@H](O)[C@H]2O)[C@@H](O)[C@H](O)[C@@H]1O
REMARK SMILES IDX 7 1 36 2 34 3 32 4 9 5 8 6 6 7 5 8 4 9 1 10 2 11 42 12 3 13
REMARK SMILES IDX 40 14 38 15 43 16 41 18 39 20 37 22 35 24 10 26 11 27 12 28
REMARK SMILES IDX 30 29 21 30 29 31 31 32 22 33 27 34 23 35 26 36 24 37 13 38
REMARK SMILES IDX 20 39 14 40 18 41 15 42 16 43 19 44 17 46 28 48 25 50 33 52
REMARK H PARENT 43 17 41 19 39 21 37 23 35 25 19 45 17 47 28 49 25 51 33 53
REMARK Flexibility Score: inf
ROOT
ATOM      1  C   UNL     1      -4.475 -26.908 -53.309  1.00  0.00     0.180 C 
ATOM      2  C   UNL     1      -5.837 -26.579 -54.007  1.00  0.00     0.177 C 
ATOM      3  C   UNL     1      -5.684 -25.627 -55.229  1.00  0.00     0.180 C 
ATOM      4  C   UNL     1      -4.741 -24.471 -54.859  1.00  0.00     0.214 C 
ATOM      5  C   UNL     1      -3.450 -24.906 -54.110  1.00  0.00     0.339 C 
ATOM      6  O   UNL     1      -3.725 -25.727 -52.998  1.00  0.00    -0.332 OA
ENDROOT
BRANCH   1   7
ATOM      7  C   UNL     1      -3.599 -28.002 -53.923  1.00  0.00     0.198 C 
BRANCH   7   8
ATOM      8  O   UNL     1      -3.514 -29.119 -53.045  1.00  0.00    -0.347 OA
BRANCH   8   9
ATOM      9  C   UNL     1      -4.273 -30.229 -53.489  1.00  0.00     0.281 C 
ATOM     10  C   UNL     1      -5.491 -29.034 -50.850  1.00  0.00     0.041 C 
ATOM     11  C   UNL     1      -5.822 -30.301 -51.652  1.00  0.00     0.150 C 
ATOM     12  C   UNL     1      -5.168 -31.584 -51.088  1.00  0.00     0.174 C 
ATOM     13  O   UNL     1      -5.620 -30.110 -53.057  1.00  0.00    -0.344 OA
ATOM     14  C   UNL     1      -3.702 -31.701 -51.527  1.00  0.00     0.179 C 
ATOM     15  C   UNL     1      -3.616 -31.560 -53.052  1.00  0.00     0.202 C 
BRANCH  12  16
ATOM     16  O   UNL     1      -5.897 -32.736 -51.444  1.00  0.00    -0.388 OA
ATOM     17  H   UNL     1      -6.472 -32.997 -50.677  1.00  0.00     0.211 HD
ENDBRANCH  12  16
BRANCH  14  18
ATOM     18  O   UNL     1      -3.201 -32.960 -51.137  1.00  0.00    -0.387 OA
ATOM     19  H   UNL     1      -2.737 -32.826 -50.268  1.00  0.00     0.211 HD
ENDBRANCH  14  18
BRANCH  15  20
ATOM     20  O   UNL     1      -2.267 -31.586 -53.442  1.00  0.00    -0.385 OA
ATOM     21  H   UNL     1      -1.912 -30.666 -53.289  1.00  0.00     0.211 HD
ENDBRANCH  15  20
ENDBRANCH   8   9
ENDBRANCH   7   8
ENDBRANCH   1   7
BRANCH   2  22
ATOM     22  O   UNL     1      -6.571 -27.732 -54.365  1.00  0.00    -0.387 OA
ATOM     23  H   UNL     1      -7.508 -27.581 -54.061  1.00  0.00     0.211 HD
ENDBRANCH   2  22
BRANCH   3  24
ATOM     24  O   UNL     1      -5.350 -26.288 -56.449  1.00  0.00    -0.387 OA
ATOM     25  H   UNL     1      -4.476 -25.959 -56.770  1.00  0.00     0.211 HD
ENDBRANCH   3  24
BRANCH   5  26
ATOM     26  O   UNL     1      -2.510 -25.530 -54.988  1.00  0.00    -0.454 OA
BRANCH  26  27
ATOM     27  C   UNL     1      -1.210 -25.062 -55.237  1.00  0.00     0.214 A 
ATOM     28  C   UNL     1      -0.074 -25.566 -54.569  1.00  0.00     0.180 A 
ATOM     29  C   UNL     1      -1.043 -24.045 -56.181  1.00  0.00     0.239 A 
ATOM     30  O   UNL     1       1.106 -24.996 -54.769  1.00  0.00    -0.452 OA
ATOM     31  C   UNL     1       0.247 -23.507 -56.424  1.00  0.00     0.111 A 
ATOM     32  O   UNL     1      -2.057 -23.596 -56.776  1.00  0.00    -0.285 OA
ATOM     33  C   UNL     1       1.311 -24.005 -55.632  1.00  0.00     0.146 A 
ATOM     34  C   UNL     1       0.525 -22.482 -57.373  1.00  0.00     0.134 A 
ATOM     35  C   UNL     1       2.595 -23.469 -55.754  1.00  0.00     0.094 A 
ATOM     36  C   UNL     1       1.808 -21.926 -57.436  1.00  0.00     0.093 A 
ATOM     37  C   UNL     1       2.843 -22.423 -56.640  1.00  0.00     0.123 A 
BRANCH  28  38
ATOM     38  C   UNL     1      -0.136 -26.740 -53.667  1.00  0.00     0.025 A 
ATOM     39  C   UNL     1       0.214 -28.020 -54.133  1.00  0.00     0.062 A 
ATOM     40  C   UNL     1      -0.536 -26.582 -52.331  1.00  0.00     0.016 A 
ATOM     41  C   UNL     1       0.089 -29.140 -53.304  1.00  0.00     0.158 A 
ATOM     42  C   UNL     1      -0.663 -27.700 -51.497  1.00  0.00     0.051 A 
ATOM     43  C   UNL     1      -0.365 -28.983 -51.985  1.00  0.00     0.157 A 
BRANCH  41  44
ATOM     44  O   UNL     1       0.396 -30.403 -53.813  1.00  0.00    -0.504 OA
ATOM     45  H   UNL     1      -0.253 -30.922 -54.388  1.00  0.00     0.293 HD
ENDBRANCH  41  44
BRANCH  43  46
ATOM     46  O   UNL     1      -0.520 -30.098 -51.162  1.00  0.00    -0.504 OA
ATOM     47  H   UNL     1      -0.150 -30.125 -50.221  1.00  0.00     0.293 HD
ENDBRANCH  43  46
ENDBRANCH  28  38
BRANCH  34  48
ATOM     48  O   UNL     1      -0.414 -21.989 -58.286  1.00  0.00    -0.507 OA
ATOM     49  H   UNL     1      -1.412 -21.979 -58.125  1.00  0.00     0.293 HD
ENDBRANCH  34  48
BRANCH  37  50
ATOM     50  O   UNL     1       4.125 -21.886 -56.740  1.00  0.00    -0.508 OA
ATOM     51  H   UNL     1       4.742 -21.819 -55.937  1.00  0.00     0.293 HD
ENDBRANCH  37  50
ENDBRANCH  26  27
ENDBRANCH   5  26
BRANCH   4  52
ATOM     52  O   UNL     1      -4.457 -23.622 -55.939  1.00  0.00    -0.384 OA
ATOM     53  H   UNL     1      -3.466 -23.527 -55.996  1.00  0.00     0.211 HD
ENDBRANCH   4  52
TORSDOF 16
ENDMDL
MODEL 9
REMARK VINA RESULT:    -6.383      2.620      7.432
REMARK INTER + INTRA:         -12.561
REMARK INTER:                 -10.385
REMARK INTRA:                  -2.176
REMARK UNBOUND:                -2.073
REMARK SMILES C[C@H]1O[C@@H](OC[C@H]2O[C@@H](Oc3c(-c4ccc(O)c(O)c4)oc4cc(O)cc(O)c4c3=O)[C@@H](O)[C@@H](O)[C@H]2O)[C@@H](O)[C@H](O)[C@@H]1O
REMARK SMILES IDX 7 1 36 2 34 3 32 4 9 5 8 6 6 7 5 8 4 9 1 10 2 11 42 12 3 13
REMARK SMILES IDX 40 14 38 15 43 16 41 18 39 20 37 22 35 24 10 26 11 27 12 28
REMARK SMILES IDX 30 29 21 30 29 31 31 32 22 33 27 34 23 35 26 36 24 37 13 38
REMARK SMILES IDX 20 39 14 40 18 41 15 42 16 43 19 44 17 46 28 48 25 50 33 52
REMARK H PARENT 43 17 41 19 39 21 37 23 35 25 19 45 17 47 28 49 25 51 33 53
REMARK Flexibility Score: inf
ROOT
ATOM      1  C   UNL     1      -2.946 -24.306 -55.995  1.00  0.00     0.180 C 
ATOM      2  C   UNL     1      -3.951 -23.166 -55.621  1.00  0.00     0.177 C 
ATOM      3  C   UNL     1      -4.686 -23.414 -54.272  1.00  0.00     0.180 C 
ATOM      4  C   UNL     1      -5.165 -24.874 -54.215  1.00  0.00     0.214 C 
ATOM      5  C   UNL     1      -4.108 -25.919 -54.671  1.00  0.00     0.339 C 
ATOM      6  O   UNL     1      -3.550 -25.604 -55.927  1.00  0.00    -0.332 OA
ENDROOT
BRANCH   1   7
ATOM      7  C   UNL     1      -1.559 -24.281 -55.351  1.00  0.00     0.198 C 
BRANCH   7   8
ATOM      8  O   UNL     1      -0.554 -24.518 -56.331  1.00  0.00    -0.347 OA
BRANCH   8   9
ATOM      9  C   UNL     1      -0.269 -23.374 -57.117  1.00  0.00     0.281 C 
ATOM     10  C   UNL     1       1.023 -25.944 -58.384  1.00  0.00     0.041 C 
ATOM     11  C   UNL     1       1.144 -24.454 -58.735  1.00  0.00     0.150 C 
ATOM     12  C   UNL     1       2.407 -23.777 -58.154  1.00  0.00     0.174 C 
ATOM     13  O   UNL     1      -0.073 -23.745 -58.474  1.00  0.00    -0.344 OA
ATOM     14  C   UNL     1       2.211 -23.403 -56.679  1.00  0.00     0.179 C 
ATOM     15  C   UNL     1       0.923 -22.583 -56.530  1.00  0.00     0.202 C 
BRANCH  12  16
ATOM     16  O   UNL     1       2.789 -22.653 -58.915  1.00  0.00    -0.388 OA
ATOM     17  H   UNL     1       3.031 -22.957 -59.829  1.00  0.00     0.211 HD
ENDBRANCH  12  16
BRANCH  14  18
ATOM     18  O   UNL     1       3.314 -22.641 -56.243  1.00  0.00    -0.387 OA
ATOM     19  H   UNL     1       2.963 -21.740 -56.008  1.00  0.00     0.211 HD
ENDBRANCH  14  18
BRANCH  15  20
ATOM     20  O   UNL     1       0.704 -22.312 -55.169  1.00  0.00    -0.385 OA
ATOM     21  H   UNL     1       0.822 -21.328 -55.057  1.00  0.00     0.211 HD
ENDBRANCH  15  20
ENDBRANCH   8   9
ENDBRANCH   7   8
ENDBRANCH   1   7
BRANCH   2  22
ATOM     22  O   UNL     1      -3.363 -21.880 -55.636  1.00  0.00    -0.387 OA
ATOM     23  H   UNL     1      -3.105 -21.673 -54.695  1.00  0.00     0.211 HD
ENDBRANCH   2  22
BRANCH   3  24
ATOM     24  O   UNL     1      -3.956 -22.993 -53.120  1.00  0.00    -0.387 OA
ATOM     25  H   UNL     1      -4.123 -22.034 -52.960  1.00  0.00     0.211 HD
ENDBRANCH   3  24
BRANCH   5  26
ATOM     26  O   UNL     1      -3.088 -26.107 -53.688  1.00  0.00    -0.454 OA
BRANCH  26  27
ATOM     27  C   UNL     1      -2.698 -27.348 -53.162  1.00  0.00     0.214 A 
ATOM     28  C   UNL     1      -1.356 -27.670 -52.874  1.00  0.00     0.180 A 
ATOM     29  C   UNL     1      -3.688 -28.306 -52.927  1.00  0.00     0.239 A 
ATOM     30  O   UNL     1      -1.048 -28.902 -52.490  1.00  0.00    -0.452 OA
ATOM     31  C   UNL     1      -3.332 -29.592 -52.446  1.00  0.00     0.111 A 
ATOM     32  O   UNL     1      -4.885 -28.018 -53.186  1.00  0.00    -0.285 OA
ATOM     33  C   UNL     1      -1.950 -29.858 -52.283  1.00  0.00     0.146 A 
ATOM     34  C   UNL     1      -4.264 -30.631 -52.161  1.00  0.00     0.134 A 
ATOM     35  C   UNL     1      -1.514 -31.125 -51.891  1.00  0.00     0.094 A 
ATOM     36  C   UNL     1      -3.797 -31.907 -51.823  1.00  0.00     0.093 A 
ATOM     37  C   UNL     1      -2.429 -32.153 -51.676  1.00  0.00     0.123 A 
BRANCH  28  38
ATOM     38  C   UNL     1      -0.263 -26.672 -52.950  1.00  0.00     0.025 A 
ATOM     39  C   UNL     1      -0.205 -25.603 -52.037  1.00  0.00     0.062 A 
ATOM     40  C   UNL     1       0.734 -26.791 -53.930  1.00  0.00     0.016 A 
ATOM     41  C   UNL     1       0.785 -24.621 -52.151  1.00  0.00     0.158 A 
ATOM     42  C   UNL     1       1.727 -25.811 -54.048  1.00  0.00     0.051 A 
ATOM     43  C   UNL     1       1.747 -24.716 -53.169  1.00  0.00     0.157 A 
BRANCH  41  44
ATOM     44  O   UNL     1       0.784 -23.545 -51.261  1.00  0.00    -0.504 OA
ATOM     45  H   UNL     1       0.072 -22.827 -51.287  1.00  0.00     0.293 HD
ENDBRANCH  41  44
BRANCH  43  46
ATOM     46  O   UNL     1       2.718 -23.725 -53.306  1.00  0.00    -0.504 OA
ATOM     47  H   UNL     1       3.566 -23.876 -53.836  1.00  0.00     0.293 HD
ENDBRANCH  43  46
ENDBRANCH  28  38
BRANCH  34  48
ATOM     48  O   UNL     1      -5.652 -30.459 -52.178  1.00  0.00    -0.507 OA
ATOM     49  H   UNL     1      -6.238 -30.645 -52.980  1.00  0.00     0.293 HD
ENDBRANCH  34  48
BRANCH  37  50
ATOM     50  O   UNL     1      -1.980 -33.417 -51.302  1.00  0.00    -0.508 OA
ATOM     51  H   UNL     1      -2.605 -34.215 -51.255  1.00  0.00     0.293 HD
ENDBRANCH  37  50
ENDBRANCH  26  27
ENDBRANCH   5  26
BRANCH   4  52
ATOM     52  O   UNL     1      -5.743 -25.219 -52.984  1.00  0.00    -0.384 OA
ATOM     53  H   UNL     1      -5.162 -25.910 -52.561  1.00  0.00     0.211 HD
ENDBRANCH   4  52
TORSDOF 16
ENDMDL
