MODEL 1
REMARK VINA RESULT:    -3.216      0.000      0.000
REMARK INTER + INTRA:         -14.573
REMARK INTER:                  -8.481
REMARK INTRA:                  -6.091
REMARK UNBOUND:                -6.091
REMARK SMILES CCCCCCCCCCCCCCCCCCCCCCCCCCCCCC(=O)[O-]
REMARK SMILES IDX 16 1 17 2 18 3 19 4 20 5 21 6 22 7 23 8 24 9 25 10 26 11
REMARK SMILES IDX 27 12 28 13 29 14 30 15 31 16 32 17 15 18 14 19 13 20 12 21
REMARK SMILES IDX 11 22 10 23 9 24 8 25 7 26 6 27 5 28 4 29 3 30 2 31 1 32
REMARK H PARENT
REMARK Flexibility Score: inf
ROOT
ATOM      1  C   UNL     1      48.718  33.773  86.818  1.00  0.00     0.000 C 
ENDROOT
BRANCH   1   2
ATOM      2  C   UNL     1      47.887  33.031  87.875  1.00  0.00     0.000 C 
BRANCH   2   3
ATOM      3  C   UNL     1      47.511  31.623  87.395  1.00  0.00     0.000 C 
BRANCH   3   4
ATOM      4  C   UNL     1      46.441  30.959  88.278  1.00  0.00     0.000 C 
BRANCH   4   5
ATOM      5  C   UNL     1      46.491  31.410  89.753  1.00  0.00     0.000 C 
BRANCH   5   6
ATOM      6  C   UNL     1      47.396  30.505  90.608  1.00  0.00     0.000 C 
BRANCH   6   7
ATOM      7  C   UNL     1      48.782  31.121  90.857  1.00  0.00     0.000 C 
BRANCH   7   8
ATOM      8  C   UNL     1      49.894  30.424  90.051  1.00  0.00     0.000 C 
BRANCH   8   9
ATOM      9  C   UNL     1      50.988  31.398  89.584  1.00  0.00     0.000 C 
BRANCH   9  10
ATOM     10  C   UNL     1      51.260  31.294  88.073  1.00  0.00     0.000 C 
BRANCH  10  11
ATOM     11  C   UNL     1      52.381  30.296  87.743  1.00  0.00     0.000 C 
BRANCH  11  12
ATOM     12  C   UNL     1      53.661  30.984  87.235  1.00  0.00     0.000 C 
BRANCH  12  13
ATOM     13  C   UNL     1      54.663  31.288  88.367  1.00  0.00     0.006 C 
BRANCH  13  14
ATOM     14  C   UNL     1      54.807  32.782  88.697  1.00  0.00     0.053 C 
BRANCH  14  15
ATOM     15  C   UNL     1      54.346  33.100  90.088  1.00  0.00     0.041 C 
ATOM     16  O   UNL     1      54.141  32.170  90.915  1.00  0.00    -0.550 OA
ATOM     17  O   UNL     1      54.189  34.421  90.482  1.00  0.00    -0.550 OA
ENDBRANCH  14  15
ENDBRANCH  13  14
ENDBRANCH  12  13
ENDBRANCH  11  12
ENDBRANCH  10  11
ENDBRANCH   9  10
ENDBRANCH   8   9
ENDBRANCH   7   8
ENDBRANCH   6   7
ENDBRANCH   5   6
ENDBRANCH   4   5
ENDBRANCH   3   4
ENDBRANCH   2   3
ENDBRANCH   1   2
BRANCH   1  18
ATOM     18  C   UNL     1      48.705  35.288  87.072  1.00  0.00     0.000 C 
BRANCH  18  19
ATOM     19  C   UNL     1      50.110  35.850  87.371  1.00  0.00     0.000 C 
BRANCH  19  20
ATOM     20  C   UNL     1      51.141  34.778  87.789  1.00  0.00     0.000 C 
BRANCH  20  21
ATOM     21  C   UNL     1      52.568  35.078  87.294  1.00  0.00     0.000 C 
BRANCH  21  22
ATOM     22  C   UNL     1      52.665  35.111  85.755  1.00  0.00     0.000 C 
BRANCH  22  23
ATOM     23  C   UNL     1      52.949  33.722  85.154  1.00  0.00     0.000 C 
BRANCH  23  24
ATOM     24  C   UNL     1      51.721  33.036  84.516  1.00  0.00    -0.000 C 
BRANCH  24  25
ATOM     25  C   UNL     1      51.677  33.051  82.971  1.00  0.00    -0.000 C 
BRANCH  25  26
ATOM     26  C   UNL     1      50.569  33.925  82.354  1.00  0.00    -0.000 C 
BRANCH  26  27
ATOM     27  C   UNL     1      49.803  34.739  83.411  1.00  0.00    -0.000 C 
BRANCH  27  28
ATOM     28  C   UNL     1      48.281  34.517  83.347  1.00  0.00    -0.000 C 
BRANCH  28  29
ATOM     29  C   UNL     1      47.907  33.179  82.687  1.00  0.00    -0.000 C 
BRANCH  29  30
ATOM     30  C   UNL     1      47.519  32.099  83.713  1.00  0.00    -0.000 C 
BRANCH  30  31
ATOM     31  C   UNL     1      48.631  31.064  83.931  1.00  0.00    -0.003 C 
ATOM     32  C   UNL     1      49.057  30.430  82.611  1.00  0.00     0.004 C 
ENDBRANCH  30  31
ENDBRANCH  29  30
ENDBRANCH  28  29
ENDBRANCH  27  28
ENDBRANCH  26  27
ENDBRANCH  25  26
ENDBRANCH  24  25
ENDBRANCH  23  24
ENDBRANCH  22  23
ENDBRANCH  21  22
ENDBRANCH  20  21
ENDBRANCH  19  20
ENDBRANCH  18  19
ENDBRANCH   1  18
TORSDOF 28
ENDMDL
MODEL 2
REMARK VINA RESULT:    -3.175      3.088      7.284
REMARK INTER + INTRA:         -14.465
REMARK INTER:                  -9.084
REMARK INTRA:                  -5.381
REMARK UNBOUND:                -6.091
REMARK SMILES CCCCCCCCCCCCCCCCCCCCCCCCCCCCCC(=O)[O-]
REMARK SMILES IDX 16 1 17 2 18 3 19 4 20 5 21 6 22 7 23 8 24 9 25 10 26 11
REMARK SMILES IDX 27 12 28 13 29 14 30 15 31 16 32 17 15 18 14 19 13 20 12 21
REMARK SMILES IDX 11 22 10 23 9 24 8 25 7 26 6 27 5 28 4 29 3 30 2 31 1 32
REMARK H PARENT
REMARK Flexibility Score: inf
ROOT
ATOM      1  C   UNL     1      48.827  31.551  87.139  1.00  0.00     0.000 C 
ENDROOT
BRANCH   1   2
ATOM      2  C   UNL     1      48.120  32.909  87.258  1.00  0.00     0.000 C 
BRANCH   2   3
ATOM      3  C   UNL     1      48.866  33.991  86.467  1.00  0.00     0.000 C 
BRANCH   3   4
ATOM      4  C   UNL     1      48.771  35.380  87.123  1.00  0.00     0.000 C 
BRANCH   4   5
ATOM      5  C   UNL     1      50.141  35.969  87.522  1.00  0.00     0.000 C 
BRANCH   5   6
ATOM      6  C   UNL     1      51.250  34.902  87.543  1.00  0.00     0.000 C 
BRANCH   6   7
ATOM      7  C   UNL     1      52.396  35.223  86.569  1.00  0.00     0.000 C 
BRANCH   7   8
ATOM      8  C   UNL     1      53.110  33.959  86.058  1.00  0.00     0.000 C 
BRANCH   8   9
ATOM      9  C   UNL     1      52.777  33.641  84.590  1.00  0.00     0.000 C 
BRANCH   9  10
ATOM     10  C   UNL     1      51.739  34.613  84.003  1.00  0.00     0.000 C 
BRANCH  10  11
ATOM     11  C   UNL     1      50.622  33.888  83.234  1.00  0.00     0.000 C 
BRANCH  11  12
ATOM     12  C   UNL     1      49.371  34.761  83.036  1.00  0.00     0.000 C 
BRANCH  12  13
ATOM     13  C   UNL     1      48.122  33.936  82.666  1.00  0.00     0.006 C 
BRANCH  13  14
ATOM     14  C   UNL     1      48.268  32.426  82.910  1.00  0.00     0.053 C 
BRANCH  14  15
ATOM     15  C   UNL     1      46.954  31.773  83.214  1.00  0.00     0.041 C 
ATOM     16  O   UNL     1      46.069  31.683  82.319  1.00  0.00    -0.550 OA
ATOM     17  O   UNL     1      46.724  31.226  84.468  1.00  0.00    -0.550 OA
ENDBRANCH  14  15
ENDBRANCH  13  14
ENDBRANCH  12  13
ENDBRANCH  11  12
ENDBRANCH  10  11
ENDBRANCH   9  10
ENDBRANCH   8   9
ENDBRANCH   7   8
ENDBRANCH   6   7
ENDBRANCH   5   6
ENDBRANCH   4   5
ENDBRANCH   3   4
ENDBRANCH   2   3
ENDBRANCH   1   2
BRANCH   1  18
ATOM     18  C   UNL     1      49.905  31.586  86.046  1.00  0.00     0.000 C 
BRANCH  18  19
ATOM     19  C   UNL     1      51.216  30.901  86.484  1.00  0.00     0.000 C 
BRANCH  19  20
ATOM     20  C   UNL     1      51.359  30.737  88.013  1.00  0.00     0.000 C 
BRANCH  20  21
ATOM     21  C   UNL     1      52.675  31.317  88.567  1.00  0.00     0.000 C 
BRANCH  21  22
ATOM     22  C   UNL     1      52.441  32.304  89.728  1.00  0.00     0.000 C 
BRANCH  22  23
ATOM     23  C   UNL     1      52.689  31.661  91.106  1.00  0.00     0.000 C 
BRANCH  23  24
ATOM     24  C   UNL     1      51.577  31.927  92.145  1.00  0.00    -0.000 C 
BRANCH  24  25
ATOM     25  C   UNL     1      50.141  31.589  91.687  1.00  0.00    -0.000 C 
BRANCH  25  26
ATOM     26  C   UNL     1      49.913  30.123  91.269  1.00  0.00    -0.000 C 
BRANCH  26  27
ATOM     27  C   UNL     1      48.609  29.931  90.476  1.00  0.00    -0.000 C 
BRANCH  27  28
ATOM     28  C   UNL     1      47.697  31.171  90.519  1.00  0.00    -0.000 C 
BRANCH  28  29
ATOM     29  C   UNL     1      46.221  30.827  90.259  1.00  0.00    -0.000 C 
BRANCH  29  30
ATOM     30  C   UNL     1      45.690  29.738  91.208  1.00  0.00    -0.000 C 
BRANCH  30  31
ATOM     31  C   UNL     1      44.394  30.152  91.918  1.00  0.00    -0.003 C 
ATOM     32  C   UNL     1      44.299  31.669  92.047  1.00  0.00     0.004 C 
ENDBRANCH  30  31
ENDBRANCH  29  30
ENDBRANCH  28  29
ENDBRANCH  27  28
ENDBRANCH  26  27
ENDBRANCH  25  26
ENDBRANCH  24  25
ENDBRANCH  23  24
ENDBRANCH  22  23
ENDBRANCH  21  22
ENDBRANCH  20  21
ENDBRANCH  19  20
ENDBRANCH  18  19
ENDBRANCH   1  18
TORSDOF 28
ENDMDL
MODEL 3
REMARK VINA RESULT:    -3.169      2.688      5.232
REMARK INTER + INTRA:         -14.447
REMARK INTER:                  -8.392
REMARK INTRA:                  -6.055
REMARK UNBOUND:                -6.091
REMARK SMILES CCCCCCCCCCCCCCCCCCCCCCCCCCCCCC(=O)[O-]
REMARK SMILES IDX 16 1 17 2 18 3 19 4 20 5 21 6 22 7 23 8 24 9 25 10 26 11
REMARK SMILES IDX 27 12 28 13 29 14 30 15 31 16 32 17 15 18 14 19 13 20 12 21
REMARK SMILES IDX 11 22 10 23 9 24 8 25 7 26 6 27 5 28 4 29 3 30 2 31 1 32
REMARK H PARENT
REMARK Flexibility Score: inf
ROOT
ATOM      1  C   UNL     1      53.685  32.091  85.971  1.00  0.00     0.000 C 
ENDROOT
BRANCH   1   2
ATOM      2  C   UNL     1      52.235  31.590  85.922  1.00  0.00     0.000 C 
BRANCH   2   3
ATOM      3  C   UNL     1      51.749  31.167  87.315  1.00  0.00     0.000 C 
BRANCH   3   4
ATOM      4  C   UNL     1      51.184  29.736  87.338  1.00  0.00     0.000 C 
BRANCH   4   5
ATOM      5  C   UNL     1      51.537  28.954  88.620  1.00  0.00     0.000 C 
BRANCH   5   6
ATOM      6  C   UNL     1      52.871  29.415  89.235  1.00  0.00     0.000 C 
BRANCH   6   7
ATOM      7  C   UNL     1      52.725  29.854  90.701  1.00  0.00     0.000 C 
BRANCH   7   8
ATOM      8  C   UNL     1      52.794  31.383  90.871  1.00  0.00     0.000 C 
BRANCH   8   9
ATOM      9  C   UNL     1      51.417  32.056  90.753  1.00  0.00     0.000 C 
BRANCH   9  10
ATOM     10  C   UNL     1      50.376  31.428  91.696  1.00  0.00     0.000 C 
BRANCH  10  11
ATOM     11  C   UNL     1      49.267  30.682  90.937  1.00  0.00     0.000 C 
BRANCH  11  12
ATOM     12  C   UNL     1      48.795  31.434  89.680  1.00  0.00     0.000 C 
BRANCH  12  13
ATOM     13  C   UNL     1      47.429  30.936  89.167  1.00  0.00     0.006 C 
BRANCH  13  14
ATOM     14  C   UNL     1      46.234  31.784  89.627  1.00  0.00     0.053 C 
BRANCH  14  15
ATOM     15  C   UNL     1      45.459  31.120  90.724  1.00  0.00     0.041 C 
ATOM     16  O   UNL     1      45.821  29.994  91.164  1.00  0.00    -0.550 OA
ATOM     17  O   UNL     1      44.368  31.764  91.292  1.00  0.00    -0.550 OA
ENDBRANCH  14  15
ENDBRANCH  13  14
ENDBRANCH  12  13
ENDBRANCH  11  12
ENDBRANCH  10  11
ENDBRANCH   9  10
ENDBRANCH   8   9
ENDBRANCH   7   8
ENDBRANCH   6   7
ENDBRANCH   5   6
ENDBRANCH   4   5
ENDBRANCH   3   4
ENDBRANCH   2   3
ENDBRANCH   1   2
BRANCH   1  18
ATOM     18  C   UNL     1      54.218  32.093  87.412  1.00  0.00     0.000 C 
BRANCH  18  19
ATOM     19  C   UNL     1      54.652  33.497  87.880  1.00  0.00     0.000 C 
BRANCH  19  20
ATOM     20  C   UNL     1      53.534  34.302  88.579  1.00  0.00     0.000 C 
BRANCH  20  21
ATOM     21  C   UNL     1      53.166  35.602  87.841  1.00  0.00     0.000 C 
BRANCH  21  22
ATOM     22  C   UNL     1      52.024  35.401  86.824  1.00  0.00     0.000 C 
BRANCH  22  23
ATOM     23  C   UNL     1      50.633  35.588  87.459  1.00  0.00     0.000 C 
BRANCH  23  24
ATOM     24  C   UNL     1      49.860  34.273  87.707  1.00  0.00    -0.000 C 
BRANCH  24  25
ATOM     25  C   UNL     1      48.619  34.051  86.814  1.00  0.00    -0.000 C 
BRANCH  25  26
ATOM     26  C   UNL     1      48.693  32.828  85.879  1.00  0.00    -0.000 C 
BRANCH  26  27
ATOM     27  C   UNL     1      48.501  33.204  84.400  1.00  0.00    -0.000 C 
BRANCH  27  28
ATOM     28  C   UNL     1      48.898  34.661  84.098  1.00  0.00    -0.000 C 
BRANCH  28  29
ATOM     29  C   UNL     1      49.667  34.800  82.773  1.00  0.00    -0.000 C 
BRANCH  29  30
ATOM     30  C   UNL     1      50.858  33.830  82.674  1.00  0.00    -0.000 C 
BRANCH  30  31
ATOM     31  C   UNL     1      52.070  34.296  83.492  1.00  0.00    -0.003 C 
ATOM     32  C   UNL     1      53.313  34.410  82.616  1.00  0.00     0.004 C 
ENDBRANCH  30  31
ENDBRANCH  29  30
ENDBRANCH  28  29
ENDBRANCH  27  28
ENDBRANCH  26  27
ENDBRANCH  25  26
ENDBRANCH  24  25
ENDBRANCH  23  24
ENDBRANCH  22  23
ENDBRANCH  21  22
ENDBRANCH  20  21
ENDBRANCH  19  20
ENDBRANCH  18  19
ENDBRANCH   1  18
TORSDOF 28
ENDMDL
MODEL 4
REMARK VINA RESULT:    -3.159      2.948      5.505
REMARK INTER + INTRA:         -14.420
REMARK INTER:                  -8.569
REMARK INTRA:                  -5.851
REMARK UNBOUND:                -6.091
REMARK SMILES CCCCCCCCCCCCCCCCCCCCCCCCCCCCCC(=O)[O-]
REMARK SMILES IDX 16 1 17 2 18 3 19 4 20 5 21 6 22 7 23 8 24 9 25 10 26 11
REMARK SMILES IDX 27 12 28 13 29 14 30 15 31 16 32 17 15 18 14 19 13 20 12 21
REMARK SMILES IDX 11 22 10 23 9 24 8 25 7 26 6 27 5 28 4 29 3 30 2 31 1 32
REMARK H PARENT
REMARK Flexibility Score: inf
ROOT
ATOM      1  C   UNL     1      48.926  34.138  85.983  1.00  0.00     0.000 C 
ENDROOT
BRANCH   1   2
ATOM      2  C   UNL     1      48.330  32.765  86.328  1.00  0.00     0.000 C 
BRANCH   2   3
ATOM      3  C   UNL     1      49.285  31.632  85.928  1.00  0.00     0.000 C 
BRANCH   3   4
ATOM      4  C   UNL     1      49.918  30.932  87.143  1.00  0.00     0.000 C 
BRANCH   4   5
ATOM      5  C   UNL     1      51.067  31.735  87.789  1.00  0.00     0.000 C 
BRANCH   5   6
ATOM      6  C   UNL     1      50.653  32.367  89.130  1.00  0.00     0.000 C 
BRANCH   6   7
ATOM      7  C   UNL     1      51.588  31.969  90.283  1.00  0.00     0.000 C 
BRANCH   7   8
ATOM      8  C   UNL     1      50.883  31.106  91.347  1.00  0.00     0.000 C 
BRANCH   8   9
ATOM      9  C   UNL     1      51.086  29.599  91.118  1.00  0.00     0.000 C 
BRANCH   9  10
ATOM     10  C   UNL     1      49.919  28.962  90.343  1.00  0.00     0.000 C 
BRANCH  10  11
ATOM     11  C   UNL     1      48.547  29.429  90.855  1.00  0.00     0.000 C 
BRANCH  11  12
ATOM     12  C   UNL     1      47.675  30.046  89.748  1.00  0.00     0.000 C 
BRANCH  12  13
ATOM     13  C   UNL     1      47.147  31.447  90.117  1.00  0.00     0.006 C 
BRANCH  13  14
ATOM     14  C   UNL     1      45.621  31.593  90.017  1.00  0.00     0.053 C 
BRANCH  14  15
ATOM     15  C   UNL     1      44.929  31.160  91.274  1.00  0.00     0.041 C 
ATOM     16  O   UNL     1      44.174  31.962  91.890  1.00  0.00    -0.550 OA
ATOM     17  O   UNL     1      45.080  29.860  91.737  1.00  0.00    -0.550 OA
ENDBRANCH  14  15
ENDBRANCH  13  14
ENDBRANCH  12  13
ENDBRANCH  11  12
ENDBRANCH  10  11
ENDBRANCH   9  10
ENDBRANCH   8   9
ENDBRANCH   7   8
ENDBRANCH   6   7
ENDBRANCH   5   6
ENDBRANCH   4   5
ENDBRANCH   3   4
ENDBRANCH   2   3
ENDBRANCH   1   2
BRANCH   1  18
ATOM     18  C   UNL     1      48.723  35.131  87.137  1.00  0.00     0.000 C 
BRANCH  18  19
ATOM     19  C   UNL     1      50.020  35.876  87.513  1.00  0.00     0.000 C 
BRANCH  19  20
ATOM     20  C   UNL     1      51.304  35.227  86.948  1.00  0.00     0.000 C 
BRANCH  20  21
ATOM     21  C   UNL     1      52.597  35.826  87.533  1.00  0.00     0.000 C 
BRANCH  21  22
ATOM     22  C   UNL     1      53.336  34.842  88.462  1.00  0.00     0.000 C 
BRANCH  22  23
ATOM     23  C   UNL     1      54.244  33.870  87.685  1.00  0.00     0.000 C 
BRANCH  23  24
ATOM     24  C   UNL     1      54.942  32.807  88.561  1.00  0.00    -0.000 C 
BRANCH  24  25
ATOM     25  C   UNL     1      54.661  31.337  88.177  1.00  0.00    -0.000 C 
BRANCH  25  26
ATOM     26  C   UNL     1      55.775  30.645  87.368  1.00  0.00    -0.000 C 
BRANCH  26  27
ATOM     27  C   UNL     1      55.280  30.124  86.007  1.00  0.00    -0.000 C 
BRANCH  27  28
ATOM     28  C   UNL     1      53.886  30.662  85.634  1.00  0.00    -0.000 C 
BRANCH  28  29
ATOM     29  C   UNL     1      53.932  31.652  84.457  1.00  0.00    -0.000 C 
BRANCH  29  30
ATOM     30  C   UNL     1      52.974  32.842  84.646  1.00  0.00    -0.000 C 
BRANCH  30  31
ATOM     31  C   UNL     1      51.778  32.797  83.685  1.00  0.00    -0.003 C 
ATOM     32  C   UNL     1      51.355  34.203  83.271  1.00  0.00     0.004 C 
ENDBRANCH  30  31
ENDBRANCH  29  30
ENDBRANCH  28  29
ENDBRANCH  27  28
ENDBRANCH  26  27
ENDBRANCH  25  26
ENDBRANCH  24  25
ENDBRANCH  23  24
ENDBRANCH  22  23
ENDBRANCH  21  22
ENDBRANCH  20  21
ENDBRANCH  19  20
ENDBRANCH  18  19
ENDBRANCH   1  18
TORSDOF 28
ENDMDL
MODEL 5
REMARK VINA RESULT:    -3.152      2.851      5.451
REMARK INTER + INTRA:         -14.404
REMARK INTER:                  -8.531
REMARK INTRA:                  -5.873
REMARK UNBOUND:                -6.091
REMARK SMILES CCCCCCCCCCCCCCCCCCCCCCCCCCCCCC(=O)[O-]
REMARK SMILES IDX 16 1 17 2 18 3 19 4 20 5 21 6 22 7 23 8 24 9 25 10 26 11
REMARK SMILES IDX 27 12 28 13 29 14 30 15 31 16 32 17 15 18 14 19 13 20 12 21
REMARK SMILES IDX 11 22 10 23 9 24 8 25 7 26 6 27 5 28 4 29 3 30 2 31 1 32
REMARK H PARENT
REMARK Flexibility Score: inf
ROOT
ATOM      1  C   UNL     1      52.536  32.661  90.961  1.00  0.00     0.000 C 
ENDROOT
BRANCH   1   2
ATOM      2  C   UNL     1      51.974  31.605  91.924  1.00  0.00     0.000 C 
BRANCH   2   3
ATOM      3  C   UNL     1      50.510  31.283  91.598  1.00  0.00     0.000 C 
BRANCH   3   4
ATOM      4  C   UNL     1      50.305  29.824  91.153  1.00  0.00     0.000 C 
BRANCH   4   5
ATOM      5  C   UNL     1      51.520  29.230  90.409  1.00  0.00     0.000 C 
BRANCH   5   6
ATOM      6  C   UNL     1      51.326  29.233  88.882  1.00  0.00     0.000 C 
BRANCH   6   7
ATOM      7  C   UNL     1      52.102  30.366  88.191  1.00  0.00     0.000 C 
BRANCH   7   8
ATOM      8  C   UNL     1      51.197  31.257  87.320  1.00  0.00     0.000 C 
BRANCH   8   9
ATOM      9  C   UNL     1      49.815  31.497  87.951  1.00  0.00     0.000 C 
BRANCH   9  10
ATOM     10  C   UNL     1      48.705  30.695  87.250  1.00  0.00     0.000 C 
BRANCH  10  11
ATOM     11  C   UNL     1      47.324  31.355  87.388  1.00  0.00     0.000 C 
BRANCH  11  12
ATOM     12  C   UNL     1      47.246  32.329  88.576  1.00  0.00     0.000 C 
BRANCH  12  13
ATOM     13  C   UNL     1      46.279  31.849  89.677  1.00  0.00     0.006 C 
BRANCH  13  14
ATOM     14  C   UNL     1      46.856  30.757  90.592  1.00  0.00     0.053 C 
BRANCH  14  15
ATOM     15  C   UNL     1      45.984  29.539  90.636  1.00  0.00     0.041 C 
ATOM     16  O   UNL     1      45.598  28.997  89.564  1.00  0.00    -0.550 OA
ATOM     17  O   UNL     1      45.639  28.976  91.857  1.00  0.00    -0.550 OA
ENDBRANCH  14  15
ENDBRANCH  13  14
ENDBRANCH  12  13
ENDBRANCH  11  12
ENDBRANCH  10  11
ENDBRANCH   9  10
ENDBRANCH   8   9
ENDBRANCH   7   8
ENDBRANCH   6   7
ENDBRANCH   5   6
ENDBRANCH   4   5
ENDBRANCH   3   4
ENDBRANCH   2   3
ENDBRANCH   1   2
BRANCH   1  18
ATOM     18  C   UNL     1      53.996  32.351  90.595  1.00  0.00     0.000 C 
BRANCH  18  19
ATOM     19  C   UNL     1      54.456  33.090  89.323  1.00  0.00     0.000 C 
BRANCH  19  20
ATOM     20  C   UNL     1      53.493  34.204  88.857  1.00  0.00     0.000 C 
BRANCH  20  21
ATOM     21  C   UNL     1      53.648  34.561  87.367  1.00  0.00     0.000 C 
BRANCH  21  22
ATOM     22  C   UNL     1      52.409  35.283  86.801  1.00  0.00     0.000 C 
BRANCH  22  23
ATOM     23  C   UNL     1      51.123  34.941  87.577  1.00  0.00     0.000 C 
BRANCH  23  24
ATOM     24  C   UNL     1      50.003  35.998  87.460  1.00  0.00    -0.000 C 
BRANCH  24  25
ATOM     25  C   UNL     1      48.644  35.476  86.943  1.00  0.00    -0.000 C 
BRANCH  25  26
ATOM     26  C   UNL     1      48.730  34.378  85.865  1.00  0.00    -0.000 C 
BRANCH  26  27
ATOM     27  C   UNL     1      48.720  34.950  84.437  1.00  0.00    -0.000 C 
BRANCH  27  28
ATOM     28  C   UNL     1      49.907  34.458  83.589  1.00  0.00    -0.000 C 
BRANCH  28  29
ATOM     29  C   UNL     1      50.664  33.295  84.254  1.00  0.00    -0.000 C 
BRANCH  29  30
ATOM     30  C   UNL     1      51.812  32.759  83.379  1.00  0.00    -0.000 C 
BRANCH  30  31
ATOM     31  C   UNL     1      53.195  33.018  83.994  1.00  0.00    -0.003 C 
ATOM     32  C   UNL     1      53.753  31.755  84.641  1.00  0.00     0.004 C 
ENDBRANCH  30  31
ENDBRANCH  29  30
ENDBRANCH  28  29
ENDBRANCH  27  28
ENDBRANCH  26  27
ENDBRANCH  25  26
ENDBRANCH  24  25
ENDBRANCH  23  24
ENDBRANCH  22  23
ENDBRANCH  21  22
ENDBRANCH  20  21
ENDBRANCH  19  20
ENDBRANCH  18  19
ENDBRANCH   1  18
TORSDOF 28
ENDMDL
MODEL 6
REMARK VINA RESULT:    -3.148      2.269      5.123
REMARK INTER + INTRA:         -14.393
REMARK INTER:                  -7.908
REMARK INTRA:                  -6.485
REMARK UNBOUND:                -6.091
REMARK SMILES CCCCCCCCCCCCCCCCCCCCCCCCCCCCCC(=O)[O-]
REMARK SMILES IDX 16 1 17 2 18 3 19 4 20 5 21 6 22 7 23 8 24 9 25 10 26 11
REMARK SMILES IDX 27 12 28 13 29 14 30 15 31 16 32 17 15 18 14 19 13 20 12 21
REMARK SMILES IDX 11 22 10 23 9 24 8 25 7 26 6 27 5 28 4 29 3 30 2 31 1 32
REMARK H PARENT
REMARK Flexibility Score: inf
ROOT
ATOM      1  C   UNL     1      52.872  32.844  86.680  1.00  0.00     0.000 C 
ENDROOT
BRANCH   1   2
ATOM      2  C   UNL     1      53.813  31.897  87.437  1.00  0.00     0.000 C 
BRANCH   2   3
ATOM      3  C   UNL     1      54.860  32.681  88.238  1.00  0.00     0.000 C 
BRANCH   3   4
ATOM      4  C   UNL     1      54.655  32.567  89.758  1.00  0.00     0.000 C 
BRANCH   4   5
ATOM      5  C   UNL     1      53.418  33.333  90.273  1.00  0.00     0.000 C 
BRANCH   5   6
ATOM      6  C   UNL     1      52.561  32.482  91.227  1.00  0.00     0.000 C 
BRANCH   6   7
ATOM      7  C   UNL     1      51.904  31.284  90.522  1.00  0.00     0.000 C 
BRANCH   7   8
ATOM      8  C   UNL     1      50.767  31.706  89.574  1.00  0.00     0.000 C 
BRANCH   8   9
ATOM      9  C   UNL     1      50.375  30.595  88.585  1.00  0.00     0.000 C 
BRANCH   9  10
ATOM     10  C   UNL     1      49.546  31.129  87.403  1.00  0.00     0.000 C 
BRANCH  10  11
ATOM     11  C   UNL     1      48.234  30.354  87.206  1.00  0.00     0.000 C 
BRANCH  11  12
ATOM     12  C   UNL     1      46.987  31.216  87.466  1.00  0.00     0.000 C 
BRANCH  12  13
ATOM     13  C   UNL     1      47.103  32.059  88.751  1.00  0.00     0.006 C 
BRANCH  13  14
ATOM     14  C   UNL     1      46.036  31.746  89.811  1.00  0.00     0.053 C 
BRANCH  14  15
ATOM     15  C   UNL     1      46.374  30.522  90.608  1.00  0.00     0.041 C 
ATOM     16  O   UNL     1      45.456  29.761  91.020  1.00  0.00    -0.550 OA
ATOM     17  O   UNL     1      47.701  30.198  90.853  1.00  0.00    -0.550 OA
ENDBRANCH  14  15
ENDBRANCH  13  14
ENDBRANCH  12  13
ENDBRANCH  11  12
ENDBRANCH  10  11
ENDBRANCH   9  10
ENDBRANCH   8   9
ENDBRANCH   7   8
ENDBRANCH   6   7
ENDBRANCH   5   6
ENDBRANCH   4   5
ENDBRANCH   3   4
ENDBRANCH   2   3
ENDBRANCH   1   2
BRANCH   1  18
ATOM     18  C   UNL     1      53.465  34.260  86.598  1.00  0.00     0.000 C 
BRANCH  18  19
ATOM     19  C   UNL     1      52.464  35.347  87.040  1.00  0.00     0.000 C 
BRANCH  19  20
ATOM     20  C   UNL     1      51.139  34.791  87.605  1.00  0.00     0.000 C 
BRANCH  20  21
ATOM     21  C   UNL     1      49.905  35.610  87.181  1.00  0.00     0.000 C 
BRANCH  21  22
ATOM     22  C   UNL     1      48.661  34.727  86.951  1.00  0.00     0.000 C 
BRANCH  22  23
ATOM     23  C   UNL     1      48.684  34.026  85.579  1.00  0.00     0.000 C 
BRANCH  23  24
ATOM     24  C   UNL     1      48.572  34.980  84.370  1.00  0.00    -0.000 C 
BRANCH  24  25
ATOM     25  C   UNL     1      49.622  34.771  83.256  1.00  0.00    -0.000 C 
BRANCH  25  26
ATOM     26  C   UNL     1      51.011  34.312  83.740  1.00  0.00    -0.000 C 
BRANCH  26  27
ATOM     27  C   UNL     1      51.463  33.000  83.076  1.00  0.00    -0.000 C 
BRANCH  27  28
ATOM     28  C   UNL     1      51.095  31.754  83.902  1.00  0.00    -0.000 C 
BRANCH  28  29
ATOM     29  C   UNL     1      50.377  30.682  83.065  1.00  0.00    -0.000 C 
BRANCH  29  30
ATOM     30  C   UNL     1      48.939  30.419  83.546  1.00  0.00    -0.000 C 
BRANCH  30  31
ATOM     31  C   UNL     1      47.944  31.474  83.042  1.00  0.00    -0.003 C 
ATOM     32  C   UNL     1      46.593  31.330  83.735  1.00  0.00     0.004 C 
ENDBRANCH  30  31
ENDBRANCH  29  30
ENDBRANCH  28  29
ENDBRANCH  27  28
ENDBRANCH  26  27
ENDBRANCH  25  26
ENDBRANCH  24  25
ENDBRANCH  23  24
ENDBRANCH  22  23
ENDBRANCH  21  22
ENDBRANCH  20  21
ENDBRANCH  19  20
ENDBRANCH  18  19
ENDBRANCH   1  18
TORSDOF 28
ENDMDL
MODEL 7
REMARK VINA RESULT:    -3.145      2.734      6.308
REMARK INTER + INTRA:         -14.384
REMARK INTER:                  -8.207
REMARK INTRA:                  -6.177
REMARK UNBOUND:                -6.091
REMARK SMILES CCCCCCCCCCCCCCCCCCCCCCCCCCCCCC(=O)[O-]
REMARK SMILES IDX 16 1 17 2 18 3 19 4 20 5 21 6 22 7 23 8 24 9 25 10 26 11
REMARK SMILES IDX 27 12 28 13 29 14 30 15 31 16 32 17 15 18 14 19 13 20 12 21
REMARK SMILES IDX 11 22 10 23 9 24 8 25 7 26 6 27 5 28 4 29 3 30 2 31 1 32
REMARK H PARENT
REMARK Flexibility Score: inf
ROOT
ATOM      1  C   UNL     1      47.136  30.758  89.778  1.00  0.00     0.000 C 
ENDROOT
BRANCH   1   2
ATOM      2  C   UNL     1      46.489  31.033  88.413  1.00  0.00     0.000 C 
BRANCH   2   3
ATOM      3  C   UNL     1      47.483  31.705  87.456  1.00  0.00     0.000 C 
BRANCH   3   4
ATOM      4  C   UNL     1      47.880  33.121  87.909  1.00  0.00     0.000 C 
BRANCH   4   5
ATOM      5  C   UNL     1      49.121  33.676  87.178  1.00  0.00     0.000 C 
BRANCH   5   6
ATOM      6  C   UNL     1      49.218  35.209  87.279  1.00  0.00     0.000 C 
BRANCH   6   7
ATOM      7  C   UNL     1      50.672  35.711  87.254  1.00  0.00     0.000 C 
BRANCH   7   8
ATOM      8  C   UNL     1      51.672  34.653  87.757  1.00  0.00     0.000 C 
BRANCH   8   9
ATOM      9  C   UNL     1      52.989  34.657  86.962  1.00  0.00     0.000 C 
BRANCH   9  10
ATOM     10  C   UNL     1      52.757  34.770  85.445  1.00  0.00     0.000 C 
BRANCH  10  11
ATOM     11  C   UNL     1      52.626  33.398  84.766  1.00  0.00     0.000 C 
BRANCH  11  12
ATOM     12  C   UNL     1      51.257  33.193  84.093  1.00  0.00     0.000 C 
BRANCH  12  13
ATOM     13  C   UNL     1      50.706  34.487  83.460  1.00  0.00     0.006 C 
BRANCH  13  14
ATOM     14  C   UNL     1      49.203  34.709  83.685  1.00  0.00     0.053 C 
BRANCH  14  15
ATOM     15  C   UNL     1      48.379  33.571  83.161  1.00  0.00     0.041 C 
ATOM     16  O   UNL     1      47.794  32.791  83.961  1.00  0.00    -0.550 OA
ATOM     17  O   UNL     1      48.221  33.401  81.793  1.00  0.00    -0.550 OA
ENDBRANCH  14  15
ENDBRANCH  13  14
ENDBRANCH  12  13
ENDBRANCH  11  12
ENDBRANCH  10  11
ENDBRANCH   9  10
ENDBRANCH   8   9
ENDBRANCH   7   8
ENDBRANCH   6   7
ENDBRANCH   5   6
ENDBRANCH   4   5
ENDBRANCH   3   4
ENDBRANCH   2   3
ENDBRANCH   1   2
BRANCH   1  18
ATOM     18  C   UNL     1      48.095  29.560  89.702  1.00  0.00     0.000 C 
BRANCH  18  19
ATOM     19  C   UNL     1      49.371  29.769  90.542  1.00  0.00     0.000 C 
BRANCH  19  20
ATOM     20  C   UNL     1      49.808  31.246  90.666  1.00  0.00     0.000 C 
BRANCH  20  21
ATOM     21  C   UNL     1      50.481  31.571  92.013  1.00  0.00     0.000 C 
BRANCH  21  22
ATOM     22  C   UNL     1      51.993  31.836  91.869  1.00  0.00     0.000 C 
BRANCH  22  23
ATOM     23  C   UNL     1      52.343  32.538  90.544  1.00  0.00     0.000 C 
BRANCH  23  24
ATOM     24  C   UNL     1      53.611  33.419  90.601  1.00  0.00    -0.000 C 
BRANCH  24  25
ATOM     25  C   UNL     1      54.952  32.667  90.442  1.00  0.00    -0.000 C 
BRANCH  25  26
ATOM     26  C   UNL     1      55.453  32.517  88.993  1.00  0.00    -0.000 C 
BRANCH  26  27
ATOM     27  C   UNL     1      55.133  31.135  88.398  1.00  0.00    -0.000 C 
BRANCH  27  28
ATOM     28  C   UNL     1      54.003  31.182  87.353  1.00  0.00    -0.000 C 
BRANCH  28  29
ATOM     29  C   UNL     1      52.805  30.299  87.741  1.00  0.00    -0.000 C 
BRANCH  29  30
ATOM     30  C   UNL     1      51.455  30.931  87.356  1.00  0.00    -0.000 C 
BRANCH  30  31
ATOM     31  C   UNL     1      50.554  29.968  86.570  1.00  0.00    -0.003 C 
ATOM     32  C   UNL     1      51.151  29.650  85.203  1.00  0.00     0.004 C 
ENDBRANCH  30  31
ENDBRANCH  29  30
ENDBRANCH  28  29
ENDBRANCH  27  28
ENDBRANCH  26  27
ENDBRANCH  25  26
ENDBRANCH  24  25
ENDBRANCH  23  24
ENDBRANCH  22  23
ENDBRANCH  21  22
ENDBRANCH  20  21
ENDBRANCH  19  20
ENDBRANCH  18  19
ENDBRANCH   1  18
TORSDOF 28
ENDMDL
MODEL 8
REMARK VINA RESULT:    -3.087     14.192     17.760
REMARK INTER + INTRA:         -14.232
REMARK INTER:                  -8.329
REMARK INTRA:                  -5.903
REMARK UNBOUND:                -6.091
REMARK SMILES CCCCCCCCCCCCCCCCCCCCCCCCCCCCCC(=O)[O-]
REMARK SMILES IDX 16 1 17 2 18 3 19 4 20 5 21 6 22 7 23 8 24 9 25 10 26 11
REMARK SMILES IDX 27 12 28 13 29 14 30 15 31 16 32 17 15 18 14 19 13 20 12 21
REMARK SMILES IDX 11 22 10 23 9 24 8 25 7 26 6 27 5 28 4 29 3 30 2 31 1 32
REMARK H PARENT
REMARK Flexibility Score: inf
ROOT
ATOM      1  C   UNL     1      44.697  23.454  74.151  1.00  0.00     0.000 C 
ENDROOT
BRANCH   1   2
ATOM      2  C   UNL     1      44.267  22.524  73.008  1.00  0.00     0.000 C 
BRANCH   2   3
ATOM      3  C   UNL     1      43.239  21.493  73.492  1.00  0.00     0.000 C 
BRANCH   3   4
ATOM      4  C   UNL     1      41.788  21.983  73.340  1.00  0.00     0.000 C 
BRANCH   4   5
ATOM      5  C   UNL     1      40.768  21.145  74.138  1.00  0.00     0.000 C 
BRANCH   5   6
ATOM      6  C   UNL     1      40.886  21.373  75.656  1.00  0.00     0.000 C 
BRANCH   6   7
ATOM      7  C   UNL     1      41.038  22.859  76.019  1.00  0.00     0.000 C 
BRANCH   7   8
ATOM      8  C   UNL     1      42.208  23.115  76.987  1.00  0.00     0.000 C 
BRANCH   8   9
ATOM      9  C   UNL     1      43.131  21.894  77.139  1.00  0.00     0.000 C 
BRANCH   9  10
ATOM     10  C   UNL     1      43.241  21.421  78.599  1.00  0.00     0.000 C 
BRANCH  10  11
ATOM     11  C   UNL     1      42.564  20.061  78.831  1.00  0.00     0.000 C 
BRANCH  11  12
ATOM     12  C   UNL     1      41.486  20.110  79.929  1.00  0.00     0.000 C 
BRANCH  12  13
ATOM     13  C   UNL     1      40.054  20.083  79.359  1.00  0.00     0.006 C 
BRANCH  13  14
ATOM     14  C   UNL     1      39.477  21.470  79.036  1.00  0.00     0.053 C 
BRANCH  14  15
ATOM     15  C   UNL     1      38.369  21.851  79.971  1.00  0.00     0.041 C 
ATOM     16  O   UNL     1      38.558  21.834  81.218  1.00  0.00    -0.550 OA
ATOM     17  O   UNL     1      37.146  22.269  79.464  1.00  0.00    -0.550 OA
ENDBRANCH  14  15
ENDBRANCH  13  14
ENDBRANCH  12  13
ENDBRANCH  11  12
ENDBRANCH  10  11
ENDBRANCH   9  10
ENDBRANCH   8   9
ENDBRANCH   7   8
ENDBRANCH   6   7
ENDBRANCH   5   6
ENDBRANCH   4   5
ENDBRANCH   3   4
ENDBRANCH   2   3
ENDBRANCH   1   2
BRANCH   1  18
ATOM     18  C   UNL     1      45.880  22.859  74.930  1.00  0.00     0.000 C 
BRANCH  18  19
ATOM     19  C   UNL     1      47.008  22.359  74.003  1.00  0.00     0.000 C 
BRANCH  19  20
ATOM     20  C   UNL     1      47.458  20.909  74.285  1.00  0.00     0.000 C 
BRANCH  20  21
ATOM     21  C   UNL     1      46.607  19.854  73.553  1.00  0.00     0.000 C 
BRANCH  21  22
ATOM     22  C   UNL     1      46.065  18.769  74.506  1.00  0.00     0.000 C 
BRANCH  22  23
ATOM     23  C   UNL     1      45.413  19.366  75.767  1.00  0.00     0.000 C 
BRANCH  23  24
ATOM     24  C   UNL     1      45.485  18.459  77.016  1.00  0.00    -0.000 C 
BRANCH  24  25
ATOM     25  C   UNL     1      46.274  19.035  78.213  1.00  0.00    -0.000 C 
BRANCH  25  26
ATOM     26  C   UNL     1      47.117  20.287  77.903  1.00  0.00    -0.000 C 
BRANCH  26  27
ATOM     27  C   UNL     1      46.823  21.450  78.867  1.00  0.00    -0.000 C 
BRANCH  27  28
ATOM     28  C   UNL     1      47.189  22.822  78.274  1.00  0.00    -0.000 C 
BRANCH  28  29
ATOM     29  C   UNL     1      48.709  23.026  78.153  1.00  0.00    -0.000 C 
BRANCH  29  30
ATOM     30  C   UNL     1      49.149  23.360  76.716  1.00  0.00    -0.000 C 
BRANCH  30  31
ATOM     31  C   UNL     1      50.588  22.915  76.420  1.00  0.00    -0.003 C 
ATOM     32  C   UNL     1      51.030  21.812  77.376  1.00  0.00     0.004 C 
ENDBRANCH  30  31
ENDBRANCH  29  30
ENDBRANCH  28  29
ENDBRANCH  27  28
ENDBRANCH  26  27
ENDBRANCH  25  26
ENDBRANCH  24  25
ENDBRANCH  23  24
ENDBRANCH  22  23
ENDBRANCH  21  22
ENDBRANCH  20  21
ENDBRANCH  19  20
ENDBRANCH  18  19
ENDBRANCH   1  18
TORSDOF 28
ENDMDL
MODEL 9
REMARK VINA RESULT:    -3.075      2.458      6.401
REMARK INTER + INTRA:         -14.199
REMARK INTER:                  -7.997
REMARK INTRA:                  -6.202
REMARK UNBOUND:                -6.091
REMARK SMILES CCCCCCCCCCCCCCCCCCCCCCCCCCCCCC(=O)[O-]
REMARK SMILES IDX 16 1 17 2 18 3 19 4 20 5 21 6 22 7 23 8 24 9 25 10 26 11
REMARK SMILES IDX 27 12 28 13 29 14 30 15 31 16 32 17 15 18 14 19 13 20 12 21
REMARK SMILES IDX 11 22 10 23 9 24 8 25 7 26 6 27 5 28 4 29 3 30 2 31 1 32
REMARK H PARENT
REMARK Flexibility Score: inf
ROOT
ATOM      1  C   UNL     1      53.251  31.097  87.297  1.00  0.00     0.000 C 
ENDROOT
BRANCH   1   2
ATOM      2  C   UNL     1      52.070  32.004  86.926  1.00  0.00     0.000 C 
BRANCH   2   3
ATOM      3  C   UNL     1      52.422  33.483  87.135  1.00  0.00     0.000 C 
BRANCH   3   4
ATOM      4  C   UNL     1      51.364  34.236  87.960  1.00  0.00     0.000 C 
BRANCH   4   5
ATOM      5  C   UNL     1      51.124  35.683  87.482  1.00  0.00     0.000 C 
BRANCH   5   6
ATOM      6  C   UNL     1      49.633  36.065  87.503  1.00  0.00     0.000 C 
BRANCH   6   7
ATOM      7  C   UNL     1      48.722  34.908  87.062  1.00  0.00     0.000 C 
BRANCH   7   8
ATOM      8  C   UNL     1      48.640  34.770  85.530  1.00  0.00     0.000 C 
BRANCH   8   9
ATOM      9  C   UNL     1      48.806  33.317  85.055  1.00  0.00     0.000 C 
BRANCH   9  10
ATOM     10  C   UNL     1      50.037  33.134  84.151  1.00  0.00     0.000 C 
BRANCH  10  11
ATOM     11  C   UNL     1      50.733  34.466  83.826  1.00  0.00     0.000 C 
BRANCH  11  12
ATOM     12  C   UNL     1      52.268  34.359  83.856  1.00  0.00     0.000 C 
BRANCH  12  13
ATOM     13  C   UNL     1      52.812  33.323  82.852  1.00  0.00     0.006 C 
BRANCH  13  14
ATOM     14  C   UNL     1      53.568  32.153  83.499  1.00  0.00     0.053 C 
BRANCH  14  15
ATOM     15  C   UNL     1      52.885  30.840  83.265  1.00  0.00     0.041 C 
ATOM     16  O   UNL     1      52.122  30.692  82.271  1.00  0.00    -0.550 OA
ATOM     17  O   UNL     1      53.127  29.770  84.114  1.00  0.00    -0.550 OA
ENDBRANCH  14  15
ENDBRANCH  13  14
ENDBRANCH  12  13
ENDBRANCH  11  12
ENDBRANCH  10  11
ENDBRANCH   9  10
ENDBRANCH   8   9
ENDBRANCH   7   8
ENDBRANCH   6   7
ENDBRANCH   5   6
ENDBRANCH   4   5
ENDBRANCH   3   4
ENDBRANCH   2   3
ENDBRANCH   1   2
BRANCH   1  18
ATOM     18  C   UNL     1      54.505  31.927  87.612  1.00  0.00     0.000 C 
BRANCH  18  19
ATOM     19  C   UNL     1      55.015  31.706  89.051  1.00  0.00     0.000 C 
BRANCH  19  20
ATOM     20  C   UNL     1      55.017  32.983  89.921  1.00  0.00     0.000 C 
BRANCH  20  21
ATOM     21  C   UNL     1      53.672  33.242  90.625  1.00  0.00     0.000 C 
BRANCH  21  22
ATOM     22  C   UNL     1      52.917  31.939  90.955  1.00  0.00     0.000 C 
BRANCH  22  23
ATOM     23  C   UNL     1      51.499  32.202  91.496  1.00  0.00     0.000 C 
BRANCH  23  24
ATOM     24  C   UNL     1      50.560  30.976  91.451  1.00  0.00    -0.000 C 
BRANCH  24  25
ATOM     25  C   UNL     1      50.103  30.538  90.041  1.00  0.00    -0.000 C 
BRANCH  25  26
ATOM     26  C   UNL     1      49.390  31.625  89.214  1.00  0.00    -0.000 C 
BRANCH  26  27
ATOM     27  C   UNL     1      48.497  31.035  88.109  1.00  0.00    -0.000 C 
BRANCH  27  28
ATOM     28  C   UNL     1      47.122  31.722  88.023  1.00  0.00    -0.000 C 
BRANCH  28  29
ATOM     29  C   UNL     1      46.362  31.691  89.361  1.00  0.00    -0.000 C 
BRANCH  29  30
ATOM     30  C   UNL     1      45.867  30.281  89.728  1.00  0.00    -0.000 C 
BRANCH  30  31
ATOM     31  C   UNL     1      46.518  29.740  91.009  1.00  0.00    -0.003 C 
ATOM     32  C   UNL     1      47.160  28.378  90.766  1.00  0.00     0.004 C 
ENDBRANCH  30  31
ENDBRANCH  29  30
ENDBRANCH  28  29
ENDBRANCH  27  28
ENDBRANCH  26  27
ENDBRANCH  25  26
ENDBRANCH  24  25
ENDBRANCH  23  24
ENDBRANCH  22  23
ENDBRANCH  21  22
ENDBRANCH  20  21
ENDBRANCH  19  20
ENDBRANCH  18  19
ENDBRANCH   1  18
TORSDOF 28
ENDMDL
