MODEL 1
REMARK VINA RESULT:    -5.363      0.000      0.000
REMARK INTER + INTRA:          -5.676
REMARK INTER:                  -5.676
REMARK INTRA:                   0.000
REMARK UNBOUND:                 0.000
REMARK SMILES O=c1ccc2cc(O)c(O)cc2o1
REMARK SMILES IDX 4 1 3 2 2 3 1 4 13 5 12 6 11 7 9 8 7 9 6 10 5 11 8 12 10 14
REMARK H PARENT 8 13 10 15
REMARK Flexibility Score: inf
ROOT
ATOM      1  C   UNL     1      -1.370 -21.765  -7.810  1.00  0.00     0.019 A 
ATOM      2  C   UNL     1      -1.993 -22.966  -7.472  1.00  0.00     0.094 A 
ATOM      3  C   UNL     1      -1.574 -24.147  -8.094  1.00  0.00     0.336 A 
ATOM      4  O   UNL     1      -2.125 -25.240  -7.802  1.00  0.00    -0.246 OA
ATOM      5  O   UNL     1      -0.594 -24.122  -8.994  1.00  0.00    -0.423 OA
ATOM      6  C   UNL     1       0.027 -22.999  -9.345  1.00  0.00     0.142 A 
ATOM      7  C   UNL     1       1.051 -23.035 -10.297  1.00  0.00     0.098 A 
ATOM      8  C   UNL     1       1.710 -21.854 -10.671  1.00  0.00     0.161 A 
ATOM      9  C   UNL     1       1.341 -20.632 -10.089  1.00  0.00     0.158 A 
ATOM     10  C   UNL     1       0.316 -20.590  -9.134  1.00  0.00     0.062 A 
ATOM     11  C   UNL     1      -0.343 -21.769  -8.759  1.00  0.00     0.022 A 
ENDROOT
BRANCH   9  12
ATOM     12  O   UNL     1       2.001 -19.463 -10.467  1.00  0.00    -0.504 OA
ATOM     13  H   UNL     1       2.960 -19.478 -10.794  1.00  0.00     0.293 HD
ENDBRANCH   9  12
BRANCH   8  14
ATOM     14  O   UNL     1       2.730 -21.887 -11.619  1.00  0.00    -0.504 OA
ATOM     15  H   UNL     1       2.535 -22.027 -12.604  1.00  0.00     0.293 HD
ENDBRANCH   8  14
TORSDOF 2
ENDMDL
MODEL 2
REMARK VINA RESULT:    -5.269      4.623      6.442
REMARK INTER + INTRA:          -5.577
REMARK INTER:                  -5.577
REMARK INTRA:                   0.000
REMARK UNBOUND:                 0.000
REMARK SMILES O=c1ccc2cc(O)c(O)cc2o1
REMARK SMILES IDX 4 1 3 2 2 3 1 4 13 5 12 6 11 7 9 8 7 9 6 10 5 11 8 12 10 14
REMARK H PARENT 8 13 10 15
REMARK Flexibility Score: inf
ROOT
ATOM      1  C   UNL     1      -1.730 -27.628  -6.292  1.00  0.00     0.019 A 
ATOM      2  C   UNL     1      -2.122 -26.300  -6.134  1.00  0.00     0.094 A 
ATOM      3  C   UNL     1      -1.779 -25.369  -7.121  1.00  0.00     0.336 A 
ATOM      4  O   UNL     1      -2.125 -24.166  -6.996  1.00  0.00    -0.246 OA
ATOM      5  O   UNL     1      -1.090 -25.749  -8.194  1.00  0.00    -0.423 OA
ATOM      6  C   UNL     1      -0.696 -27.006  -8.383  1.00  0.00     0.142 A 
ATOM      7  C   UNL     1       0.027 -27.347  -9.532  1.00  0.00     0.098 A 
ATOM      8  C   UNL     1       0.444 -28.670  -9.737  1.00  0.00     0.161 A 
ATOM      9  C   UNL     1       0.137 -29.657  -8.788  1.00  0.00     0.158 A 
ATOM     10  C   UNL     1      -0.587 -29.322  -7.636  1.00  0.00     0.062 A 
ATOM     11  C   UNL     1      -1.005 -27.999  -7.429  1.00  0.00     0.022 A 
ENDROOT
BRANCH   9  12
ATOM     12  O   UNL     1       0.556 -30.969  -9.000  1.00  0.00    -0.504 OA
ATOM     13  H   UNL     1       0.628 -31.359  -9.933  1.00  0.00     0.293 HD
ENDBRANCH   9  12
BRANCH   8  14
ATOM     14  O   UNL     1       1.164 -29.011 -10.880  1.00  0.00    -0.504 OA
ATOM     15  H   UNL     1       1.071 -29.922 -11.313  1.00  0.00     0.293 HD
ENDBRANCH   8  14
TORSDOF 2
ENDMDL
MODEL 3
REMARK VINA RESULT:    -5.264      3.996      6.589
REMARK INTER + INTRA:          -5.572
REMARK INTER:                  -5.572
REMARK INTRA:                   0.000
REMARK UNBOUND:                 0.000
REMARK SMILES O=c1ccc2cc(O)c(O)cc2o1
REMARK SMILES IDX 4 1 3 2 2 3 1 4 13 5 12 6 11 7 9 8 7 9 6 10 5 11 8 12 10 14
REMARK H PARENT 8 13 10 15
REMARK Flexibility Score: inf
ROOT
ATOM      1  C   UNL     1       0.777 -25.789  -9.753  1.00  0.00     0.019 A 
ATOM      2  C   UNL     1       0.081 -24.611  -9.487  1.00  0.00     0.094 A 
ATOM      3  C   UNL     1      -0.988 -24.643  -8.585  1.00  0.00     0.336 A 
ATOM      4  O   UNL     1      -1.628 -23.590  -8.331  1.00  0.00    -0.246 OA
ATOM      5  O   UNL     1      -1.333 -25.783  -7.990  1.00  0.00    -0.423 OA
ATOM      6  C   UNL     1      -0.696 -26.929  -8.216  1.00  0.00     0.142 A 
ATOM      7  C   UNL     1      -1.103 -28.096  -7.561  1.00  0.00     0.098 A 
ATOM      8  C   UNL     1      -0.435 -29.307  -7.795  1.00  0.00     0.161 A 
ATOM      9  C   UNL     1       0.645 -29.350  -8.688  1.00  0.00     0.158 A 
ATOM     10  C   UNL     1       1.059 -28.184  -9.347  1.00  0.00     0.062 A 
ATOM     11  C   UNL     1       0.392 -26.972  -9.114  1.00  0.00     0.022 A 
ENDROOT
BRANCH   9  12
ATOM     12  O   UNL     1       1.304 -30.558  -8.914  1.00  0.00    -0.504 OA
ATOM     13  H   UNL     1       0.858 -31.448  -8.727  1.00  0.00     0.293 HD
ENDBRANCH   9  12
BRANCH   8  14
ATOM     14  O   UNL     1      -0.840 -30.471  -7.144  1.00  0.00    -0.504 OA
ATOM     15  H   UNL     1      -1.751 -30.882  -7.309  1.00  0.00     0.293 HD
ENDBRANCH   8  14
TORSDOF 2
ENDMDL
MODEL 4
REMARK VINA RESULT:    -5.186      4.024      6.508
REMARK INTER + INTRA:          -5.489
REMARK INTER:                  -5.489
REMARK INTRA:                   0.000
REMARK UNBOUND:                 0.000
REMARK SMILES O=c1ccc2cc(O)c(O)cc2o1
REMARK SMILES IDX 4 1 3 2 2 3 1 4 13 5 12 6 11 7 9 8 7 9 6 10 5 11 8 12 10 14
REMARK H PARENT 8 13 10 15
REMARK Flexibility Score: inf
ROOT
ATOM      1  C   UNL     1      -1.399 -25.770  -7.997  1.00  0.00     0.019 A 
ATOM      2  C   UNL     1      -0.972 -24.619  -8.656  1.00  0.00     0.094 A 
ATOM      3  C   UNL     1       0.119 -24.702  -9.530  1.00  0.00     0.336 A 
ATOM      4  O   UNL     1       0.519 -23.674 -10.135  1.00  0.00    -0.246 OA
ATOM      5  O   UNL     1       0.736 -25.865  -9.726  1.00  0.00    -0.423 OA
ATOM      6  C   UNL     1       0.360 -26.987  -9.117  1.00  0.00     0.142 A 
ATOM      7  C   UNL     1       1.047 -28.180  -9.363  1.00  0.00     0.098 A 
ATOM      8  C   UNL     1       0.655 -29.366  -8.724  1.00  0.00     0.161 A 
ATOM      9  C   UNL     1      -0.429 -29.357  -7.835  1.00  0.00     0.158 A 
ATOM     10  C   UNL     1      -1.122 -28.164  -7.584  1.00  0.00     0.062 A 
ATOM     11  C   UNL     1      -0.732 -26.978  -8.222  1.00  0.00     0.022 A 
ENDROOT
BRANCH   9  12
ATOM     12  O   UNL     1      -0.812 -30.540  -7.204  1.00  0.00    -0.504 OA
ATOM     13  H   UNL     1      -0.372 -31.425  -7.425  1.00  0.00     0.293 HD
ENDBRANCH   9  12
BRANCH   8  14
ATOM     14  O   UNL     1       1.338 -30.556  -8.968  1.00  0.00    -0.504 OA
ATOM     15  H   UNL     1       2.167 -30.808  -8.444  1.00  0.00     0.293 HD
ENDBRANCH   8  14
TORSDOF 2
ENDMDL
MODEL 5
REMARK VINA RESULT:    -5.119      2.306      2.544
REMARK INTER + INTRA:          -5.418
REMARK INTER:                  -5.418
REMARK INTRA:                   0.000
REMARK UNBOUND:                 0.000
REMARK SMILES O=c1ccc2cc(O)c(O)cc2o1
REMARK SMILES IDX 4 1 3 2 2 3 1 4 13 5 12 6 11 7 9 8 7 9 6 10 5 11 8 12 10 14
REMARK H PARENT 8 13 10 15
REMARK Flexibility Score: inf
ROOT
ATOM      1  C   UNL     1      -1.021 -23.983 -10.996  1.00  0.00     0.019 A 
ATOM      2  C   UNL     1      -0.731 -25.233 -10.452  1.00  0.00     0.094 A 
ATOM      3  C   UNL     1       0.468 -25.408  -9.751  1.00  0.00     0.336 A 
ATOM      4  O   UNL     1       0.746 -26.529  -9.253  1.00  0.00    -0.246 OA
ATOM      5  O   UNL     1       1.316 -24.393  -9.607  1.00  0.00    -0.423 OA
ATOM      6  C   UNL     1       1.079 -23.183 -10.110  1.00  0.00     0.142 A 
ATOM      7  C   UNL     1       2.008 -22.155  -9.926  1.00  0.00     0.098 A 
ATOM      8  C   UNL     1       1.763 -20.878 -10.454  1.00  0.00     0.161 A 
ATOM      9  C   UNL     1       0.582 -20.631 -11.168  1.00  0.00     0.158 A 
ATOM     10  C   UNL     1      -0.354 -21.658 -11.356  1.00  0.00     0.062 A 
ATOM     11  C   UNL     1      -0.110 -22.934 -10.829  1.00  0.00     0.022 A 
ENDROOT
BRANCH   9  12
ATOM     12  O   UNL     1       0.346 -19.360 -11.690  1.00  0.00    -0.504 OA
ATOM     13  H   UNL     1       0.991 -18.924 -12.339  1.00  0.00     0.293 HD
ENDBRANCH   9  12
BRANCH   8  14
ATOM     14  O   UNL     1       2.688 -19.852 -10.272  1.00  0.00    -0.504 OA
ATOM     15  H   UNL     1       2.421 -18.878 -10.348  1.00  0.00     0.293 HD
ENDBRANCH   8  14
TORSDOF 2
ENDMDL
MODEL 6
REMARK VINA RESULT:    -4.971      2.381      2.706
REMARK INTER + INTRA:          -5.262
REMARK INTER:                  -5.262
REMARK INTRA:                   0.000
REMARK UNBOUND:                 0.000
REMARK SMILES O=c1ccc2cc(O)c(O)cc2o1
REMARK SMILES IDX 4 1 3 2 2 3 1 4 13 5 12 6 11 7 9 8 7 9 6 10 5 11 8 12 10 14
REMARK H PARENT 8 13 10 15
REMARK Flexibility Score: inf
ROOT
ATOM      1  C   UNL     1       0.976 -24.065  -9.744  1.00  0.00     0.019 A 
ATOM      2  C   UNL     1      -0.079 -24.882 -10.149  1.00  0.00     0.094 A 
ATOM      3  C   UNL     1      -1.101 -24.332 -10.932  1.00  0.00     0.336 A 
ATOM      4  O   UNL     1      -2.061 -25.053 -11.308  1.00  0.00    -0.246 OA
ATOM      5  O   UNL     1      -1.062 -23.049 -11.285  1.00  0.00    -0.423 OA
ATOM      6  C   UNL     1      -0.074 -22.236 -10.919  1.00  0.00     0.142 A 
ATOM      7  C   UNL     1      -0.087 -20.896 -11.320  1.00  0.00     0.098 A 
ATOM      8  C   UNL     1       0.952 -20.034 -10.939  1.00  0.00     0.161 A 
ATOM      9  C   UNL     1       2.008 -20.516 -10.153  1.00  0.00     0.158 A 
ATOM     10  C   UNL     1       2.028 -21.858  -9.748  1.00  0.00     0.062 A 
ATOM     11  C   UNL     1       0.990 -22.721 -10.129  1.00  0.00     0.022 A 
ENDROOT
BRANCH   9  12
ATOM     12  O   UNL     1       3.037 -19.653  -9.778  1.00  0.00    -0.504 OA
ATOM     13  H   UNL     1       3.698 -19.899  -9.050  1.00  0.00     0.293 HD
ENDBRANCH   9  12
BRANCH   8  14
ATOM     14  O   UNL     1       0.940 -18.699 -11.337  1.00  0.00    -0.504 OA
ATOM     15  H   UNL     1       0.547 -18.414 -12.226  1.00  0.00     0.293 HD
ENDBRANCH   8  14
TORSDOF 2
ENDMDL
MODEL 7
REMARK VINA RESULT:    -4.932     14.295     15.867
REMARK INTER + INTRA:          -5.220
REMARK INTER:                  -5.220
REMARK INTRA:                   0.000
REMARK UNBOUND:                 0.000
REMARK SMILES O=c1ccc2cc(O)c(O)cc2o1
REMARK SMILES IDX 4 1 3 2 2 3 1 4 13 5 12 6 11 7 9 8 7 9 6 10 5 11 8 12 10 14
REMARK H PARENT 8 13 10 15
REMARK Flexibility Score: inf
ROOT
ATOM      1  C   UNL     1      15.868 -17.217  -9.389  1.00  0.00     0.019 A 
ATOM      2  C   UNL     1      14.786 -16.652 -10.063  1.00  0.00     0.094 A 
ATOM      3  C   UNL     1      13.536 -17.276  -9.984  1.00  0.00     0.336 A 
ATOM      4  O   UNL     1      12.548 -16.781 -10.585  1.00  0.00    -0.246 OA
ATOM      5  O   UNL     1      13.385 -18.392  -9.275  1.00  0.00    -0.423 OA
ATOM      6  C   UNL     1      14.391 -18.964  -8.617  1.00  0.00     0.142 A 
ATOM      7  C   UNL     1      14.172 -20.137  -7.887  1.00  0.00     0.098 A 
ATOM      8  C   UNL     1      15.229 -20.744  -7.192  1.00  0.00     0.161 A 
ATOM      9  C   UNL     1      16.509 -20.174  -7.227  1.00  0.00     0.158 A 
ATOM     10  C   UNL     1      16.735 -18.998  -7.956  1.00  0.00     0.062 A 
ATOM     11  C   UNL     1      15.681 -18.390  -8.652  1.00  0.00     0.022 A 
ENDROOT
BRANCH   9  12
ATOM     12  O   UNL     1      17.553 -20.784  -6.533  1.00  0.00    -0.504 OA
ATOM     13  H   UNL     1      18.523 -20.597  -6.762  1.00  0.00     0.293 HD
ENDBRANCH   9  12
BRANCH   8  14
ATOM     14  O   UNL     1      15.013 -21.913  -6.465  1.00  0.00    -0.504 OA
ATOM     15  H   UNL     1      15.771 -22.395  -5.998  1.00  0.00     0.293 HD
ENDBRANCH   8  14
TORSDOF 2
ENDMDL
MODEL 8
REMARK VINA RESULT:    -4.871     14.406     16.079
REMARK INTER + INTRA:          -5.156
REMARK INTER:                  -5.156
REMARK INTRA:                   0.000
REMARK UNBOUND:                 0.000
REMARK SMILES O=c1ccc2cc(O)c(O)cc2o1
REMARK SMILES IDX 4 1 3 2 2 3 1 4 13 5 12 6 11 7 9 8 7 9 6 10 5 11 8 12 10 14
REMARK H PARENT 8 13 10 15
REMARK Flexibility Score: inf
ROOT
ATOM      1  C   UNL     1      13.250 -18.500  -9.119  1.00  0.00     0.019 A 
ATOM      2  C   UNL     1      13.464 -17.388  -9.931  1.00  0.00     0.094 A 
ATOM      3  C   UNL     1      14.762 -16.878 -10.056  1.00  0.00     0.336 A 
ATOM      4  O   UNL     1      14.975 -15.875 -10.785  1.00  0.00    -0.246 OA
ATOM      5  O   UNL     1      15.774 -17.450  -9.408  1.00  0.00    -0.423 OA
ATOM      6  C   UNL     1      15.613 -18.513  -8.623  1.00  0.00     0.142 A 
ATOM      7  C   UNL     1      16.715 -19.071  -7.968  1.00  0.00     0.098 A 
ATOM      8  C   UNL     1      16.551 -20.191  -7.139  1.00  0.00     0.161 A 
ATOM      9  C   UNL     1      15.279 -20.755  -6.967  1.00  0.00     0.158 A 
ATOM     10  C   UNL     1      14.170 -20.200  -7.621  1.00  0.00     0.062 A 
ATOM     11  C   UNL     1      14.332 -19.080  -8.449  1.00  0.00     0.022 A 
ENDROOT
BRANCH   9  12
ATOM     12  O   UNL     1      15.125 -21.868  -6.141  1.00  0.00    -0.504 OA
ATOM     13  H   UNL     1      14.810 -21.778  -5.182  1.00  0.00     0.293 HD
ENDBRANCH   9  12
BRANCH   8  14
ATOM     14  O   UNL     1      17.648 -20.749  -6.485  1.00  0.00    -0.504 OA
ATOM     15  H   UNL     1      18.458 -21.080  -6.995  1.00  0.00     0.293 HD
ENDBRANCH   8  14
TORSDOF 2
ENDMDL
MODEL 9
REMARK VINA RESULT:    -4.681     14.385     16.409
REMARK INTER + INTRA:          -4.955
REMARK INTER:                  -4.955
REMARK INTRA:                   0.000
REMARK UNBOUND:                 0.000
REMARK SMILES O=c1ccc2cc(O)c(O)cc2o1
REMARK SMILES IDX 4 1 3 2 2 3 1 4 13 5 12 6 11 7 9 8 7 9 6 10 5 11 8 12 10 14
REMARK H PARENT 8 13 10 15
REMARK Flexibility Score: inf
ROOT
ATOM      1  C   UNL     1      14.816 -16.734  -7.445  1.00  0.00     0.019 A 
ATOM      2  C   UNL     1      15.916 -15.996  -7.011  1.00  0.00     0.094 A 
ATOM      3  C   UNL     1      16.975 -16.661  -6.385  1.00  0.00     0.336 A 
ATOM      4  O   UNL     1      17.977 -16.012  -5.986  1.00  0.00    -0.246 OA
ATOM      5  O   UNL     1      16.932 -17.980  -6.209  1.00  0.00    -0.423 OA
ATOM      6  C   UNL     1      15.901 -18.722  -6.608  1.00  0.00     0.142 A 
ATOM      7  C   UNL     1      15.912 -20.104  -6.397  1.00  0.00     0.098 A 
ATOM      8  C   UNL     1      14.829 -20.891  -6.816  1.00  0.00     0.161 A 
ATOM      9  C   UNL     1      13.731 -20.291  -7.450  1.00  0.00     0.158 A 
ATOM     10  C   UNL     1      13.715 -18.906  -7.665  1.00  0.00     0.062 A 
ATOM     11  C   UNL     1      14.797 -18.118  -7.247  1.00  0.00     0.022 A 
ENDROOT
BRANCH   9  12
ATOM     12  O   UNL     1      12.659 -21.081  -7.863  1.00  0.00    -0.504 OA
ATOM     13  H   UNL     1      12.386 -21.913  -7.354  1.00  0.00     0.293 HD
ENDBRANCH   9  12
BRANCH   8  14
ATOM     14  O   UNL     1      14.837 -22.268  -6.606  1.00  0.00    -0.504 OA
ATOM     15  H   UNL     1      15.684 -22.815  -6.705  1.00  0.00     0.293 HD
ENDBRANCH   8  14
TORSDOF 2
ENDMDL
