MODEL 1
REMARK VINA RESULT:    -3.782      0.000      0.000
REMARK INTER + INTRA:          -4.970
REMARK INTER:                  -4.556
REMARK INTRA:                  -0.414
REMARK UNBOUND:                -0.414
REMARK SMILES O=c1c(O)c(-c2ccc(O)cc2O)oc2cc(O)cc(O)c12
REMARK SMILES IDX 5 1 3 2 2 3 1 4 22 5 20 6 19 7 17 8 16 9 15 10 14 11 6 12
REMARK SMILES IDX 8 13 7 14 9 15 11 16 12 17 10 18 13 20 4 22 21 24 18 26
REMARK H PARENT 10 19 13 21 4 23 21 25 18 27
REMARK Flexibility Score: inf
ROOT
ATOM      1  C   UNL     1      12.096   8.066  28.519  1.00  0.00     0.184 A 
ATOM      2  C   UNL     1      10.783   8.218  28.047  1.00  0.00     0.208 A 
ATOM      3  C   UNL     1      10.002   9.278  28.534  1.00  0.00     0.238 A 
ATOM      4  O   UNL     1       8.845   9.442  28.068  1.00  0.00    -0.285 OA
ATOM      5  C   UNL     1      10.542  10.164  29.500  1.00  0.00     0.111 A 
ATOM      6  C   UNL     1       9.829  11.249  30.093  1.00  0.00     0.134 A 
ATOM      7  C   UNL     1      10.503  12.137  30.940  1.00  0.00     0.093 A 
ATOM      8  C   UNL     1      11.843  11.943  31.266  1.00  0.00     0.123 A 
ATOM      9  C   UNL     1      12.535  10.852  30.739  1.00  0.00     0.094 A 
ATOM     10  C   UNL     1      11.900   9.968  29.863  1.00  0.00     0.146 A 
ATOM     11  O   UNL     1      12.597   8.949  29.375  1.00  0.00    -0.451 OA
ENDROOT
BRANCH   1  12
ATOM     12  C   UNL     1      12.964   6.961  28.060  1.00  0.00     0.063 A 
ATOM     13  C   UNL     1      14.324   5.985  26.298  1.00  0.00     0.047 A 
ATOM     14  C   UNL     1      13.495   7.009  26.762  1.00  0.00     0.020 A 
ATOM     15  C   UNL     1      14.642   4.906  27.131  1.00  0.00     0.119 A 
ATOM     16  C   UNL     1      14.136   4.862  28.433  1.00  0.00     0.093 A 
ATOM     17  C   UNL     1      13.308   5.890  28.909  1.00  0.00     0.130 A 
BRANCH  15  18
ATOM     18  O   UNL     1      15.464   3.875  26.679  1.00  0.00    -0.508 OA
ATOM     19  H   UNL     1      16.460   3.872  26.867  1.00  0.00     0.293 HD
ENDBRANCH  15  18
BRANCH  17  20
ATOM     20  O   UNL     1      12.850   5.858  30.227  1.00  0.00    -0.507 OA
ATOM     21  H   UNL     1      12.817   4.996  30.758  1.00  0.00     0.293 HD
ENDBRANCH  17  20
ENDBRANCH   1  12
BRANCH   2  22
ATOM     22  O   UNL     1      10.282   7.342  27.081  1.00  0.00    -0.502 OA
ATOM     23  H   UNL     1       9.296   7.120  27.007  1.00  0.00     0.293 HD
ENDBRANCH   2  22
BRANCH   6  24
ATOM     24  O   UNL     1       8.462  11.479  29.905  1.00  0.00    -0.507 OA
ATOM     25  H   UNL     1       7.834  11.819  30.616  1.00  0.00     0.293 HD
ENDBRANCH   6  24
BRANCH   8  26
ATOM     26  O   UNL     1      12.478  12.839  32.125  1.00  0.00    -0.508 OA
ATOM     27  H   UNL     1      13.345  12.601  32.593  1.00  0.00     0.293 HD
ENDBRANCH   8  26
TORSDOF 6
ENDMDL
