MODEL 1
REMARK VINA RESULT:    -4.805      0.000      0.000
REMARK INTER + INTRA:         -16.742
REMARK INTER:                 -12.671
REMARK INTRA:                  -4.072
REMARK UNBOUND:                -4.072
REMARK SMILES CCCCCCCCCCCCCCCCCCCCCCCCCCCCCC(=O)[O-]
REMARK SMILES IDX 16 1 17 2 18 3 19 4 20 5 21 6 22 7 23 8 24 9 25 10 26 11
REMARK SMILES IDX 27 12 28 13 29 14 30 15 31 16 32 17 15 18 14 19 13 20 12 21
REMARK SMILES IDX 11 22 10 23 9 24 8 25 7 26 6 27 5 28 4 29 3 30 2 31 1 32
REMARK H PARENT
REMARK Flexibility Score: inf
ROOT
ATOM      1  C   UNL     1      10.796   7.025  21.514  1.00  0.00     0.000 C 
ENDROOT
BRANCH   1   2
ATOM      2  C   UNL     1       9.323   7.473  21.434  1.00  0.00     0.000 C 
BRANCH   2   3
ATOM      3  C   UNL     1       9.074   8.783  20.660  1.00  0.00     0.000 C 
BRANCH   3   4
ATOM      4  C   UNL     1       8.182   9.809  21.386  1.00  0.00     0.000 C 
BRANCH   4   5
ATOM      5  C   UNL     1       7.885   9.472  22.858  1.00  0.00     0.000 C 
BRANCH   5   6
ATOM      6  C   UNL     1       6.449   8.953  23.100  1.00  0.00     0.000 C 
BRANCH   6   7
ATOM      7  C   UNL     1       5.394   9.504  22.119  1.00  0.00     0.000 C 
BRANCH   7   8
ATOM      8  C   UNL     1       4.741   8.463  21.185  1.00  0.00     0.000 C 
BRANCH   8   9
ATOM      9  C   UNL     1       5.566   7.187  20.935  1.00  0.00     0.000 C 
BRANCH   9  10
ATOM     10  C   UNL     1       6.115   7.105  19.501  1.00  0.00     0.000 C 
BRANCH  10  11
ATOM     11  C   UNL     1       5.412   8.079  18.542  1.00  0.00     0.000 C 
BRANCH  11  12
ATOM     12  C   UNL     1       5.154   7.466  17.153  1.00  0.00     0.000 C 
BRANCH  12  13
ATOM     13  C   UNL     1       6.370   7.584  16.221  1.00  0.00     0.006 C 
BRANCH  13  14
ATOM     14  C   UNL     1       6.368   6.525  15.110  1.00  0.00     0.053 C 
BRANCH  14  15
ATOM     15  C   UNL     1       7.673   6.519  14.378  1.00  0.00     0.041 C 
ATOM     16  O   UNL     1       7.920   5.621  13.528  1.00  0.00    -0.550 OA
ATOM     17  O   UNL     1       8.619   7.503  14.631  1.00  0.00    -0.550 OA
ENDBRANCH  14  15
ENDBRANCH  13  14
ENDBRANCH  12  13
ENDBRANCH  11  12
ENDBRANCH  10  11
ENDBRANCH   9  10
ENDBRANCH   8   9
ENDBRANCH   7   8
ENDBRANCH   6   7
ENDBRANCH   5   6
ENDBRANCH   4   5
ENDBRANCH   3   4
ENDBRANCH   2   3
ENDBRANCH   1   2
BRANCH   1  18
ATOM     18  C   UNL     1      11.366   6.928  22.939  1.00  0.00     0.000 C 
BRANCH  18  19
ATOM     19  C   UNL     1      11.270   8.257  23.711  1.00  0.00     0.000 C 
BRANCH  19  20
ATOM     20  C   UNL     1      12.643   8.912  23.919  1.00  0.00     0.000 C 
BRANCH  20  21
ATOM     21  C   UNL     1      13.805   7.957  23.591  1.00  0.00     0.000 C 
BRANCH  21  22
ATOM     22  C   UNL     1      14.697   7.656  24.808  1.00  0.00     0.000 C 
BRANCH  22  23
ATOM     23  C   UNL     1      13.937   7.412  26.125  1.00  0.00     0.000 C 
BRANCH  23  24
ATOM     24  C   UNL     1      13.565   5.936  26.338  1.00  0.00    -0.000 C 
BRANCH  24  25
ATOM     25  C   UNL     1      12.056   5.732  26.604  1.00  0.00    -0.000 C 
BRANCH  25  26
ATOM     26  C   UNL     1      11.382   6.937  27.288  1.00  0.00    -0.000 C 
BRANCH  26  27
ATOM     27  C   UNL     1       9.877   7.066  26.997  1.00  0.00    -0.000 C 
BRANCH  27  28
ATOM     28  C   UNL     1       8.995   6.304  28.012  1.00  0.00    -0.000 C 
BRANCH  28  29
ATOM     29  C   UNL     1       9.206   6.793  29.452  1.00  0.00    -0.000 C 
BRANCH  29  30
ATOM     30  C   UNL     1       9.346   5.640  30.459  1.00  0.00    -0.000 C 
BRANCH  30  31
ATOM     31  C   UNL     1      10.136   4.435  29.906  1.00  0.00    -0.003 C 
ATOM     32  C   UNL     1      11.636   4.550  30.179  1.00  0.00     0.004 C 
ENDBRANCH  30  31
ENDBRANCH  29  30
ENDBRANCH  28  29
ENDBRANCH  27  28
ENDBRANCH  26  27
ENDBRANCH  25  26
ENDBRANCH  24  25
ENDBRANCH  23  24
ENDBRANCH  22  23
ENDBRANCH  21  22
ENDBRANCH  20  21
ENDBRANCH  19  20
ENDBRANCH  18  19
ENDBRANCH   1  18
TORSDOF 28
ENDMDL
MODEL 2
REMARK VINA RESULT:    -4.742      1.482      2.897
REMARK INTER + INTRA:         -16.575
REMARK INTER:                 -12.526
REMARK INTRA:                  -4.049
REMARK UNBOUND:                -4.072
REMARK SMILES CCCCCCCCCCCCCCCCCCCCCCCCCCCCCC(=O)[O-]
REMARK SMILES IDX 16 1 17 2 18 3 19 4 20 5 21 6 22 7 23 8 24 9 25 10 26 11
REMARK SMILES IDX 27 12 28 13 29 14 30 15 31 16 32 17 15 18 14 19 13 20 12 21
REMARK SMILES IDX 11 22 10 23 9 24 8 25 7 26 6 27 5 28 4 29 3 30 2 31 1 32
REMARK H PARENT
REMARK Flexibility Score: inf
ROOT
ATOM      1  C   UNL     1      11.258   9.131  19.979  1.00  0.00     0.000 C 
ENDROOT
BRANCH   1   2
ATOM      2  C   UNL     1       9.737   9.359  19.871  1.00  0.00     0.000 C 
BRANCH   2   3
ATOM      3  C   UNL     1       9.045   9.812  21.173  1.00  0.00     0.000 C 
BRANCH   3   4
ATOM      4  C   UNL     1       8.016   8.817  21.743  1.00  0.00     0.000 C 
BRANCH   4   5
ATOM      5  C   UNL     1       7.952   7.467  21.006  1.00  0.00     0.000 C 
BRANCH   5   6
ATOM      6  C   UNL     1       6.513   6.940  20.798  1.00  0.00     0.000 C 
BRANCH   6   7
ATOM      7  C   UNL     1       5.751   7.599  19.630  1.00  0.00     0.000 C 
BRANCH   7   8
ATOM      8  C   UNL     1       6.559   7.791  18.328  1.00  0.00     0.000 C 
BRANCH   8   9
ATOM      9  C   UNL     1       6.203   9.042  17.505  1.00  0.00     0.000 C 
BRANCH   9  10
ATOM     10  C   UNL     1       5.135   8.765  16.433  1.00  0.00     0.000 C 
BRANCH  10  11
ATOM     11  C   UNL     1       5.743   8.324  15.093  1.00  0.00     0.000 C 
BRANCH  11  12
ATOM     12  C   UNL     1       6.900   9.231  14.635  1.00  0.00     0.000 C 
BRANCH  12  13
ATOM     13  C   UNL     1       7.936   8.482  13.784  1.00  0.00     0.006 C 
BRANCH  13  14
ATOM     14  C   UNL     1       7.814   6.957  13.909  1.00  0.00     0.053 C 
BRANCH  14  15
ATOM     15  C   UNL     1       7.329   6.354  12.629  1.00  0.00     0.041 C 
ATOM     16  O   UNL     1       7.035   7.094  11.651  1.00  0.00    -0.550 OA
ATOM     17  O   UNL     1       7.200   4.977  12.511  1.00  0.00    -0.550 OA
ENDBRANCH  14  15
ENDBRANCH  13  14
ENDBRANCH  12  13
ENDBRANCH  11  12
ENDBRANCH  10  11
ENDBRANCH   9  10
ENDBRANCH   8   9
ENDBRANCH   7   8
ENDBRANCH   6   7
ENDBRANCH   5   6
ENDBRANCH   4   5
ENDBRANCH   3   4
ENDBRANCH   2   3
ENDBRANCH   1   2
BRANCH   1  18
ATOM     18  C   UNL     1      11.673   7.689  20.315  1.00  0.00     0.000 C 
BRANCH  18  19
ATOM     19  C   UNL     1      12.298   7.559  21.716  1.00  0.00     0.000 C 
BRANCH  19  20
ATOM     20  C   UNL     1      11.313   6.982  22.744  1.00  0.00     0.000 C 
BRANCH  20  21
ATOM     21  C   UNL     1      10.925   8.007  23.825  1.00  0.00     0.000 C 
BRANCH  21  22
ATOM     22  C   UNL     1      11.785   9.282  23.779  1.00  0.00     0.000 C 
BRANCH  22  23
ATOM     23  C   UNL     1      12.770   9.441  24.951  1.00  0.00     0.000 C 
BRANCH  23  24
ATOM     24  C   UNL     1      14.215   9.076  24.574  1.00  0.00    -0.000 C 
BRANCH  24  25
ATOM     25  C   UNL     1      14.571   7.612  24.919  1.00  0.00    -0.000 C 
BRANCH  25  26
ATOM     26  C   UNL     1      14.079   7.170  26.311  1.00  0.00    -0.000 C 
BRANCH  26  27
ATOM     27  C   UNL     1      12.963   6.111  26.278  1.00  0.00    -0.000 C 
BRANCH  27  28
ATOM     28  C   UNL     1      11.809   6.413  27.260  1.00  0.00    -0.000 C 
BRANCH  28  29
ATOM     29  C   UNL     1      10.477   5.804  26.800  1.00  0.00    -0.000 C 
BRANCH  29  30
ATOM     30  C   UNL     1      10.137   4.494  27.529  1.00  0.00    -0.000 C 
BRANCH  30  31
ATOM     31  C   UNL     1       9.431   4.712  28.884  1.00  0.00    -0.003 C 
ATOM     32  C   UNL     1      10.141   3.993  30.031  1.00  0.00     0.004 C 
ENDBRANCH  30  31
ENDBRANCH  29  30
ENDBRANCH  28  29
ENDBRANCH  27  28
ENDBRANCH  26  27
ENDBRANCH  25  26
ENDBRANCH  24  25
ENDBRANCH  23  24
ENDBRANCH  22  23
ENDBRANCH  21  22
ENDBRANCH  20  21
ENDBRANCH  19  20
ENDBRANCH  18  19
ENDBRANCH   1  18
TORSDOF 28
ENDMDL
MODEL 3
REMARK VINA RESULT:    -4.663      4.114     11.687
REMARK INTER + INTRA:         -16.368
REMARK INTER:                 -12.688
REMARK INTRA:                  -3.681
REMARK UNBOUND:                -4.072
REMARK SMILES CCCCCCCCCCCCCCCCCCCCCCCCCCCCCC(=O)[O-]
REMARK SMILES IDX 16 1 17 2 18 3 19 4 20 5 21 6 22 7 23 8 24 9 25 10 26 11
REMARK SMILES IDX 27 12 28 13 29 14 30 15 31 16 32 17 15 18 14 19 13 20 12 21
REMARK SMILES IDX 11 22 10 23 9 24 8 25 7 26 6 27 5 28 4 29 3 30 2 31 1 32
REMARK H PARENT
REMARK Flexibility Score: inf
ROOT
ATOM      1  C   UNL     1       5.048   7.719  21.939  1.00  0.00     0.000 C 
ENDROOT
BRANCH   1   2
ATOM      2  C   UNL     1       5.805   8.620  22.935  1.00  0.00     0.000 C 
BRANCH   2   3
ATOM      3  C   UNL     1       6.898   9.514  22.314  1.00  0.00     0.000 C 
BRANCH   3   4
ATOM      4  C   UNL     1       8.318   9.280  22.862  1.00  0.00     0.000 C 
BRANCH   4   5
ATOM      5  C   UNL     1       9.407   9.137  21.784  1.00  0.00     0.000 C 
BRANCH   5   6
ATOM      6  C   UNL     1       9.422   7.753  21.094  1.00  0.00     0.000 C 
BRANCH   6   7
ATOM      7  C   UNL     1      10.441   6.756  21.681  1.00  0.00     0.000 C 
BRANCH   7   8
ATOM      8  C   UNL     1      11.717   7.381  22.286  1.00  0.00     0.000 C 
BRANCH   8   9
ATOM      9  C   UNL     1      11.925   7.137  23.792  1.00  0.00     0.000 C 
BRANCH   9  10
ATOM     10  C   UNL     1      11.599   8.374  24.646  1.00  0.00     0.000 C 
BRANCH  10  11
ATOM     11  C   UNL     1      11.145   8.008  26.068  1.00  0.00     0.000 C 
BRANCH  11  12
ATOM     12  C   UNL     1      10.955   6.493  26.261  1.00  0.00     0.000 C 
BRANCH  12  13
ATOM     13  C   UNL     1      11.700   5.957  27.494  1.00  0.00     0.006 C 
BRANCH  13  14
ATOM     14  C   UNL     1      10.902   4.885  28.248  1.00  0.00     0.053 C 
BRANCH  14  15
ATOM     15  C   UNL     1      10.017   5.508  29.281  1.00  0.00     0.041 C 
ATOM     16  O   UNL     1      10.004   6.760  29.434  1.00  0.00    -0.550 OA
ATOM     17  O   UNL     1       9.205   4.711  30.077  1.00  0.00    -0.550 OA
ENDBRANCH  14  15
ENDBRANCH  13  14
ENDBRANCH  12  13
ENDBRANCH  11  12
ENDBRANCH  10  11
ENDBRANCH   9  10
ENDBRANCH   8   9
ENDBRANCH   7   8
ENDBRANCH   6   7
ENDBRANCH   5   6
ENDBRANCH   4   5
ENDBRANCH   3   4
ENDBRANCH   2   3
ENDBRANCH   1   2
BRANCH   1  18
ATOM     18  C   UNL     1       5.933   6.732  21.159  1.00  0.00     0.000 C 
BRANCH  18  19
ATOM     19  C   UNL     1       6.078   7.108  19.673  1.00  0.00     0.000 C 
BRANCH  19  20
ATOM     20  C   UNL     1       5.072   8.185  19.242  1.00  0.00     0.000 C 
BRANCH  20  21
ATOM     21  C   UNL     1       5.760   9.428  18.650  1.00  0.00     0.000 C 
BRANCH  21  22
ATOM     22  C   UNL     1       5.092   9.924  17.355  1.00  0.00     0.000 C 
BRANCH  22  23
ATOM     23  C   UNL     1       4.018   8.984  16.778  1.00  0.00     0.000 C 
BRANCH  23  24
ATOM     24  C   UNL     1       4.489   8.235  15.521  1.00  0.00    -0.000 C 
BRANCH  24  25
ATOM     25  C   UNL     1       4.905   6.776  15.816  1.00  0.00    -0.000 C 
BRANCH  25  26
ATOM     26  C   UNL     1       6.414   6.518  15.641  1.00  0.00    -0.000 C 
BRANCH  26  27
ATOM     27  C   UNL     1       7.223   7.762  15.235  1.00  0.00    -0.000 C 
BRANCH  27  28
ATOM     28  C   UNL     1       8.398   7.440  14.284  1.00  0.00    -0.000 C 
BRANCH  28  29
ATOM     29  C   UNL     1       8.022   7.627  12.807  1.00  0.00    -0.000 C 
BRANCH  29  30
ATOM     30  C   UNL     1       7.909   6.295  12.048  1.00  0.00    -0.000 C 
BRANCH  30  31
ATOM     31  C   UNL     1       6.508   5.655  12.135  1.00  0.00    -0.003 C 
ATOM     32  C   UNL     1       5.463   6.435  11.338  1.00  0.00     0.004 C 
ENDBRANCH  30  31
ENDBRANCH  29  30
ENDBRANCH  28  29
ENDBRANCH  27  28
ENDBRANCH  26  27
ENDBRANCH  25  26
ENDBRANCH  24  25
ENDBRANCH  23  24
ENDBRANCH  22  23
ENDBRANCH  21  22
ENDBRANCH  20  21
ENDBRANCH  19  20
ENDBRANCH  18  19
ENDBRANCH   1  18
TORSDOF 28
ENDMDL
MODEL 4
REMARK VINA RESULT:    -4.628      1.424      1.998
REMARK INTER + INTRA:         -16.275
REMARK INTER:                 -13.134
REMARK INTRA:                  -3.141
REMARK UNBOUND:                -4.072
REMARK SMILES CCCCCCCCCCCCCCCCCCCCCCCCCCCCCC(=O)[O-]
REMARK SMILES IDX 16 1 17 2 18 3 19 4 20 5 21 6 22 7 23 8 24 9 25 10 26 11
REMARK SMILES IDX 27 12 28 13 29 14 30 15 31 16 32 17 15 18 14 19 13 20 12 21
REMARK SMILES IDX 11 22 10 23 9 24 8 25 7 26 6 27 5 28 4 29 3 30 2 31 1 32
REMARK H PARENT
REMARK Flexibility Score: inf
ROOT
ATOM      1  C   UNL     1      10.350   6.753  21.561  1.00  0.00     0.000 C 
ENDROOT
BRANCH   1   2
ATOM      2  C   UNL     1       9.203   7.706  21.171  1.00  0.00     0.000 C 
BRANCH   2   3
ATOM      3  C   UNL     1       7.839   7.031  20.927  1.00  0.00     0.000 C 
BRANCH   3   4
ATOM      4  C   UNL     1       6.967   7.695  19.844  1.00  0.00     0.000 C 
BRANCH   4   5
ATOM      5  C   UNL     1       5.456   7.674  20.134  1.00  0.00     0.000 C 
BRANCH   5   6
ATOM      6  C   UNL     1       4.954   8.914  20.910  1.00  0.00     0.000 C 
BRANCH   6   7
ATOM      7  C   UNL     1       3.453   9.219  20.730  1.00  0.00     0.000 C 
BRANCH   7   8
ATOM      8  C   UNL     1       2.792   8.604  19.477  1.00  0.00     0.000 C 
BRANCH   8   9
ATOM      9  C   UNL     1       2.045   9.595  18.568  1.00  0.00     0.000 C 
BRANCH   9  10
ATOM     10  C   UNL     1       2.770   9.842  17.234  1.00  0.00     0.000 C 
BRANCH  10  11
ATOM     11  C   UNL     1       3.973   8.906  17.033  1.00  0.00     0.000 C 
BRANCH  11  12
ATOM     12  C   UNL     1       5.269   9.665  16.697  1.00  0.00     0.000 C 
BRANCH  12  13
ATOM     13  C   UNL     1       6.030   9.040  15.517  1.00  0.00     0.006 C 
BRANCH  13  14
ATOM     14  C   UNL     1       6.158   7.515  15.637  1.00  0.00     0.053 C 
BRANCH  14  15
ATOM     15  C   UNL     1       7.243   7.000  14.744  1.00  0.00     0.041 C 
ATOM     16  O   UNL     1       7.034   6.001  14.003  1.00  0.00    -0.550 OA
ATOM     17  O   UNL     1       8.485   7.620  14.726  1.00  0.00    -0.550 OA
ENDBRANCH  14  15
ENDBRANCH  13  14
ENDBRANCH  12  13
ENDBRANCH  11  12
ENDBRANCH  10  11
ENDBRANCH   9  10
ENDBRANCH   8   9
ENDBRANCH   7   8
ENDBRANCH   6   7
ENDBRANCH   5   6
ENDBRANCH   4   5
ENDBRANCH   3   4
ENDBRANCH   2   3
ENDBRANCH   1   2
BRANCH   1  18
ATOM     18  C   UNL     1      11.382   7.347  22.535  1.00  0.00     0.000 C 
BRANCH  18  19
ATOM     19  C   UNL     1      10.757   7.781  23.873  1.00  0.00     0.000 C 
BRANCH  19  20
ATOM     20  C   UNL     1      11.599   8.846  24.592  1.00  0.00     0.000 C 
BRANCH  20  21
ATOM     21  C   UNL     1      13.000   9.004  23.973  1.00  0.00     0.000 C 
BRANCH  21  22
ATOM     22  C   UNL     1      14.133   8.678  24.961  1.00  0.00     0.000 C 
BRANCH  22  23
ATOM     23  C   UNL     1      14.347   7.177  25.231  1.00  0.00     0.000 C 
BRANCH  23  24
ATOM     24  C   UNL     1      14.002   6.772  26.673  1.00  0.00    -0.000 C 
BRANCH  24  25
ATOM     25  C   UNL     1      12.892   5.699  26.743  1.00  0.00    -0.000 C 
BRANCH  25  26
ATOM     26  C   UNL     1      11.584   6.207  27.380  1.00  0.00    -0.000 C 
BRANCH  26  27
ATOM     27  C   UNL     1      10.311   5.556  26.810  1.00  0.00    -0.000 C 
BRANCH  27  28
ATOM     28  C   UNL     1       9.366   5.010  27.904  1.00  0.00    -0.000 C 
BRANCH  28  29
ATOM     29  C   UNL     1       9.102   6.038  29.013  1.00  0.00    -0.000 C 
BRANCH  29  30
ATOM     30  C   UNL     1       9.544   5.545  30.400  1.00  0.00    -0.000 C 
BRANCH  30  31
ATOM     31  C   UNL     1      10.338   4.223  30.357  1.00  0.00    -0.003 C 
ATOM     32  C   UNL     1      11.825   4.429  30.643  1.00  0.00     0.004 C 
ENDBRANCH  30  31
ENDBRANCH  29  30
ENDBRANCH  28  29
ENDBRANCH  27  28
ENDBRANCH  26  27
ENDBRANCH  25  26
ENDBRANCH  24  25
ENDBRANCH  23  24
ENDBRANCH  22  23
ENDBRANCH  21  22
ENDBRANCH  20  21
ENDBRANCH  19  20
ENDBRANCH  18  19
ENDBRANCH   1  18
TORSDOF 28
ENDMDL
MODEL 5
REMARK VINA RESULT:    -4.600      1.565      2.947
REMARK INTER + INTRA:         -16.202
REMARK INTER:                 -13.229
REMARK INTRA:                  -2.973
REMARK UNBOUND:                -4.072
REMARK SMILES CCCCCCCCCCCCCCCCCCCCCCCCCCCCCC(=O)[O-]
REMARK SMILES IDX 16 1 17 2 18 3 19 4 20 5 21 6 22 7 23 8 24 9 25 10 26 11
REMARK SMILES IDX 27 12 28 13 29 14 30 15 31 16 32 17 15 18 14 19 13 20 12 21
REMARK SMILES IDX 11 22 10 23 9 24 8 25 7 26 6 27 5 28 4 29 3 30 2 31 1 32
REMARK H PARENT
REMARK Flexibility Score: inf
ROOT
ATOM      1  C   UNL     1       8.477   6.766  20.999  1.00  0.00     0.000 C 
ENDROOT
BRANCH   1   2
ATOM      2  C   UNL     1       7.145   7.131  20.314  1.00  0.00     0.000 C 
BRANCH   2   3
ATOM      3  C   UNL     1       5.875   6.775  21.113  1.00  0.00     0.000 C 
BRANCH   3   4
ATOM      4  C   UNL     1       4.839   7.910  21.229  1.00  0.00     0.000 C 
BRANCH   4   5
ATOM      5  C   UNL     1       5.335   9.283  20.742  1.00  0.00     0.000 C 
BRANCH   5   6
ATOM      6  C   UNL     1       4.396   9.955  19.713  1.00  0.00     0.000 C 
BRANCH   6   7
ATOM      7  C   UNL     1       3.513   8.974  18.915  1.00  0.00     0.000 C 
BRANCH   7   8
ATOM      8  C   UNL     1       4.001   8.644  17.488  1.00  0.00     0.000 C 
BRANCH   8   9
ATOM      9  C   UNL     1       4.500   7.204  17.274  1.00  0.00     0.000 C 
BRANCH   9  10
ATOM     10  C   UNL     1       5.974   7.143  16.839  1.00  0.00     0.000 C 
BRANCH  10  11
ATOM     11  C   UNL     1       6.439   8.433  16.144  1.00  0.00     0.000 C 
BRANCH  11  12
ATOM     12  C   UNL     1       6.739   8.229  14.648  1.00  0.00     0.000 C 
BRANCH  12  13
ATOM     13  C   UNL     1       8.147   7.667  14.399  1.00  0.00     0.006 C 
BRANCH  13  14
ATOM     14  C   UNL     1       8.253   6.900  13.074  1.00  0.00     0.053 C 
BRANCH  14  15
ATOM     15  C   UNL     1       7.489   5.615  13.140  1.00  0.00     0.041 C 
ATOM     16  O   UNL     1       6.808   5.230  12.151  1.00  0.00    -0.550 OA
ATOM     17  O   UNL     1       7.526   4.840  14.291  1.00  0.00    -0.550 OA
ENDBRANCH  14  15
ENDBRANCH  13  14
ENDBRANCH  12  13
ENDBRANCH  11  12
ENDBRANCH  10  11
ENDBRANCH   9  10
ENDBRANCH   8   9
ENDBRANCH   7   8
ENDBRANCH   6   7
ENDBRANCH   5   6
ENDBRANCH   4   5
ENDBRANCH   3   4
ENDBRANCH   2   3
ENDBRANCH   1   2
BRANCH   1  18
ATOM     18  C   UNL     1       9.345   7.969  21.407  1.00  0.00     0.000 C 
BRANCH  18  19
ATOM     19  C   UNL     1      10.214   7.685  22.645  1.00  0.00     0.000 C 
BRANCH  19  20
ATOM     20  C   UNL     1      11.611   7.165  22.272  1.00  0.00     0.000 C 
BRANCH  20  21
ATOM     21  C   UNL     1      12.417   8.186  21.449  1.00  0.00     0.000 C 
BRANCH  21  22
ATOM     22  C   UNL     1      13.913   8.201  21.810  1.00  0.00     0.000 C 
BRANCH  22  23
ATOM     23  C   UNL     1      14.239   8.788  23.195  1.00  0.00     0.000 C 
BRANCH  23  24
ATOM     24  C   UNL     1      15.043   7.824  24.082  1.00  0.00    -0.000 C 
BRANCH  24  25
ATOM     25  C   UNL     1      14.537   7.794  25.542  1.00  0.00    -0.000 C 
BRANCH  25  26
ATOM     26  C   UNL     1      13.213   7.028  25.721  1.00  0.00    -0.000 C 
BRANCH  26  27
ATOM     27  C   UNL     1      11.982   7.933  25.906  1.00  0.00    -0.000 C 
BRANCH  27  28
ATOM     28  C   UNL     1      11.011   7.423  26.996  1.00  0.00    -0.000 C 
BRANCH  28  29
ATOM     29  C   UNL     1      11.075   5.899  27.167  1.00  0.00    -0.000 C 
BRANCH  29  30
ATOM     30  C   UNL     1      10.827   5.451  28.617  1.00  0.00    -0.000 C 
BRANCH  30  31
ATOM     31  C   UNL     1      10.062   4.115  28.724  1.00  0.00    -0.003 C 
ATOM     32  C   UNL     1       9.668   3.560  27.356  1.00  0.00     0.004 C 
ENDBRANCH  30  31
ENDBRANCH  29  30
ENDBRANCH  28  29
ENDBRANCH  27  28
ENDBRANCH  26  27
ENDBRANCH  25  26
ENDBRANCH  24  25
ENDBRANCH  23  24
ENDBRANCH  22  23
ENDBRANCH  21  22
ENDBRANCH  20  21
ENDBRANCH  19  20
ENDBRANCH  18  19
ENDBRANCH   1  18
TORSDOF 28
ENDMDL
MODEL 6
REMARK VINA RESULT:    -4.596      3.827     11.160
REMARK INTER + INTRA:         -16.191
REMARK INTER:                 -12.601
REMARK INTRA:                  -3.590
REMARK UNBOUND:                -4.072
REMARK SMILES CCCCCCCCCCCCCCCCCCCCCCCCCCCCCC(=O)[O-]
REMARK SMILES IDX 16 1 17 2 18 3 19 4 20 5 21 6 22 7 23 8 24 9 25 10 26 11
REMARK SMILES IDX 27 12 28 13 29 14 30 15 31 16 32 17 15 18 14 19 13 20 12 21
REMARK SMILES IDX 11 22 10 23 9 24 8 25 7 26 6 27 5 28 4 29 3 30 2 31 1 32
REMARK H PARENT
REMARK Flexibility Score: inf
ROOT
ATOM      1  C   UNL     1       9.880   6.892  21.580  1.00  0.00     0.000 C 
ENDROOT
BRANCH   1   2
ATOM      2  C   UNL     1      11.230   6.926  20.837  1.00  0.00     0.000 C 
BRANCH   2   3
ATOM      3  C   UNL     1      12.418   7.474  21.653  1.00  0.00     0.000 C 
BRANCH   3   4
ATOM      4  C   UNL     1      12.113   8.741  22.476  1.00  0.00     0.000 C 
BRANCH   4   5
ATOM      5  C   UNL     1      13.343   9.387  23.139  1.00  0.00     0.000 C 
BRANCH   5   6
ATOM      6  C   UNL     1      14.650   8.585  22.940  1.00  0.00     0.000 C 
BRANCH   6   7
ATOM      7  C   UNL     1      15.169   7.880  24.209  1.00  0.00     0.000 C 
BRANCH   7   8
ATOM      8  C   UNL     1      14.428   8.229  25.518  1.00  0.00     0.000 C 
BRANCH   8   9
ATOM      9  C   UNL     1      13.757   7.043  26.236  1.00  0.00     0.000 C 
BRANCH   9  10
ATOM     10  C   UNL     1      12.629   6.406  25.407  1.00  0.00     0.000 C 
BRANCH  10  11
ATOM     11  C   UNL     1      11.271   7.090  25.632  1.00  0.00     0.000 C 
BRANCH  11  12
ATOM     12  C   UNL     1      11.159   7.750  27.018  1.00  0.00     0.000 C 
BRANCH  12  13
ATOM     13  C   UNL     1      10.337   6.909  28.007  1.00  0.00     0.006 C 
BRANCH  13  14
ATOM     14  C   UNL     1       9.635   5.722  27.334  1.00  0.00     0.053 C 
BRANCH  14  15
ATOM     15  C   UNL     1      10.082   4.427  27.936  1.00  0.00     0.041 C 
ATOM     16  O   UNL     1      10.801   4.424  28.972  1.00  0.00    -0.550 OA
ATOM     17  O   UNL     1       9.710   3.222  27.355  1.00  0.00    -0.550 OA
ENDBRANCH  14  15
ENDBRANCH  13  14
ENDBRANCH  12  13
ENDBRANCH  11  12
ENDBRANCH  10  11
ENDBRANCH   9  10
ENDBRANCH   8   9
ENDBRANCH   7   8
ENDBRANCH   6   7
ENDBRANCH   5   6
ENDBRANCH   4   5
ENDBRANCH   3   4
ENDBRANCH   2   3
ENDBRANCH   1   2
BRANCH   1  18
ATOM     18  C   UNL     1       8.795   7.810  20.992  1.00  0.00     0.000 C 
BRANCH  18  19
ATOM     19  C   UNL     1       7.408   7.141  20.948  1.00  0.00     0.000 C 
BRANCH  19  20
ATOM     20  C   UNL     1       6.794   7.162  19.540  1.00  0.00     0.000 C 
BRANCH  20  21
ATOM     21  C   UNL     1       6.739   8.581  18.945  1.00  0.00     0.000 C 
BRANCH  21  22
ATOM     22  C   UNL     1       5.448   9.335  19.307  1.00  0.00     0.000 C 
BRANCH  22  23
ATOM     23  C   UNL     1       4.234   8.435  19.604  1.00  0.00     0.000 C 
BRANCH  23  24
ATOM     24  C   UNL     1       2.988   8.820  18.791  1.00  0.00    -0.000 C 
BRANCH  24  25
ATOM     25  C   UNL     1       2.840   7.990  17.495  1.00  0.00    -0.000 C 
BRANCH  25  26
ATOM     26  C   UNL     1       3.255   8.754  16.223  1.00  0.00    -0.000 C 
BRANCH  26  27
ATOM     27  C   UNL     1       4.402   8.095  15.438  1.00  0.00    -0.000 C 
BRANCH  27  28
ATOM     28  C   UNL     1       4.996   6.860  16.152  1.00  0.00    -0.000 C 
BRANCH  28  29
ATOM     29  C   UNL     1       6.416   6.532  15.667  1.00  0.00    -0.000 C 
BRANCH  29  30
ATOM     30  C   UNL     1       7.185   7.776  15.193  1.00  0.00    -0.000 C 
BRANCH  30  31
ATOM     31  C   UNL     1       8.311   7.455  14.188  1.00  0.00    -0.003 C 
ATOM     32  C   UNL     1       8.301   8.397  12.985  1.00  0.00     0.004 C 
ENDBRANCH  30  31
ENDBRANCH  29  30
ENDBRANCH  28  29
ENDBRANCH  27  28
ENDBRANCH  26  27
ENDBRANCH  25  26
ENDBRANCH  24  25
ENDBRANCH  23  24
ENDBRANCH  22  23
ENDBRANCH  21  22
ENDBRANCH  20  21
ENDBRANCH  19  20
ENDBRANCH  18  19
ENDBRANCH   1  18
TORSDOF 28
ENDMDL
MODEL 7
REMARK VINA RESULT:    -4.586      3.893     11.242
REMARK INTER + INTRA:         -16.164
REMARK INTER:                 -12.141
REMARK INTRA:                  -4.022
REMARK UNBOUND:                -4.072
REMARK SMILES CCCCCCCCCCCCCCCCCCCCCCCCCCCCCC(=O)[O-]
REMARK SMILES IDX 16 1 17 2 18 3 19 4 20 5 21 6 22 7 23 8 24 9 25 10 26 11
REMARK SMILES IDX 27 12 28 13 29 14 30 15 31 16 32 17 15 18 14 19 13 20 12 21
REMARK SMILES IDX 11 22 10 23 9 24 8 25 7 26 6 27 5 28 4 29 3 30 2 31 1 32
REMARK H PARENT
REMARK Flexibility Score: inf
ROOT
ATOM      1  C   UNL     1       5.282   7.862  22.312  1.00  0.00     0.000 C 
ENDROOT
BRANCH   1   2
ATOM      2  C   UNL     1       6.228   8.632  23.254  1.00  0.00     0.000 C 
BRANCH   2   3
ATOM      3  C   UNL     1       7.267   9.531  22.553  1.00  0.00     0.000 C 
BRANCH   3   4
ATOM      4  C   UNL     1       8.721   9.025  22.628  1.00  0.00     0.000 C 
BRANCH   4   5
ATOM      5  C   UNL     1       9.255   8.413  21.321  1.00  0.00     0.000 C 
BRANCH   5   6
ATOM      6  C   UNL     1       9.764   6.961  21.477  1.00  0.00     0.000 C 
BRANCH   6   7
ATOM      7  C   UNL     1      11.236   6.750  21.070  1.00  0.00     0.000 C 
BRANCH   7   8
ATOM      8  C   UNL     1      12.016   8.030  20.696  1.00  0.00     0.000 C 
BRANCH   8   9
ATOM      9  C   UNL     1      13.190   8.386  21.625  1.00  0.00     0.000 C 
BRANCH   9  10
ATOM     10  C   UNL     1      12.728   8.828  23.025  1.00  0.00     0.000 C 
BRANCH  10  11
ATOM     11  C   UNL     1      13.309   7.949  24.144  1.00  0.00     0.000 C 
BRANCH  11  12
ATOM     12  C   UNL     1      12.298   6.918  24.678  1.00  0.00     0.000 C 
BRANCH  12  13
ATOM     13  C   UNL     1      11.020   7.573  25.225  1.00  0.00     0.006 C 
BRANCH  13  14
ATOM     14  C   UNL     1      11.258   8.327  26.541  1.00  0.00     0.053 C 
BRANCH  14  15
ATOM     15  C   UNL     1      10.546   7.659  27.674  1.00  0.00     0.041 C 
ATOM     16  O   UNL     1      10.452   6.401  27.711  1.00  0.00    -0.550 OA
ATOM     17  O   UNL     1       9.984   8.419  28.691  1.00  0.00    -0.550 OA
ENDBRANCH  14  15
ENDBRANCH  13  14
ENDBRANCH  12  13
ENDBRANCH  11  12
ENDBRANCH  10  11
ENDBRANCH   9  10
ENDBRANCH   8   9
ENDBRANCH   7   8
ENDBRANCH   6   7
ENDBRANCH   5   6
ENDBRANCH   4   5
ENDBRANCH   3   4
ENDBRANCH   2   3
ENDBRANCH   1   2
BRANCH   1  18
ATOM     18  C   UNL     1       5.972   6.822  21.413  1.00  0.00     0.000 C 
BRANCH  18  19
ATOM     19  C   UNL     1       5.897   7.183  19.918  1.00  0.00     0.000 C 
BRANCH  19  20
ATOM     20  C   UNL     1       5.252   8.557  19.681  1.00  0.00     0.000 C 
BRANCH  20  21
ATOM     21  C   UNL     1       5.990   9.375  18.606  1.00  0.00     0.000 C 
BRANCH  21  22
ATOM     22  C   UNL     1       5.050   9.922  17.517  1.00  0.00     0.000 C 
BRANCH  22  23
ATOM     23  C   UNL     1       3.563   9.573  17.709  1.00  0.00     0.000 C 
BRANCH  23  24
ATOM     24  C   UNL     1       3.041   8.572  16.666  1.00  0.00    -0.000 C 
BRANCH  24  25
ATOM     25  C   UNL     1       3.443   7.114  16.983  1.00  0.00    -0.000 C 
BRANCH  25  26
ATOM     26  C   UNL     1       4.124   6.392  15.805  1.00  0.00    -0.000 C 
BRANCH  26  27
ATOM     27  C   UNL     1       4.849   7.330  14.825  1.00  0.00    -0.000 C 
BRANCH  27  28
ATOM     28  C   UNL     1       6.370   7.422  15.084  1.00  0.00    -0.000 C 
BRANCH  28  29
ATOM     29  C   UNL     1       7.118   6.165  14.617  1.00  0.00    -0.000 C 
BRANCH  29  30
ATOM     30  C   UNL     1       6.834   5.813  13.148  1.00  0.00    -0.000 C 
BRANCH  30  31
ATOM     31  C   UNL     1       7.950   6.263  12.182  1.00  0.00    -0.003 C 
ATOM     32  C   UNL     1       7.959   7.777  11.970  1.00  0.00     0.004 C 
ENDBRANCH  30  31
ENDBRANCH  29  30
ENDBRANCH  28  29
ENDBRANCH  27  28
ENDBRANCH  26  27
ENDBRANCH  25  26
ENDBRANCH  24  25
ENDBRANCH  23  24
ENDBRANCH  22  23
ENDBRANCH  21  22
ENDBRANCH  20  21
ENDBRANCH  19  20
ENDBRANCH  18  19
ENDBRANCH   1  18
TORSDOF 28
ENDMDL
MODEL 8
REMARK VINA RESULT:    -4.569      1.565      2.893
REMARK INTER + INTRA:         -16.121
REMARK INTER:                 -13.449
REMARK INTRA:                  -2.672
REMARK UNBOUND:                -4.072
REMARK SMILES CCCCCCCCCCCCCCCCCCCCCCCCCCCCCC(=O)[O-]
REMARK SMILES IDX 16 1 17 2 18 3 19 4 20 5 21 6 22 7 23 8 24 9 25 10 26 11
REMARK SMILES IDX 27 12 28 13 29 14 30 15 31 16 32 17 15 18 14 19 13 20 12 21
REMARK SMILES IDX 11 22 10 23 9 24 8 25 7 26 6 27 5 28 4 29 3 30 2 31 1 32
REMARK H PARENT
REMARK Flexibility Score: inf
ROOT
ATOM      1  C   UNL     1       9.861   6.780  21.367  1.00  0.00     0.000 C 
ENDROOT
BRANCH   1   2
ATOM      2  C   UNL     1       9.197   8.154  21.147  1.00  0.00     0.000 C 
BRANCH   2   3
ATOM      3  C   UNL     1       7.682   8.205  21.427  1.00  0.00     0.000 C 
BRANCH   3   4
ATOM      4  C   UNL     1       6.842   7.167  20.659  1.00  0.00     0.000 C 
BRANCH   4   5
ATOM      5  C   UNL     1       6.687   7.453  19.155  1.00  0.00     0.000 C 
BRANCH   5   6
ATOM      6  C   UNL     1       5.272   7.933  18.756  1.00  0.00     0.000 C 
BRANCH   6   7
ATOM      7  C   UNL     1       5.250   9.179  17.847  1.00  0.00     0.000 C 
BRANCH   7   8
ATOM      8  C   UNL     1       4.020   9.312  16.923  1.00  0.00     0.000 C 
BRANCH   8   9
ATOM      9  C   UNL     1       3.585   8.019  16.210  1.00  0.00     0.000 C 
BRANCH   9  10
ATOM     10  C   UNL     1       4.513   7.642  15.042  1.00  0.00     0.000 C 
BRANCH  10  11
ATOM     11  C   UNL     1       5.366   6.399  15.343  1.00  0.00     0.000 C 
BRANCH  11  12
ATOM     12  C   UNL     1       6.821   6.545  14.864  1.00  0.00     0.000 C 
BRANCH  12  13
ATOM     13  C   UNL     1       7.359   5.263  14.210  1.00  0.00     0.006 C 
BRANCH  13  14
ATOM     14  C   UNL     1       7.780   5.475  12.749  1.00  0.00     0.053 C 
BRANCH  14  15
ATOM     15  C   UNL     1       6.727   6.224  11.995  1.00  0.00     0.041 C 
ATOM     16  O   UNL     1       5.646   5.656  11.682  1.00  0.00    -0.550 OA
ATOM     17  O   UNL     1       6.936   7.549  11.635  1.00  0.00    -0.550 OA
ENDBRANCH  14  15
ENDBRANCH  13  14
ENDBRANCH  12  13
ENDBRANCH  11  12
ENDBRANCH  10  11
ENDBRANCH   9  10
ENDBRANCH   8   9
ENDBRANCH   7   8
ENDBRANCH   6   7
ENDBRANCH   5   6
ENDBRANCH   4   5
ENDBRANCH   3   4
ENDBRANCH   2   3
ENDBRANCH   1   2
BRANCH   1  18
ATOM     18  C   UNL     1      11.095   6.798  22.285  1.00  0.00     0.000 C 
BRANCH  18  19
ATOM     19  C   UNL     1      12.292   7.540  21.662  1.00  0.00     0.000 C 
BRANCH  19  20
ATOM     20  C   UNL     1      12.665   8.808  22.445  1.00  0.00     0.000 C 
BRANCH  20  21
ATOM     21  C   UNL     1      11.958   8.884  23.810  1.00  0.00     0.000 C 
BRANCH  21  22
ATOM     22  C   UNL     1      12.932   8.785  24.997  1.00  0.00     0.000 C 
BRANCH  22  23
ATOM     23  C   UNL     1      13.906   7.594  24.938  1.00  0.00     0.000 C 
BRANCH  23  24
ATOM     24  C   UNL     1      13.278   6.279  25.426  1.00  0.00    -0.000 C 
BRANCH  24  25
ATOM     25  C   UNL     1      13.494   6.039  26.938  1.00  0.00    -0.000 C 
BRANCH  25  26
ATOM     26  C   UNL     1      12.229   5.554  27.672  1.00  0.00    -0.000 C 
BRANCH  26  27
ATOM     27  C   UNL     1      10.955   5.568  26.810  1.00  0.00    -0.000 C 
BRANCH  27  28
ATOM     28  C   UNL     1       9.736   4.934  27.516  1.00  0.00    -0.000 C 
BRANCH  28  29
ATOM     29  C   UNL     1      10.106   4.307  28.868  1.00  0.00    -0.000 C 
BRANCH  29  30
ATOM     30  C   UNL     1       9.437   5.015  30.057  1.00  0.00    -0.000 C 
BRANCH  30  31
ATOM     31  C   UNL     1       9.002   6.462  29.744  1.00  0.00    -0.003 C 
ATOM     32  C   UNL     1       9.379   7.436  30.859  1.00  0.00     0.004 C 
ENDBRANCH  30  31
ENDBRANCH  29  30
ENDBRANCH  28  29
ENDBRANCH  27  28
ENDBRANCH  26  27
ENDBRANCH  25  26
ENDBRANCH  24  25
ENDBRANCH  23  24
ENDBRANCH  22  23
ENDBRANCH  21  22
ENDBRANCH  20  21
ENDBRANCH  19  20
ENDBRANCH  18  19
ENDBRANCH   1  18
TORSDOF 28
ENDMDL
MODEL 9
REMARK VINA RESULT:    -4.563      4.109     11.511
REMARK INTER + INTRA:         -16.105
REMARK INTER:                 -13.249
REMARK INTRA:                  -2.856
REMARK UNBOUND:                -4.072
REMARK SMILES CCCCCCCCCCCCCCCCCCCCCCCCCCCCCC(=O)[O-]
REMARK SMILES IDX 16 1 17 2 18 3 19 4 20 5 21 6 22 7 23 8 24 9 25 10 26 11
REMARK SMILES IDX 27 12 28 13 29 14 30 15 31 16 32 17 15 18 14 19 13 20 12 21
REMARK SMILES IDX 11 22 10 23 9 24 8 25 7 26 6 27 5 28 4 29 3 30 2 31 1 32
REMARK H PARENT
REMARK Flexibility Score: inf
ROOT
ATOM      1  C   UNL     1       6.068   7.019  20.645  1.00  0.00     0.000 C 
ENDROOT
BRANCH   1   2
ATOM      2  C   UNL     1       7.429   7.718  20.459  1.00  0.00     0.000 C 
BRANCH   2   3
ATOM      3  C   UNL     1       8.644   6.954  21.020  1.00  0.00     0.000 C 
BRANCH   3   4
ATOM      4  C   UNL     1       9.668   7.824  21.775  1.00  0.00     0.000 C 
BRANCH   4   5
ATOM      5  C   UNL     1      10.985   7.107  22.125  1.00  0.00     0.000 C 
BRANCH   5   6
ATOM      6  C   UNL     1      11.248   6.998  23.645  1.00  0.00     0.000 C 
BRANCH   6   7
ATOM      7  C   UNL     1      11.341   8.351  24.378  1.00  0.00     0.000 C 
BRANCH   7   8
ATOM      8  C   UNL     1      12.697   8.655  25.052  1.00  0.00     0.000 C 
BRANCH   8   9
ATOM      9  C   UNL     1      13.750   7.536  24.956  1.00  0.00     0.000 C 
BRANCH   9  10
ATOM     10  C   UNL     1      13.991   6.829  26.300  1.00  0.00     0.000 C 
BRANCH  10  11
ATOM     11  C   UNL     1      13.186   5.527  26.436  1.00  0.00     0.000 C 
BRANCH  11  12
ATOM     12  C   UNL     1      12.137   5.589  27.561  1.00  0.00     0.000 C 
BRANCH  12  13
ATOM     13  C   UNL     1      10.697   5.516  27.030  1.00  0.00     0.006 C 
BRANCH  13  14
ATOM     14  C   UNL     1       9.901   4.351  27.635  1.00  0.00     0.053 C 
BRANCH  14  15
ATOM     15  C   UNL     1       9.677   4.563  29.099  1.00  0.00     0.041 C 
ATOM     16  O   UNL     1       9.028   5.567  29.502  1.00  0.00    -0.550 OA
ATOM     17  O   UNL     1      10.181   3.656  30.021  1.00  0.00    -0.550 OA
ENDBRANCH  14  15
ENDBRANCH  13  14
ENDBRANCH  12  13
ENDBRANCH  11  12
ENDBRANCH  10  11
ENDBRANCH   9  10
ENDBRANCH   8   9
ENDBRANCH   7   8
ENDBRANCH   6   7
ENDBRANCH   5   6
ENDBRANCH   4   5
ENDBRANCH   3   4
ENDBRANCH   2   3
ENDBRANCH   1   2
BRANCH   1  18
ATOM     18  C   UNL     1       5.373   7.304  21.988  1.00  0.00     0.000 C 
BRANCH  18  19
ATOM     19  C   UNL     1       5.553   8.760  22.455  1.00  0.00     0.000 C 
BRANCH  19  20
ATOM     20  C   UNL     1       4.793   9.756  21.566  1.00  0.00     0.000 C 
BRANCH  20  21
ATOM     21  C   UNL     1       3.381   9.261  21.204  1.00  0.00     0.000 C 
BRANCH  21  22
ATOM     22  C   UNL     1       2.799   9.960  19.962  1.00  0.00     0.000 C 
BRANCH  22  23
ATOM     23  C   UNL     1       2.458   9.022  18.791  1.00  0.00     0.000 C 
BRANCH  23  24
ATOM     24  C   UNL     1       3.214   9.373  17.500  1.00  0.00    -0.000 C 
BRANCH  24  25
ATOM     25  C   UNL     1       4.701   8.954  17.545  1.00  0.00    -0.000 C 
BRANCH  25  26
ATOM     26  C   UNL     1       4.931   7.463  17.231  1.00  0.00    -0.000 C 
BRANCH  26  27
ATOM     27  C   UNL     1       6.235   7.174  16.467  1.00  0.00    -0.000 C 
BRANCH  27  28
ATOM     28  C   UNL     1       6.667   8.334  15.542  1.00  0.00    -0.000 C 
BRANCH  28  29
ATOM     29  C   UNL     1       7.838   7.946  14.627  1.00  0.00    -0.000 C 
BRANCH  29  30
ATOM     30  C   UNL     1       7.399   7.674  13.179  1.00  0.00    -0.000 C 
BRANCH  30  31
ATOM     31  C   UNL     1       7.812   6.280  12.663  1.00  0.00    -0.003 C 
ATOM     32  C   UNL     1       7.851   5.236  13.779  1.00  0.00     0.004 C 
ENDBRANCH  30  31
ENDBRANCH  29  30
ENDBRANCH  28  29
ENDBRANCH  27  28
ENDBRANCH  26  27
ENDBRANCH  25  26
ENDBRANCH  24  25
ENDBRANCH  23  24
ENDBRANCH  22  23
ENDBRANCH  21  22
ENDBRANCH  20  21
ENDBRANCH  19  20
ENDBRANCH  18  19
ENDBRANCH   1  18
TORSDOF 28
ENDMDL
