MODEL 1
REMARK VINA RESULT:    16.164      0.000      0.000
REMARK INTER + INTRA:          42.293
REMARK INTER:                  42.622
REMARK INTRA:                  -0.329
REMARK UNBOUND:                -0.329
REMARK SMILES CCCCCCCCCCCCCCCCCCCCCCCCCCCCCC(=O)[O-]
REMARK SMILES IDX 16 1 17 2 18 3 19 4 20 5 21 6 22 7 23 8 24 9 25 10 26 11
REMARK SMILES IDX 27 12 28 13 29 14 30 15 31 16 32 17 15 18 14 19 13 20 12 21
REMARK SMILES IDX 11 22 10 23 9 24 8 25 7 26 6 27 5 28 4 29 3 30 2 31 1 32
REMARK H PARENT
REMARK Flexibility Score: inf
ROOT
ATOM      1  C   UNL     1      -9.400  26.530 -10.105  1.00  0.00     0.000 C 
ENDROOT
BRANCH   1   2
ATOM      2  C   UNL     1      -8.899  25.103  -9.834  1.00  0.00     0.000 C 
BRANCH   2   3
ATOM      3  C   UNL     1      -8.297  24.441 -11.082  1.00  0.00     0.000 C 
BRANCH   3   4
ATOM      4  C   UNL     1      -9.092  23.189 -11.479  1.00  0.00     0.000 C 
BRANCH   4   5
ATOM      5  C   UNL     1      -9.910  22.609 -10.309  1.00  0.00     0.000 C 
BRANCH   5   6
ATOM      6  C   UNL     1      -9.073  21.966  -9.182  1.00  0.00     0.000 C 
BRANCH   6   7
ATOM      7  C   UNL     1      -9.554  22.275  -7.749  1.00  0.00     0.000 C 
BRANCH   7   8
ATOM      8  C   UNL     1      -8.441  22.679  -6.764  1.00  0.00     0.000 C 
BRANCH   8   9
ATOM      9  C   UNL     1      -8.125  24.185  -6.811  1.00  0.00     0.000 C 
BRANCH   9  10
ATOM     10  C   UNL     1      -7.623  24.706  -5.455  1.00  0.00     0.000 C 
BRANCH  10  11
ATOM     11  C   UNL     1      -8.620  24.437  -4.306  1.00  0.00     0.000 C 
BRANCH  11  12
ATOM     12  C   UNL     1      -9.891  25.297  -4.416  1.00  0.00     0.000 C 
BRANCH  12  13
ATOM     13  C   UNL     1      -9.579  26.725  -4.897  1.00  0.00     0.006 C 
BRANCH  13  14
ATOM     14  C   UNL     1     -10.581  27.731  -4.324  1.00  0.00     0.053 C 
BRANCH  14  15
ATOM     15  C   UNL     1     -11.972  27.381  -4.748  1.00  0.00     0.041 C 
ATOM     16  O   UNL     1     -12.257  26.196  -5.072  1.00  0.00    -0.550 OA
ATOM     17  O   UNL     1     -12.968  28.349  -4.730  1.00  0.00    -0.550 OA
ENDBRANCH  14  15
ENDBRANCH  13  14
ENDBRANCH  12  13
ENDBRANCH  11  12
ENDBRANCH  10  11
ENDBRANCH   9  10
ENDBRANCH   8   9
ENDBRANCH   7   8
ENDBRANCH   6   7
ENDBRANCH   5   6
ENDBRANCH   4   5
ENDBRANCH   3   4
ENDBRANCH   2   3
ENDBRANCH   1   2
BRANCH   1  18
ATOM     18  C   UNL     1      -8.393  27.608  -9.669  1.00  0.00     0.000 C 
BRANCH  18  19
ATOM     19  C   UNL     1      -7.467  28.026 -10.822  1.00  0.00     0.000 C 
BRANCH  19  20
ATOM     20  C   UNL     1      -7.955  29.297 -11.554  1.00  0.00     0.000 C 
BRANCH  20  21
ATOM     21  C   UNL     1      -7.561  29.316 -13.040  1.00  0.00     0.000 C 
BRANCH  21  22
ATOM     22  C   UNL     1      -8.598  30.061 -13.897  1.00  0.00     0.000 C 
BRANCH  22  23
ATOM     23  C   UNL     1      -8.545  29.653 -15.377  1.00  0.00     0.000 C 
BRANCH  23  24
ATOM     24  C   UNL     1      -9.142  30.724 -16.309  1.00  0.00    -0.000 C 
BRANCH  24  25
ATOM     25  C   UNL     1      -9.135  30.291 -17.784  1.00  0.00    -0.000 C 
BRANCH  25  26
ATOM     26  C   UNL     1      -8.385  28.966 -18.008  1.00  0.00    -0.000 C 
BRANCH  26  27
ATOM     27  C   UNL     1      -6.864  29.121 -17.852  1.00  0.00    -0.000 C 
BRANCH  27  28
ATOM     28  C   UNL     1      -6.071  28.242 -18.834  1.00  0.00    -0.000 C 
BRANCH  28  29
ATOM     29  C   UNL     1      -6.797  28.052 -20.177  1.00  0.00    -0.000 C 
BRANCH  29  30
ATOM     30  C   UNL     1      -6.400  29.057 -21.278  1.00  0.00    -0.000 C 
BRANCH  30  31
ATOM     31  C   UNL     1      -5.782  28.427 -22.540  1.00  0.00    -0.003 C 
ATOM     32  C   UNL     1      -5.258  27.012 -22.302  1.00  0.00     0.004 C 
ENDBRANCH  30  31
ENDBRANCH  29  30
ENDBRANCH  28  29
ENDBRANCH  27  28
ENDBRANCH  26  27
ENDBRANCH  25  26
ENDBRANCH  24  25
ENDBRANCH  23  24
ENDBRANCH  22  23
ENDBRANCH  21  22
ENDBRANCH  20  21
ENDBRANCH  19  20
ENDBRANCH  18  19
ENDBRANCH   1  18
TORSDOF 28
ENDMDL
MODEL 2
REMARK VINA RESULT:    16.660      0.805      2.021
REMARK INTER + INTRA:          43.600
REMARK INTER:                  45.114
REMARK INTRA:                  -1.514
REMARK UNBOUND:                -0.329
REMARK SMILES CCCCCCCCCCCCCCCCCCCCCCCCCCCCCC(=O)[O-]
REMARK SMILES IDX 16 1 17 2 18 3 19 4 20 5 21 6 22 7 23 8 24 9 25 10 26 11
REMARK SMILES IDX 27 12 28 13 29 14 30 15 31 16 32 17 15 18 14 19 13 20 12 21
REMARK SMILES IDX 11 22 10 23 9 24 8 25 7 26 6 27 5 28 4 29 3 30 2 31 1 32
REMARK H PARENT
REMARK Flexibility Score: inf
ROOT
ATOM      1  C   UNL     1      -9.175  24.993 -11.191  1.00  0.00     0.000 C 
ENDROOT
BRANCH   1   2
ATOM      2  C   UNL     1      -8.696  23.573 -11.528  1.00  0.00     0.000 C 
BRANCH   2   3
ATOM      3  C   UNL     1      -9.655  22.488 -11.015  1.00  0.00     0.000 C 
BRANCH   3   4
ATOM      4  C   UNL     1      -9.195  21.944  -9.655  1.00  0.00     0.000 C 
BRANCH   4   5
ATOM      5  C   UNL     1     -10.321  21.944  -8.603  1.00  0.00     0.000 C 
BRANCH   5   6
ATOM      6  C   UNL     1      -9.847  22.072  -7.139  1.00  0.00     0.000 C 
BRANCH   6   7
ATOM      7  C   UNL     1      -8.637  23.003  -6.919  1.00  0.00     0.000 C 
BRANCH   7   8
ATOM      8  C   UNL     1      -7.446  22.358  -6.187  1.00  0.00     0.000 C 
BRANCH   8   9
ATOM      9  C   UNL     1      -6.434  23.397  -5.670  1.00  0.00     0.000 C 
BRANCH   9  10
ATOM     10  C   UNL     1      -7.093  24.412  -4.721  1.00  0.00     0.000 C 
BRANCH  10  11
ATOM     11  C   UNL     1      -7.901  25.495  -5.473  1.00  0.00     0.000 C 
BRANCH  11  12
ATOM     12  C   UNL     1      -9.335  25.636  -4.936  1.00  0.00     0.000 C 
BRANCH  12  13
ATOM     13  C   UNL     1      -9.943  27.009  -5.274  1.00  0.00     0.006 C 
BRANCH  13  14
ATOM     14  C   UNL     1     -10.890  27.482  -4.167  1.00  0.00     0.053 C 
BRANCH  14  15
ATOM     15  C   UNL     1     -12.308  27.440  -4.642  1.00  0.00     0.041 C 
ATOM     16  O   UNL     1     -13.019  28.481  -4.607  1.00  0.00    -0.550 OA
ATOM     17  O   UNL     1     -12.826  26.268  -5.178  1.00  0.00    -0.550 OA
ENDBRANCH  14  15
ENDBRANCH  13  14
ENDBRANCH  12  13
ENDBRANCH  11  12
ENDBRANCH  10  11
ENDBRANCH   9  10
ENDBRANCH   8   9
ENDBRANCH   7   8
ENDBRANCH   6   7
ENDBRANCH   5   6
ENDBRANCH   4   5
ENDBRANCH   3   4
ENDBRANCH   2   3
ENDBRANCH   1   2
BRANCH   1  18
ATOM     18  C   UNL     1      -8.874  25.396  -9.738  1.00  0.00     0.000 C 
BRANCH  18  19
ATOM     19  C   UNL     1      -8.886  26.921  -9.553  1.00  0.00     0.000 C 
BRANCH  19  20
ATOM     20  C   UNL     1      -7.600  27.601 -10.076  1.00  0.00     0.000 C 
BRANCH  20  21
ATOM     21  C   UNL     1      -7.885  28.903 -10.843  1.00  0.00     0.000 C 
BRANCH  21  22
ATOM     22  C   UNL     1      -7.496  28.790 -12.326  1.00  0.00     0.000 C 
BRANCH  22  23
ATOM     23  C   UNL     1      -7.916  30.019 -13.144  1.00  0.00     0.000 C 
BRANCH  23  24
ATOM     24  C   UNL     1      -8.295  29.667 -14.595  1.00  0.00    -0.000 C 
BRANCH  24  25
ATOM     25  C   UNL     1      -9.223  30.713 -15.232  1.00  0.00    -0.000 C 
BRANCH  25  26
ATOM     26  C   UNL     1      -8.864  31.007 -16.700  1.00  0.00    -0.000 C 
BRANCH  26  27
ATOM     27  C   UNL     1      -9.496  29.996 -17.670  1.00  0.00    -0.000 C 
BRANCH  27  28
ATOM     28  C   UNL     1      -8.537  28.856 -18.052  1.00  0.00    -0.000 C 
BRANCH  28  29
ATOM     29  C   UNL     1      -7.093  29.342 -18.260  1.00  0.00    -0.000 C 
BRANCH  29  30
ATOM     30  C   UNL     1      -6.267  28.513 -19.267  1.00  0.00    -0.000 C 
BRANCH  30  31
ATOM     31  C   UNL     1      -6.566  28.810 -20.749  1.00  0.00    -0.003 C 
ATOM     32  C   UNL     1      -6.180  27.659 -21.675  1.00  0.00     0.004 C 
ENDBRANCH  30  31
ENDBRANCH  29  30
ENDBRANCH  28  29
ENDBRANCH  27  28
ENDBRANCH  26  27
ENDBRANCH  25  26
ENDBRANCH  24  25
ENDBRANCH  23  24
ENDBRANCH  22  23
ENDBRANCH  21  22
ENDBRANCH  20  21
ENDBRANCH  19  20
ENDBRANCH  18  19
ENDBRANCH   1  18
TORSDOF 28
ENDMDL
MODEL 3
REMARK VINA RESULT:    17.295      1.565      2.198
REMARK INTER + INTRA:          45.276
REMARK INTER:                  43.528
REMARK INTRA:                   1.748
REMARK UNBOUND:                -0.329
REMARK SMILES CCCCCCCCCCCCCCCCCCCCCCCCCCCCCC(=O)[O-]
REMARK SMILES IDX 16 1 17 2 18 3 19 4 20 5 21 6 22 7 23 8 24 9 25 10 26 11
REMARK SMILES IDX 27 12 28 13 29 14 30 15 31 16 32 17 15 18 14 19 13 20 12 21
REMARK SMILES IDX 11 22 10 23 9 24 8 25 7 26 6 27 5 28 4 29 3 30 2 31 1 32
REMARK H PARENT
REMARK Flexibility Score: inf
ROOT
ATOM      1  C   UNL     1      -8.683  24.513 -12.694  1.00  0.00     0.000 C 
ENDROOT
BRANCH   1   2
ATOM      2  C   UNL     1      -8.547  23.233 -11.854  1.00  0.00     0.000 C 
BRANCH   2   3
ATOM      3  C   UNL     1      -9.522  23.199 -10.667  1.00  0.00     0.000 C 
BRANCH   3   4
ATOM      4  C   UNL     1      -9.247  21.987  -9.764  1.00  0.00     0.000 C 
BRANCH   4   5
ATOM      5  C   UNL     1      -9.819  22.162  -8.344  1.00  0.00     0.000 C 
BRANCH   5   6
ATOM      6  C   UNL     1      -8.766  22.396  -7.240  1.00  0.00     0.000 C 
BRANCH   6   7
ATOM      7  C   UNL     1      -8.298  23.857  -7.078  1.00  0.00     0.000 C 
BRANCH   7   8
ATOM      8  C   UNL     1      -7.386  24.116  -5.864  1.00  0.00     0.000 C 
BRANCH   8   9
ATOM      9  C   UNL     1      -8.176  24.275  -4.552  1.00  0.00     0.000 C 
BRANCH   9  10
ATOM     10  C   UNL     1      -9.197  25.421  -4.635  1.00  0.00     0.000 C 
BRANCH  10  11
ATOM     11  C   UNL     1      -8.893  26.410  -5.783  1.00  0.00     0.000 C 
BRANCH  11  12
ATOM     12  C   UNL     1      -9.525  27.793  -5.550  1.00  0.00     0.000 C 
BRANCH  12  13
ATOM     13  C   UNL     1     -10.155  27.909  -4.151  1.00  0.00     0.006 C 
BRANCH  13  14
ATOM     14  C   UNL     1     -11.286  26.892  -3.969  1.00  0.00     0.053 C 
BRANCH  14  15
ATOM     15  C   UNL     1     -12.457  27.256  -4.826  1.00  0.00     0.041 C 
ATOM     16  O   UNL     1     -12.999  28.389  -4.711  1.00  0.00    -0.550 OA
ATOM     17  O   UNL     1     -12.913  26.367  -5.791  1.00  0.00    -0.550 OA
ENDBRANCH  14  15
ENDBRANCH  13  14
ENDBRANCH  12  13
ENDBRANCH  11  12
ENDBRANCH  10  11
ENDBRANCH   9  10
ENDBRANCH   8   9
ENDBRANCH   7   8
ENDBRANCH   6   7
ENDBRANCH   5   6
ENDBRANCH   4   5
ENDBRANCH   3   4
ENDBRANCH   2   3
ENDBRANCH   1   2
BRANCH   1  18
ATOM     18  C   UNL     1      -7.400  25.360 -12.701  1.00  0.00     0.000 C 
BRANCH  18  19
ATOM     19  C   UNL     1      -6.779  25.445 -14.104  1.00  0.00     0.000 C 
BRANCH  19  20
ATOM     20  C   UNL     1      -7.497  26.462 -15.020  1.00  0.00     0.000 C 
BRANCH  20  21
ATOM     21  C   UNL     1      -6.779  27.820 -15.079  1.00  0.00     0.000 C 
BRANCH  21  22
ATOM     22  C   UNL     1      -7.526  28.823 -15.975  1.00  0.00     0.000 C 
BRANCH  22  23
ATOM     23  C   UNL     1      -8.509  29.701 -15.188  1.00  0.00     0.000 C 
BRANCH  23  24
ATOM     24  C   UNL     1      -9.475  30.476 -16.103  1.00  0.00    -0.000 C 
BRANCH  24  25
ATOM     25  C   UNL     1      -8.845  30.830 -17.460  1.00  0.00    -0.000 C 
BRANCH  25  26
ATOM     26  C   UNL     1      -8.963  29.686 -18.483  1.00  0.00    -0.000 C 
BRANCH  26  27
ATOM     27  C   UNL     1      -7.735  28.764 -18.474  1.00  0.00    -0.000 C 
BRANCH  27  28
ATOM     28  C   UNL     1      -6.628  29.233 -19.434  1.00  0.00    -0.000 C 
BRANCH  28  29
ATOM     29  C   UNL     1      -6.247  28.160 -20.468  1.00  0.00    -0.000 C 
BRANCH  29  30
ATOM     30  C   UNL     1      -6.419  28.588 -21.941  1.00  0.00    -0.000 C 
BRANCH  30  31
ATOM     31  C   UNL     1      -5.289  28.134 -22.884  1.00  0.00    -0.003 C 
ATOM     32  C   UNL     1      -5.181  26.614 -22.994  1.00  0.00     0.004 C 
ENDBRANCH  30  31
ENDBRANCH  29  30
ENDBRANCH  28  29
ENDBRANCH  27  28
ENDBRANCH  26  27
ENDBRANCH  25  26
ENDBRANCH  24  25
ENDBRANCH  23  24
ENDBRANCH  22  23
ENDBRANCH  21  22
ENDBRANCH  20  21
ENDBRANCH  19  20
ENDBRANCH  18  19
ENDBRANCH   1  18
TORSDOF 28
ENDMDL
MODEL 4
REMARK VINA RESULT:    17.947      1.872      4.380
REMARK INTER + INTRA:          46.994
REMARK INTER:                  47.191
REMARK INTRA:                  -0.197
REMARK UNBOUND:                -0.329
REMARK SMILES CCCCCCCCCCCCCCCCCCCCCCCCCCCCCC(=O)[O-]
REMARK SMILES IDX 16 1 17 2 18 3 19 4 20 5 21 6 22 7 23 8 24 9 25 10 26 11
REMARK SMILES IDX 27 12 28 13 29 14 30 15 31 16 32 17 15 18 14 19 13 20 12 21
REMARK SMILES IDX 11 22 10 23 9 24 8 25 7 26 6 27 5 28 4 29 3 30 2 31 1 32
REMARK H PARENT
REMARK Flexibility Score: inf
ROOT
ATOM      1  C   UNL     1      -7.599  25.738 -14.598  1.00  0.00     0.000 C 
ENDROOT
BRANCH   1   2
ATOM      2  C   UNL     1      -7.529  25.075 -13.214  1.00  0.00     0.000 C 
BRANCH   2   3
ATOM      3  C   UNL     1      -8.759  24.205 -12.912  1.00  0.00     0.000 C 
BRANCH   3   4
ATOM      4  C   UNL     1      -8.454  23.185 -11.806  1.00  0.00     0.000 C 
BRANCH   4   5
ATOM      5  C   UNL     1      -9.702  22.807 -10.985  1.00  0.00     0.000 C 
BRANCH   5   6
ATOM      6  C   UNL     1      -9.418  22.008  -9.694  1.00  0.00     0.000 C 
BRANCH   6   7
ATOM      7  C   UNL     1      -9.206  22.862  -8.427  1.00  0.00     0.000 C 
BRANCH   7   8
ATOM      8  C   UNL     1      -9.104  22.063  -7.115  1.00  0.00     0.000 C 
BRANCH   8   9
ATOM      9  C   UNL     1      -7.781  22.314  -6.369  1.00  0.00     0.000 C 
BRANCH   9  10
ATOM     10  C   UNL     1      -7.462  23.815  -6.263  1.00  0.00     0.000 C 
BRANCH  10  11
ATOM     11  C   UNL     1      -7.994  24.448  -4.958  1.00  0.00     0.000 C 
BRANCH  11  12
ATOM     12  C   UNL     1      -8.675  25.806  -5.198  1.00  0.00     0.000 C 
BRANCH  12  13
ATOM     13  C   UNL     1     -10.059  25.881  -4.532  1.00  0.00     0.006 C 
BRANCH  13  14
ATOM     14  C   UNL     1     -10.671  27.277  -4.683  1.00  0.00     0.053 C 
BRANCH  14  15
ATOM     15  C   UNL     1     -12.153  27.180  -4.861  1.00  0.00     0.041 C 
ATOM     16  O   UNL     1     -12.903  28.103  -4.442  1.00  0.00    -0.550 OA
ATOM     17  O   UNL     1     -12.701  26.101  -5.542  1.00  0.00    -0.550 OA
ENDBRANCH  14  15
ENDBRANCH  13  14
ENDBRANCH  12  13
ENDBRANCH  11  12
ENDBRANCH  10  11
ENDBRANCH   9  10
ENDBRANCH   8   9
ENDBRANCH   7   8
ENDBRANCH   6   7
ENDBRANCH   5   6
ENDBRANCH   4   5
ENDBRANCH   3   4
ENDBRANCH   2   3
ENDBRANCH   1   2
BRANCH   1  18
ATOM     18  C   UNL     1      -6.679  26.964 -14.719  1.00  0.00     0.000 C 
BRANCH  18  19
ATOM     19  C   UNL     1      -7.143  27.920 -15.830  1.00  0.00     0.000 C 
BRANCH  19  20
ATOM     20  C   UNL     1      -6.080  28.120 -16.934  1.00  0.00     0.000 C 
BRANCH  20  21
ATOM     21  C   UNL     1      -6.693  28.540 -18.280  1.00  0.00     0.000 C 
BRANCH  21  22
ATOM     22  C   UNL     1      -5.766  28.201 -19.460  1.00  0.00     0.000 C 
BRANCH  22  23
ATOM     23  C   UNL     1      -6.191  28.893 -20.763  1.00  0.00     0.000 C 
BRANCH  23  24
ATOM     24  C   UNL     1      -7.665  28.631 -21.121  1.00  0.00    -0.000 C 
BRANCH  24  25
ATOM     25  C   UNL     1      -8.572  29.831 -20.799  1.00  0.00    -0.000 C 
BRANCH  25  26
ATOM     26  C   UNL     1      -9.464  29.585 -19.569  1.00  0.00    -0.000 C 
BRANCH  26  27
ATOM     27  C   UNL     1      -8.805  30.058 -18.264  1.00  0.00    -0.000 C 
BRANCH  27  28
ATOM     28  C   UNL     1      -9.728  29.912 -17.042  1.00  0.00    -0.000 C 
BRANCH  28  29
ATOM     29  C   UNL     1      -9.221  30.697 -15.820  1.00  0.00    -0.000 C 
BRANCH  29  30
ATOM     30  C   UNL     1      -9.220  32.231 -15.988  1.00  0.00    -0.000 C 
BRANCH  30  31
ATOM     31  C   UNL     1      -8.201  32.979 -15.109  1.00  0.00    -0.003 C 
ATOM     32  C   UNL     1      -8.860  33.903 -14.088  1.00  0.00     0.004 C 
ENDBRANCH  30  31
ENDBRANCH  29  30
ENDBRANCH  28  29
ENDBRANCH  27  28
ENDBRANCH  26  27
ENDBRANCH  25  26
ENDBRANCH  24  25
ENDBRANCH  23  24
ENDBRANCH  22  23
ENDBRANCH  21  22
ENDBRANCH  20  21
ENDBRANCH  19  20
ENDBRANCH  18  19
ENDBRANCH   1  18
TORSDOF 28
ENDMDL
MODEL 5
REMARK VINA RESULT:    18.020      3.231     12.501
REMARK INTER + INTRA:          47.186
REMARK INTER:                  46.324
REMARK INTRA:                   0.862
REMARK UNBOUND:                -0.329
REMARK SMILES CCCCCCCCCCCCCCCCCCCCCCCCCCCCCC(=O)[O-]
REMARK SMILES IDX 16 1 17 2 18 3 19 4 20 5 21 6 22 7 23 8 24 9 25 10 26 11
REMARK SMILES IDX 27 12 28 13 29 14 30 15 31 16 32 17 15 18 14 19 13 20 12 21
REMARK SMILES IDX 11 22 10 23 9 24 8 25 7 26 6 27 5 28 4 29 3 30 2 31 1 32
REMARK H PARENT
REMARK Flexibility Score: inf
ROOT
ATOM      1  C   UNL     1      -6.731  26.537 -15.174  1.00  0.00     0.000 C 
ENDROOT
BRANCH   1   2
ATOM      2  C   UNL     1      -7.343  27.896 -15.545  1.00  0.00     0.000 C 
BRANCH   2   3
ATOM      3  C   UNL     1      -6.534  28.636 -16.621  1.00  0.00     0.000 C 
BRANCH   3   4
ATOM      4  C   UNL     1      -6.065  27.670 -17.719  1.00  0.00     0.000 C 
BRANCH   4   5
ATOM      5  C   UNL     1      -6.125  28.295 -19.126  1.00  0.00     0.000 C 
BRANCH   5   6
ATOM      6  C   UNL     1      -5.813  27.324 -20.286  1.00  0.00     0.000 C 
BRANCH   6   7
ATOM      7  C   UNL     1      -5.957  27.923 -21.700  1.00  0.00     0.000 C 
BRANCH   7   8
ATOM      8  C   UNL     1      -6.583  29.330 -21.749  1.00  0.00     0.000 C 
BRANCH   8   9
ATOM      9  C   UNL     1      -7.364  29.676 -20.468  1.00  0.00     0.000 C 
BRANCH   9  10
ATOM     10  C   UNL     1      -8.874  29.438 -20.638  1.00  0.00     0.000 C 
BRANCH  10  11
ATOM     11  C   UNL     1      -9.674  29.740 -19.351  1.00  0.00     0.000 C 
BRANCH  11  12
ATOM     12  C   UNL     1      -8.774  29.838 -18.108  1.00  0.00     0.000 C 
BRANCH  12  13
ATOM     13  C   UNL     1      -9.567  30.249 -16.855  1.00  0.00     0.006 C 
BRANCH  13  14
ATOM     14  C   UNL     1      -9.362  31.731 -16.532  1.00  0.00     0.053 C 
BRANCH  14  15
ATOM     15  C   UNL     1      -8.907  31.898 -15.116  1.00  0.00     0.041 C 
ATOM     16  O   UNL     1      -8.643  33.046 -14.666  1.00  0.00    -0.550 OA
ATOM     17  O   UNL     1      -8.832  30.794 -14.278  1.00  0.00    -0.550 OA
ENDBRANCH  14  15
ENDBRANCH  13  14
ENDBRANCH  12  13
ENDBRANCH  11  12
ENDBRANCH  10  11
ENDBRANCH   9  10
ENDBRANCH   8   9
ENDBRANCH   7   8
ENDBRANCH   6   7
ENDBRANCH   5   6
ENDBRANCH   4   5
ENDBRANCH   3   4
ENDBRANCH   2   3
ENDBRANCH   1   2
BRANCH   1  18
ATOM     18  C   UNL     1      -7.790  25.492 -14.785  1.00  0.00     0.000 C 
BRANCH  18  19
ATOM     19  C   UNL     1      -7.653  25.058 -13.317  1.00  0.00     0.000 C 
BRANCH  19  20
ATOM     20  C   UNL     1      -8.844  24.203 -12.828  1.00  0.00     0.000 C 
BRANCH  20  21
ATOM     21  C   UNL     1      -8.449  23.208 -11.725  1.00  0.00     0.000 C 
BRANCH  21  22
ATOM     22  C   UNL     1      -9.476  23.186 -10.580  1.00  0.00     0.000 C 
BRANCH  22  23
ATOM     23  C   UNL     1      -9.163  22.115  -9.525  1.00  0.00     0.000 C 
BRANCH  23  24
ATOM     24  C   UNL     1      -9.689  22.488  -8.127  1.00  0.00    -0.000 C 
BRANCH  24  25
ATOM     25  C   UNL     1      -8.566  22.591  -7.082  1.00  0.00    -0.000 C 
BRANCH  25  26
ATOM     26  C   UNL     1      -8.148  24.046  -6.804  1.00  0.00    -0.000 C 
BRANCH  26  27
ATOM     27  C   UNL     1      -7.792  24.281  -5.328  1.00  0.00    -0.000 C 
BRANCH  27  28
ATOM     28  C   UNL     1      -8.811  25.177  -4.604  1.00  0.00    -0.000 C 
BRANCH  28  29
ATOM     29  C   UNL     1      -9.407  26.258  -5.522  1.00  0.00    -0.000 C 
BRANCH  29  30
ATOM     30  C   UNL     1      -9.880  27.536  -4.799  1.00  0.00    -0.000 C 
BRANCH  30  31
ATOM     31  C   UNL     1     -11.303  27.461  -4.215  1.00  0.00    -0.003 C 
ATOM     32  C   UNL     1     -12.323  26.900  -5.203  1.00  0.00     0.004 C 
ENDBRANCH  30  31
ENDBRANCH  29  30
ENDBRANCH  28  29
ENDBRANCH  27  28
ENDBRANCH  26  27
ENDBRANCH  25  26
ENDBRANCH  24  25
ENDBRANCH  23  24
ENDBRANCH  22  23
ENDBRANCH  21  22
ENDBRANCH  20  21
ENDBRANCH  19  20
ENDBRANCH  18  19
ENDBRANCH   1  18
TORSDOF 28
ENDMDL
MODEL 6
REMARK VINA RESULT:    18.131      5.081     13.155
REMARK INTER + INTRA:          47.481
REMARK INTER:                  47.098
REMARK INTRA:                   0.383
REMARK UNBOUND:                -0.329
REMARK SMILES CCCCCCCCCCCCCCCCCCCCCCCCCCCCCC(=O)[O-]
REMARK SMILES IDX 16 1 17 2 18 3 19 4 20 5 21 6 22 7 23 8 24 9 25 10 26 11
REMARK SMILES IDX 27 12 28 13 29 14 30 15 31 16 32 17 15 18 14 19 13 20 12 21
REMARK SMILES IDX 11 22 10 23 9 24 8 25 7 26 6 27 5 28 4 29 3 30 2 31 1 32
REMARK H PARENT
REMARK Flexibility Score: inf
ROOT
ATOM      1  C   UNL     1      -7.126  26.460 -14.560  1.00  0.00     0.000 C 
ENDROOT
BRANCH   1   2
ATOM      2  C   UNL     1      -6.256  26.512 -15.825  1.00  0.00     0.000 C 
BRANCH   2   3
ATOM      3  C   UNL     1      -6.323  27.873 -16.533  1.00  0.00     0.000 C 
BRANCH   3   4
ATOM      4  C   UNL     1      -7.629  28.607 -16.195  1.00  0.00     0.000 C 
BRANCH   4   5
ATOM      5  C   UNL     1      -7.617  29.221 -14.782  1.00  0.00     0.000 C 
BRANCH   5   6
ATOM      6  C   UNL     1      -8.856  30.072 -14.429  1.00  0.00     0.000 C 
BRANCH   6   7
ATOM      7  C   UNL     1      -9.753  30.452 -15.625  1.00  0.00     0.000 C 
BRANCH   7   8
ATOM      8  C   UNL     1      -9.142  31.479 -16.596  1.00  0.00     0.000 C 
BRANCH   8   9
ATOM      9  C   UNL     1      -9.518  31.205 -18.063  1.00  0.00     0.000 C 
BRANCH   9  10
ATOM     10  C   UNL     1      -9.304  29.731 -18.442  1.00  0.00     0.000 C 
BRANCH  10  11
ATOM     11  C   UNL     1      -7.862  29.438 -18.915  1.00  0.00     0.000 C 
BRANCH  11  12
ATOM     12  C   UNL     1      -7.601  29.935 -20.347  1.00  0.00     0.000 C 
BRANCH  12  13
ATOM     13  C   UNL     1      -6.205  29.530 -20.851  1.00  0.00     0.006 C 
BRANCH  13  14
ATOM     14  C   UNL     1      -6.098  28.011 -21.020  1.00  0.00     0.053 C 
BRANCH  14  15
ATOM     15  C   UNL     1      -5.928  27.659 -22.464  1.00  0.00     0.041 C 
ATOM     16  O   UNL     1      -4.877  27.986 -23.077  1.00  0.00    -0.550 OA
ATOM     17  O   UNL     1      -6.905  26.918 -23.117  1.00  0.00    -0.550 OA
ENDBRANCH  14  15
ENDBRANCH  13  14
ENDBRANCH  12  13
ENDBRANCH  11  12
ENDBRANCH  10  11
ENDBRANCH   9  10
ENDBRANCH   8   9
ENDBRANCH   7   8
ENDBRANCH   6   7
ENDBRANCH   5   6
ENDBRANCH   4   5
ENDBRANCH   3   4
ENDBRANCH   2   3
ENDBRANCH   1   2
BRANCH   1  18
ATOM     18  C   UNL     1      -7.882  25.129 -14.410  1.00  0.00     0.000 C 
BRANCH  18  19
ATOM     19  C   UNL     1      -7.808  24.588 -12.973  1.00  0.00     0.000 C 
BRANCH  19  20
ATOM     20  C   UNL     1      -9.121  23.912 -12.516  1.00  0.00     0.000 C 
BRANCH  20  21
ATOM     21  C   UNL     1      -8.880  22.717 -11.581  1.00  0.00     0.000 C 
BRANCH  21  22
ATOM     22  C   UNL     1      -9.194  23.065 -10.116  1.00  0.00     0.000 C 
BRANCH  22  23
ATOM     23  C   UNL     1      -9.975  21.955  -9.398  1.00  0.00     0.000 C 
BRANCH  23  24
ATOM     24  C   UNL     1      -9.858  22.044  -7.865  1.00  0.00    -0.000 C 
BRANCH  24  25
ATOM     25  C   UNL     1      -8.696  22.945  -7.413  1.00  0.00    -0.000 C 
BRANCH  25  26
ATOM     26  C   UNL     1      -8.149  22.555  -6.028  1.00  0.00    -0.000 C 
BRANCH  26  27
ATOM     27  C   UNL     1      -6.913  23.378  -5.635  1.00  0.00    -0.000 C 
BRANCH  27  28
ATOM     28  C   UNL     1      -7.205  24.885  -5.541  1.00  0.00    -0.000 C 
BRANCH  28  29
ATOM     29  C   UNL     1      -8.567  25.185  -4.892  1.00  0.00    -0.000 C 
BRANCH  29  30
ATOM     30  C   UNL     1      -9.088  26.621  -5.112  1.00  0.00    -0.000 C 
BRANCH  30  31
ATOM     31  C   UNL     1     -10.493  26.712  -5.737  1.00  0.00    -0.003 C 
ATOM     32  C   UNL     1     -11.612  26.648  -4.699  1.00  0.00     0.004 C 
ENDBRANCH  30  31
ENDBRANCH  29  30
ENDBRANCH  28  29
ENDBRANCH  27  28
ENDBRANCH  26  27
ENDBRANCH  25  26
ENDBRANCH  24  25
ENDBRANCH  23  24
ENDBRANCH  22  23
ENDBRANCH  21  22
ENDBRANCH  20  21
ENDBRANCH  19  20
ENDBRANCH  18  19
ENDBRANCH   1  18
TORSDOF 28
ENDMDL
MODEL 7
REMARK VINA RESULT:    18.350      1.680      2.373
REMARK INTER + INTRA:          48.057
REMARK INTER:                  49.549
REMARK INTRA:                  -1.493
REMARK UNBOUND:                -0.329
REMARK SMILES CCCCCCCCCCCCCCCCCCCCCCCCCCCCCC(=O)[O-]
REMARK SMILES IDX 16 1 17 2 18 3 19 4 20 5 21 6 22 7 23 8 24 9 25 10 26 11
REMARK SMILES IDX 27 12 28 13 29 14 30 15 31 16 32 17 15 18 14 19 13 20 12 21
REMARK SMILES IDX 11 22 10 23 9 24 8 25 7 26 6 27 5 28 4 29 3 30 2 31 1 32
REMARK H PARENT
REMARK Flexibility Score: inf
ROOT
ATOM      1  C   UNL     1      -7.355  25.889 -13.209  1.00  0.00     0.000 C 
ENDROOT
BRANCH   1   2
ATOM      2  C   UNL     1      -7.318  24.527 -12.498  1.00  0.00     0.000 C 
BRANCH   2   3
ATOM      3  C   UNL     1      -8.694  23.846 -12.453  1.00  0.00     0.000 C 
BRANCH   3   4
ATOM      4  C   UNL     1      -9.144  23.610 -11.004  1.00  0.00     0.000 C 
BRANCH   4   5
ATOM      5  C   UNL     1      -9.621  22.166 -10.758  1.00  0.00     0.000 C 
BRANCH   5   6
ATOM      6  C   UNL     1     -10.114  21.876  -9.324  1.00  0.00     0.000 C 
BRANCH   6   7
ATOM      7  C   UNL     1      -9.454  22.726  -8.218  1.00  0.00     0.000 C 
BRANCH   7   8
ATOM      8  C   UNL     1      -9.032  21.943  -6.961  1.00  0.00     0.000 C 
BRANCH   8   9
ATOM      9  C   UNL     1      -7.601  22.278  -6.506  1.00  0.00     0.000 C 
BRANCH   9  10
ATOM     10  C   UNL     1      -7.388  23.794  -6.362  1.00  0.00     0.000 C 
BRANCH  10  11
ATOM     11  C   UNL     1      -6.841  24.192  -4.973  1.00  0.00     0.000 C 
BRANCH  11  12
ATOM     12  C   UNL     1      -7.954  24.327  -3.919  1.00  0.00     0.000 C 
BRANCH  12  13
ATOM     13  C   UNL     1      -9.311  24.671  -4.557  1.00  0.00     0.006 C 
BRANCH  13  14
ATOM     14  C   UNL     1      -9.969  25.858  -3.848  1.00  0.00     0.053 C 
BRANCH  14  15
ATOM     15  C   UNL     1     -10.562  26.799  -4.849  1.00  0.00     0.041 C 
ATOM     16  O   UNL     1      -9.888  27.775  -5.277  1.00  0.00    -0.550 OA
ATOM     17  O   UNL     1     -11.835  26.566  -5.352  1.00  0.00    -0.550 OA
ENDBRANCH  14  15
ENDBRANCH  13  14
ENDBRANCH  12  13
ENDBRANCH  11  12
ENDBRANCH  10  11
ENDBRANCH   9  10
ENDBRANCH   8   9
ENDBRANCH   7   8
ENDBRANCH   6   7
ENDBRANCH   5   6
ENDBRANCH   4   5
ENDBRANCH   3   4
ENDBRANCH   2   3
ENDBRANCH   1   2
BRANCH   1  18
ATOM     18  C   UNL     1      -7.240  25.767 -14.738  1.00  0.00     0.000 C 
BRANCH  18  19
ATOM     19  C   UNL     1      -6.207  26.748 -15.314  1.00  0.00     0.000 C 
BRANCH  19  20
ATOM     20  C   UNL     1      -6.745  27.548 -16.523  1.00  0.00     0.000 C 
BRANCH  20  21
ATOM     21  C   UNL     1      -7.068  29.009 -16.171  1.00  0.00     0.000 C 
BRANCH  21  22
ATOM     22  C   UNL     1      -8.290  29.117 -15.244  1.00  0.00     0.000 C 
BRANCH  22  23
ATOM     23  C   UNL     1      -9.014  30.465 -15.375  1.00  0.00     0.000 C 
BRANCH  23  24
ATOM     24  C   UNL     1      -9.087  30.961 -16.831  1.00  0.00    -0.000 C 
BRANCH  24  25
ATOM     25  C   UNL     1      -9.618  29.886 -17.793  1.00  0.00    -0.000 C 
BRANCH  25  26
ATOM     26  C   UNL     1      -9.173  30.123 -19.248  1.00  0.00    -0.000 C 
BRANCH  26  27
ATOM     27  C   UNL     1      -8.353  28.951 -19.808  1.00  0.00    -0.000 C 
BRANCH  27  28
ATOM     28  C   UNL     1      -6.862  29.036 -19.438  1.00  0.00    -0.000 C 
BRANCH  28  29
ATOM     29  C   UNL     1      -5.972  28.200 -20.374  1.00  0.00    -0.000 C 
BRANCH  29  30
ATOM     30  C   UNL     1      -5.513  28.928 -21.655  1.00  0.00    -0.000 C 
BRANCH  30  31
ATOM     31  C   UNL     1      -6.150  28.408 -22.958  1.00  0.00    -0.003 C 
ATOM     32  C   UNL     1      -6.136  26.884 -23.060  1.00  0.00     0.004 C 
ENDBRANCH  30  31
ENDBRANCH  29  30
ENDBRANCH  28  29
ENDBRANCH  27  28
ENDBRANCH  26  27
ENDBRANCH  25  26
ENDBRANCH  24  25
ENDBRANCH  23  24
ENDBRANCH  22  23
ENDBRANCH  21  22
ENDBRANCH  20  21
ENDBRANCH  19  20
ENDBRANCH  18  19
ENDBRANCH   1  18
TORSDOF 28
ENDMDL
MODEL 8
REMARK VINA RESULT:    18.536      4.833     12.964
REMARK INTER + INTRA:          48.548
REMARK INTER:                  49.083
REMARK INTRA:                  -0.535
REMARK UNBOUND:                -0.329
REMARK SMILES CCCCCCCCCCCCCCCCCCCCCCCCCCCCCC(=O)[O-]
REMARK SMILES IDX 16 1 17 2 18 3 19 4 20 5 21 6 22 7 23 8 24 9 25 10 26 11
REMARK SMILES IDX 27 12 28 13 29 14 30 15 31 16 32 17 15 18 14 19 13 20 12 21
REMARK SMILES IDX 11 22 10 23 9 24 8 25 7 26 6 27 5 28 4 29 3 30 2 31 1 32
REMARK H PARENT
REMARK Flexibility Score: inf
ROOT
ATOM      1  C   UNL     1      -8.317  24.783 -11.748  1.00  0.00     0.000 C 
ENDROOT
BRANCH   1   2
ATOM      2  C   UNL     1      -7.008  25.249 -12.402  1.00  0.00     0.000 C 
BRANCH   2   3
ATOM      3  C   UNL     1      -7.236  25.946 -13.752  1.00  0.00     0.000 C 
BRANCH   3   4
ATOM      4  C   UNL     1      -5.941  25.988 -14.576  1.00  0.00     0.000 C 
BRANCH   4   5
ATOM      5  C   UNL     1      -6.113  26.726 -15.917  1.00  0.00     0.000 C 
BRANCH   5   6
ATOM      6  C   UNL     1      -7.432  27.516 -16.063  1.00  0.00     0.000 C 
BRANCH   6   7
ATOM      7  C   UNL     1      -7.301  29.046 -15.913  1.00  0.00     0.000 C 
BRANCH   7   8
ATOM      8  C   UNL     1      -8.475  29.731 -15.191  1.00  0.00     0.000 C 
BRANCH   8   9
ATOM      9  C   UNL     1      -9.291  30.647 -16.121  1.00  0.00     0.000 C 
BRANCH   9  10
ATOM     10  C   UNL     1      -9.688  29.932 -17.423  1.00  0.00     0.000 C 
BRANCH  10  11
ATOM     11  C   UNL     1      -8.862  30.404 -18.640  1.00  0.00     0.000 C 
BRANCH  11  12
ATOM     12  C   UNL     1      -8.275  29.231 -19.444  1.00  0.00     0.000 C 
BRANCH  12  13
ATOM     13  C   UNL     1      -6.807  28.959 -19.074  1.00  0.00     0.006 C 
BRANCH  13  14
ATOM     14  C   UNL     1      -6.227  27.820 -19.918  1.00  0.00     0.053 C 
BRANCH  14  15
ATOM     15  C   UNL     1      -6.228  28.193 -21.367  1.00  0.00     0.041 C 
ATOM     16  O   UNL     1      -5.528  29.159 -21.774  1.00  0.00    -0.550 OA
ATOM     17  O   UNL     1      -6.956  27.437 -22.277  1.00  0.00    -0.550 OA
ENDBRANCH  14  15
ENDBRANCH  13  14
ENDBRANCH  12  13
ENDBRANCH  11  12
ENDBRANCH  10  11
ENDBRANCH   9  10
ENDBRANCH   8   9
ENDBRANCH   7   8
ENDBRANCH   6   7
ENDBRANCH   5   6
ENDBRANCH   4   5
ENDBRANCH   3   4
ENDBRANCH   2   3
ENDBRANCH   1   2
BRANCH   1  18
ATOM     18  C   UNL     1      -8.377  23.259 -11.553  1.00  0.00     0.000 C 
BRANCH  18  19
ATOM     19  C   UNL     1      -9.786  22.787 -11.158  1.00  0.00     0.000 C 
BRANCH  19  20
ATOM     20  C   UNL     1      -9.822  22.090  -9.779  1.00  0.00     0.000 C 
BRANCH  20  21
ATOM     21  C   UNL     1      -9.060  22.872  -8.697  1.00  0.00     0.000 C 
BRANCH  21  22
ATOM     22  C   UNL     1      -9.132  22.172  -7.329  1.00  0.00     0.000 C 
BRANCH  22  23
ATOM     23  C   UNL     1      -7.758  22.049  -6.655  1.00  0.00     0.000 C 
BRANCH  23  24
ATOM     24  C   UNL     1      -7.199  23.407  -6.194  1.00  0.00    -0.000 C 
BRANCH  24  25
ATOM     25  C   UNL     1      -7.131  23.527  -4.663  1.00  0.00    -0.000 C 
BRANCH  25  26
ATOM     26  C   UNL     1      -8.362  24.236  -4.070  1.00  0.00    -0.000 C 
BRANCH  26  27
ATOM     27  C   UNL     1      -8.910  25.331  -4.997  1.00  0.00    -0.000 C 
BRANCH  27  28
ATOM     28  C   UNL     1     -10.132  26.056  -4.407  1.00  0.00    -0.000 C 
BRANCH  28  29
ATOM     29  C   UNL     1     -10.001  27.588  -4.474  1.00  0.00    -0.000 C 
BRANCH  29  30
ATOM     30  C   UNL     1     -11.303  28.335  -4.832  1.00  0.00    -0.000 C 
BRANCH  30  31
ATOM     31  C   UNL     1     -12.591  27.506  -4.673  1.00  0.00    -0.003 C 
ATOM     32  C   UNL     1     -12.503  26.136  -5.343  1.00  0.00     0.004 C 
ENDBRANCH  30  31
ENDBRANCH  29  30
ENDBRANCH  28  29
ENDBRANCH  27  28
ENDBRANCH  26  27
ENDBRANCH  25  26
ENDBRANCH  24  25
ENDBRANCH  23  24
ENDBRANCH  22  23
ENDBRANCH  21  22
ENDBRANCH  20  21
ENDBRANCH  19  20
ENDBRANCH  18  19
ENDBRANCH   1  18
TORSDOF 28
ENDMDL
MODEL 9
REMARK VINA RESULT:    18.876      1.577      3.936
REMARK INTER + INTRA:          49.445
REMARK INTER:                  49.088
REMARK INTRA:                   0.357
REMARK UNBOUND:                -0.329
REMARK SMILES CCCCCCCCCCCCCCCCCCCCCCCCCCCCCC(=O)[O-]
REMARK SMILES IDX 16 1 17 2 18 3 19 4 20 5 21 6 22 7 23 8 24 9 25 10 26 11
REMARK SMILES IDX 27 12 28 13 29 14 30 15 31 16 32 17 15 18 14 19 13 20 12 21
REMARK SMILES IDX 11 22 10 23 9 24 8 25 7 26 6 27 5 28 4 29 3 30 2 31 1 32
REMARK H PARENT
REMARK Flexibility Score: inf
ROOT
ATOM      1  C   UNL     1      -8.074  25.180 -13.297  1.00  0.00     0.000 C 
ENDROOT
BRANCH   1   2
ATOM      2  C   UNL     1      -7.677  24.197 -12.185  1.00  0.00     0.000 C 
BRANCH   2   3
ATOM      3  C   UNL     1      -8.790  23.189 -11.861  1.00  0.00     0.000 C 
BRANCH   3   4
ATOM      4  C   UNL     1      -9.274  23.349 -10.412  1.00  0.00     0.000 C 
BRANCH   4   5
ATOM      5  C   UNL     1      -9.700  22.011  -9.778  1.00  0.00     0.000 C 
BRANCH   5   6
ATOM      6  C   UNL     1      -9.714  21.996  -8.233  1.00  0.00     0.000 C 
BRANCH   6   7
ATOM      7  C   UNL     1      -8.754  22.998  -7.558  1.00  0.00     0.000 C 
BRANCH   7   8
ATOM      8  C   UNL     1      -8.196  22.545  -6.196  1.00  0.00     0.000 C 
BRANCH   8   9
ATOM      9  C   UNL     1      -6.754  23.028  -5.956  1.00  0.00     0.000 C 
BRANCH   9  10
ATOM     10  C   UNL     1      -6.704  24.525  -5.611  1.00  0.00     0.000 C 
BRANCH  10  11
ATOM     11  C   UNL     1      -8.076  25.220  -5.758  1.00  0.00     0.000 C 
BRANCH  11  12
ATOM     12  C   UNL     1      -8.895  25.187  -4.456  1.00  0.00     0.000 C 
BRANCH  12  13
ATOM     13  C   UNL     1     -10.389  25.451  -4.709  1.00  0.00     0.006 C 
BRANCH  13  14
ATOM     14  C   UNL     1     -10.736  26.925  -4.480  1.00  0.00     0.053 C 
BRANCH  14  15
ATOM     15  C   UNL     1     -12.145  27.201  -4.900  1.00  0.00     0.041 C 
ATOM     16  O   UNL     1     -12.626  28.360  -4.784  1.00  0.00    -0.550 OA
ATOM     17  O   UNL     1     -12.907  26.192  -5.473  1.00  0.00    -0.550 OA
ENDBRANCH  14  15
ENDBRANCH  13  14
ENDBRANCH  12  13
ENDBRANCH  11  12
ENDBRANCH  10  11
ENDBRANCH   9  10
ENDBRANCH   8   9
ENDBRANCH   7   8
ENDBRANCH   6   7
ENDBRANCH   5   6
ENDBRANCH   4   5
ENDBRANCH   3   4
ENDBRANCH   2   3
ENDBRANCH   1   2
BRANCH   1  18
ATOM     18  C   UNL     1      -6.878  25.981 -13.840  1.00  0.00     0.000 C 
BRANCH  18  19
ATOM     19  C   UNL     1      -7.015  26.263 -15.345  1.00  0.00     0.000 C 
BRANCH  19  20
ATOM     20  C   UNL     1      -7.101  27.772 -15.668  1.00  0.00     0.000 C 
BRANCH  20  21
ATOM     21  C   UNL     1      -6.061  28.217 -16.709  1.00  0.00     0.000 C 
BRANCH  21  22
ATOM     22  C   UNL     1      -6.725  28.709 -18.006  1.00  0.00     0.000 C 
BRANCH  22  23
ATOM     23  C   UNL     1      -6.105  28.084 -19.264  1.00  0.00     0.000 C 
BRANCH  23  24
ATOM     24  C   UNL     1      -6.699  28.654 -20.565  1.00  0.00    -0.000 C 
BRANCH  24  25
ATOM     25  C   UNL     1      -7.650  29.836 -20.310  1.00  0.00    -0.000 C 
BRANCH  25  26
ATOM     26  C   UNL     1      -9.017  29.387 -19.764  1.00  0.00    -0.000 C 
BRANCH  26  27
ATOM     27  C   UNL     1      -9.222  29.790 -18.296  1.00  0.00    -0.000 C 
BRANCH  27  28
ATOM     28  C   UNL     1      -9.443  31.303 -18.118  1.00  0.00    -0.000 C 
BRANCH  28  29
ATOM     29  C   UNL     1      -9.073  31.793 -16.708  1.00  0.00    -0.000 C 
BRANCH  29  30
ATOM     30  C   UNL     1      -9.461  30.832 -15.564  1.00  0.00    -0.000 C 
BRANCH  30  31
ATOM     31  C   UNL     1      -8.511  30.850 -14.352  1.00  0.00    -0.003 C 
ATOM     32  C   UNL     1      -8.420  29.499 -13.646  1.00  0.00     0.004 C 
ENDBRANCH  30  31
ENDBRANCH  29  30
ENDBRANCH  28  29
ENDBRANCH  27  28
ENDBRANCH  26  27
ENDBRANCH  25  26
ENDBRANCH  24  25
ENDBRANCH  23  24
ENDBRANCH  22  23
ENDBRANCH  21  22
ENDBRANCH  20  21
ENDBRANCH  19  20
ENDBRANCH  18  19
ENDBRANCH   1  18
TORSDOF 28
ENDMDL
