MODEL 1
REMARK VINA RESULT:    -5.671      0.000      0.000
REMARK INTER + INTRA:         -10.614
REMARK INTER:                  -9.649
REMARK INTRA:                  -0.965
REMARK UNBOUND:                -0.965
REMARK SMILES CCCCCCCCCCCCCC(=O)[O-]
REMARK SMILES IDX 8 1 9 2 10 3 11 4 12 5 13 6 14 7 15 8 16 9 7 10 6 11 5 12
REMARK SMILES IDX 4 13 3 14 2 15 1 16
REMARK H PARENT
REMARK Flexibility Score: inf
ROOT
ATOM      1  C   UNL     1     -15.833  29.737   2.345  1.00  0.00     0.000 C 
ENDROOT
BRANCH   1   2
ATOM      2  C   UNL     1     -16.299  28.380   1.788  1.00  0.00     0.000 C 
BRANCH   2   3
ATOM      3  C   UNL     1     -16.513  28.402   0.264  1.00  0.00     0.000 C 
BRANCH   3   4
ATOM      4  C   UNL     1     -17.326  27.220  -0.302  1.00  0.00     0.000 C 
BRANCH   4   5
ATOM      5  C   UNL     1     -17.595  26.077   0.693  1.00  0.00     0.006 C 
BRANCH   5   6
ATOM      6  C   UNL     1     -18.076  24.792   0.008  1.00  0.00     0.053 C 
BRANCH   6   7
ATOM      7  C   UNL     1     -19.319  24.283   0.666  1.00  0.00     0.041 C 
ATOM      8  O   UNL     1     -19.316  23.168   1.252  1.00  0.00    -0.550 OA
ATOM      9  O   UNL     1     -20.495  25.018   0.592  1.00  0.00    -0.550 OA
ENDBRANCH   6   7
ENDBRANCH   5   6
ENDBRANCH   4   5
ENDBRANCH   3   4
ENDBRANCH   2   3
ENDBRANCH   1   2
BRANCH   1  10
ATOM     10  C   UNL     1     -15.618  30.785   1.241  1.00  0.00     0.000 C 
BRANCH  10  11
ATOM     11  C   UNL     1     -16.509  32.025   1.424  1.00  0.00    -0.000 C 
BRANCH  11  12
ATOM     12  C   UNL     1     -16.150  33.160   0.449  1.00  0.00    -0.000 C 
BRANCH  12  13
ATOM     13  C   UNL     1     -17.181  33.321  -0.679  1.00  0.00    -0.000 C 
BRANCH  13  14
ATOM     14  C   UNL     1     -18.171  32.151  -0.688  1.00  0.00    -0.000 C 
BRANCH  14  15
ATOM     15  C   UNL     1     -18.227  31.487  -2.068  1.00  0.00    -0.003 C 
ATOM     16  C   UNL     1     -18.875  30.107  -1.992  1.00  0.00     0.004 C 
ENDBRANCH  14  15
ENDBRANCH  13  14
ENDBRANCH  12  13
ENDBRANCH  11  12
ENDBRANCH  10  11
ENDBRANCH   1  10
TORSDOF 12
ENDMDL
MODEL 2
REMARK VINA RESULT:    -5.476      1.104      1.813
REMARK INTER + INTRA:         -10.283
REMARK INTER:                  -9.298
REMARK INTRA:                  -0.984
REMARK UNBOUND:                -0.965
REMARK SMILES CCCCCCCCCCCCCC(=O)[O-]
REMARK SMILES IDX 8 1 9 2 10 3 11 4 12 5 13 6 14 7 15 8 16 9 7 10 6 11 5 12
REMARK SMILES IDX 4 13 3 14 2 15 1 16
REMARK H PARENT
REMARK Flexibility Score: inf
ROOT
ATOM      1  C   UNL     1     -16.530  28.964   0.115  1.00  0.00     0.000 C 
ENDROOT
BRANCH   1   2
ATOM      2  C   UNL     1     -16.264  27.459  -0.063  1.00  0.00     0.000 C 
BRANCH   2   3
ATOM      3  C   UNL     1     -16.249  26.693   1.272  1.00  0.00     0.000 C 
BRANCH   3   4
ATOM      4  C   UNL     1     -17.423  25.716   1.483  1.00  0.00     0.000 C 
BRANCH   4   5
ATOM      5  C   UNL     1     -18.391  25.592   0.292  1.00  0.00     0.006 C 
BRANCH   5   6
ATOM      6  C   UNL     1     -19.479  24.535   0.516  1.00  0.00     0.053 C 
BRANCH   6   7
ATOM      7  C   UNL     1     -19.214  23.327  -0.325  1.00  0.00     0.041 C 
ATOM      8  O   UNL     1     -18.937  22.225   0.218  1.00  0.00    -0.550 OA
ATOM      9  O   UNL     1     -19.224  23.429  -1.710  1.00  0.00    -0.550 OA
ENDBRANCH   6   7
ENDBRANCH   5   6
ENDBRANCH   4   5
ENDBRANCH   3   4
ENDBRANCH   2   3
ENDBRANCH   1   2
BRANCH   1  10
ATOM     10  C   UNL     1     -16.023  29.496   1.466  1.00  0.00     0.000 C 
BRANCH  10  11
ATOM     11  C   UNL     1     -15.490  30.936   1.370  1.00  0.00    -0.000 C 
BRANCH  11  12
ATOM     12  C   UNL     1     -16.616  31.984   1.360  1.00  0.00    -0.000 C 
BRANCH  12  13
ATOM     13  C   UNL     1     -16.255  33.235   0.546  1.00  0.00    -0.000 C 
BRANCH  13  14
ATOM     14  C   UNL     1     -17.044  33.279  -0.768  1.00  0.00    -0.000 C 
BRANCH  14  15
ATOM     15  C   UNL     1     -18.213  32.288  -0.742  1.00  0.00    -0.003 C 
ATOM     16  C   UNL     1     -18.248  31.442  -2.012  1.00  0.00     0.004 C 
ENDBRANCH  14  15
ENDBRANCH  13  14
ENDBRANCH  12  13
ENDBRANCH  11  12
ENDBRANCH  10  11
ENDBRANCH   1  10
TORSDOF 12
ENDMDL
MODEL 3
REMARK VINA RESULT:    -5.344      1.545      2.679
REMARK INTER + INTRA:         -10.058
REMARK INTER:                  -9.409
REMARK INTRA:                  -0.649
REMARK UNBOUND:                -0.965
REMARK SMILES CCCCCCCCCCCCCC(=O)[O-]
REMARK SMILES IDX 8 1 9 2 10 3 11 4 12 5 13 6 14 7 15 8 16 9 7 10 6 11 5 12
REMARK SMILES IDX 4 13 3 14 2 15 1 16
REMARK H PARENT
REMARK Flexibility Score: inf
ROOT
ATOM      1  C   UNL     1     -16.393  28.449   0.128  1.00  0.00     0.000 C 
ENDROOT
BRANCH   1   2
ATOM      2  C   UNL     1     -17.392  27.429  -0.446  1.00  0.00     0.000 C 
BRANCH   2   3
ATOM      3  C   UNL     1     -17.249  26.032   0.183  1.00  0.00     0.000 C 
BRANCH   3   4
ATOM      4  C   UNL     1     -18.517  25.487   0.869  1.00  0.00     0.000 C 
BRANCH   4   5
ATOM      5  C   UNL     1     -18.947  24.078   0.422  1.00  0.00     0.006 C 
BRANCH   5   6
ATOM      6  C   UNL     1     -18.628  23.797  -1.052  1.00  0.00     0.053 C 
BRANCH   6   7
ATOM      7  C   UNL     1     -19.054  22.413  -1.424  1.00  0.00     0.041 C 
ATOM      8  O   UNL     1     -18.321  21.427  -1.145  1.00  0.00    -0.550 OA
ATOM      9  O   UNL     1     -20.238  22.214  -2.122  1.00  0.00    -0.550 OA
ENDBRANCH   6   7
ENDBRANCH   5   6
ENDBRANCH   4   5
ENDBRANCH   3   4
ENDBRANCH   2   3
ENDBRANCH   1   2
BRANCH   1  10
ATOM     10  C   UNL     1     -16.298  28.381   1.662  1.00  0.00     0.000 C 
BRANCH  10  11
ATOM     11  C   UNL     1     -15.827  29.708   2.282  1.00  0.00    -0.000 C 
BRANCH  11  12
ATOM     12  C   UNL     1     -15.709  30.836   1.243  1.00  0.00    -0.000 C 
BRANCH  12  13
ATOM     13  C   UNL     1     -16.763  31.936   1.440  1.00  0.00    -0.000 C 
BRANCH  13  14
ATOM     14  C   UNL     1     -16.322  33.243   0.769  1.00  0.00    -0.000 C 
BRANCH  14  15
ATOM     15  C   UNL     1     -16.816  33.311  -0.681  1.00  0.00    -0.003 C 
ATOM     16  C   UNL     1     -18.127  32.549  -0.854  1.00  0.00     0.004 C 
ENDBRANCH  14  15
ENDBRANCH  13  14
ENDBRANCH  12  13
ENDBRANCH  11  12
ENDBRANCH  10  11
ENDBRANCH   1  10
TORSDOF 12
ENDMDL
MODEL 4
REMARK VINA RESULT:    -5.272      1.342      2.996
REMARK INTER + INTRA:          -9.936
REMARK INTER:                  -9.169
REMARK INTRA:                  -0.767
REMARK UNBOUND:                -0.965
REMARK SMILES CCCCCCCCCCCCCC(=O)[O-]
REMARK SMILES IDX 8 1 9 2 10 3 11 4 12 5 13 6 14 7 15 8 16 9 7 10 6 11 5 12
REMARK SMILES IDX 4 13 3 14 2 15 1 16
REMARK H PARENT
REMARK Flexibility Score: inf
ROOT
ATOM      1  C   UNL     1     -16.440  27.177  -0.194  1.00  0.00     0.000 C 
ENDROOT
BRANCH   1   2
ATOM      2  C   UNL     1     -16.764  26.230   0.974  1.00  0.00     0.000 C 
BRANCH   2   3
ATOM      3  C   UNL     1     -18.016  25.371   0.719  1.00  0.00     0.000 C 
BRANCH   3   4
ATOM      4  C   UNL     1     -18.162  24.835  -0.719  1.00  0.00     0.000 C 
BRANCH   4   5
ATOM      5  C   UNL     1     -18.457  23.328  -0.828  1.00  0.00     0.006 C 
BRANCH   5   6
ATOM      6  C   UNL     1     -19.550  22.864   0.143  1.00  0.00     0.053 C 
BRANCH   6   7
ATOM      7  C   UNL     1     -20.902  23.237  -0.376  1.00  0.00     0.041 C 
ATOM      8  O   UNL     1     -21.584  24.121   0.207  1.00  0.00    -0.550 OA
ATOM      9  O   UNL     1     -21.431  22.573  -1.476  1.00  0.00    -0.550 OA
ENDBRANCH   6   7
ENDBRANCH   5   6
ENDBRANCH   4   5
ENDBRANCH   3   4
ENDBRANCH   2   3
ENDBRANCH   1   2
BRANCH   1  10
ATOM     10  C   UNL     1     -16.211  28.626   0.268  1.00  0.00     0.000 C 
BRANCH  10  11
ATOM     11  C   UNL     1     -16.285  28.776   1.797  1.00  0.00    -0.000 C 
BRANCH  11  12
ATOM     12  C   UNL     1     -15.611  30.065   2.297  1.00  0.00    -0.000 C 
BRANCH  12  13
ATOM     13  C   UNL     1     -15.526  31.149   1.213  1.00  0.00    -0.000 C 
BRANCH  13  14
ATOM     14  C   UNL     1     -16.666  32.163   1.361  1.00  0.00    -0.000 C 
BRANCH  14  15
ATOM     15  C   UNL     1     -16.706  33.125   0.168  1.00  0.00    -0.003 C 
ATOM     16  C   UNL     1     -17.824  32.756  -0.803  1.00  0.00     0.004 C 
ENDBRANCH  14  15
ENDBRANCH  13  14
ENDBRANCH  12  13
ENDBRANCH  11  12
ENDBRANCH  10  11
ENDBRANCH   1  10
TORSDOF 12
ENDMDL
MODEL 5
REMARK VINA RESULT:    -5.255      2.561      6.404
REMARK INTER + INTRA:          -9.907
REMARK INTER:                  -9.239
REMARK INTRA:                  -0.668
REMARK UNBOUND:                -0.965
REMARK SMILES CCCCCCCCCCCCCC(=O)[O-]
REMARK SMILES IDX 8 1 9 2 10 3 11 4 12 5 13 6 14 7 15 8 16 9 7 10 6 11 5 12
REMARK SMILES IDX 4 13 3 14 2 15 1 16
REMARK H PARENT
REMARK Flexibility Score: inf
ROOT
ATOM      1  C   UNL     1     -16.174  29.292   1.423  1.00  0.00     0.000 C 
ENDROOT
BRANCH   1   2
ATOM      2  C   UNL     1     -15.598  30.707   1.241  1.00  0.00     0.000 C 
BRANCH   2   3
ATOM      3  C   UNL     1     -16.664  31.809   1.385  1.00  0.00     0.000 C 
BRANCH   3   4
ATOM      4  C   UNL     1     -16.461  33.041   0.481  1.00  0.00     0.000 C 
BRANCH   4   5
ATOM      5  C   UNL     1     -17.023  32.904  -0.945  1.00  0.00     0.006 C 
BRANCH   5   6
ATOM      6  C   UNL     1     -18.408  32.247  -0.979  1.00  0.00     0.053 C 
BRANCH   6   7
ATOM      7  C   UNL     1     -18.438  31.144  -1.988  1.00  0.00     0.041 C 
ATOM      8  O   UNL     1     -18.045  31.351  -3.167  1.00  0.00    -0.550 OA
ATOM      9  O   UNL     1     -18.947  29.898  -1.641  1.00  0.00    -0.550 OA
ENDBRANCH   6   7
ENDBRANCH   5   6
ENDBRANCH   4   5
ENDBRANCH   3   4
ENDBRANCH   2   3
ENDBRANCH   1   2
BRANCH   1  10
ATOM     10  C   UNL     1     -16.155  28.476   0.119  1.00  0.00     0.000 C 
BRANCH  10  11
ATOM     11  C   UNL     1     -17.413  27.607  -0.051  1.00  0.00    -0.000 C 
BRANCH  11  12
ATOM     12  C   UNL     1     -17.115  26.104   0.081  1.00  0.00    -0.000 C 
BRANCH  12  13
ATOM     13  C   UNL     1     -18.107  25.381   1.003  1.00  0.00    -0.000 C 
BRANCH  13  14
ATOM     14  C   UNL     1     -19.149  24.607   0.187  1.00  0.00    -0.000 C 
BRANCH  14  15
ATOM     15  C   UNL     1     -18.475  23.610  -0.763  1.00  0.00    -0.003 C 
ATOM     16  C   UNL     1     -19.482  23.016  -1.744  1.00  0.00     0.004 C 
ENDBRANCH  14  15
ENDBRANCH  13  14
ENDBRANCH  12  13
ENDBRANCH  11  12
ENDBRANCH  10  11
ENDBRANCH   1  10
TORSDOF 12
ENDMDL
MODEL 6
REMARK VINA RESULT:    -5.136      0.981      2.790
REMARK INTER + INTRA:          -9.704
REMARK INTER:                  -8.906
REMARK INTRA:                  -0.799
REMARK UNBOUND:                -0.965
REMARK SMILES CCCCCCCCCCCCCC(=O)[O-]
REMARK SMILES IDX 8 1 9 2 10 3 11 4 12 5 13 6 14 7 15 8 16 9 7 10 6 11 5 12
REMARK SMILES IDX 4 13 3 14 2 15 1 16
REMARK H PARENT
REMARK Flexibility Score: inf
ROOT
ATOM      1  C   UNL     1     -17.468  29.472  -0.756  1.00  0.00     0.000 C 
ENDROOT
BRANCH   1   2
ATOM      2  C   UNL     1     -17.645  27.965  -0.496  1.00  0.00     0.000 C 
BRANCH   2   3
ATOM      3  C   UNL     1     -16.437  27.337   0.222  1.00  0.00     0.000 C 
BRANCH   3   4
ATOM      4  C   UNL     1     -16.652  25.898   0.732  1.00  0.00     0.000 C 
BRANCH   4   5
ATOM      5  C   UNL     1     -17.820  25.140   0.076  1.00  0.00     0.006 C 
BRANCH   5   6
ATOM      6  C   UNL     1     -18.962  24.843   1.055  1.00  0.00     0.053 C 
BRANCH   6   7
ATOM      7  C   UNL     1     -19.606  23.534   0.723  1.00  0.00     0.041 C 
ATOM      8  O   UNL     1     -20.782  23.291   1.102  1.00  0.00    -0.550 OA
ATOM      9  O   UNL     1     -18.889  22.562   0.037  1.00  0.00    -0.550 OA
ENDBRANCH   6   7
ENDBRANCH   5   6
ENDBRANCH   4   5
ENDBRANCH   3   4
ENDBRANCH   2   3
ENDBRANCH   1   2
BRANCH   1  10
ATOM     10  C   UNL     1     -18.514  30.027  -1.737  1.00  0.00     0.000 C 
BRANCH  10  11
ATOM     11  C   UNL     1     -18.344  31.536  -1.987  1.00  0.00    -0.000 C 
BRANCH  11  12
ATOM     12  C   UNL     1     -18.181  32.335  -0.683  1.00  0.00    -0.000 C 
BRANCH  12  13
ATOM     13  C   UNL     1     -17.010  33.328  -0.738  1.00  0.00    -0.000 C 
BRANCH  13  14
ATOM     14  C   UNL     1     -16.194  33.285   0.559  1.00  0.00    -0.000 C 
BRANCH  14  15
ATOM     15  C   UNL     1     -16.653  32.134   1.461  1.00  0.00    -0.003 C 
ATOM     16  C   UNL     1     -15.581  31.052   1.564  1.00  0.00     0.004 C 
ENDBRANCH  14  15
ENDBRANCH  13  14
ENDBRANCH  12  13
ENDBRANCH  11  12
ENDBRANCH  10  11
ENDBRANCH   1  10
TORSDOF 12
ENDMDL
MODEL 7
REMARK VINA RESULT:    -5.100      3.361      7.437
REMARK INTER + INTRA:          -9.644
REMARK INTER:                  -8.988
REMARK INTRA:                  -0.655
REMARK UNBOUND:                -0.965
REMARK SMILES CCCCCCCCCCCCCC(=O)[O-]
REMARK SMILES IDX 8 1 9 2 10 3 11 4 12 5 13 6 14 7 15 8 16 9 7 10 6 11 5 12
REMARK SMILES IDX 4 13 3 14 2 15 1 16
REMARK H PARENT
REMARK Flexibility Score: inf
ROOT
ATOM      1  C   UNL     1     -17.504  27.570  -0.327  1.00  0.00     0.000 C 
ENDROOT
BRANCH   1   2
ATOM      2  C   UNL     1     -16.225  28.231   0.214  1.00  0.00     0.000 C 
BRANCH   2   3
ATOM      3  C   UNL     1     -16.220  28.357   1.748  1.00  0.00     0.000 C 
BRANCH   3   4
ATOM      4  C   UNL     1     -15.813  29.741   2.292  1.00  0.00     0.000 C 
BRANCH   4   5
ATOM      5  C   UNL     1     -15.650  30.839   1.227  1.00  0.00     0.006 C 
BRANCH   5   6
ATOM      6  C   UNL     1     -16.621  32.010   1.424  1.00  0.00     0.053 C 
BRANCH   6   7
ATOM      7  C   UNL     1     -17.168  32.461   0.107  1.00  0.00     0.041 C 
ATOM      8  O   UNL     1     -16.797  33.556  -0.392  1.00  0.00    -0.550 OA
ATOM      9  O   UNL     1     -18.126  31.696  -0.547  1.00  0.00    -0.550 OA
ENDBRANCH   6   7
ENDBRANCH   5   6
ENDBRANCH   4   5
ENDBRANCH   3   4
ENDBRANCH   2   3
ENDBRANCH   1   2
BRANCH   1  10
ATOM     10  C   UNL     1     -17.422  26.034  -0.322  1.00  0.00     0.000 C 
BRANCH  10  11
ATOM     11  C   UNL     1     -18.221  25.406   0.832  1.00  0.00    -0.000 C 
BRANCH  11  12
ATOM     12  C   UNL     1     -19.134  24.260   0.363  1.00  0.00    -0.000 C 
BRANCH  12  13
ATOM     13  C   UNL     1     -18.823  23.802  -1.070  1.00  0.00    -0.000 C 
BRANCH  13  14
ATOM     14  C   UNL     1     -19.973  22.963  -1.638  1.00  0.00    -0.000 C 
BRANCH  14  15
ATOM     15  C   UNL     1     -19.605  21.475  -1.672  1.00  0.00    -0.003 C 
ATOM     16  C   UNL     1     -18.117  21.269  -1.400  1.00  0.00     0.004 C 
ENDBRANCH  14  15
ENDBRANCH  13  14
ENDBRANCH  12  13
ENDBRANCH  11  12
ENDBRANCH  10  11
ENDBRANCH   1  10
TORSDOF 12
ENDMDL
MODEL 8
REMARK VINA RESULT:    -4.970      3.132      5.554
REMARK INTER + INTRA:          -9.422
REMARK INTER:                  -8.374
REMARK INTRA:                  -1.048
REMARK UNBOUND:                -0.965
REMARK SMILES CCCCCCCCCCCCCC(=O)[O-]
REMARK SMILES IDX 8 1 9 2 10 3 11 4 12 5 13 6 14 7 15 8 16 9 7 10 6 11 5 12
REMARK SMILES IDX 4 13 3 14 2 15 1 16
REMARK H PARENT
REMARK Flexibility Score: inf
ROOT
ATOM      1  C   UNL     1     -16.928  33.255  -0.630  1.00  0.00     0.000 C 
ENDROOT
BRANCH   1   2
ATOM      2  C   UNL     1     -16.323  33.140   0.780  1.00  0.00     0.000 C 
BRANCH   2   3
ATOM      3  C   UNL     1     -15.889  31.704   1.128  1.00  0.00     0.000 C 
BRANCH   3   4
ATOM      4  C   UNL     1     -16.427  31.163   2.468  1.00  0.00     0.000 C 
BRANCH   4   5
ATOM      5  C   UNL     1     -15.523  30.130   3.165  1.00  0.00     0.006 C 
BRANCH   5   6
ATOM      6  C   UNL     1     -16.271  29.288   4.205  1.00  0.00     0.053 C 
BRANCH   6   7
ATOM      7  C   UNL     1     -17.000  30.173   5.166  1.00  0.00     0.041 C 
ATOM      8  O   UNL     1     -16.370  31.025   5.847  1.00  0.00    -0.550 OA
ATOM      9  O   UNL     1     -18.369  30.024   5.346  1.00  0.00    -0.550 OA
ENDBRANCH   6   7
ENDBRANCH   5   6
ENDBRANCH   4   5
ENDBRANCH   3   4
ENDBRANCH   2   3
ENDBRANCH   1   2
BRANCH   1  10
ATOM     10  C   UNL     1     -18.219  32.434  -0.787  1.00  0.00     0.000 C 
BRANCH  10  11
ATOM     11  C   UNL     1     -18.113  31.376  -1.898  1.00  0.00    -0.000 C 
BRANCH  11  12
ATOM     12  C   UNL     1     -18.465  29.963  -1.403  1.00  0.00    -0.000 C 
BRANCH  12  13
ATOM     13  C   UNL     1     -17.326  29.314  -0.603  1.00  0.00    -0.000 C 
BRANCH  13  14
ATOM     14  C   UNL     1     -17.588  27.818  -0.393  1.00  0.00    -0.000 C 
BRANCH  14  15
ATOM     15  C   UNL     1     -16.357  27.121   0.201  1.00  0.00    -0.003 C 
ATOM     16  C   UNL     1     -16.564  26.801   1.678  1.00  0.00     0.004 C 
ENDBRANCH  14  15
ENDBRANCH  13  14
ENDBRANCH  12  13
ENDBRANCH  11  12
ENDBRANCH  10  11
ENDBRANCH   1  10
TORSDOF 12
ENDMDL
MODEL 9
REMARK VINA RESULT:    -4.904      3.519      7.646
REMARK INTER + INTRA:          -9.310
REMARK INTER:                  -8.719
REMARK INTRA:                  -0.591
REMARK UNBOUND:                -0.965
REMARK SMILES CCCCCCCCCCCCCC(=O)[O-]
REMARK SMILES IDX 8 1 9 2 10 3 11 4 12 5 13 6 14 7 15 8 16 9 7 10 6 11 5 12
REMARK SMILES IDX 4 13 3 14 2 15 1 16
REMARK H PARENT
REMARK Flexibility Score: inf
ROOT
ATOM      1  C   UNL     1     -17.354  26.489  -0.476  1.00  0.00     0.000 C 
ENDROOT
BRANCH   1   2
ATOM      2  C   UNL     1     -17.549  28.005  -0.304  1.00  0.00     0.000 C 
BRANCH   2   3
ATOM      3  C   UNL     1     -16.235  28.745   0.006  1.00  0.00     0.000 C 
BRANCH   3   4
ATOM      4  C   UNL     1     -16.096  29.258   1.453  1.00  0.00     0.000 C 
BRANCH   4   5
ATOM      5  C   UNL     1     -15.500  30.670   1.591  1.00  0.00     0.006 C 
BRANCH   5   6
ATOM      6  C   UNL     1     -16.559  31.737   1.894  1.00  0.00     0.053 C 
BRANCH   6   7
ATOM      7  C   UNL     1     -16.818  32.575   0.683  1.00  0.00     0.041 C 
ATOM      8  O   UNL     1     -16.165  33.635   0.494  1.00  0.00    -0.550 OA
ATOM      9  O   UNL     1     -17.814  32.210  -0.214  1.00  0.00    -0.550 OA
ENDBRANCH   6   7
ENDBRANCH   5   6
ENDBRANCH   4   5
ENDBRANCH   3   4
ENDBRANCH   2   3
ENDBRANCH   1   2
BRANCH   1  10
ATOM     10  C   UNL     1     -17.793  25.694   0.765  1.00  0.00     0.000 C 
BRANCH  10  11
ATOM     11  C   UNL     1     -18.897  24.671   0.449  1.00  0.00    -0.000 C 
BRANCH  11  12
ATOM     12  C   UNL     1     -18.610  23.867  -0.830  1.00  0.00    -0.000 C 
BRANCH  12  13
ATOM     13  C   UNL     1     -19.762  22.926  -1.212  1.00  0.00    -0.000 C 
BRANCH  13  14
ATOM     14  C   UNL     1     -20.732  22.744  -0.039  1.00  0.00    -0.000 C 
BRANCH  14  15
ATOM     15  C   UNL     1     -22.122  23.293  -0.384  1.00  0.00    -0.003 C 
ATOM     16  C   UNL     1     -23.223  22.392   0.168  1.00  0.00     0.004 C 
ENDBRANCH  14  15
ENDBRANCH  13  14
ENDBRANCH  12  13
ENDBRANCH  11  12
ENDBRANCH  10  11
ENDBRANCH   1  10
TORSDOF 12
ENDMDL
