MODEL 1
REMARK VINA RESULT:    -3.973      0.000      0.000
REMARK INTER + INTRA:          -8.627
REMARK INTER:                  -6.759
REMARK INTRA:                  -1.867
REMARK UNBOUND:                -1.867
REMARK SMILES CCCCCCCCCCCCCC(=O)[O-]
REMARK SMILES IDX 8 1 9 2 10 3 11 4 12 5 13 6 14 7 15 8 16 9 7 10 6 11 5 12
REMARK SMILES IDX 4 13 3 14 2 15 1 16
REMARK H PARENT
REMARK Flexibility Score: inf
ROOT
ATOM      1  C   UNL     1      -4.067   6.188  -9.953  1.00  0.00     0.000 C 
ENDROOT
BRANCH   1   2
ATOM      2  C   UNL     1      -3.414   5.287  -8.889  1.00  0.00     0.000 C 
BRANCH   2   3
ATOM      3  C   UNL     1      -1.956   5.646  -8.539  1.00  0.00     0.000 C 
BRANCH   3   4
ATOM      4  C   UNL     1      -0.988   4.449  -8.458  1.00  0.00     0.000 C 
BRANCH   4   5
ATOM      5  C   UNL     1      -1.647   3.066  -8.629  1.00  0.00     0.006 C 
BRANCH   5   6
ATOM      6  C   UNL     1      -0.941   2.148  -9.639  1.00  0.00     0.053 C 
BRANCH   6   7
ATOM      7  C   UNL     1       0.410   1.716  -9.154  1.00  0.00     0.041 C 
ATOM      8  O   UNL     1       1.435   1.944  -9.847  1.00  0.00    -0.550 OA
ATOM      9  O   UNL     1       0.531   1.031  -7.951  1.00  0.00    -0.550 OA
ENDBRANCH   6   7
ENDBRANCH   5   6
ENDBRANCH   4   5
ENDBRANCH   3   4
ENDBRANCH   2   3
ENDBRANCH   1   2
BRANCH   1  10
ATOM     10  C   UNL     1      -4.437   5.427 -11.234  1.00  0.00     0.000 C 
BRANCH  10  11
ATOM     11  C   UNL     1      -3.470   4.260 -11.478  1.00  0.00    -0.000 C 
BRANCH  11  12
ATOM     12  C   UNL     1      -4.159   3.032 -12.100  1.00  0.00    -0.000 C 
BRANCH  12  13
ATOM     13  C   UNL     1      -4.331   1.830 -11.150  1.00  0.00    -0.000 C 
BRANCH  13  14
ATOM     14  C   UNL     1      -5.665   1.790 -10.378  1.00  0.00    -0.000 C 
BRANCH  14  15
ATOM     15  C   UNL     1      -5.549   2.087  -8.872  1.00  0.00    -0.003 C 
ATOM     16  C   UNL     1      -6.407   3.272  -8.432  1.00  0.00     0.004 C 
ENDBRANCH  14  15
ENDBRANCH  13  14
ENDBRANCH  12  13
ENDBRANCH  11  12
ENDBRANCH  10  11
ENDBRANCH   1  10
TORSDOF 12
ENDMDL
MODEL 2
REMARK VINA RESULT:    -3.736      2.922      4.784
REMARK INTER + INTRA:          -8.224
REMARK INTER:                  -6.329
REMARK INTRA:                  -1.895
REMARK UNBOUND:                -1.867
REMARK SMILES CCCCCCCCCCCCCC(=O)[O-]
REMARK SMILES IDX 8 1 9 2 10 3 11 4 12 5 13 6 14 7 15 8 16 9 7 10 6 11 5 12
REMARK SMILES IDX 4 13 3 14 2 15 1 16
REMARK H PARENT
REMARK Flexibility Score: inf
ROOT
ATOM      1  C   UNL     1      -0.191   6.083  -9.046  1.00  0.00     0.000 C 
ENDROOT
BRANCH   1   2
ATOM      2  C   UNL     1      -1.582   6.615  -8.653  1.00  0.00     0.000 C 
BRANCH   2   3
ATOM      3  C   UNL     1      -2.751   6.060  -9.491  1.00  0.00     0.000 C 
BRANCH   3   4
ATOM      4  C   UNL     1      -3.500   4.869  -8.863  1.00  0.00     0.000 C 
BRANCH   4   5
ATOM      5  C   UNL     1      -4.088   3.863  -9.872  1.00  0.00     0.006 C 
BRANCH   5   6
ATOM      6  C   UNL     1      -4.198   2.425  -9.342  1.00  0.00     0.053 C 
BRANCH   6   7
ATOM      7  C   UNL     1      -5.619   2.033  -9.077  1.00  0.00     0.041 C 
ATOM      8  O   UNL     1      -6.077   2.062  -7.905  1.00  0.00    -0.550 OA
ATOM      9  O   UNL     1      -6.428   1.602 -10.122  1.00  0.00    -0.550 OA
ENDBRANCH   6   7
ENDBRANCH   5   6
ENDBRANCH   4   5
ENDBRANCH   3   4
ENDBRANCH   2   3
ENDBRANCH   1   2
BRANCH   1  10
ATOM     10  C   UNL     1      -0.022   5.919 -10.563  1.00  0.00     0.000 C 
BRANCH  10  11
ATOM     11  C   UNL     1       0.457   4.502 -10.911  1.00  0.00    -0.000 C 
BRANCH  11  12
ATOM     12  C   UNL     1      -0.683   3.588 -11.397  1.00  0.00    -0.000 C 
BRANCH  12  13
ATOM     13  C   UNL     1      -0.717   2.190 -10.748  1.00  0.00    -0.000 C 
BRANCH  13  14
ATOM     14  C   UNL     1       0.504   1.844  -9.872  1.00  0.00    -0.000 C 
BRANCH  14  15
ATOM     15  C   UNL     1       0.186   1.605  -8.385  1.00  0.00    -0.003 C 
ATOM     16  C   UNL     1      -0.656   2.721  -7.771  1.00  0.00     0.004 C 
ENDBRANCH  14  15
ENDBRANCH  13  14
ENDBRANCH  12  13
ENDBRANCH  11  12
ENDBRANCH  10  11
ENDBRANCH   1  10
TORSDOF 12
ENDMDL
MODEL 3
REMARK VINA RESULT:    -3.727      2.837      4.975
REMARK INTER + INTRA:          -8.209
REMARK INTER:                  -6.493
REMARK INTRA:                  -1.715
REMARK UNBOUND:                -1.867
REMARK SMILES CCCCCCCCCCCCCC(=O)[O-]
REMARK SMILES IDX 8 1 9 2 10 3 11 4 12 5 13 6 14 7 15 8 16 9 7 10 6 11 5 12
REMARK SMILES IDX 4 13 3 14 2 15 1 16
REMARK H PARENT
REMARK Flexibility Score: inf
ROOT
ATOM      1  C   UNL     1      -1.548   5.445  -8.329  1.00  0.00     0.000 C 
ENDROOT
BRANCH   1   2
ATOM      2  C   UNL     1      -1.809   6.448  -9.467  1.00  0.00     0.000 C 
BRANCH   2   3
ATOM      3  C   UNL     1      -3.197   6.334 -10.128  1.00  0.00     0.000 C 
BRANCH   3   4
ATOM      4  C   UNL     1      -4.192   5.405  -9.405  1.00  0.00     0.000 C 
BRANCH   4   5
ATOM      5  C   UNL     1      -4.564   4.122 -10.175  1.00  0.00     0.006 C 
BRANCH   5   6
ATOM      6  C   UNL     1      -4.302   2.821  -9.400  1.00  0.00     0.053 C 
BRANCH   6   7
ATOM      7  C   UNL     1      -5.573   2.093  -9.085  1.00  0.00     0.041 C 
ATOM      8  O   UNL     1      -6.053   2.129  -7.923  1.00  0.00    -0.550 OA
ATOM      9  O   UNL     1      -6.209   1.345 -10.069  1.00  0.00    -0.550 OA
ENDBRANCH   6   7
ENDBRANCH   5   6
ENDBRANCH   4   5
ENDBRANCH   3   4
ENDBRANCH   2   3
ENDBRANCH   1   2
BRANCH   1  10
ATOM     10  C   UNL     1      -0.517   4.371  -8.705  1.00  0.00     0.000 C 
BRANCH  10  11
ATOM     11  C   UNL     1      -0.784   3.065  -7.942  1.00  0.00    -0.000 C 
BRANCH  11  12
ATOM     12  C   UNL     1      -0.014   1.866  -8.523  1.00  0.00    -0.000 C 
BRANCH  12  13
ATOM     13  C   UNL     1       0.593   2.097  -9.921  1.00  0.00    -0.000 C 
BRANCH  13  14
ATOM     14  C   UNL     1       0.011   1.213 -11.043  1.00  0.00    -0.000 C 
BRANCH  14  15
ATOM     15  C   UNL     1      -1.369   1.655 -11.563  1.00  0.00    -0.003 C 
ATOM     16  C   UNL     1      -1.423   3.141 -11.914  1.00  0.00     0.004 C 
ENDBRANCH  14  15
ENDBRANCH  13  14
ENDBRANCH  12  13
ENDBRANCH  11  12
ENDBRANCH  10  11
ENDBRANCH   1  10
TORSDOF 12
ENDMDL
MODEL 4
REMARK VINA RESULT:    -3.655      3.172      5.886
REMARK INTER + INTRA:          -8.087
REMARK INTER:                  -6.183
REMARK INTRA:                  -1.903
REMARK UNBOUND:                -1.867
REMARK SMILES CCCCCCCCCCCCCC(=O)[O-]
REMARK SMILES IDX 8 1 9 2 10 3 11 4 12 5 13 6 14 7 15 8 16 9 7 10 6 11 5 12
REMARK SMILES IDX 4 13 3 14 2 15 1 16
REMARK H PARENT
REMARK Flexibility Score: inf
ROOT
ATOM      1  C   UNL     1       0.522   1.886 -11.517  1.00  0.00     0.000 C 
ENDROOT
BRANCH   1   2
ATOM      2  C   UNL     1      -0.810   1.115 -11.523  1.00  0.00     0.000 C 
BRANCH   2   3
ATOM      3  C   UNL     1      -2.029   1.928 -12.003  1.00  0.00     0.000 C 
BRANCH   3   4
ATOM      4  C   UNL     1      -3.365   1.568 -11.322  1.00  0.00     0.000 C 
BRANCH   4   5
ATOM      5  C   UNL     1      -4.088   2.746 -10.641  1.00  0.00     0.006 C 
BRANCH   5   6
ATOM      6  C   UNL     1      -4.618   2.436  -9.233  1.00  0.00     0.053 C 
BRANCH   6   7
ATOM      7  C   UNL     1      -6.116   2.414  -9.191  1.00  0.00     0.041 C 
ATOM      8  O   UNL     1      -6.734   3.032  -8.286  1.00  0.00    -0.550 OA
ATOM      9  O   UNL     1      -6.827   1.682 -10.134  1.00  0.00    -0.550 OA
ENDBRANCH   6   7
ENDBRANCH   5   6
ENDBRANCH   4   5
ENDBRANCH   3   4
ENDBRANCH   2   3
ENDBRANCH   1   2
BRANCH   1  10
ATOM     10  C   UNL     1       1.202   1.895 -10.140  1.00  0.00     0.000 C 
BRANCH  10  11
ATOM     11  C   UNL     1       0.268   1.322  -9.065  1.00  0.00    -0.000 C 
BRANCH  11  12
ATOM     12  C   UNL     1      -0.084   2.347  -7.971  1.00  0.00    -0.000 C 
BRANCH  12  13
ATOM     13  C   UNL     1      -1.357   3.173  -8.239  1.00  0.00    -0.000 C 
BRANCH  13  14
ATOM     14  C   UNL     1      -1.131   4.690  -8.407  1.00  0.00    -0.000 C 
BRANCH  14  15
ATOM     15  C   UNL     1      -1.405   5.230  -9.822  1.00  0.00    -0.003 C 
ATOM     16  C   UNL     1      -0.141   5.335 -10.672  1.00  0.00     0.004 C 
ENDBRANCH  14  15
ENDBRANCH  13  14
ENDBRANCH  12  13
ENDBRANCH  11  12
ENDBRANCH  10  11
ENDBRANCH   1  10
TORSDOF 12
ENDMDL
MODEL 5
REMARK VINA RESULT:    -3.616      2.893      5.409
REMARK INTER + INTRA:          -8.019
REMARK INTER:                  -6.402
REMARK INTRA:                  -1.618
REMARK UNBOUND:                -1.867
REMARK SMILES CCCCCCCCCCCCCC(=O)[O-]
REMARK SMILES IDX 8 1 9 2 10 3 11 4 12 5 13 6 14 7 15 8 16 9 7 10 6 11 5 12
REMARK SMILES IDX 4 13 3 14 2 15 1 16
REMARK H PARENT
REMARK Flexibility Score: inf
ROOT
ATOM      1  C   UNL     1       0.397   2.123  -9.855  1.00  0.00     0.000 C 
ENDROOT
BRANCH   1   2
ATOM      2  C   UNL     1      -0.531   1.328 -10.791  1.00  0.00     0.000 C 
BRANCH   2   3
ATOM      3  C   UNL     1      -1.609   2.168 -11.506  1.00  0.00     0.000 C 
BRANCH   3   4
ATOM      4  C   UNL     1      -3.063   1.732 -11.239  1.00  0.00     0.000 C 
BRANCH   4   5
ATOM      5  C   UNL     1      -3.998   2.849 -10.737  1.00  0.00     0.006 C 
BRANCH   5   6
ATOM      6  C   UNL     1      -4.430   2.703  -9.270  1.00  0.00     0.053 C 
BRANCH   6   7
ATOM      7  C   UNL     1      -5.881   2.351  -9.147  1.00  0.00     0.041 C 
ATOM      8  O   UNL     1      -6.554   2.769  -8.170  1.00  0.00    -0.550 OA
ATOM      9  O   UNL     1      -6.481   1.531 -10.095  1.00  0.00    -0.550 OA
ENDBRANCH   6   7
ENDBRANCH   5   6
ENDBRANCH   4   5
ENDBRANCH   3   4
ENDBRANCH   2   3
ENDBRANCH   1   2
BRANCH   1  10
ATOM     10  C   UNL     1      -0.059   2.086  -8.389  1.00  0.00     0.000 C 
BRANCH  10  11
ATOM     11  C   UNL     1      -1.140   3.143  -8.125  1.00  0.00    -0.000 C 
BRANCH  11  12
ATOM     12  C   UNL     1      -0.688   4.567  -8.497  1.00  0.00    -0.000 C 
BRANCH  12  13
ATOM     13  C   UNL     1      -1.504   5.236  -9.622  1.00  0.00    -0.000 C 
BRANCH  13  14
ATOM     14  C   UNL     1      -2.728   6.047  -9.149  1.00  0.00    -0.000 C 
BRANCH  14  15
ATOM     15  C   UNL     1      -3.426   6.864 -10.252  1.00  0.00    -0.003 C 
ATOM     16  C   UNL     1      -4.858   6.404 -10.516  1.00  0.00     0.004 C 
ENDBRANCH  14  15
ENDBRANCH  13  14
ENDBRANCH  12  13
ENDBRANCH  11  12
ENDBRANCH  10  11
ENDBRANCH   1  10
TORSDOF 12
ENDMDL
MODEL 6
REMARK VINA RESULT:    -3.591      2.882      5.100
REMARK INTER + INTRA:          -7.978
REMARK INTER:                  -6.174
REMARK INTRA:                  -1.804
REMARK UNBOUND:                -1.867
REMARK SMILES CCCCCCCCCCCCCC(=O)[O-]
REMARK SMILES IDX 8 1 9 2 10 3 11 4 12 5 13 6 14 7 15 8 16 9 7 10 6 11 5 12
REMARK SMILES IDX 4 13 3 14 2 15 1 16
REMARK H PARENT
REMARK Flexibility Score: inf
ROOT
ATOM      1  C   UNL     1      -3.345   5.891  -9.207  1.00  0.00     0.000 C 
ENDROOT
BRANCH   1   2
ATOM      2  C   UNL     1      -3.572   5.917 -10.730  1.00  0.00     0.000 C 
BRANCH   2   3
ATOM      3  C   UNL     1      -4.211   4.641 -11.313  1.00  0.00     0.000 C 
BRANCH   3   4
ATOM      4  C   UNL     1      -3.308   3.392 -11.301  1.00  0.00     0.000 C 
BRANCH   4   5
ATOM      5  C   UNL     1      -3.911   2.158 -10.601  1.00  0.00     0.006 C 
BRANCH   5   6
ATOM      6  C   UNL     1      -4.432   2.427  -9.181  1.00  0.00     0.053 C 
BRANCH   6   7
ATOM      7  C   UNL     1      -5.925   2.318  -9.103  1.00  0.00     0.041 C 
ATOM      8  O   UNL     1      -6.556   1.638  -9.953  1.00  0.00    -0.550 OA
ATOM      9  O   UNL     1      -6.621   2.996  -8.110  1.00  0.00    -0.550 OA
ENDBRANCH   6   7
ENDBRANCH   5   6
ENDBRANCH   4   5
ENDBRANCH   3   4
ENDBRANCH   2   3
ENDBRANCH   1   2
BRANCH   1  10
ATOM     10  C   UNL     1      -1.951   6.391  -8.802  1.00  0.00     0.000 C 
BRANCH  10  11
ATOM     11  C   UNL     1      -0.910   5.269  -8.920  1.00  0.00    -0.000 C 
BRANCH  11  12
ATOM     12  C   UNL     1      -1.311   3.999  -8.149  1.00  0.00    -0.000 C 
BRANCH  12  13
ATOM     13  C   UNL     1      -0.539   2.725  -8.546  1.00  0.00    -0.000 C 
BRANCH  13  14
ATOM     14  C   UNL     1       0.255   2.824  -9.864  1.00  0.00    -0.000 C 
BRANCH  14  15
ATOM     15  C   UNL     1       0.604   1.471 -10.511  1.00  0.00    -0.003 C 
ATOM     16  C   UNL     1      -0.462   0.989 -11.493  1.00  0.00     0.004 C 
ENDBRANCH  14  15
ENDBRANCH  13  14
ENDBRANCH  12  13
ENDBRANCH  11  12
ENDBRANCH  10  11
ENDBRANCH   1  10
TORSDOF 12
ENDMDL
MODEL 7
REMARK VINA RESULT:    -3.497      2.919      5.172
REMARK INTER + INTRA:          -7.817
REMARK INTER:                  -6.226
REMARK INTRA:                  -1.591
REMARK UNBOUND:                -1.867
REMARK SMILES CCCCCCCCCCCCCC(=O)[O-]
REMARK SMILES IDX 8 1 9 2 10 3 11 4 12 5 13 6 14 7 15 8 16 9 7 10 6 11 5 12
REMARK SMILES IDX 4 13 3 14 2 15 1 16
REMARK H PARENT
REMARK Flexibility Score: inf
ROOT
ATOM      1  C   UNL     1      -1.458   3.156  -8.401  1.00  0.00     0.000 C 
ENDROOT
BRANCH   1   2
ATOM      2  C   UNL     1      -1.276   4.667  -8.638  1.00  0.00     0.000 C 
BRANCH   2   3
ATOM      3  C   UNL     1      -2.573   5.498  -8.559  1.00  0.00     0.000 C 
BRANCH   3   4
ATOM      4  C   UNL     1      -3.331   5.655  -9.892  1.00  0.00     0.000 C 
BRANCH   4   5
ATOM      5  C   UNL     1      -4.554   4.732 -10.060  1.00  0.00     0.006 C 
BRANCH   5   6
ATOM      6  C   UNL     1      -4.970   3.992  -8.780  1.00  0.00     0.053 C 
BRANCH   6   7
ATOM      7  C   UNL     1      -5.979   2.919  -9.056  1.00  0.00     0.041 C 
ATOM      8  O   UNL     1      -5.778   1.742  -8.659  1.00  0.00    -0.550 OA
ATOM      9  O   UNL     1      -7.125   3.214  -9.783  1.00  0.00    -0.550 OA
ENDBRANCH   6   7
ENDBRANCH   5   6
ENDBRANCH   4   5
ENDBRANCH   3   4
ENDBRANCH   2   3
ENDBRANCH   1   2
BRANCH   1  10
ATOM     10  C   UNL     1      -0.171   2.466  -7.928  1.00  0.00     0.000 C 
BRANCH  10  11
ATOM     11  C   UNL     1       0.253   1.365  -8.910  1.00  0.00    -0.000 C 
BRANCH  11  12
ATOM     12  C   UNL     1       1.069   1.906 -10.098  1.00  0.00    -0.000 C 
BRANCH  12  13
ATOM     13  C   UNL     1       0.329   1.902 -11.451  1.00  0.00    -0.000 C 
BRANCH  13  14
ATOM     14  C   UNL     1      -1.000   1.119 -11.469  1.00  0.00    -0.000 C 
BRANCH  14  15
ATOM     15  C   UNL     1      -2.250   1.975 -11.741  1.00  0.00    -0.003 C 
ATOM     16  C   UNL     1      -1.917   3.342 -12.334  1.00  0.00     0.004 C 
ENDBRANCH  14  15
ENDBRANCH  13  14
ENDBRANCH  12  13
ENDBRANCH  11  12
ENDBRANCH  10  11
ENDBRANCH   1  10
TORSDOF 12
ENDMDL
MODEL 8
REMARK VINA RESULT:    -3.477      3.079      5.269
REMARK INTER + INTRA:          -7.783
REMARK INTER:                  -6.185
REMARK INTRA:                  -1.598
REMARK UNBOUND:                -1.867
REMARK SMILES CCCCCCCCCCCCCC(=O)[O-]
REMARK SMILES IDX 8 1 9 2 10 3 11 4 12 5 13 6 14 7 15 8 16 9 7 10 6 11 5 12
REMARK SMILES IDX 4 13 3 14 2 15 1 16
REMARK H PARENT
REMARK Flexibility Score: inf
ROOT
ATOM      1  C   UNL     1      -3.877   6.264  -9.659  1.00  0.00     0.000 C 
ENDROOT
BRANCH   1   2
ATOM      2  C   UNL     1      -4.701   5.025 -10.053  1.00  0.00     0.000 C 
BRANCH   2   3
ATOM      3  C   UNL     1      -4.904   3.994  -8.924  1.00  0.00     0.000 C 
BRANCH   3   4
ATOM      4  C   UNL     1      -4.404   2.571  -9.239  1.00  0.00     0.000 C 
BRANCH   4   5
ATOM      5  C   UNL     1      -3.741   2.403 -10.620  1.00  0.00     0.006 C 
BRANCH   5   6
ATOM      6  C   UNL     1      -4.472   1.433 -11.561  1.00  0.00     0.053 C 
BRANCH   6   7
ATOM      7  C   UNL     1      -5.938   1.734 -11.646  1.00  0.00     0.041 C 
ATOM      8  O   UNL     1      -6.778   0.938 -11.154  1.00  0.00    -0.550 OA
ATOM      9  O   UNL     1      -6.375   2.880 -12.300  1.00  0.00    -0.550 OA
ENDBRANCH   6   7
ENDBRANCH   5   6
ENDBRANCH   4   5
ENDBRANCH   3   4
ENDBRANCH   2   3
ENDBRANCH   1   2
BRANCH   1  10
ATOM     10  C   UNL     1      -2.365   6.052  -9.818  1.00  0.00     0.000 C 
BRANCH  10  11
ATOM     11  C   UNL     1      -1.726   5.643  -8.483  1.00  0.00    -0.000 C 
BRANCH  11  12
ATOM     12  C   UNL     1      -0.653   4.551  -8.644  1.00  0.00    -0.000 C 
BRANCH  12  13
ATOM     13  C   UNL     1      -1.001   3.196  -7.995  1.00  0.00    -0.000 C 
BRANCH  13  14
ATOM     14  C   UNL     1      -0.115   2.013  -8.434  1.00  0.00    -0.000 C 
BRANCH  14  15
ATOM     15  C   UNL     1      -0.078   1.762  -9.952  1.00  0.00    -0.003 C 
ATOM     16  C   UNL     1       1.297   2.022 -10.564  1.00  0.00     0.004 C 
ENDBRANCH  14  15
ENDBRANCH  13  14
ENDBRANCH  12  13
ENDBRANCH  11  12
ENDBRANCH  10  11
ENDBRANCH   1  10
TORSDOF 12
ENDMDL
MODEL 9
REMARK VINA RESULT:    -3.405      3.147      5.544
REMARK INTER + INTRA:          -7.661
REMARK INTER:                  -5.915
REMARK INTRA:                  -1.747
REMARK UNBOUND:                -1.867
REMARK SMILES CCCCCCCCCCCCCC(=O)[O-]
REMARK SMILES IDX 8 1 9 2 10 3 11 4 12 5 13 6 14 7 15 8 16 9 7 10 6 11 5 12
REMARK SMILES IDX 4 13 3 14 2 15 1 16
REMARK H PARENT
REMARK Flexibility Score: inf
ROOT
ATOM      1  C   UNL     1       0.175   1.768  -8.868  1.00  0.00     0.000 C 
ENDROOT
BRANCH   1   2
ATOM      2  C   UNL     1      -0.741   2.667  -8.018  1.00  0.00     0.000 C 
BRANCH   2   3
ATOM      3  C   UNL     1      -0.854   4.125  -8.506  1.00  0.00     0.000 C 
BRANCH   3   4
ATOM      4  C   UNL     1      -2.281   4.586  -8.866  1.00  0.00     0.000 C 
BRANCH   4   5
ATOM      5  C   UNL     1      -3.308   3.450  -9.039  1.00  0.00     0.006 C 
BRANCH   5   6
ATOM      6  C   UNL     1      -4.762   3.927  -9.182  1.00  0.00     0.053 C 
BRANCH   6   7
ATOM      7  C   UNL     1      -5.740   2.870  -8.769  1.00  0.00     0.041 C 
ATOM      8  O   UNL     1      -6.520   3.072  -7.801  1.00  0.00    -0.550 OA
ATOM      9  O   UNL     1      -5.767   1.649  -9.431  1.00  0.00    -0.550 OA
ENDBRANCH   6   7
ENDBRANCH   5   6
ENDBRANCH   4   5
ENDBRANCH   3   4
ENDBRANCH   2   3
ENDBRANCH   1   2
BRANCH   1  10
ATOM     10  C   UNL     1      -0.441   1.402 -10.226  1.00  0.00     0.000 C 
BRANCH  10  11
ATOM     11  C   UNL     1       0.625   1.408 -11.331  1.00  0.00    -0.000 C 
BRANCH  11  12
ATOM     12  C   UNL     1       1.765   2.405 -11.056  1.00  0.00    -0.000 C 
BRANCH  12  13
ATOM     13  C   UNL     1       1.708   3.704 -11.885  1.00  0.00    -0.000 C 
BRANCH  13  14
ATOM     14  C   UNL     1       0.498   3.823 -12.834  1.00  0.00    -0.000 C 
BRANCH  14  15
ATOM     15  C   UNL     1      -0.678   4.648 -12.281  1.00  0.00    -0.003 C 
ATOM     16  C   UNL     1      -2.034   3.989 -12.527  1.00  0.00     0.004 C 
ENDBRANCH  14  15
ENDBRANCH  13  14
ENDBRANCH  12  13
ENDBRANCH  11  12
ENDBRANCH  10  11
ENDBRANCH   1  10
TORSDOF 12
ENDMDL
