MODEL 1
REMARK VINA RESULT:    -3.056      0.000      0.000
REMARK INTER + INTRA:         -14.303
REMARK INTER:                  -8.059
REMARK INTRA:                  -6.243
REMARK UNBOUND:                -6.243
REMARK SMILES CCCCCCCCCCCCCCCCCCCCCCCCCCCCCC(=O)[O-]
REMARK SMILES IDX 16 1 17 2 18 3 19 4 20 5 21 6 22 7 23 8 24 9 25 10 26 11
REMARK SMILES IDX 27 12 28 13 29 14 30 15 31 16 32 17 15 18 14 19 13 20 12 21
REMARK SMILES IDX 11 22 10 23 9 24 8 25 7 26 6 27 5 28 4 29 3 30 2 31 1 32
REMARK H PARENT
REMARK Flexibility Score: inf
ROOT
ATOM      1  C   UNL     1       1.922  70.251   6.712  1.00  0.00     0.000 C 
ENDROOT
BRANCH   1   2
ATOM      2  C   UNL     1       3.053  71.268   6.924  1.00  0.00     0.000 C 
BRANCH   2   3
ATOM      3  C   UNL     1       4.014  70.800   8.024  1.00  0.00     0.000 C 
BRANCH   3   4
ATOM      4  C   UNL     1       4.750  69.520   7.599  1.00  0.00     0.000 C 
BRANCH   4   5
ATOM      5  C   UNL     1       6.045  69.811   6.825  1.00  0.00     0.000 C 
BRANCH   5   6
ATOM      6  C   UNL     1       6.202  68.911   5.585  1.00  0.00     0.000 C 
BRANCH   6   7
ATOM      7  C   UNL     1       4.948  68.917   4.685  1.00  0.00     0.000 C 
BRANCH   7   8
ATOM      8  C   UNL     1       4.325  67.525   4.478  1.00  0.00     0.000 C 
BRANCH   8   9
ATOM      9  C   UNL     1       4.865  66.426   5.411  1.00  0.00     0.000 C 
BRANCH   9  10
ATOM     10  C   UNL     1       3.850  65.869   6.427  1.00  0.00     0.000 C 
BRANCH  10  11
ATOM     11  C   UNL     1       2.446  66.481   6.273  1.00  0.00     0.000 C 
BRANCH  11  12
ATOM     12  C   UNL     1       1.801  66.811   7.630  1.00  0.00     0.000 C 
BRANCH  12  13
ATOM     13  C   UNL     1       0.922  65.667   8.159  1.00  0.00     0.006 C 
BRANCH  13  14
ATOM     14  C   UNL     1       1.697  64.799   9.157  1.00  0.00     0.053 C 
BRANCH  14  15
ATOM     15  C   UNL     1       2.002  63.457   8.568  1.00  0.00     0.041 C 
ATOM     16  O   UNL     1       1.282  62.988   7.647  1.00  0.00    -0.550 OA
ATOM     17  O   UNL     1       3.082  62.721   9.040  1.00  0.00    -0.550 OA
ENDBRANCH  14  15
ENDBRANCH  13  14
ENDBRANCH  12  13
ENDBRANCH  11  12
ENDBRANCH  10  11
ENDBRANCH   9  10
ENDBRANCH   8   9
ENDBRANCH   7   8
ENDBRANCH   6   7
ENDBRANCH   5   6
ENDBRANCH   4   5
ENDBRANCH   3   4
ENDBRANCH   2   3
ENDBRANCH   1   2
BRANCH   1  18
ATOM     18  C   UNL     1       0.620  70.651   7.438  1.00  0.00     0.000 C 
BRANCH  18  19
ATOM     19  C   UNL     1       0.384  72.171   7.494  1.00  0.00     0.000 C 
BRANCH  19  20
ATOM     20  C   UNL     1       0.008  72.720   8.884  1.00  0.00     0.000 C 
BRANCH  20  21
ATOM     21  C   UNL     1       1.042  72.452   9.997  1.00  0.00     0.000 C 
BRANCH  21  22
ATOM     22  C   UNL     1       2.301  73.339   9.945  1.00  0.00     0.000 C 
BRANCH  22  23
ATOM     23  C   UNL     1       3.137  73.366  11.239  1.00  0.00     0.000 C 
BRANCH  23  24
ATOM     24  C   UNL     1       2.660  72.409  12.346  1.00  0.00    -0.000 C 
BRANCH  24  25
ATOM     25  C   UNL     1       3.750  71.418  12.788  1.00  0.00    -0.000 C 
BRANCH  25  26
ATOM     26  C   UNL     1       4.280  70.557  11.628  1.00  0.00    -0.000 C 
BRANCH  26  27
ATOM     27  C   UNL     1       4.199  69.031  11.845  1.00  0.00    -0.000 C 
BRANCH  27  28
ATOM     28  C   UNL     1       3.307  68.267  10.848  1.00  0.00    -0.000 C 
BRANCH  28  29
ATOM     29  C   UNL     1       2.054  69.059  10.436  1.00  0.00    -0.000 C 
BRANCH  29  30
ATOM     30  C   UNL     1       0.793  68.626  11.206  1.00  0.00    -0.000 C 
BRANCH  30  31
ATOM     31  C   UNL     1       0.350  69.592  12.319  1.00  0.00    -0.003 C 
ATOM     32  C   UNL     1       0.861  69.190  13.702  1.00  0.00     0.004 C 
ENDBRANCH  30  31
ENDBRANCH  29  30
ENDBRANCH  28  29
ENDBRANCH  27  28
ENDBRANCH  26  27
ENDBRANCH  25  26
ENDBRANCH  24  25
ENDBRANCH  23  24
ENDBRANCH  22  23
ENDBRANCH  21  22
ENDBRANCH  20  21
ENDBRANCH  19  20
ENDBRANCH  18  19
ENDBRANCH   1  18
TORSDOF 28
ENDMDL
MODEL 2
REMARK VINA RESULT:    -3.003      4.366      7.600
REMARK INTER + INTRA:         -14.162
REMARK INTER:                  -8.934
REMARK INTRA:                  -5.227
REMARK UNBOUND:                -6.243
REMARK SMILES CCCCCCCCCCCCCCCCCCCCCCCCCCCCCC(=O)[O-]
REMARK SMILES IDX 16 1 17 2 18 3 19 4 20 5 21 6 22 7 23 8 24 9 25 10 26 11
REMARK SMILES IDX 27 12 28 13 29 14 30 15 31 16 32 17 15 18 14 19 13 20 12 21
REMARK SMILES IDX 11 22 10 23 9 24 8 25 7 26 6 27 5 28 4 29 3 30 2 31 1 32
REMARK H PARENT
REMARK Flexibility Score: inf
ROOT
ATOM      1  C   UNL     1       0.198  68.208  13.054  1.00  0.00     0.000 C 
ENDROOT
BRANCH   1   2
ATOM      2  C   UNL     1      -0.384  67.149  14.002  1.00  0.00     0.000 C 
BRANCH   2   3
ATOM      3  C   UNL     1      -0.133  67.524  15.467  1.00  0.00     0.000 C 
BRANCH   3   4
ATOM      4  C   UNL     1       0.632  66.407  16.194  1.00  0.00     0.000 C 
BRANCH   4   5
ATOM      5  C   UNL     1       0.842  65.164  15.315  1.00  0.00     0.000 C 
BRANCH   5   6
ATOM      6  C   UNL     1       2.327  64.922  14.988  1.00  0.00     0.000 C 
BRANCH   6   7
ATOM      7  C   UNL     1       2.556  64.562  13.504  1.00  0.00     0.000 C 
BRANCH   7   8
ATOM      8  C   UNL     1       2.924  65.769  12.622  1.00  0.00     0.000 C 
BRANCH   8   9
ATOM      9  C   UNL     1       2.327  65.744  11.203  1.00  0.00     0.000 C 
BRANCH   9  10
ATOM     10  C   UNL     1       2.417  67.072  10.428  1.00  0.00     0.000 C 
BRANCH  10  11
ATOM     11  C   UNL     1       1.594  67.067   9.128  1.00  0.00     0.000 C 
BRANCH  11  12
ATOM     12  C   UNL     1       0.843  65.741   8.917  1.00  0.00     0.000 C 
BRANCH  12  13
ATOM     13  C   UNL     1       1.393  64.933   7.732  1.00  0.00     0.006 C 
BRANCH  13  14
ATOM     14  C   UNL     1       1.309  63.429   8.010  1.00  0.00     0.053 C 
BRANCH  14  15
ATOM     15  C   UNL     1       2.610  62.912   8.540  1.00  0.00     0.041 C 
ATOM     16  O   UNL     1       3.659  63.603   8.434  1.00  0.00    -0.550 OA
ATOM     17  O   UNL     1       2.667  61.665   9.149  1.00  0.00    -0.550 OA
ENDBRANCH  14  15
ENDBRANCH  13  14
ENDBRANCH  12  13
ENDBRANCH  11  12
ENDBRANCH  10  11
ENDBRANCH   9  10
ENDBRANCH   8   9
ENDBRANCH   7   8
ENDBRANCH   6   7
ENDBRANCH   5   6
ENDBRANCH   4   5
ENDBRANCH   3   4
ENDBRANCH   2   3
ENDBRANCH   1   2
BRANCH   1  18
ATOM     18  C   UNL     1       0.990  69.302  13.803  1.00  0.00     0.000 C 
BRANCH  18  19
ATOM     19  C   UNL     1       2.449  69.443  13.333  1.00  0.00     0.000 C 
BRANCH  19  20
ATOM     20  C   UNL     1       3.484  69.601  14.463  1.00  0.00     0.000 C 
BRANCH  20  21
ATOM     21  C   UNL     1       3.694  68.349  15.340  1.00  0.00     0.000 C 
BRANCH  21  22
ATOM     22  C   UNL     1       3.342  68.530  16.829  1.00  0.00     0.000 C 
BRANCH  22  23
ATOM     23  C   UNL     1       3.002  69.972  17.251  1.00  0.00     0.000 C 
BRANCH  23  24
ATOM     24  C   UNL     1       1.499  70.274  17.395  1.00  0.00    -0.000 C 
BRANCH  24  25
ATOM     25  C   UNL     1       1.134  70.841  18.777  1.00  0.00    -0.000 C 
BRANCH  25  26
ATOM     26  C   UNL     1      -0.010  70.068  19.457  1.00  0.00    -0.000 C 
BRANCH  26  27
ATOM     27  C   UNL     1       0.393  68.732  20.115  1.00  0.00    -0.000 C 
BRANCH  27  28
ATOM     28  C   UNL     1       1.730  68.748  20.880  1.00  0.00    -0.000 C 
BRANCH  28  29
ATOM     29  C   UNL     1       2.677  67.611  20.456  1.00  0.00    -0.000 C 
BRANCH  29  30
ATOM     30  C   UNL     1       4.153  68.046  20.415  1.00  0.00    -0.000 C 
BRANCH  30  31
ATOM     31  C   UNL     1       4.437  69.434  21.016  1.00  0.00    -0.003 C 
ATOM     32  C   UNL     1       5.260  69.375  22.302  1.00  0.00     0.004 C 
ENDBRANCH  30  31
ENDBRANCH  29  30
ENDBRANCH  28  29
ENDBRANCH  27  28
ENDBRANCH  26  27
ENDBRANCH  25  26
ENDBRANCH  24  25
ENDBRANCH  23  24
ENDBRANCH  22  23
ENDBRANCH  21  22
ENDBRANCH  20  21
ENDBRANCH  19  20
ENDBRANCH  18  19
ENDBRANCH   1  18
TORSDOF 28
ENDMDL
MODEL 3
REMARK VINA RESULT:    -2.906      6.819     10.602
REMARK INTER + INTRA:         -13.907
REMARK INTER:                  -7.831
REMARK INTRA:                  -6.076
REMARK UNBOUND:                -6.243
REMARK SMILES CCCCCCCCCCCCCCCCCCCCCCCCCCCCCC(=O)[O-]
REMARK SMILES IDX 16 1 17 2 18 3 19 4 20 5 21 6 22 7 23 8 24 9 25 10 26 11
REMARK SMILES IDX 27 12 28 13 29 14 30 15 31 16 32 17 15 18 14 19 13 20 12 21
REMARK SMILES IDX 11 22 10 23 9 24 8 25 7 26 6 27 5 28 4 29 3 30 2 31 1 32
REMARK H PARENT
REMARK Flexibility Score: inf
ROOT
ATOM      1  C   UNL     1       3.872  67.218  20.059  1.00  0.00     0.000 C 
ENDROOT
BRANCH   1   2
ATOM      2  C   UNL     1       3.322  68.240  21.065  1.00  0.00     0.000 C 
BRANCH   2   3
ATOM      3  C   UNL     1       3.974  69.613  20.866  1.00  0.00     0.000 C 
BRANCH   3   4
ATOM      4  C   UNL     1       3.453  70.286  19.588  1.00  0.00     0.000 C 
BRANCH   4   5
ATOM      5  C   UNL     1       1.918  70.325  19.522  1.00  0.00     0.000 C 
BRANCH   5   6
ATOM      6  C   UNL     1       1.392  70.294  18.075  1.00  0.00     0.000 C 
BRANCH   6   7
ATOM      7  C   UNL     1       2.527  70.352  17.030  1.00  0.00     0.000 C 
BRANCH   7   8
ATOM      8  C   UNL     1       2.042  70.192  15.577  1.00  0.00     0.000 C 
BRANCH   8   9
ATOM      9  C   UNL     1       3.095  69.645  14.597  1.00  0.00     0.000 C 
BRANCH   9  10
ATOM     10  C   UNL     1       4.017  68.550  15.166  1.00  0.00     0.000 C 
BRANCH  10  11
ATOM     11  C   UNL     1       4.023  67.266  14.318  1.00  0.00     0.000 C 
BRANCH  11  12
ATOM     12  C   UNL     1       5.415  66.616  14.253  1.00  0.00     0.000 C 
BRANCH  12  13
ATOM     13  C   UNL     1       5.572  65.457  15.249  1.00  0.00     0.006 C 
BRANCH  13  14
ATOM     14  C   UNL     1       6.067  65.966  16.607  1.00  0.00     0.053 C 
BRANCH  14  15
ATOM     15  C   UNL     1       6.579  64.835  17.444  1.00  0.00     0.041 C 
ATOM     16  O   UNL     1       7.031  65.054  18.600  1.00  0.00    -0.550 OA
ATOM     17  O   UNL     1       6.562  63.538  16.946  1.00  0.00    -0.550 OA
ENDBRANCH  14  15
ENDBRANCH  13  14
ENDBRANCH  12  13
ENDBRANCH  11  12
ENDBRANCH  10  11
ENDBRANCH   9  10
ENDBRANCH   8   9
ENDBRANCH   7   8
ENDBRANCH   6   7
ENDBRANCH   5   6
ENDBRANCH   4   5
ENDBRANCH   3   4
ENDBRANCH   2   3
ENDBRANCH   1   2
BRANCH   1  18
ATOM     18  C   UNL     1       2.761  66.359  19.418  1.00  0.00     0.000 C 
BRANCH  18  19
ATOM     19  C   UNL     1       2.514  66.674  17.931  1.00  0.00     0.000 C 
BRANCH  19  20
ATOM     20  C   UNL     1       1.034  66.669  17.502  1.00  0.00     0.000 C 
BRANCH  20  21
ATOM     21  C   UNL     1       0.792  66.758  15.982  1.00  0.00     0.000 C 
BRANCH  21  22
ATOM     22  C   UNL     1      -0.414  65.949  15.466  1.00  0.00     0.000 C 
BRANCH  22  23
ATOM     23  C   UNL     1      -0.068  64.813  14.484  1.00  0.00     0.000 C 
BRANCH  23  24
ATOM     24  C   UNL     1       1.436  64.566  14.273  1.00  0.00    -0.000 C 
BRANCH  24  25
ATOM     25  C   UNL     1       1.934  63.288  14.968  1.00  0.00    -0.000 C 
BRANCH  25  26
ATOM     26  C   UNL     1       2.903  63.578  16.129  1.00  0.00    -0.000 C 
BRANCH  26  27
ATOM     27  C   UNL     1       3.115  62.415  17.121  1.00  0.00    -0.000 C 
BRANCH  27  28
ATOM     28  C   UNL     1       2.982  62.782  18.611  1.00  0.00    -0.000 C 
BRANCH  28  29
ATOM     29  C   UNL     1       2.243  61.709  19.429  1.00  0.00    -0.000 C 
BRANCH  29  30
ATOM     30  C   UNL     1       0.751  62.029  19.627  1.00  0.00    -0.000 C 
BRANCH  30  31
ATOM     31  C   UNL     1       0.270  63.325  18.949  1.00  0.00    -0.003 C 
ATOM     32  C   UNL     1      -0.607  63.071  17.724  1.00  0.00     0.004 C 
ENDBRANCH  30  31
ENDBRANCH  29  30
ENDBRANCH  28  29
ENDBRANCH  27  28
ENDBRANCH  26  27
ENDBRANCH  25  26
ENDBRANCH  24  25
ENDBRANCH  23  24
ENDBRANCH  22  23
ENDBRANCH  21  22
ENDBRANCH  20  21
ENDBRANCH  19  20
ENDBRANCH  18  19
ENDBRANCH   1  18
TORSDOF 28
ENDMDL
MODEL 4
REMARK VINA RESULT:    -2.905      7.777     10.823
REMARK INTER + INTRA:         -13.905
REMARK INTER:                  -7.461
REMARK INTRA:                  -6.443
REMARK UNBOUND:                -6.243
REMARK SMILES CCCCCCCCCCCCCCCCCCCCCCCCCCCCCC(=O)[O-]
REMARK SMILES IDX 16 1 17 2 18 3 19 4 20 5 21 6 22 7 23 8 24 9 25 10 26 11
REMARK SMILES IDX 27 12 28 13 29 14 30 15 31 16 32 17 15 18 14 19 13 20 12 21
REMARK SMILES IDX 11 22 10 23 9 24 8 25 7 26 6 27 5 28 4 29 3 30 2 31 1 32
REMARK H PARENT
REMARK Flexibility Score: inf
ROOT
ATOM      1  C   UNL     1       0.158  67.621  19.281  1.00  0.00     0.000 C 
ENDROOT
BRANCH   1   2
ATOM      2  C   UNL     1      -0.908  67.580  18.176  1.00  0.00     0.000 C 
BRANCH   2   3
ATOM      3  C   UNL     1      -1.656  66.241  18.183  1.00  0.00     0.000 C 
BRANCH   3   4
ATOM      4  C   UNL     1      -1.885  65.736  16.751  1.00  0.00     0.000 C 
BRANCH   4   5
ATOM      5  C   UNL     1      -1.238  64.365  16.496  1.00  0.00     0.000 C 
BRANCH   5   6
ATOM      6  C   UNL     1       0.257  64.478  16.144  1.00  0.00     0.000 C 
BRANCH   6   7
ATOM      7  C   UNL     1       0.575  65.732  15.300  1.00  0.00     0.000 C 
BRANCH   7   8
ATOM      8  C   UNL     1       2.015  65.766  14.758  1.00  0.00     0.000 C 
BRANCH   8   9
ATOM      9  C   UNL     1       2.762  64.421  14.808  1.00  0.00     0.000 C 
BRANCH   9  10
ATOM     10  C   UNL     1       4.225  64.499  15.282  1.00  0.00     0.000 C 
BRANCH  10  11
ATOM     11  C   UNL     1       4.507  63.619  16.513  1.00  0.00     0.000 C 
BRANCH  11  12
ATOM     12  C   UNL     1       3.385  62.599  16.770  1.00  0.00     0.000 C 
BRANCH  12  13
ATOM     13  C   UNL     1       3.106  62.392  18.266  1.00  0.00     0.006 C 
BRANCH  13  14
ATOM     14  C   UNL     1       1.638  62.023  18.503  1.00  0.00     0.053 C 
BRANCH  14  15
ATOM     15  C   UNL     1       1.423  61.576  19.916  1.00  0.00     0.041 C 
ATOM     16  O   UNL     1       1.716  60.400  20.262  1.00  0.00    -0.550 OA
ATOM     17  O   UNL     1       0.895  62.456  20.851  1.00  0.00    -0.550 OA
ENDBRANCH  14  15
ENDBRANCH  13  14
ENDBRANCH  12  13
ENDBRANCH  11  12
ENDBRANCH  10  11
ENDBRANCH   9  10
ENDBRANCH   8   9
ENDBRANCH   7   8
ENDBRANCH   6   7
ENDBRANCH   5   6
ENDBRANCH   4   5
ENDBRANCH   3   4
ENDBRANCH   2   3
ENDBRANCH   1   2
BRANCH   1  18
ATOM     18  C   UNL     1       0.551  66.214  19.779  1.00  0.00     0.000 C 
BRANCH  18  19
ATOM     19  C   UNL     1       1.896  65.713  19.223  1.00  0.00     0.000 C 
BRANCH  19  20
ATOM     20  C   UNL     1       2.600  66.681  18.253  1.00  0.00     0.000 C 
BRANCH  20  21
ATOM     21  C   UNL     1       4.137  66.730  18.376  1.00  0.00     0.000 C 
BRANCH  21  22
ATOM     22  C   UNL     1       4.722  65.941  19.563  1.00  0.00     0.000 C 
BRANCH  22  23
ATOM     23  C   UNL     1       5.248  66.803  20.727  1.00  0.00     0.000 C 
BRANCH  23  24
ATOM     24  C   UNL     1       4.213  67.130  21.819  1.00  0.00    -0.000 C 
BRANCH  24  25
ATOM     25  C   UNL     1       4.159  68.628  22.160  1.00  0.00    -0.000 C 
BRANCH  25  26
ATOM     26  C   UNL     1       4.334  69.529  20.924  1.00  0.00    -0.000 C 
BRANCH  26  27
ATOM     27  C   UNL     1       3.043  69.821  20.130  1.00  0.00    -0.000 C 
BRANCH  27  28
ATOM     28  C   UNL     1       3.117  71.018  19.163  1.00  0.00    -0.000 C 
BRANCH  28  29
ATOM     29  C   UNL     1       1.845  71.181  18.313  1.00  0.00    -0.000 C 
BRANCH  29  30
ATOM     30  C   UNL     1       1.721  70.115  17.210  1.00  0.00    -0.000 C 
BRANCH  30  31
ATOM     31  C   UNL     1       2.633  70.336  15.990  1.00  0.00    -0.003 C 
ATOM     32  C   UNL     1       3.441  69.095  15.611  1.00  0.00     0.004 C 
ENDBRANCH  30  31
ENDBRANCH  29  30
ENDBRANCH  28  29
ENDBRANCH  27  28
ENDBRANCH  26  27
ENDBRANCH  25  26
ENDBRANCH  24  25
ENDBRANCH  23  24
ENDBRANCH  22  23
ENDBRANCH  21  22
ENDBRANCH  20  21
ENDBRANCH  19  20
ENDBRANCH  18  19
ENDBRANCH   1  18
TORSDOF 28
ENDMDL
MODEL 5
REMARK VINA RESULT:    -2.880      6.270     10.396
REMARK INTER + INTRA:         -13.838
REMARK INTER:                  -7.045
REMARK INTRA:                  -6.794
REMARK UNBOUND:                -6.243
REMARK SMILES CCCCCCCCCCCCCCCCCCCCCCCCCCCCCC(=O)[O-]
REMARK SMILES IDX 16 1 17 2 18 3 19 4 20 5 21 6 22 7 23 8 24 9 25 10 26 11
REMARK SMILES IDX 27 12 28 13 29 14 30 15 31 16 32 17 15 18 14 19 13 20 12 21
REMARK SMILES IDX 11 22 10 23 9 24 8 25 7 26 6 27 5 28 4 29 3 30 2 31 1 32
REMARK H PARENT
REMARK Flexibility Score: inf
ROOT
ATOM      1  C   UNL     1       3.151  66.567  17.843  1.00  0.00     0.000 C 
ENDROOT
BRANCH   1   2
ATOM      2  C   UNL     1       3.783  66.980  19.181  1.00  0.00     0.000 C 
BRANCH   2   3
ATOM      3  C   UNL     1       2.710  67.176  20.259  1.00  0.00     0.000 C 
BRANCH   3   4
ATOM      4  C   UNL     1       2.881  68.531  20.962  1.00  0.00     0.000 C 
BRANCH   4   5
ATOM      5  C   UNL     1       3.817  69.481  20.198  1.00  0.00     0.000 C 
BRANCH   5   6
ATOM      6  C   UNL     1       3.065  70.678  19.587  1.00  0.00     0.000 C 
BRANCH   6   7
ATOM      7  C   UNL     1       2.797  70.503  18.076  1.00  0.00     0.000 C 
BRANCH   7   8
ATOM      8  C   UNL     1       1.351  70.095  17.745  1.00  0.00     0.000 C 
BRANCH   8   9
ATOM      9  C   UNL     1       0.333  70.332  18.875  1.00  0.00     0.000 C 
BRANCH   9  10
ATOM     10  C   UNL     1      -0.423  69.078  19.352  1.00  0.00     0.000 C 
BRANCH  10  11
ATOM     11  C   UNL     1      -0.312  67.898  18.370  1.00  0.00     0.000 C 
BRANCH  11  12
ATOM     12  C   UNL     1      -1.665  67.202  18.139  1.00  0.00     0.000 C 
BRANCH  12  13
ATOM     13  C   UNL     1      -1.589  65.682  18.344  1.00  0.00     0.006 C 
BRANCH  13  14
ATOM     14  C   UNL     1      -0.186  65.156  18.023  1.00  0.00     0.053 C 
BRANCH  14  15
ATOM     15  C   UNL     1       0.117  63.927  18.823  1.00  0.00     0.041 C 
ATOM     16  O   UNL     1       1.228  63.806  19.406  1.00  0.00    -0.550 OA
ATOM     17  O   UNL     1      -0.825  62.912  18.921  1.00  0.00    -0.550 OA
ENDBRANCH  14  15
ENDBRANCH  13  14
ENDBRANCH  12  13
ENDBRANCH  11  12
ENDBRANCH  10  11
ENDBRANCH   9  10
ENDBRANCH   8   9
ENDBRANCH   7   8
ENDBRANCH   6   7
ENDBRANCH   5   6
ENDBRANCH   4   5
ENDBRANCH   3   4
ENDBRANCH   2   3
ENDBRANCH   1   2
BRANCH   1  18
ATOM     18  C   UNL     1       4.138  66.681  16.662  1.00  0.00     0.000 C 
BRANCH  18  19
ATOM     19  C   UNL     1       4.120  68.057  15.970  1.00  0.00     0.000 C 
BRANCH  19  20
ATOM     20  C   UNL     1       4.522  68.042  14.483  1.00  0.00     0.000 C 
BRANCH  20  21
ATOM     21  C   UNL     1       3.696  68.972  13.571  1.00  0.00     0.000 C 
BRANCH  21  22
ATOM     22  C   UNL     1       2.444  69.585  14.228  1.00  0.00     0.000 C 
BRANCH  22  23
ATOM     23  C   UNL     1       1.104  69.201  13.570  1.00  0.00     0.000 C 
BRANCH  23  24
ATOM     24  C   UNL     1       0.129  68.427  14.475  1.00  0.00    -0.000 C 
BRANCH  24  25
ATOM     25  C   UNL     1       0.747  67.148  15.061  1.00  0.00    -0.000 C 
BRANCH  25  26
ATOM     26  C   UNL     1       0.739  65.970  14.069  1.00  0.00    -0.000 C 
BRANCH  26  27
ATOM     27  C   UNL     1       2.128  65.502  13.587  1.00  0.00    -0.000 C 
BRANCH  27  28
ATOM     28  C   UNL     1       2.548  64.093  14.047  1.00  0.00    -0.000 C 
BRANCH  28  29
ATOM     29  C   UNL     1       1.759  63.603  15.273  1.00  0.00    -0.000 C 
BRANCH  29  30
ATOM     30  C   UNL     1       2.626  62.802  16.262  1.00  0.00    -0.000 C 
BRANCH  30  31
ATOM     31  C   UNL     1       4.081  62.577  15.813  1.00  0.00    -0.003 C 
ATOM     32  C   UNL     1       5.098  62.836  16.923  1.00  0.00     0.004 C 
ENDBRANCH  30  31
ENDBRANCH  29  30
ENDBRANCH  28  29
ENDBRANCH  27  28
ENDBRANCH  26  27
ENDBRANCH  25  26
ENDBRANCH  24  25
ENDBRANCH  23  24
ENDBRANCH  22  23
ENDBRANCH  21  22
ENDBRANCH  20  21
ENDBRANCH  19  20
ENDBRANCH  18  19
ENDBRANCH   1  18
TORSDOF 28
ENDMDL
MODEL 6
REMARK VINA RESULT:    -2.877      1.263      3.127
REMARK INTER + INTRA:         -13.830
REMARK INTER:                  -8.716
REMARK INTRA:                  -5.114
REMARK UNBOUND:                -6.243
REMARK SMILES CCCCCCCCCCCCCCCCCCCCCCCCCCCCCC(=O)[O-]
REMARK SMILES IDX 16 1 17 2 18 3 19 4 20 5 21 6 22 7 23 8 24 9 25 10 26 11
REMARK SMILES IDX 27 12 28 13 29 14 30 15 31 16 32 17 15 18 14 19 13 20 12 21
REMARK SMILES IDX 11 22 10 23 9 24 8 25 7 26 6 27 5 28 4 29 3 30 2 31 1 32
REMARK H PARENT
REMARK Flexibility Score: inf
ROOT
ATOM      1  C   UNL     1       3.384  72.041  12.119  1.00  0.00     0.000 C 
ENDROOT
BRANCH   1   2
ATOM      2  C   UNL     1       4.686  71.847  11.327  1.00  0.00     0.000 C 
BRANCH   2   3
ATOM      3  C   UNL     1       5.295  70.467  11.600  1.00  0.00     0.000 C 
BRANCH   3   4
ATOM      4  C   UNL     1       6.296  70.083  10.500  1.00  0.00     0.000 C 
BRANCH   4   5
ATOM      5  C   UNL     1       5.777  70.404   9.089  1.00  0.00     0.000 C 
BRANCH   5   6
ATOM      6  C   UNL     1       6.915  70.518   8.058  1.00  0.00     0.000 C 
BRANCH   6   7
ATOM      7  C   UNL     1       6.417  70.363   6.605  1.00  0.00     0.000 C 
BRANCH   7   8
ATOM      8  C   UNL     1       6.679  68.971   6.003  1.00  0.00     0.000 C 
BRANCH   8   9
ATOM      9  C   UNL     1       5.564  68.438   5.086  1.00  0.00     0.000 C 
BRANCH   9  10
ATOM     10  C   UNL     1       5.044  67.030   5.433  1.00  0.00     0.000 C 
BRANCH  10  11
ATOM     11  C   UNL     1       3.938  67.045   6.503  1.00  0.00     0.000 C 
BRANCH  11  12
ATOM     12  C   UNL     1       2.729  66.181   6.104  1.00  0.00     0.000 C 
BRANCH  12  13
ATOM     13  C   UNL     1       2.103  65.452   7.303  1.00  0.00     0.006 C 
BRANCH  13  14
ATOM     14  C   UNL     1       3.086  64.441   7.902  1.00  0.00     0.053 C 
BRANCH  14  15
ATOM     15  C   UNL     1       2.385  63.168   8.263  1.00  0.00     0.041 C 
ATOM     16  O   UNL     1       2.889  62.383   9.110  1.00  0.00    -0.550 OA
ATOM     17  O   UNL     1       1.176  62.845   7.659  1.00  0.00    -0.550 OA
ENDBRANCH  14  15
ENDBRANCH  13  14
ENDBRANCH  12  13
ENDBRANCH  11  12
ENDBRANCH  10  11
ENDBRANCH   9  10
ENDBRANCH   8   9
ENDBRANCH   7   8
ENDBRANCH   6   7
ENDBRANCH   5   6
ENDBRANCH   4   5
ENDBRANCH   3   4
ENDBRANCH   2   3
ENDBRANCH   1   2
BRANCH   1  18
ATOM     18  C   UNL     1       2.378  72.957  11.389  1.00  0.00     0.000 C 
BRANCH  18  19
ATOM     19  C   UNL     1       2.719  73.196   9.907  1.00  0.00     0.000 C 
BRANCH  19  20
ATOM     20  C   UNL     1       1.501  73.354   8.977  1.00  0.00     0.000 C 
BRANCH  20  21
ATOM     21  C   UNL     1       1.431  72.348   7.811  1.00  0.00     0.000 C 
BRANCH  21  22
ATOM     22  C   UNL     1       2.628  71.383   7.709  1.00  0.00     0.000 C 
BRANCH  22  23
ATOM     23  C   UNL     1       2.286  69.892   7.893  1.00  0.00     0.000 C 
BRANCH  23  24
ATOM     24  C   UNL     1       2.162  69.424   9.355  1.00  0.00    -0.000 C 
BRANCH  24  25
ATOM     25  C   UNL     1       3.073  68.228   9.676  1.00  0.00    -0.000 C 
BRANCH  25  26
ATOM     26  C   UNL     1       2.495  67.314  10.772  1.00  0.00    -0.000 C 
BRANCH  26  27
ATOM     27  C   UNL     1       2.999  67.595  12.203  1.00  0.00    -0.000 C 
BRANCH  27  28
ATOM     28  C   UNL     1       1.909  67.957  13.229  1.00  0.00    -0.000 C 
BRANCH  28  29
ATOM     29  C   UNL     1       1.301  69.350  12.992  1.00  0.00    -0.000 C 
BRANCH  29  30
ATOM     30  C   UNL     1      -0.051  69.297  12.257  1.00  0.00    -0.000 C 
BRANCH  30  31
ATOM     31  C   UNL     1      -0.493  70.624  11.615  1.00  0.00    -0.003 C 
ATOM     32  C   UNL     1      -1.826  71.139  12.158  1.00  0.00     0.004 C 
ENDBRANCH  30  31
ENDBRANCH  29  30
ENDBRANCH  28  29
ENDBRANCH  27  28
ENDBRANCH  26  27
ENDBRANCH  25  26
ENDBRANCH  24  25
ENDBRANCH  23  24
ENDBRANCH  22  23
ENDBRANCH  21  22
ENDBRANCH  20  21
ENDBRANCH  19  20
ENDBRANCH  18  19
ENDBRANCH   1  18
TORSDOF 28
ENDMDL
MODEL 7
REMARK VINA RESULT:    -2.877      2.336      4.382
REMARK INTER + INTRA:         -13.830
REMARK INTER:                  -7.405
REMARK INTRA:                  -6.425
REMARK UNBOUND:                -6.243
REMARK SMILES CCCCCCCCCCCCCCCCCCCCCCCCCCCCCC(=O)[O-]
REMARK SMILES IDX 16 1 17 2 18 3 19 4 20 5 21 6 22 7 23 8 24 9 25 10 26 11
REMARK SMILES IDX 27 12 28 13 29 14 30 15 31 16 32 17 15 18 14 19 13 20 12 21
REMARK SMILES IDX 11 22 10 23 9 24 8 25 7 26 6 27 5 28 4 29 3 30 2 31 1 32
REMARK H PARENT
REMARK Flexibility Score: inf
ROOT
ATOM      1  C   UNL     1       0.195  70.453   9.394  1.00  0.00     0.000 C 
ENDROOT
BRANCH   1   2
ATOM      2  C   UNL     1       1.264  69.436   9.822  1.00  0.00     0.000 C 
BRANCH   2   3
ATOM      3  C   UNL     1       2.508  69.539   8.932  1.00  0.00     0.000 C 
BRANCH   3   4
ATOM      4  C   UNL     1       3.680  68.750   9.536  1.00  0.00     0.000 C 
BRANCH   4   5
ATOM      5  C   UNL     1       3.614  68.674  11.070  1.00  0.00     0.000 C 
BRANCH   5   6
ATOM      6  C   UNL     1       4.988  68.381  11.701  1.00  0.00     0.000 C 
BRANCH   6   7
ATOM      7  C   UNL     1       4.875  67.816  13.133  1.00  0.00     0.000 C 
BRANCH   7   8
ATOM      8  C   UNL     1       3.491  67.227  13.461  1.00  0.00     0.000 C 
BRANCH   8   9
ATOM      9  C   UNL     1       3.380  65.700  13.299  1.00  0.00     0.000 C 
BRANCH   9  10
ATOM     10  C   UNL     1       2.198  65.215  12.438  1.00  0.00     0.000 C 
BRANCH  10  11
ATOM     11  C   UNL     1       2.505  65.229  10.930  1.00  0.00     0.000 C 
BRANCH  11  12
ATOM     12  C   UNL     1       1.346  65.810  10.103  1.00  0.00     0.000 C 
BRANCH  12  13
ATOM     13  C   UNL     1       1.235  65.170   8.711  1.00  0.00     0.006 C 
BRANCH  13  14
ATOM     14  C   UNL     1       2.396  65.610   7.813  1.00  0.00     0.053 C 
BRANCH  14  15
ATOM     15  C   UNL     1       1.900  66.448   6.676  1.00  0.00     0.041 C 
ATOM     16  O   UNL     1       0.871  67.163   6.814  1.00  0.00    -0.550 OA
ATOM     17  O   UNL     1       2.570  66.436   5.459  1.00  0.00    -0.550 OA
ENDBRANCH  14  15
ENDBRANCH  13  14
ENDBRANCH  12  13
ENDBRANCH  11  12
ENDBRANCH  10  11
ENDBRANCH   9  10
ENDBRANCH   8   9
ENDBRANCH   7   8
ENDBRANCH   6   7
ENDBRANCH   5   6
ENDBRANCH   4   5
ENDBRANCH   3   4
ENDBRANCH   2   3
ENDBRANCH   1   2
BRANCH   1  18
ATOM     18  C   UNL     1       0.800  71.692   8.699  1.00  0.00     0.000 C 
BRANCH  18  19
ATOM     19  C   UNL     1       1.138  72.842   9.665  1.00  0.00     0.000 C 
BRANCH  19  20
ATOM     20  C   UNL     1       2.587  73.358   9.580  1.00  0.00     0.000 C 
BRANCH  20  21
ATOM     21  C   UNL     1       3.297  73.547  10.936  1.00  0.00     0.000 C 
BRANCH  21  22
ATOM     22  C   UNL     1       4.118  72.335  11.417  1.00  0.00     0.000 C 
BRANCH  22  23
ATOM     23  C   UNL     1       3.692  71.755  12.779  1.00  0.00     0.000 C 
BRANCH  23  24
ATOM     24  C   UNL     1       2.173  71.612  12.984  1.00  0.00    -0.000 C 
BRANCH  24  25
ATOM     25  C   UNL     1       1.801  70.406  13.862  1.00  0.00    -0.000 C 
BRANCH  25  26
ATOM     26  C   UNL     1       0.599  69.615  13.314  1.00  0.00    -0.000 C 
BRANCH  26  27
ATOM     27  C   UNL     1       0.112  68.451  14.203  1.00  0.00    -0.000 C 
BRANCH  27  28
ATOM     28  C   UNL     1      -0.775  67.408  13.498  1.00  0.00    -0.000 C 
BRANCH  28  29
ATOM     29  C   UNL     1      -0.953  67.688  11.996  1.00  0.00    -0.000 C 
BRANCH  29  30
ATOM     30  C   UNL     1      -2.385  68.119  11.632  1.00  0.00    -0.000 C 
BRANCH  30  31
ATOM     31  C   UNL     1      -2.831  69.462  12.239  1.00  0.00    -0.003 C 
ATOM     32  C   UNL     1      -3.142  70.523  11.184  1.00  0.00     0.004 C 
ENDBRANCH  30  31
ENDBRANCH  29  30
ENDBRANCH  28  29
ENDBRANCH  27  28
ENDBRANCH  26  27
ENDBRANCH  25  26
ENDBRANCH  24  25
ENDBRANCH  23  24
ENDBRANCH  22  23
ENDBRANCH  21  22
ENDBRANCH  20  21
ENDBRANCH  19  20
ENDBRANCH  18  19
ENDBRANCH   1  18
TORSDOF 28
ENDMDL
MODEL 8
REMARK VINA RESULT:    -2.865      6.182      9.638
REMARK INTER + INTRA:         -13.797
REMARK INTER:                  -7.464
REMARK INTRA:                  -6.333
REMARK UNBOUND:                -6.243
REMARK SMILES CCCCCCCCCCCCCCCCCCCCCCCCCCCCCC(=O)[O-]
REMARK SMILES IDX 16 1 17 2 18 3 19 4 20 5 21 6 22 7 23 8 24 9 25 10 26 11
REMARK SMILES IDX 27 12 28 13 29 14 30 15 31 16 32 17 15 18 14 19 13 20 12 21
REMARK SMILES IDX 11 22 10 23 9 24 8 25 7 26 6 27 5 28 4 29 3 30 2 31 1 32
REMARK H PARENT
REMARK Flexibility Score: inf
ROOT
ATOM      1  C   UNL     1       2.651  65.169  18.773  1.00  0.00     0.000 C 
ENDROOT
BRANCH   1   2
ATOM      2  C   UNL     1       3.369  65.818  17.580  1.00  0.00     0.000 C 
BRANCH   2   3
ATOM      3  C   UNL     1       4.806  66.208  17.949  1.00  0.00     0.000 C 
BRANCH   3   4
ATOM      4  C   UNL     1       5.780  65.062  17.640  1.00  0.00     0.000 C 
BRANCH   4   5
ATOM      5  C   UNL     1       5.334  64.212  16.439  1.00  0.00     0.000 C 
BRANCH   5   6
ATOM      6  C   UNL     1       5.001  62.763  16.838  1.00  0.00     0.000 C 
BRANCH   6   7
ATOM      7  C   UNL     1       3.857  62.162  15.992  1.00  0.00     0.000 C 
BRANCH   7   8
ATOM      8  C   UNL     1       3.448  63.034  14.792  1.00  0.00     0.000 C 
BRANCH   8   9
ATOM      9  C   UNL     1       2.041  63.650  14.885  1.00  0.00     0.000 C 
BRANCH   9  10
ATOM     10  C   UNL     1       1.868  65.005  14.171  1.00  0.00     0.000 C 
BRANCH  10  11
ATOM     11  C   UNL     1       2.751  65.143  12.919  1.00  0.00     0.000 C 
BRANCH  11  12
ATOM     12  C   UNL     1       3.475  66.498  12.862  1.00  0.00     0.000 C 
BRANCH  12  13
ATOM     13  C   UNL     1       4.698  66.553  13.790  1.00  0.00     0.006 C 
BRANCH  13  14
ATOM     14  C   UNL     1       4.670  67.816  14.657  1.00  0.00     0.053 C 
BRANCH  14  15
ATOM     15  C   UNL     1       4.694  69.047  13.806  1.00  0.00     0.041 C 
ATOM     16  O   UNL     1       3.714  69.839  13.805  1.00  0.00    -0.550 OA
ATOM     17  O   UNL     1       5.798  69.319  13.007  1.00  0.00    -0.550 OA
ENDBRANCH  14  15
ENDBRANCH  13  14
ENDBRANCH  12  13
ENDBRANCH  11  12
ENDBRANCH  10  11
ENDBRANCH   9  10
ENDBRANCH   8   9
ENDBRANCH   7   8
ENDBRANCH   6   7
ENDBRANCH   5   6
ENDBRANCH   4   5
ENDBRANCH   3   4
ENDBRANCH   2   3
ENDBRANCH   1   2
BRANCH   1  18
ATOM     18  C   UNL     1       3.243  65.605  20.130  1.00  0.00     0.000 C 
BRANCH  18  19
ATOM     19  C   UNL     1       2.242  66.351  21.031  1.00  0.00     0.000 C 
BRANCH  19  20
ATOM     20  C   UNL     1       1.273  67.291  20.289  1.00  0.00     0.000 C 
BRANCH  20  21
ATOM     21  C   UNL     1       1.403  68.785  20.648  1.00  0.00     0.000 C 
BRANCH  21  22
ATOM     22  C   UNL     1       2.821  69.238  21.048  1.00  0.00     0.000 C 
BRANCH  22  23
ATOM     23  C   UNL     1       3.569  70.064  19.984  1.00  0.00     0.000 C 
BRANCH  23  24
ATOM     24  C   UNL     1       2.717  71.120  19.257  1.00  0.00    -0.000 C 
BRANCH  24  25
ATOM     25  C   UNL     1       2.884  71.072  17.729  1.00  0.00    -0.000 C 
BRANCH  25  26
ATOM     26  C   UNL     1       2.746  69.650  17.157  1.00  0.00    -0.000 C 
BRANCH  26  27
ATOM     27  C   UNL     1       1.299  69.171  16.915  1.00  0.00    -0.000 C 
BRANCH  27  28
ATOM     28  C   UNL     1       1.101  68.256  15.692  1.00  0.00    -0.000 C 
BRANCH  28  29
ATOM     29  C   UNL     1      -0.219  67.467  15.741  1.00  0.00    -0.000 C 
BRANCH  29  30
ATOM     30  C   UNL     1      -0.297  66.503  16.938  1.00  0.00    -0.000 C 
BRANCH  30  31
ATOM     31  C   UNL     1      -1.158  65.248  16.705  1.00  0.00    -0.003 C 
ATOM     32  C   UNL     1      -0.629  64.013  17.433  1.00  0.00     0.004 C 
ENDBRANCH  30  31
ENDBRANCH  29  30
ENDBRANCH  28  29
ENDBRANCH  27  28
ENDBRANCH  26  27
ENDBRANCH  25  26
ENDBRANCH  24  25
ENDBRANCH  23  24
ENDBRANCH  22  23
ENDBRANCH  21  22
ENDBRANCH  20  21
ENDBRANCH  19  20
ENDBRANCH  18  19
ENDBRANCH   1  18
TORSDOF 28
ENDMDL
MODEL 9
REMARK VINA RESULT:    -2.859      5.515      9.321
REMARK INTER + INTRA:         -13.782
REMARK INTER:                  -7.696
REMARK INTRA:                  -6.086
REMARK UNBOUND:                -6.243
REMARK SMILES CCCCCCCCCCCCCCCCCCCCCCCCCCCCCC(=O)[O-]
REMARK SMILES IDX 16 1 17 2 18 3 19 4 20 5 21 6 22 7 23 8 24 9 25 10 26 11
REMARK SMILES IDX 27 12 28 13 29 14 30 15 31 16 32 17 15 18 14 19 13 20 12 21
REMARK SMILES IDX 11 22 10 23 9 24 8 25 7 26 6 27 5 28 4 29 3 30 2 31 1 32
REMARK H PARENT
REMARK Flexibility Score: inf
ROOT
ATOM      1  C   UNL     1       3.905  66.998  12.672  1.00  0.00     0.000 C 
ENDROOT
BRANCH   1   2
ATOM      2  C   UNL     1       2.550  67.075  11.953  1.00  0.00     0.000 C 
BRANCH   2   3
ATOM      3  C   UNL     1       1.402  67.228  12.958  1.00  0.00     0.000 C 
BRANCH   3   4
ATOM      4  C   UNL     1       0.231  68.004  12.336  1.00  0.00     0.000 C 
BRANCH   4   5
ATOM      5  C   UNL     1      -0.139  69.262  13.138  1.00  0.00     0.000 C 
BRANCH   5   6
ATOM      6  C   UNL     1       0.132  70.558  12.353  1.00  0.00     0.000 C 
BRANCH   6   7
ATOM      7  C   UNL     1       0.977  70.318  11.083  1.00  0.00     0.000 C 
BRANCH   7   8
ATOM      8  C   UNL     1       2.470  70.649  11.259  1.00  0.00     0.000 C 
BRANCH   8   9
ATOM      9  C   UNL     1       2.829  71.352  12.580  1.00  0.00     0.000 C 
BRANCH   9  10
ATOM     10  C   UNL     1       3.396  70.434  13.680  1.00  0.00     0.000 C 
BRANCH  10  11
ATOM     11  C   UNL     1       2.799  70.721  15.070  1.00  0.00     0.000 C 
BRANCH  11  12
ATOM     12  C   UNL     1       2.354  69.437  15.790  1.00  0.00     0.000 C 
BRANCH  12  13
ATOM     13  C   UNL     1       1.446  69.721  16.996  1.00  0.00     0.006 C 
BRANCH  13  14
ATOM     14  C   UNL     1       2.272  69.887  18.276  1.00  0.00     0.053 C 
BRANCH  14  15
ATOM     15  C   UNL     1       2.318  71.323  18.696  1.00  0.00     0.041 C 
ATOM     16  O   UNL     1       1.306  71.867  19.214  1.00  0.00    -0.550 OA
ATOM     17  O   UNL     1       3.479  72.064  18.513  1.00  0.00    -0.550 OA
ENDBRANCH  14  15
ENDBRANCH  13  14
ENDBRANCH  12  13
ENDBRANCH  11  12
ENDBRANCH  10  11
ENDBRANCH   9  10
ENDBRANCH   8   9
ENDBRANCH   7   8
ENDBRANCH   6   7
ENDBRANCH   5   6
ENDBRANCH   4   5
ENDBRANCH   3   4
ENDBRANCH   2   3
ENDBRANCH   1   2
BRANCH   1  18
ATOM     18  C   UNL     1       3.772  66.538  14.140  1.00  0.00     0.000 C 
BRANCH  18  19
ATOM     19  C   UNL     1       4.333  65.129  14.401  1.00  0.00     0.000 C 
BRANCH  19  20
ATOM     20  C   UNL     1       3.503  63.977  13.803  1.00  0.00     0.000 C 
BRANCH  20  21
ATOM     21  C   UNL     1       2.191  63.658  14.549  1.00  0.00     0.000 C 
BRANCH  21  22
ATOM     22  C   UNL     1       2.261  62.451  15.504  1.00  0.00     0.000 C 
BRANCH  22  23
ATOM     23  C   UNL     1       3.278  62.583  16.654  1.00  0.00     0.000 C 
BRANCH  23  24
ATOM     24  C   UNL     1       2.679  62.510  18.070  1.00  0.00    -0.000 C 
BRANCH  24  25
ATOM     25  C   UNL     1       2.779  63.843  18.829  1.00  0.00    -0.000 C 
BRANCH  25  26
ATOM     26  C   UNL     1       3.302  64.994  17.951  1.00  0.00    -0.000 C 
BRANCH  26  27
ATOM     27  C   UNL     1       2.243  66.027  17.513  1.00  0.00    -0.000 C 
BRANCH  27  28
ATOM     28  C   UNL     1       0.827  65.465  17.282  1.00  0.00    -0.000 C 
BRANCH  28  29
ATOM     29  C   UNL     1      -0.256  66.558  17.271  1.00  0.00    -0.000 C 
BRANCH  29  30
ATOM     30  C   UNL     1      -0.857  66.791  15.872  1.00  0.00    -0.000 C 
BRANCH  30  31
ATOM     31  C   UNL     1      -1.042  65.518  15.027  1.00  0.00    -0.003 C 
ATOM     32  C   UNL     1      -2.237  64.673  15.467  1.00  0.00     0.004 C 
ENDBRANCH  30  31
ENDBRANCH  29  30
ENDBRANCH  28  29
ENDBRANCH  27  28
ENDBRANCH  26  27
ENDBRANCH  25  26
ENDBRANCH  24  25
ENDBRANCH  23  24
ENDBRANCH  22  23
ENDBRANCH  21  22
ENDBRANCH  20  21
ENDBRANCH  19  20
ENDBRANCH  18  19
ENDBRANCH   1  18
TORSDOF 28
ENDMDL
