MODEL 1
REMARK VINA RESULT:    -2.721      0.000      0.000
REMARK INTER + INTRA:          -2.801
REMARK INTER:                  -2.801
REMARK INTRA:                   0.000
REMARK UNBOUND:                 0.000
REMARK SMILES O=c1ccc2ccc(O)cc2o1
REMARK SMILES IDX 6 1 7 2 8 3 10 4 11 5 5 6 4 7 3 8 2 9 1 10 12 11 9 12
REMARK H PARENT 9 13
REMARK Flexibility Score: inf
ROOT
ATOM      1  C   UNL     1      -2.306 -31.112  -3.966  1.00  0.00     0.016 A 
ATOM      2  C   UNL     1      -3.541 -31.370  -4.568  1.00  0.00     0.047 A 
ATOM      3  C   UNL     1      -3.602 -31.875  -5.873  1.00  0.00     0.119 A 
ATOM      4  C   UNL     1      -2.417 -32.123  -6.583  1.00  0.00     0.094 A 
ATOM      5  C   UNL     1      -1.176 -31.869  -5.988  1.00  0.00     0.142 A 
ATOM      6  C   UNL     1      -1.120 -31.360  -4.671  1.00  0.00     0.018 A 
ATOM      7  C   UNL     1       0.135 -31.115  -4.104  1.00  0.00     0.019 A 
ATOM      8  C   UNL     1       1.284 -31.378  -4.848  1.00  0.00     0.094 A 
ATOM      9  C   UNL     1       1.152 -31.881  -6.147  1.00  0.00     0.336 A 
ATOM     10  O   UNL     1       2.179 -32.125  -6.834  1.00  0.00    -0.246 OA
ATOM     11  O   UNL     1      -0.054 -32.106  -6.663  1.00  0.00    -0.423 OA
ENDROOT
BRANCH   3  12
ATOM     12  O   UNL     1      -4.842 -32.125  -6.455  1.00  0.00    -0.508 OA
ATOM     13  H   UNL     1      -4.927 -32.658  -7.313  1.00  0.00     0.293 HD
ENDBRANCH   3  12
TORSDOF 1
ENDMDL
MODEL 2
REMARK VINA RESULT:    -2.321      1.918      2.580
REMARK INTER + INTRA:          -2.389
REMARK INTER:                  -2.389
REMARK INTRA:                   0.000
REMARK UNBOUND:                 0.000
REMARK SMILES O=c1ccc2ccc(O)cc2o1
REMARK SMILES IDX 6 1 7 2 8 3 10 4 11 5 5 6 4 7 3 8 2 9 1 10 12 11 9 12
REMARK H PARENT 9 13
REMARK Flexibility Score: inf
ROOT
ATOM      1  C   UNL     1      -1.477 -32.125  -6.643  1.00  0.00     0.016 A 
ATOM      2  C   UNL     1      -2.874 -32.125  -6.700  1.00  0.00     0.047 A 
ATOM      3  C   UNL     1      -3.629 -31.753  -5.580  1.00  0.00     0.119 A 
ATOM      4  C   UNL     1      -2.981 -31.379  -4.393  1.00  0.00     0.094 A 
ATOM      5  C   UNL     1      -1.583 -31.376  -4.327  1.00  0.00     0.142 A 
ATOM      6  C   UNL     1      -0.826 -31.752  -5.459  1.00  0.00     0.018 A 
ATOM      7  C   UNL     1       0.569 -31.738  -5.362  1.00  0.00     0.019 A 
ATOM      8  C   UNL     1       1.167 -31.359  -4.161  1.00  0.00     0.094 A 
ATOM      9  C   UNL     1       0.354 -31.000  -3.081  1.00  0.00     0.336 A 
ATOM     10  O   UNL     1       0.876 -30.654  -1.989  1.00  0.00    -0.246 OA
ATOM     11  O   UNL     1      -0.972 -31.021  -3.200  1.00  0.00    -0.423 OA
ENDROOT
BRANCH   3  12
ATOM     12  O   UNL     1      -5.019 -31.760  -5.658  1.00  0.00    -0.508 OA
ATOM     13  H   UNL     1      -5.502 -32.043  -6.503  1.00  0.00     0.293 HD
ENDBRANCH   3  12
TORSDOF 1
ENDMDL
MODEL 3
REMARK VINA RESULT:    -1.977      2.416      3.491
REMARK INTER + INTRA:          -2.035
REMARK INTER:                  -2.035
REMARK INTRA:                   0.000
REMARK UNBOUND:                 0.000
REMARK SMILES O=c1ccc2ccc(O)cc2o1
REMARK SMILES IDX 6 1 7 2 8 3 10 4 11 5 5 6 4 7 3 8 2 9 1 10 12 11 9 12
REMARK H PARENT 9 13
REMARK Flexibility Score: inf
ROOT
ATOM      1  C   UNL     1      -0.904 -31.944  -5.741  1.00  0.00     0.016 A 
ATOM      2  C   UNL     1      -1.118 -31.654  -4.390  1.00  0.00     0.047 A 
ATOM      3  C   UNL     1      -0.051 -31.260  -3.573  1.00  0.00     0.119 A 
ATOM      4  C   UNL     1       1.241 -31.157  -4.110  1.00  0.00     0.094 A 
ATOM      5  C   UNL     1       1.465 -31.445  -5.461  1.00  0.00     0.142 A 
ATOM      6  C   UNL     1       0.385 -31.842  -6.282  1.00  0.00     0.018 A 
ATOM      7  C   UNL     1       0.640 -32.124  -7.628  1.00  0.00     0.019 A 
ATOM      8  C   UNL     1       1.940 -32.007  -8.116  1.00  0.00     0.094 A 
ATOM      9  C   UNL     1       2.960 -31.609  -7.245  1.00  0.00     0.336 A 
ATOM     10  O   UNL     1       4.141 -31.498  -7.668  1.00  0.00    -0.246 OA
ATOM     11  O   UNL     1       2.691 -31.347  -5.968  1.00  0.00    -0.423 OA
ENDROOT
BRANCH   3  12
ATOM     12  O   UNL     1      -0.285 -30.975  -2.230  1.00  0.00    -0.508 OA
ATOM     13  H   UNL     1       0.160 -30.189  -1.770  1.00  0.00     0.293 HD
ENDBRANCH   3  12
TORSDOF 1
ENDMDL
MODEL 4
REMARK VINA RESULT:    -1.933      2.006      4.598
REMARK INTER + INTRA:          -1.990
REMARK INTER:                  -1.990
REMARK INTRA:                   0.000
REMARK UNBOUND:                 0.000
REMARK SMILES O=c1ccc2ccc(O)cc2o1
REMARK SMILES IDX 6 1 7 2 8 3 10 4 11 5 5 6 4 7 3 8 2 9 1 10 12 11 9 12
REMARK H PARENT 9 13
REMARK Flexibility Score: inf
ROOT
ATOM      1  C   UNL     1       0.374 -31.749  -5.483  1.00  0.00     0.016 A 
ATOM      2  C   UNL     1       1.000 -31.382  -4.288  1.00  0.00     0.047 A 
ATOM      3  C   UNL     1       0.237 -31.029  -3.168  1.00  0.00     0.119 A 
ATOM      4  C   UNL     1      -1.164 -31.041  -3.244  1.00  0.00     0.094 A 
ATOM      5  C   UNL     1      -1.800 -31.408  -4.436  1.00  0.00     0.142 A 
ATOM      6  C   UNL     1      -1.025 -31.763  -5.563  1.00  0.00     0.018 A 
ATOM      7  C   UNL     1      -1.688 -32.125  -6.740  1.00  0.00     0.019 A 
ATOM      8  C   UNL     1      -3.082 -32.122  -6.768  1.00  0.00     0.094 A 
ATOM      9  C   UNL     1      -3.784 -31.758  -5.613  1.00  0.00     0.336 A 
ATOM     10  O   UNL     1      -5.043 -31.750  -5.619  1.00  0.00    -0.246 OA
ATOM     11  O   UNL     1      -3.128 -31.419  -4.506  1.00  0.00    -0.423 OA
ENDROOT
BRANCH   3  12
ATOM     12  O   UNL     1       0.879 -30.666  -1.987  1.00  0.00    -0.508 OA
ATOM     13  H   UNL     1       1.883 -30.757  -1.880  1.00  0.00     0.293 HD
ENDBRANCH   3  12
TORSDOF 1
ENDMDL
MODEL 5
REMARK VINA RESULT:    -1.474      2.613      4.414
REMARK INTER + INTRA:          -1.517
REMARK INTER:                  -1.517
REMARK INTRA:                   0.000
REMARK UNBOUND:                 0.000
REMARK SMILES O=c1ccc2ccc(O)cc2o1
REMARK SMILES IDX 6 1 7 2 8 3 10 4 11 5 5 6 4 7 3 8 2 9 1 10 12 11 9 12
REMARK H PARENT 9 13
REMARK Flexibility Score: inf
ROOT
ATOM      1  C   UNL     1      -0.459 -31.995  -6.616  1.00  0.00     0.016 A 
ATOM      2  C   UNL     1       0.624 -32.125  -7.491  1.00  0.00     0.047 A 
ATOM      3  C   UNL     1       1.931 -31.906  -7.038  1.00  0.00     0.119 A 
ATOM      4  C   UNL     1       2.157 -31.552  -5.699  1.00  0.00     0.094 A 
ATOM      5  C   UNL     1       1.080 -31.421  -4.815  1.00  0.00     0.142 A 
ATOM      6  C   UNL     1      -0.237 -31.643  -5.277  1.00  0.00     0.018 A 
ATOM      7  C   UNL     1      -1.293 -31.503  -4.371  1.00  0.00     0.019 A 
ATOM      8  C   UNL     1      -1.019 -31.150  -3.050  1.00  0.00     0.094 A 
ATOM      9  C   UNL     1       0.311 -30.946  -2.664  1.00  0.00     0.336 A 
ATOM     10  O   UNL     1       0.578 -30.627  -1.476  1.00  0.00    -0.246 OA
ATOM     11  O   UNL     1       1.297 -31.086  -3.546  1.00  0.00    -0.423 OA
ENDROOT
BRANCH   3  12
ATOM     12  O   UNL     1       2.996 -32.041  -7.925  1.00  0.00    -0.508 OA
ATOM     13  H   UNL     1       2.845 -32.163  -8.920  1.00  0.00     0.293 HD
ENDBRANCH   3  12
TORSDOF 1
ENDMDL
