MODEL 1
REMARK VINA RESULT:    -6.175      0.000      0.000
REMARK INTER + INTRA:          -7.521
REMARK INTER:                  -7.258
REMARK INTRA:                  -0.263
REMARK UNBOUND:                -0.263
REMARK SMILES O=c1cc(-c2ccc(O)c(O)c2)oc2cc(O)cc(O)c12
REMARK SMILES IDX 4 1 3 2 2 3 1 4 21 5 19 6 18 7 16 8 15 9 14 10 13 11 5 12
REMARK SMILES IDX 6 13 7 14 8 15 12 16 10 17 9 18 11 20 20 22 17 24
REMARK H PARENT 9 19 11 21 20 23 17 25
REMARK Flexibility Score: inf
ROOT
ATOM      1  C   UNL     1      12.680 -23.870  22.307  1.00  0.00     0.138 A 
ATOM      2  C   UNL     1      11.301 -24.046  22.128  1.00  0.00     0.100 A 
ATOM      3  C   UNL     1      10.438 -23.897  23.214  1.00  0.00     0.197 A 
ATOM      4  O   UNL     1       9.213 -24.123  23.035  1.00  0.00    -0.289 OA
ATOM      5  C   UNL     1      10.958 -23.539  24.481  1.00  0.00     0.107 A 
ATOM      6  C   UNL     1      10.169 -23.320  25.650  1.00  0.00     0.134 A 
ATOM      7  C   UNL     1      10.805 -23.084  26.876  1.00  0.00     0.093 A 
ATOM      8  C   UNL     1      12.196 -22.998  26.962  1.00  0.00     0.123 A 
ATOM      9  C   UNL     1      12.972 -23.157  25.816  1.00  0.00     0.094 A 
ATOM     10  C   UNL     1      12.370 -23.428  24.585  1.00  0.00     0.146 A 
ATOM     11  O   UNL     1      13.147 -23.587  23.519  1.00  0.00    -0.456 OA
ENDROOT
BRANCH   1  12
ATOM     12  C   UNL     1      13.642 -24.015  21.186  1.00  0.00     0.021 A 
ATOM     13  C   UNL     1      14.325 -22.906  20.650  1.00  0.00     0.016 A 
ATOM     14  C   UNL     1      15.233 -23.073  19.601  1.00  0.00     0.051 A 
ATOM     15  C   UNL     1      15.481 -24.344  19.074  1.00  0.00     0.157 A 
ATOM     16  C   UNL     1      13.906 -25.292  20.661  1.00  0.00     0.062 A 
ATOM     17  C   UNL     1      14.817 -25.460  19.607  1.00  0.00     0.158 A 
BRANCH  15  18
ATOM     18  O   UNL     1      16.391 -24.478  18.027  1.00  0.00    -0.504 OA
ATOM     19  H   UNL     1      16.909 -23.689  17.658  1.00  0.00     0.293 HD
ENDBRANCH  15  18
BRANCH  17  20
ATOM     20  O   UNL     1      15.062 -26.730  19.090  1.00  0.00    -0.504 OA
ATOM     21  H   UNL     1      14.318 -27.408  18.966  1.00  0.00     0.293 HD
ENDBRANCH  17  20
ENDBRANCH   1  12
BRANCH   6  22
ATOM     22  O   UNL     1       8.772 -23.300  25.657  1.00  0.00    -0.507 OA
ATOM     23  H   UNL     1       8.205 -22.823  26.342  1.00  0.00     0.293 HD
ENDBRANCH   6  22
BRANCH   8  24
ATOM     24  O   UNL     1      12.818 -22.748  28.184  1.00  0.00    -0.508 OA
ATOM     25  H   UNL     1      13.082 -23.501  28.808  1.00  0.00     0.293 HD
ENDBRANCH   8  24
TORSDOF 5
ENDMDL
MODEL 2
REMARK VINA RESULT:    -6.068      1.519      2.091
REMARK INTER + INTRA:          -7.396
REMARK INTER:                  -7.104
REMARK INTRA:                  -0.291
REMARK UNBOUND:                -0.263
REMARK SMILES O=c1cc(-c2ccc(O)c(O)c2)oc2cc(O)cc(O)c12
REMARK SMILES IDX 4 1 3 2 2 3 1 4 21 5 19 6 18 7 16 8 15 9 14 10 13 11 5 12
REMARK SMILES IDX 6 13 7 14 8 15 12 16 10 17 9 18 11 20 20 22 17 24
REMARK H PARENT 9 19 11 21 20 23 17 25
REMARK Flexibility Score: inf
ROOT
ATOM      1  C   UNL     1      12.337 -24.441  21.438  1.00  0.00     0.138 A 
ATOM      2  C   UNL     1      11.103 -25.076  21.240  1.00  0.00     0.100 A 
ATOM      3  C   UNL     1      10.040 -24.805  22.101  1.00  0.00     0.197 A 
ATOM      4  O   UNL     1       8.964 -25.438  21.935  1.00  0.00    -0.289 OA
ATOM      5  C   UNL     1      10.206 -23.868  23.149  1.00  0.00     0.107 A 
ATOM      6  C   UNL     1       9.179 -23.482  24.063  1.00  0.00     0.134 A 
ATOM      7  C   UNL     1       9.492 -22.633  25.132  1.00  0.00     0.093 A 
ATOM      8  C   UNL     1      10.778 -22.108  25.284  1.00  0.00     0.123 A 
ATOM      9  C   UNL     1      11.772 -22.436  24.365  1.00  0.00     0.094 A 
ATOM     10  C   UNL     1      11.501 -23.308  23.308  1.00  0.00     0.146 A 
ATOM     11  O   UNL     1      12.481 -23.607  22.463  1.00  0.00    -0.456 OA
ENDROOT
BRANCH   1  12
ATOM     12  C   UNL     1      13.501 -24.692  20.551  1.00  0.00     0.021 A 
ATOM     13  C   UNL     1      13.865 -25.995  20.161  1.00  0.00     0.016 A 
ATOM     14  C   UNL     1      14.959 -26.201  19.317  1.00  0.00     0.051 A 
ATOM     15  C   UNL     1      15.702 -25.116  18.841  1.00  0.00     0.157 A 
ATOM     16  C   UNL     1      14.243 -23.604  20.058  1.00  0.00     0.062 A 
ATOM     17  C   UNL     1      15.342 -23.811  19.211  1.00  0.00     0.158 A 
BRANCH  15  18
ATOM     18  O   UNL     1      16.788 -25.355  18.001  1.00  0.00    -0.504 OA
ATOM     19  H   UNL     1      17.490 -24.648  17.813  1.00  0.00     0.293 HD
ENDBRANCH  15  18
BRANCH  17  20
ATOM     20  O   UNL     1      16.075 -22.725  18.737  1.00  0.00    -0.504 OA
ATOM     21  H   UNL     1      15.644 -21.819  18.583  1.00  0.00     0.293 HD
ENDBRANCH  17  20
ENDBRANCH   1  12
BRANCH   6  22
ATOM     22  O   UNL     1       7.845 -23.882  23.953  1.00  0.00    -0.507 OA
ATOM     23  H   UNL     1       7.089 -23.289  23.644  1.00  0.00     0.293 HD
ENDBRANCH   6  22
BRANCH   8  24
ATOM     24  O   UNL     1      11.075 -21.251  26.342  1.00  0.00    -0.508 OA
ATOM     25  H   UNL     1      11.261 -20.267  26.191  1.00  0.00     0.293 HD
ENDBRANCH   8  24
TORSDOF 5
ENDMDL
MODEL 3
REMARK VINA RESULT:    -5.648      5.395      7.229
REMARK INTER + INTRA:          -6.901
REMARK INTER:                  -6.625
REMARK INTRA:                  -0.276
REMARK UNBOUND:                -0.263
REMARK SMILES O=c1cc(-c2ccc(O)c(O)c2)oc2cc(O)cc(O)c12
REMARK SMILES IDX 4 1 3 2 2 3 1 4 21 5 19 6 18 7 16 8 15 9 14 10 13 11 5 12
REMARK SMILES IDX 6 13 7 14 8 15 12 16 10 17 9 18 11 20 20 22 17 24
REMARK H PARENT 9 19 11 21 20 23 17 25
REMARK Flexibility Score: inf
ROOT
ATOM      1  C   UNL     1      16.506 -26.607  22.637  1.00  0.00     0.138 A 
ATOM      2  C   UNL     1      15.936 -27.833  23.007  1.00  0.00     0.100 A 
ATOM      3  C   UNL     1      16.681 -28.744  23.756  1.00  0.00     0.197 A 
ATOM      4  O   UNL     1      16.163 -29.861  24.019  1.00  0.00    -0.289 OA
ATOM      5  C   UNL     1      17.995 -28.410  24.163  1.00  0.00     0.107 A 
ATOM      6  C   UNL     1      18.833 -29.244  24.963  1.00  0.00     0.134 A 
ATOM      7  C   UNL     1      20.157 -28.859  25.207  1.00  0.00     0.093 A 
ATOM      8  C   UNL     1      20.655 -27.643  24.729  1.00  0.00     0.123 A 
ATOM      9  C   UNL     1      19.827 -26.799  23.992  1.00  0.00     0.094 A 
ATOM     10  C   UNL     1      18.512 -27.170  23.704  1.00  0.00     0.146 A 
ATOM     11  O   UNL     1      17.761 -26.342  22.986  1.00  0.00    -0.456 OA
ENDROOT
BRANCH   1  12
ATOM     12  C   UNL     1      15.758 -25.602  21.841  1.00  0.00     0.021 A 
ATOM     13  C   UNL     1      15.271 -25.893  20.552  1.00  0.00     0.016 A 
ATOM     14  C   UNL     1      14.560 -24.930  19.830  1.00  0.00     0.051 A 
ATOM     15  C   UNL     1      14.316 -23.668  20.380  1.00  0.00     0.157 A 
ATOM     16  C   UNL     1      15.496 -24.335  22.395  1.00  0.00     0.062 A 
ATOM     17  C   UNL     1      14.785 -23.369  21.669  1.00  0.00     0.158 A 
BRANCH  15  18
ATOM     18  O   UNL     1      13.606 -22.729  19.634  1.00  0.00    -0.504 OA
ATOM     19  H   UNL     1      14.027 -21.866  19.312  1.00  0.00     0.293 HD
ENDBRANCH  15  18
BRANCH  17  20
ATOM     20  O   UNL     1      14.541 -22.115  22.226  1.00  0.00    -0.504 OA
ATOM     21  H   UNL     1      14.860 -21.263  21.777  1.00  0.00     0.293 HD
ENDBRANCH  17  20
ENDBRANCH   1  12
BRANCH   6  22
ATOM     22  O   UNL     1      18.410 -30.435  25.559  1.00  0.00    -0.507 OA
ATOM     23  H   UNL     1      18.723 -30.775  26.456  1.00  0.00     0.293 HD
ENDBRANCH   6  22
BRANCH   8  24
ATOM     24  O   UNL     1      21.970 -27.262  24.989  1.00  0.00    -0.508 OA
ATOM     25  H   UNL     1      22.528 -27.732  25.691  1.00  0.00     0.293 HD
ENDBRANCH   8  24
TORSDOF 5
ENDMDL
MODEL 4
REMARK VINA RESULT:    -5.534      5.336      7.431
REMARK INTER + INTRA:          -6.768
REMARK INTER:                  -6.502
REMARK INTRA:                  -0.266
REMARK UNBOUND:                -0.263
REMARK SMILES O=c1cc(-c2ccc(O)c(O)c2)oc2cc(O)cc(O)c12
REMARK SMILES IDX 4 1 3 2 2 3 1 4 21 5 19 6 18 7 16 8 15 9 14 10 13 11 5 12
REMARK SMILES IDX 6 13 7 14 8 15 12 16 10 17 9 18 11 20 20 22 17 24
REMARK H PARENT 9 19 11 21 20 23 17 25
REMARK Flexibility Score: inf
ROOT
ATOM      1  C   UNL     1      16.658 -26.511  22.682  1.00  0.00     0.138 A 
ATOM      2  C   UNL     1      17.989 -26.176  22.964  1.00  0.00     0.100 A 
ATOM      3  C   UNL     1      18.790 -27.069  23.678  1.00  0.00     0.197 A 
ATOM      4  O   UNL     1      19.961 -26.714  23.970  1.00  0.00    -0.289 OA
ATOM      5  C   UNL     1      18.260 -28.318  24.082  1.00  0.00     0.107 A 
ATOM      6  C   UNL     1      18.996 -29.324  24.778  1.00  0.00     0.134 A 
ATOM      7  C   UNL     1      18.334 -30.474  25.229  1.00  0.00     0.093 A 
ATOM      8  C   UNL     1      16.979 -30.680  24.957  1.00  0.00     0.123 A 
ATOM      9  C   UNL     1      16.267 -29.728  24.231  1.00  0.00     0.094 A 
ATOM     10  C   UNL     1      16.890 -28.555  23.797  1.00  0.00     0.146 A 
ATOM     11  O   UNL     1      16.171 -27.667  23.121  1.00  0.00    -0.456 OA
ENDROOT
BRANCH   1  12
ATOM     12  C   UNL     1      15.763 -25.598  21.926  1.00  0.00     0.021 A 
ATOM     13  C   UNL     1      15.133 -26.002  20.733  1.00  0.00     0.016 A 
ATOM     14  C   UNL     1      14.287 -25.125  20.048  1.00  0.00     0.051 A 
ATOM     15  C   UNL     1      14.050 -23.839  20.540  1.00  0.00     0.157 A 
ATOM     16  C   UNL     1      15.509 -24.308  22.424  1.00  0.00     0.062 A 
ATOM     17  C   UNL     1      14.661 -23.427  21.735  1.00  0.00     0.158 A 
BRANCH  15  18
ATOM     18  O   UNL     1      13.203 -22.988  19.833  1.00  0.00    -0.504 OA
ATOM     19  H   UNL     1      13.361 -22.757  18.859  1.00  0.00     0.293 HD
ENDBRANCH  15  18
BRANCH  17  20
ATOM     20  O   UNL     1      14.426 -22.148  22.235  1.00  0.00    -0.504 OA
ATOM     21  H   UNL     1      13.957 -22.002  23.122  1.00  0.00     0.293 HD
ENDBRANCH  17  20
ENDBRANCH   1  12
BRANCH   6  22
ATOM     22  O   UNL     1      20.369 -29.256  25.028  1.00  0.00    -0.507 OA
ATOM     23  H   UNL     1      20.795 -29.342  25.939  1.00  0.00     0.293 HD
ENDBRANCH   6  22
BRANCH   8  24
ATOM     24  O   UNL     1      16.334 -31.833  25.397  1.00  0.00    -0.508 OA
ATOM     25  H   UNL     1      15.416 -32.090  25.055  1.00  0.00     0.293 HD
ENDBRANCH   8  24
TORSDOF 5
ENDMDL
MODEL 5
REMARK VINA RESULT:    -5.504     11.223     12.590
REMARK INTER + INTRA:          -6.733
REMARK INTER:                  -6.445
REMARK INTRA:                  -0.288
REMARK UNBOUND:                -0.263
REMARK SMILES O=c1cc(-c2ccc(O)c(O)c2)oc2cc(O)cc(O)c12
REMARK SMILES IDX 4 1 3 2 2 3 1 4 21 5 19 6 18 7 16 8 15 9 14 10 13 11 5 12
REMARK SMILES IDX 6 13 7 14 8 15 12 16 10 17 9 18 11 20 20 22 17 24
REMARK H PARENT 9 19 11 21 20 23 17 25
REMARK Flexibility Score: inf
ROOT
ATOM      1  C   UNL     1      21.333 -29.099  29.599  1.00  0.00     0.138 A 
ATOM      2  C   UNL     1      22.153 -29.715  30.555  1.00  0.00     0.100 A 
ATOM      3  C   UNL     1      21.643 -30.752  31.337  1.00  0.00     0.197 A 
ATOM      4  O   UNL     1      22.383 -31.243  32.229  1.00  0.00    -0.289 OA
ATOM      5  C   UNL     1      20.313 -31.194  31.138  1.00  0.00     0.107 A 
ATOM      6  C   UNL     1      19.700 -32.269  31.848  1.00  0.00     0.134 A 
ATOM      7  C   UNL     1      18.341 -32.542  31.648  1.00  0.00     0.093 A 
ATOM      8  C   UNL     1      17.589 -31.817  30.719  1.00  0.00     0.123 A 
ATOM      9  C   UNL     1      18.193 -30.801  29.982  1.00  0.00     0.094 A 
ATOM     10  C   UNL     1      19.539 -30.483  30.184  1.00  0.00     0.146 A 
ATOM     11  O   UNL     1      20.072 -29.497  29.471  1.00  0.00    -0.456 OA
ENDROOT
BRANCH   1  12
ATOM     12  C   UNL     1      21.825 -27.992  28.740  1.00  0.00     0.021 A 
ATOM     13  C   UNL     1      22.507 -26.885  29.280  1.00  0.00     0.016 A 
ATOM     14  C   UNL     1      22.968 -25.863  28.446  1.00  0.00     0.051 A 
ATOM     15  C   UNL     1      22.766 -25.929  27.065  1.00  0.00     0.157 A 
ATOM     16  C   UNL     1      21.638 -28.060  27.348  1.00  0.00     0.062 A 
ATOM     17  C   UNL     1      22.100 -27.034  26.511  1.00  0.00     0.158 A 
BRANCH  15  18
ATOM     18  O   UNL     1      23.237 -24.893  26.260  1.00  0.00    -0.504 OA
ATOM     19  H   UNL     1      24.062 -24.993  25.681  1.00  0.00     0.293 HD
ENDBRANCH  15  18
BRANCH  17  20
ATOM     20  O   UNL     1      21.899 -27.109  25.135  1.00  0.00    -0.504 OA
ATOM     21  H   UNL     1      22.325 -26.445  24.498  1.00  0.00     0.293 HD
ENDBRANCH  17  20
ENDBRANCH   1  12
BRANCH   6  22
ATOM     22  O   UNL     1      20.380 -33.108  32.735  1.00  0.00    -0.507 OA
ATOM     23  H   UNL     1      20.103 -33.287  33.689  1.00  0.00     0.293 HD
ENDBRANCH   6  22
BRANCH   8  24
ATOM     24  O   UNL     1      16.241 -32.106  30.516  1.00  0.00    -0.508 OA
ATOM     25  H   UNL     1      15.547 -31.371  30.444  1.00  0.00     0.293 HD
ENDBRANCH   8  24
TORSDOF 5
ENDMDL
MODEL 6
REMARK VINA RESULT:    -5.432     10.469     12.446
REMARK INTER + INTRA:          -6.648
REMARK INTER:                  -6.374
REMARK INTRA:                  -0.274
REMARK UNBOUND:                -0.263
REMARK SMILES O=c1cc(-c2ccc(O)c(O)c2)oc2cc(O)cc(O)c12
REMARK SMILES IDX 4 1 3 2 2 3 1 4 21 5 19 6 18 7 16 8 15 9 14 10 13 11 5 12
REMARK SMILES IDX 6 13 7 14 8 15 12 16 10 17 9 18 11 20 20 22 17 24
REMARK H PARENT 9 19 11 21 20 23 17 25
REMARK Flexibility Score: inf
ROOT
ATOM      1  C   UNL     1      20.154 -29.250  28.401  1.00  0.00     0.138 A 
ATOM      2  C   UNL     1      19.451 -29.194  27.189  1.00  0.00     0.100 A 
ATOM      3  C   UNL     1      19.838 -28.282  26.207  1.00  0.00     0.197 A 
ATOM      4  O   UNL     1      19.150 -28.213  25.156  1.00  0.00    -0.289 OA
ATOM      5  C   UNL     1      20.957 -27.443  26.428  1.00  0.00     0.107 A 
ATOM      6  C   UNL     1      21.468 -26.505  25.482  1.00  0.00     0.134 A 
ATOM      7  C   UNL     1      22.509 -25.646  25.856  1.00  0.00     0.093 A 
ATOM      8  C   UNL     1      23.097 -25.733  27.121  1.00  0.00     0.123 A 
ATOM      9  C   UNL     1      22.640 -26.683  28.032  1.00  0.00     0.094 A 
ATOM     10  C   UNL     1      21.580 -27.531  27.701  1.00  0.00     0.146 A 
ATOM     11  O   UNL     1      21.166 -28.413  28.604  1.00  0.00    -0.456 OA
ENDROOT
BRANCH   1  12
ATOM     12  C   UNL     1      19.785 -30.201  29.479  1.00  0.00     0.021 A 
ATOM     13  C   UNL     1      18.535 -30.137  30.125  1.00  0.00     0.016 A 
ATOM     14  C   UNL     1      18.210 -31.053  31.130  1.00  0.00     0.051 A 
ATOM     15  C   UNL     1      19.118 -32.048  31.502  1.00  0.00     0.157 A 
ATOM     16  C   UNL     1      20.687 -31.214  29.848  1.00  0.00     0.062 A 
ATOM     17  C   UNL     1      20.362 -32.132  30.857  1.00  0.00     0.158 A 
BRANCH  15  18
ATOM     18  O   UNL     1      18.765 -32.946  32.509  1.00  0.00    -0.504 OA
ATOM     19  H   UNL     1      19.149 -33.882  32.555  1.00  0.00     0.293 HD
ENDBRANCH  15  18
BRANCH  17  20
ATOM     20  O   UNL     1      21.270 -33.125  31.220  1.00  0.00    -0.504 OA
ATOM     21  H   UNL     1      21.206 -33.604  32.112  1.00  0.00     0.293 HD
ENDBRANCH  17  20
ENDBRANCH   1  12
BRANCH   6  22
ATOM     22  O   UNL     1      21.009 -26.393  24.167  1.00  0.00    -0.507 OA
ATOM     23  H   UNL     1      20.414 -25.654  23.823  1.00  0.00     0.293 HD
ENDBRANCH   6  22
BRANCH   8  24
ATOM     24  O   UNL     1      24.142 -24.884  27.479  1.00  0.00    -0.508 OA
ATOM     25  H   UNL     1      24.730 -25.077  28.281  1.00  0.00     0.293 HD
ENDBRANCH   8  24
TORSDOF 5
ENDMDL
MODEL 7
REMARK VINA RESULT:    -5.292     10.463     12.555
REMARK INTER + INTRA:          -6.483
REMARK INTER:                  -6.213
REMARK INTRA:                  -0.270
REMARK UNBOUND:                -0.263
REMARK SMILES O=c1cc(-c2ccc(O)c(O)c2)oc2cc(O)cc(O)c12
REMARK SMILES IDX 4 1 3 2 2 3 1 4 21 5 19 6 18 7 16 8 15 9 14 10 13 11 5 12
REMARK SMILES IDX 6 13 7 14 8 15 12 16 10 17 9 18 11 20 20 22 17 24
REMARK H PARENT 9 19 11 21 20 23 17 25
REMARK Flexibility Score: inf
ROOT
ATOM      1  C   UNL     1      22.058 -27.960  28.046  1.00  0.00     0.138 A 
ATOM      2  C   UNL     1      22.620 -26.958  27.243  1.00  0.00     0.100 A 
ATOM      3  C   UNL     1      21.954 -26.541  26.090  1.00  0.00     0.197 A 
ATOM      4  O   UNL     1      22.514 -25.684  25.357  1.00  0.00    -0.289 OA
ATOM      5  C   UNL     1      20.702 -27.111  25.757  1.00  0.00     0.107 A 
ATOM      6  C   UNL     1      19.913 -26.735  24.628  1.00  0.00     0.134 A 
ATOM      7  C   UNL     1      18.745 -27.450  24.334  1.00  0.00     0.093 A 
ATOM      8  C   UNL     1      18.306 -28.486  25.163  1.00  0.00     0.123 A 
ATOM      9  C   UNL     1      19.041 -28.824  26.297  1.00  0.00     0.094 A 
ATOM     10  C   UNL     1      20.229 -28.152  26.598  1.00  0.00     0.146 A 
ATOM     11  O   UNL     1      20.907 -28.516  27.681  1.00  0.00    -0.456 OA
ENDROOT
BRANCH   1  12
ATOM     12  C   UNL     1      22.723 -28.439  29.283  1.00  0.00     0.021 A 
ATOM     13  C   UNL     1      23.823 -29.317  29.238  1.00  0.00     0.016 A 
ATOM     14  C   UNL     1      24.436 -29.744  30.419  1.00  0.00     0.051 A 
ATOM     15  C   UNL     1      23.972 -29.300  31.660  1.00  0.00     0.157 A 
ATOM     16  C   UNL     1      22.269 -27.984  30.534  1.00  0.00     0.062 A 
ATOM     17  C   UNL     1      22.884 -28.414  31.720  1.00  0.00     0.158 A 
BRANCH  15  18
ATOM     18  O   UNL     1      24.604 -29.745  32.820  1.00  0.00    -0.504 OA
ATOM     19  H   UNL     1      24.929 -30.699  32.925  1.00  0.00     0.293 HD
ENDBRANCH  15  18
BRANCH  17  20
ATOM     20  O   UNL     1      22.419 -27.963  32.953  1.00  0.00    -0.504 OA
ATOM     21  H   UNL     1      22.612 -27.024  33.284  1.00  0.00     0.293 HD
ENDBRANCH  17  20
ENDBRANCH   1  12
BRANCH   6  22
ATOM     22  O   UNL     1      20.217 -25.662  23.786  1.00  0.00    -0.507 OA
ATOM     23  H   UNL     1      20.957 -24.995  23.944  1.00  0.00     0.293 HD
ENDBRANCH   6  22
BRANCH   8  24
ATOM     24  O   UNL     1      17.135 -29.181  24.870  1.00  0.00    -0.508 OA
ATOM     25  H   UNL     1      16.222 -28.780  25.049  1.00  0.00     0.293 HD
ENDBRANCH   8  24
TORSDOF 5
ENDMDL
MODEL 8
REMARK VINA RESULT:    -5.290     11.338     13.428
REMARK INTER + INTRA:          -6.481
REMARK INTER:                  -6.216
REMARK INTRA:                  -0.265
REMARK UNBOUND:                -0.263
REMARK SMILES O=c1cc(-c2ccc(O)c(O)c2)oc2cc(O)cc(O)c12
REMARK SMILES IDX 4 1 3 2 2 3 1 4 21 5 19 6 18 7 16 8 15 9 14 10 13 11 5 12
REMARK SMILES IDX 6 13 7 14 8 15 12 16 10 17 9 18 11 20 20 22 17 24
REMARK H PARENT 9 19 11 21 20 23 17 25
REMARK Flexibility Score: inf
ROOT
ATOM      1  C   UNL     1      21.112 -29.013  29.163  1.00  0.00     0.138 A 
ATOM      2  C   UNL     1      21.446 -27.789  29.759  1.00  0.00     0.100 A 
ATOM      3  C   UNL     1      22.173 -26.844  29.034  1.00  0.00     0.197 A 
ATOM      4  O   UNL     1      22.512 -25.781  29.617  1.00  0.00    -0.289 OA
ATOM      5  C   UNL     1      22.539 -27.115  27.694  1.00  0.00     0.107 A 
ATOM      6  C   UNL     1      23.245 -26.210  26.846  1.00  0.00     0.134 A 
ATOM      7  C   UNL     1      23.654 -26.633  25.575  1.00  0.00     0.093 A 
ATOM      8  C   UNL     1      23.331 -27.906  25.100  1.00  0.00     0.123 A 
ATOM      9  C   UNL     1      22.596 -28.777  25.900  1.00  0.00     0.094 A 
ATOM     10  C   UNL     1      22.202 -28.397  27.186  1.00  0.00     0.146 A 
ATOM     11  O   UNL     1      21.515 -29.264  27.922  1.00  0.00    -0.456 OA
ENDROOT
BRANCH   1  12
ATOM     12  C   UNL     1      20.339 -30.053  29.888  1.00  0.00     0.021 A 
ATOM     13  C   UNL     1      18.931 -30.040  29.920  1.00  0.00     0.016 A 
ATOM     14  C   UNL     1      18.230 -31.038  30.602  1.00  0.00     0.051 A 
ATOM     15  C   UNL     1      18.915 -32.067  31.255  1.00  0.00     0.157 A 
ATOM     16  C   UNL     1      21.022 -31.099  30.534  1.00  0.00     0.062 A 
ATOM     17  C   UNL     1      20.318 -32.100  31.220  1.00  0.00     0.158 A 
BRANCH  15  18
ATOM     18  O   UNL     1      18.186 -33.046  31.927  1.00  0.00    -0.504 OA
ATOM     19  H   UNL     1      17.479 -32.815  32.614  1.00  0.00     0.293 HD
ENDBRANCH  15  18
BRANCH  17  20
ATOM     20  O   UNL     1      21.007 -33.125  31.864  1.00  0.00    -0.504 OA
ATOM     21  H   UNL     1      22.021 -33.139  31.907  1.00  0.00     0.293 HD
ENDBRANCH  17  20
ENDBRANCH   1  12
BRANCH   6  22
ATOM     22  O   UNL     1      23.544 -24.889  27.190  1.00  0.00    -0.507 OA
ATOM     23  H   UNL     1      23.672 -24.135  26.531  1.00  0.00     0.293 HD
ENDBRANCH   6  22
BRANCH   8  24
ATOM     24  O   UNL     1      23.730 -28.312  23.828  1.00  0.00    -0.508 OA
ATOM     25  H   UNL     1      23.356 -29.149  23.397  1.00  0.00     0.293 HD
ENDBRANCH   8  24
TORSDOF 5
ENDMDL
MODEL 9
REMARK VINA RESULT:    -5.183     10.916     11.963
REMARK INTER + INTRA:          -6.355
REMARK INTER:                  -6.071
REMARK INTRA:                  -0.284
REMARK UNBOUND:                -0.263
REMARK SMILES O=c1cc(-c2ccc(O)c(O)c2)oc2cc(O)cc(O)c12
REMARK SMILES IDX 4 1 3 2 2 3 1 4 21 5 19 6 18 7 16 8 15 9 14 10 13 11 5 12
REMARK SMILES IDX 6 13 7 14 8 15 12 16 10 17 9 18 11 20 20 22 17 24
REMARK H PARENT 9 19 11 21 20 23 17 25
REMARK Flexibility Score: inf
ROOT
ATOM      1  C   UNL     1      20.669 -29.165  28.343  1.00  0.00     0.138 A 
ATOM      2  C   UNL     1      20.053 -29.706  27.206  1.00  0.00     0.100 A 
ATOM      3  C   UNL     1      19.225 -30.821  27.334  1.00  0.00     0.197 A 
ATOM      4  O   UNL     1      18.736 -31.321  26.287  1.00  0.00    -0.289 OA
ATOM      5  C   UNL     1      18.989 -31.379  28.613  1.00  0.00     0.107 A 
ATOM      6  C   UNL     1      18.131 -32.491  28.868  1.00  0.00     0.134 A 
ATOM      7  C   UNL     1      18.065 -33.028  30.160  1.00  0.00     0.093 A 
ATOM      8  C   UNL     1      18.779 -32.457  31.216  1.00  0.00     0.123 A 
ATOM      9  C   UNL     1      19.577 -31.338  30.987  1.00  0.00     0.094 A 
ATOM     10  C   UNL     1      19.690 -30.799  29.703  1.00  0.00     0.146 A 
ATOM     11  O   UNL     1      20.473 -29.741  29.525  1.00  0.00    -0.456 OA
ENDROOT
BRANCH   1  12
ATOM     12  C   UNL     1      21.558 -27.979  28.265  1.00  0.00     0.021 A 
ATOM     13  C   UNL     1      21.680 -27.074  29.337  1.00  0.00     0.016 A 
ATOM     14  C   UNL     1      22.532 -25.971  29.239  1.00  0.00     0.051 A 
ATOM     15  C   UNL     1      23.282 -25.755  28.079  1.00  0.00     0.157 A 
ATOM     16  C   UNL     1      22.326 -27.764  27.106  1.00  0.00     0.062 A 
ATOM     17  C   UNL     1      23.180 -26.656  27.007  1.00  0.00     0.158 A 
BRANCH  15  18
ATOM     18  O   UNL     1      24.122 -24.645  28.011  1.00  0.00    -0.504 OA
ATOM     19  H   UNL     1      25.011 -24.612  28.495  1.00  0.00     0.293 HD
ENDBRANCH  15  18
BRANCH  17  20
ATOM     20  O   UNL     1      23.928 -26.449  25.849  1.00  0.00    -0.504 OA
ATOM     21  H   UNL     1      23.945 -27.131  25.099  1.00  0.00     0.293 HD
ENDBRANCH  17  20
ENDBRANCH   1  12
BRANCH   6  22
ATOM     22  O   UNL     1      17.311 -33.083  27.904  1.00  0.00    -0.507 OA
ATOM     23  H   UNL     1      17.626 -33.417  27.005  1.00  0.00     0.293 HD
ENDBRANCH   6  22
BRANCH   8  24
ATOM     24  O   UNL     1      18.696 -32.990  32.501  1.00  0.00    -0.508 OA
ATOM     25  H   UNL     1      19.335 -32.708  33.234  1.00  0.00     0.293 HD
ENDBRANCH   8  24
TORSDOF 5
ENDMDL
