MODEL 1
REMARK VINA RESULT:     5.437      0.000      0.000
REMARK INTER + INTRA:           6.101
REMARK INTER:                   5.914
REMARK INTRA:                   0.188
REMARK UNBOUND:                 0.188
REMARK SMILES C[C@H]1[C@H](C)CC[C@@]2(C(=O)[O-])CC[C@@]3(C)C(=CC[C@@H]4[C@]5(C)CC[C@@H](O)C(C)(C)[C@@H]5CC[C@@]43C)[C@H]12
REMARK SMILES IDX 7 1 6 2 11 3 33 4 5 5 12 6 15 7 2 8 3 9 13 10 16 11 1 12
REMARK SMILES IDX 4 13 14 14 31 15 17 16 18 17 30 18 32 19 19 20 29 21 28 22
REMARK SMILES IDX 21 23 20 24 25 25 22 26 23 27 26 28 27 29 8 30 9 31 10 32
REMARK SMILES IDX 24 33
REMARK H PARENT 24 34
REMARK Flexibility Score: inf
ROOT
ATOM      1  C   UNL     1     -45.334  27.958   6.769  1.00  0.00     0.017 C 
ATOM      2  C   UNL     1     -45.299  28.232   8.287  1.00  0.00     0.014 C 
ATOM      3  C   UNL     1     -46.736  28.355   6.238  1.00  0.00     0.014 C 
ATOM      4  C   UNL     1     -44.305  28.865   6.025  1.00  0.00     0.030 C 
ATOM      5  C   UNL     1     -43.906  27.988   8.859  1.00  0.00     0.004 C 
ATOM      6  C   UNL     1     -46.892  28.024   4.749  1.00  0.00     0.013 C 
ATOM      7  C   UNL     1     -44.391  28.575   4.499  1.00  0.00    -0.063 C 
ATOM      8  C   UNL     1     -42.870  28.897   6.679  1.00  0.00    -0.003 C 
ATOM      9  C   UNL     1     -42.902  28.965   8.242  1.00  0.00    -0.011 C 
ATOM     10  C   UNL     1     -45.773  28.611   3.794  1.00  0.00    -0.006 C 
ATOM     11  C   UNL     1     -43.282  28.539   3.738  1.00  0.00    -0.027 C 
ATOM     12  C   UNL     1     -42.058  30.125   6.170  1.00  0.00     0.008 C 
ATOM     13  C   UNL     1     -41.511  28.710   8.848  1.00  0.00     0.008 C 
ATOM     14  C   UNL     1     -46.124  30.125   3.619  1.00  0.00     0.017 C 
ATOM     15  C   UNL     1     -45.745  27.802   2.358  1.00  0.00    -0.020 C 
ATOM     16  C   UNL     1     -43.349  28.809   2.273  1.00  0.00     0.032 C 
ATOM     17  C   UNL     1     -44.339  27.841   1.607  1.00  0.00     0.006 C 
ATOM     18  C   UNL     1     -46.830  28.374   1.423  1.00  0.00     0.008 C 
ATOM     19  C   UNL     1     -46.073  26.283   2.571  1.00  0.00     0.012 C 
ATOM     20  C   UNL     1     -44.329  27.935   0.001  1.00  0.00    -0.025 C 
ATOM     21  C   UNL     1     -46.948  27.679   0.070  1.00  0.00     0.005 C 
ATOM     22  C   UNL     1     -45.615  27.254  -0.636  1.00  0.00     0.003 C 
ATOM     23  C   UNL     1     -44.243  29.414  -0.502  1.00  0.00     0.010 C 
ATOM     24  C   UNL     1     -43.032  27.176  -0.458  1.00  0.00     0.012 C 
ATOM     25  C   UNL     1     -45.746  27.403  -2.219  1.00  0.00    -0.006 C 
ATOM     26  C   UNL     1     -44.374  29.581  -2.028  1.00  0.00     0.033 C 
ATOM     27  C   UNL     1     -45.627  28.910  -2.613  1.00  0.00     0.120 C 
ATOM     28  C   UNL     1     -47.124  26.853  -2.708  1.00  0.00     0.014 C 
ATOM     29  C   UNL     1     -44.690  26.547  -2.981  1.00  0.00     0.014 C 
ENDROOT
BRANCH   1  30
ATOM     30  C   UNL     1     -45.085  26.467   6.540  1.00  0.00     0.048 C 
ATOM     31  O   UNL     1     -45.993  25.632   6.794  1.00  0.00    -0.550 OA
ATOM     32  O   UNL     1     -43.854  26.001   6.090  1.00  0.00    -0.550 OA
ENDBRANCH   1  30
BRANCH  27  33
ATOM     33  O   UNL     1     -45.598  29.058  -4.012  1.00  0.00    -0.393 OA
ATOM     34  H   UNL     1     -46.336  28.506  -4.382  1.00  0.00     0.210 HD
ENDBRANCH  27  33
TORSDOF 2
ENDMDL
MODEL 2
REMARK VINA RESULT:     6.102      1.660      8.233
REMARK INTER + INTRA:           6.825
REMARK INTER:                   5.181
REMARK INTRA:                   1.644
REMARK UNBOUND:                 0.188
REMARK SMILES C[C@H]1[C@H](C)CC[C@@]2(C(=O)[O-])CC[C@@]3(C)C(=CC[C@@H]4[C@]5(C)CC[C@@H](O)C(C)(C)[C@@H]5CC[C@@]43C)[C@H]12
REMARK SMILES IDX 7 1 6 2 11 3 33 4 5 5 12 6 15 7 2 8 3 9 13 10 16 11 1 12
REMARK SMILES IDX 4 13 14 14 31 15 17 16 18 17 30 18 32 19 19 20 29 21 28 22
REMARK SMILES IDX 21 23 20 24 25 25 22 26 23 27 26 28 27 29 8 30 9 31 10 32
REMARK SMILES IDX 24 33
REMARK H PARENT 24 34
REMARK Flexibility Score: inf
ROOT
ATOM      1  C   UNL     1     -45.851  29.074  -1.418  1.00  0.00     0.017 C 
ATOM      2  C   UNL     1     -46.494  29.066  -2.821  1.00  0.00     0.014 C 
ATOM      3  C   UNL     1     -46.710  29.981  -0.499  1.00  0.00     0.014 C 
ATOM      4  C   UNL     1     -45.886  27.646  -0.792  1.00  0.00     0.030 C 
ATOM      5  C   UNL     1     -45.776  28.091  -3.750  1.00  0.00     0.004 C 
ATOM      6  C   UNL     1     -46.088  30.124   0.895  1.00  0.00     0.013 C 
ATOM      7  C   UNL     1     -45.253  27.705   0.628  1.00  0.00    -0.063 C 
ATOM      8  C   UNL     1     -45.400  26.497  -1.757  1.00  0.00    -0.003 C 
ATOM      9  C   UNL     1     -45.918  26.659  -3.226  1.00  0.00    -0.011 C 
ATOM     10  C   UNL     1     -45.755  28.767   1.642  1.00  0.00    -0.006 C 
ATOM     11  C   UNL     1     -44.466  26.709   1.077  1.00  0.00    -0.027 C 
ATOM     12  C   UNL     1     -45.872  25.105  -1.242  1.00  0.00     0.008 C 
ATOM     13  C   UNL     1     -45.202  25.696  -4.188  1.00  0.00     0.008 C 
ATOM     14  C   UNL     1     -47.125  28.234   2.175  1.00  0.00     0.017 C 
ATOM     15  C   UNL     1     -44.664  29.016   2.852  1.00  0.00    -0.020 C 
ATOM     16  C   UNL     1     -44.303  26.460   2.538  1.00  0.00     0.032 C 
ATOM     17  C   UNL     1     -43.797  27.733   3.232  1.00  0.00     0.006 C 
ATOM     18  C   UNL     1     -45.398  29.519   4.113  1.00  0.00     0.008 C 
ATOM     19  C   UNL     1     -43.631  30.125   2.447  1.00  0.00     0.012 C 
ATOM     20  C   UNL     1     -43.411  27.498   4.777  1.00  0.00    -0.025 C 
ATOM     21  C   UNL     1     -44.496  29.839   5.300  1.00  0.00     0.005 C 
ATOM     22  C   UNL     1     -43.294  28.870   5.569  1.00  0.00     0.003 C 
ATOM     23  C   UNL     1     -44.447  26.582   5.509  1.00  0.00     0.010 C 
ATOM     24  C   UNL     1     -42.022  26.765   4.757  1.00  0.00     0.012 C 
ATOM     25  C   UNL     1     -43.029  28.726   7.135  1.00  0.00    -0.006 C 
ATOM     26  C   UNL     1     -44.213  26.435   7.025  1.00  0.00     0.033 C 
ATOM     27  C   UNL     1     -44.102  27.779   7.762  1.00  0.00     0.120 C 
ATOM     28  C   UNL     1     -43.107  30.122   7.834  1.00  0.00     0.014 C 
ATOM     29  C   UNL     1     -41.591  28.212   7.445  1.00  0.00     0.014 C 
ENDROOT
BRANCH   1  30
ATOM     30  C   UNL     1     -44.434  29.635  -1.538  1.00  0.00     0.048 C 
ATOM     31  O   UNL     1     -44.028  30.088  -2.641  1.00  0.00    -0.550 OA
ATOM     32  O   UNL     1     -43.559  29.622  -0.458  1.00  0.00    -0.550 OA
ENDBRANCH   1  30
BRANCH  27  33
ATOM     33  O   UNL     1     -43.811  27.522   9.114  1.00  0.00    -0.393 OA
ATOM     34  H   UNL     1     -42.843  27.696   9.245  1.00  0.00     0.210 HD
ENDBRANCH  27  33
TORSDOF 2
ENDMDL
