MODEL 1
REMARK VINA RESULT:    -4.056      0.000      0.000
REMARK INTER + INTRA:          -8.514
REMARK INTER:                  -6.901
REMARK INTRA:                  -1.613
REMARK UNBOUND:                -1.613
REMARK SMILES CCCCCCCCCCCCCC(=O)[O-]
REMARK SMILES IDX 8 1 9 2 10 3 11 4 12 5 13 6 14 7 15 8 16 9 7 10 6 11 5 12
REMARK SMILES IDX 4 13 3 14 2 15 1 16
REMARK H PARENT
REMARK Flexibility Score: inf
ROOT
ATOM      1  C   UNL     1      -7.128  16.771  -9.061  1.00  0.00     0.000 C 
ENDROOT
BRANCH   1   2
ATOM      2  C   UNL     1      -5.960  17.287  -9.917  1.00  0.00     0.000 C 
BRANCH   2   3
ATOM      3  C   UNL     1      -6.392  18.360 -10.928  1.00  0.00     0.000 C 
BRANCH   3   4
ATOM      4  C   UNL     1      -7.792  18.896 -10.596  1.00  0.00     0.000 C 
BRANCH   4   5
ATOM      5  C   UNL     1      -8.808  18.673 -11.731  1.00  0.00     0.006 C 
BRANCH   5   6
ATOM      6  C   UNL     1     -10.277  18.722 -11.274  1.00  0.00     0.053 C 
BRANCH   6   7
ATOM      7  C   UNL     1     -10.936  17.376 -11.297  1.00  0.00     0.041 C 
ATOM      8  O   UNL     1     -10.498  16.442 -10.575  1.00  0.00    -0.550 OA
ATOM      9  O   UNL     1     -12.016  17.143 -12.138  1.00  0.00    -0.550 OA
ENDBRANCH   6   7
ENDBRANCH   5   6
ENDBRANCH   4   5
ENDBRANCH   3   4
ENDBRANCH   2   3
ENDBRANCH   1   2
BRANCH   1  10
ATOM     10  C   UNL     1      -6.809  16.782  -7.556  1.00  0.00     0.000 C 
BRANCH  10  11
ATOM     11  C   UNL     1      -5.354  16.382  -7.257  1.00  0.00    -0.000 C 
BRANCH  11  12
ATOM     12  C   UNL     1      -4.768  17.140  -6.053  1.00  0.00    -0.000 C 
BRANCH  12  13
ATOM     13  C   UNL     1      -3.935  18.362  -6.472  1.00  0.00    -0.000 C 
BRANCH  13  14
ATOM     14  C   UNL     1      -4.693  19.689  -6.285  1.00  0.00    -0.000 C 
BRANCH  14  15
ATOM     15  C   UNL     1      -5.242  20.244  -7.609  1.00  0.00    -0.003 C 
ATOM     16  C   UNL     1      -6.735  20.562  -7.545  1.00  0.00     0.004 C 
ENDBRANCH  14  15
ENDBRANCH  13  14
ENDBRANCH  12  13
ENDBRANCH  11  12
ENDBRANCH  10  11
ENDBRANCH   1  10
TORSDOF 12
ENDMDL
MODEL 2
REMARK VINA RESULT:    -3.847      0.957      2.814
REMARK INTER + INTRA:          -8.158
REMARK INTER:                  -6.465
REMARK INTRA:                  -1.694
REMARK UNBOUND:                -1.613
REMARK SMILES CCCCCCCCCCCCCC(=O)[O-]
REMARK SMILES IDX 8 1 9 2 10 3 11 4 12 5 13 6 14 7 15 8 16 9 7 10 6 11 5 12
REMARK SMILES IDX 4 13 3 14 2 15 1 16
REMARK H PARENT
REMARK Flexibility Score: inf
ROOT
ATOM      1  C   UNL     1      -5.531  20.027  -7.340  1.00  0.00     0.000 C 
ENDROOT
BRANCH   1   2
ATOM      2  C   UNL     1      -5.938  20.146  -8.816  1.00  0.00     0.000 C 
BRANCH   2   3
ATOM      3  C   UNL     1      -7.436  19.886  -9.043  1.00  0.00     0.000 C 
BRANCH   3   4
ATOM      4  C   UNL     1      -7.756  19.781 -10.541  1.00  0.00     0.000 C 
BRANCH   4   5
ATOM      5  C   UNL     1      -8.346  18.416 -10.937  1.00  0.00     0.006 C 
BRANCH   5   6
ATOM      6  C   UNL     1      -9.721  18.505 -11.625  1.00  0.00     0.053 C 
BRANCH   6   7
ATOM      7  C   UNL     1     -10.570  17.294 -11.383  1.00  0.00     0.041 C 
ATOM      8  O   UNL     1     -10.203  16.416 -10.557  1.00  0.00    -0.550 OA
ATOM      9  O   UNL     1     -11.751  17.118 -12.092  1.00  0.00    -0.550 OA
ENDBRANCH   6   7
ENDBRANCH   5   6
ENDBRANCH   4   5
ENDBRANCH   3   4
ENDBRANCH   2   3
ENDBRANCH   1   2
BRANCH   1  10
ATOM     10  C   UNL     1      -4.330  19.089  -7.130  1.00  0.00     0.000 C 
BRANCH  10  11
ATOM     11  C   UNL     1      -4.619  17.978  -6.107  1.00  0.00    -0.000 C 
BRANCH  11  12
ATOM     12  C   UNL     1      -4.993  16.642  -6.775  1.00  0.00    -0.000 C 
BRANCH  12  13
ATOM     13  C   UNL     1      -6.422  16.645  -7.342  1.00  0.00    -0.000 C 
BRANCH  13  14
ATOM     14  C   UNL     1      -6.463  16.315  -8.846  1.00  0.00    -0.000 C 
BRANCH  14  15
ATOM     15  C   UNL     1      -5.059  16.213  -9.463  1.00  0.00    -0.003 C 
ATOM     16  C   UNL     1      -4.838  17.210 -10.600  1.00  0.00     0.004 C 
ENDBRANCH  14  15
ENDBRANCH  13  14
ENDBRANCH  12  13
ENDBRANCH  11  12
ENDBRANCH  10  11
ENDBRANCH   1  10
TORSDOF 12
ENDMDL
MODEL 3
REMARK VINA RESULT:    -3.779      1.046      2.547
REMARK INTER + INTRA:          -8.044
REMARK INTER:                  -6.396
REMARK INTRA:                  -1.648
REMARK UNBOUND:                -1.613
REMARK SMILES CCCCCCCCCCCCCC(=O)[O-]
REMARK SMILES IDX 8 1 9 2 10 3 11 4 12 5 13 6 14 7 15 8 16 9 7 10 6 11 5 12
REMARK SMILES IDX 4 13 3 14 2 15 1 16
REMARK H PARENT
REMARK Flexibility Score: inf
ROOT
ATOM      1  C   UNL     1      -6.583  20.123  -8.283  1.00  0.00     0.000 C 
ENDROOT
BRANCH   1   2
ATOM      2  C   UNL     1      -5.863  19.822  -9.606  1.00  0.00     0.000 C 
BRANCH   2   3
ATOM      3  C   UNL     1      -6.651  20.304 -10.834  1.00  0.00     0.000 C 
BRANCH   3   4
ATOM      4  C   UNL     1      -7.284  19.121 -11.580  1.00  0.00     0.000 C 
BRANCH   4   5
ATOM      5  C   UNL     1      -8.751  18.873 -11.183  1.00  0.00     0.006 C 
BRANCH   5   6
ATOM      6  C   UNL     1      -9.553  18.071 -12.223  1.00  0.00     0.053 C 
BRANCH   6   7
ATOM      7  C   UNL     1     -10.543  17.136 -11.596  1.00  0.00     0.041 C 
ATOM      8  O   UNL     1     -10.215  16.438 -10.600  1.00  0.00    -0.550 OA
ATOM      9  O   UNL     1     -11.819  17.011 -12.131  1.00  0.00    -0.550 OA
ENDBRANCH   6   7
ENDBRANCH   5   6
ENDBRANCH   4   5
ENDBRANCH   3   4
ENDBRANCH   2   3
ENDBRANCH   1   2
BRANCH   1  10
ATOM     10  C   UNL     1      -5.629  20.117  -7.075  1.00  0.00     0.000 C 
BRANCH  10  11
ATOM     11  C   UNL     1      -4.482  19.106  -7.233  1.00  0.00    -0.000 C 
BRANCH  11  12
ATOM     12  C   UNL     1      -4.581  17.938  -6.236  1.00  0.00    -0.000 C 
BRANCH  12  13
ATOM     13  C   UNL     1      -5.123  16.653  -6.882  1.00  0.00    -0.000 C 
BRANCH  13  14
ATOM     14  C   UNL     1      -4.671  16.490  -8.345  1.00  0.00    -0.000 C 
BRANCH  14  15
ATOM     15  C   UNL     1      -5.850  16.244  -9.300  1.00  0.00    -0.003 C 
ATOM     16  C   UNL     1      -7.204  16.557  -8.664  1.00  0.00     0.004 C 
ENDBRANCH  14  15
ENDBRANCH  13  14
ENDBRANCH  12  13
ENDBRANCH  11  12
ENDBRANCH  10  11
ENDBRANCH   1  10
TORSDOF 12
ENDMDL
MODEL 4
REMARK VINA RESULT:    -3.715      3.254      7.034
REMARK INTER + INTRA:          -7.935
REMARK INTER:                  -6.635
REMARK INTRA:                  -1.300
REMARK UNBOUND:                -1.613
REMARK SMILES CCCCCCCCCCCCCC(=O)[O-]
REMARK SMILES IDX 8 1 9 2 10 3 11 4 12 5 13 6 14 7 15 8 16 9 7 10 6 11 5 12
REMARK SMILES IDX 4 13 3 14 2 15 1 16
REMARK H PARENT
REMARK Flexibility Score: inf
ROOT
ATOM      1  C   UNL     1      -8.078  19.418 -11.508  1.00  0.00     0.000 C 
ENDROOT
BRANCH   1   2
ATOM      2  C   UNL     1      -7.585  18.967 -10.124  1.00  0.00     0.000 C 
BRANCH   2   3
ATOM      3  C   UNL     1      -6.627  17.768 -10.196  1.00  0.00     0.000 C 
BRANCH   3   4
ATOM      4  C   UNL     1      -6.928  16.756  -9.081  1.00  0.00     0.000 C 
BRANCH   4   5
ATOM      5  C   UNL     1      -5.664  16.280  -8.342  1.00  0.00     0.006 C 
BRANCH   5   6
ATOM      6  C   UNL     1      -5.639  16.642  -6.847  1.00  0.00     0.053 C 
BRANCH   6   7
ATOM      7  C   UNL     1      -4.639  17.711  -6.525  1.00  0.00     0.041 C 
ATOM      8  O   UNL     1      -4.275  18.529  -7.412  1.00  0.00    -0.550 OA
ATOM      9  O   UNL     1      -4.083  17.785  -5.254  1.00  0.00    -0.550 OA
ENDBRANCH   6   7
ENDBRANCH   5   6
ENDBRANCH   4   5
ENDBRANCH   3   4
ENDBRANCH   2   3
ENDBRANCH   1   2
BRANCH   1  10
ATOM     10  C   UNL     1      -9.127  20.542 -11.426  1.00  0.00     0.000 C 
BRANCH  10  11
ATOM     11  C   UNL     1     -10.416  20.095 -10.717  1.00  0.00    -0.000 C 
BRANCH  11  12
ATOM     12  C   UNL     1     -11.643  20.126 -11.646  1.00  0.00    -0.000 C 
BRANCH  12  13
ATOM     13  C   UNL     1     -11.569  19.067 -12.758  1.00  0.00    -0.000 C 
BRANCH  13  14
ATOM     14  C   UNL     1     -11.895  17.651 -12.249  1.00  0.00    -0.000 C 
BRANCH  14  15
ATOM     15  C   UNL     1     -10.649  16.757 -12.159  1.00  0.00    -0.003 C 
ATOM     16  C   UNL     1     -10.254  16.434 -10.718  1.00  0.00     0.004 C 
ENDBRANCH  14  15
ENDBRANCH  13  14
ENDBRANCH  12  13
ENDBRANCH  11  12
ENDBRANCH  10  11
ENDBRANCH   1  10
TORSDOF 12
ENDMDL
MODEL 5
REMARK VINA RESULT:    -3.698      1.161      2.758
REMARK INTER + INTRA:          -7.906
REMARK INTER:                  -6.389
REMARK INTRA:                  -1.517
REMARK UNBOUND:                -1.613
REMARK SMILES CCCCCCCCCCCCCC(=O)[O-]
REMARK SMILES IDX 8 1 9 2 10 3 11 4 12 5 13 6 14 7 15 8 16 9 7 10 6 11 5 12
REMARK SMILES IDX 4 13 3 14 2 15 1 16
REMARK H PARENT
REMARK Flexibility Score: inf
ROOT
ATOM      1  C   UNL     1      -6.270  19.682  -9.512  1.00  0.00     0.000 C 
ENDROOT
BRANCH   1   2
ATOM      2  C   UNL     1      -7.683  20.128  -9.104  1.00  0.00     0.000 C 
BRANCH   2   3
ATOM      3  C   UNL     1      -8.437  20.829 -10.245  1.00  0.00     0.000 C 
BRANCH   3   4
ATOM      4  C   UNL     1      -9.885  20.328 -10.337  1.00  0.00     0.000 C 
BRANCH   4   5
ATOM      5  C   UNL     1     -10.240  19.763 -11.724  1.00  0.00     0.006 C 
BRANCH   5   6
ATOM      6  C   UNL     1      -9.749  18.324 -11.959  1.00  0.00     0.053 C 
BRANCH   6   7
ATOM      7  C   UNL     1     -10.757  17.293 -11.548  1.00  0.00     0.041 C 
ATOM      8  O   UNL     1     -11.896  17.269 -12.085  1.00  0.00    -0.550 OA
ATOM      9  O   UNL     1     -10.450  16.378 -10.550  1.00  0.00    -0.550 OA
ENDBRANCH   6   7
ENDBRANCH   5   6
ENDBRANCH   4   5
ENDBRANCH   3   4
ENDBRANCH   2   3
ENDBRANCH   1   2
BRANCH   1  10
ATOM     10  C   UNL     1      -6.271  18.368 -10.312  1.00  0.00     0.000 C 
BRANCH  10  11
ATOM     11  C   UNL     1      -7.178  17.296  -9.685  1.00  0.00    -0.000 C 
BRANCH  11  12
ATOM     12  C   UNL     1      -6.410  16.344  -8.751  1.00  0.00    -0.000 C 
BRANCH  12  13
ATOM     13  C   UNL     1      -6.533  16.741  -7.271  1.00  0.00    -0.000 C 
BRANCH  13  14
ATOM     14  C   UNL     1      -5.191  16.657  -6.522  1.00  0.00    -0.000 C 
BRANCH  14  15
ATOM     15  C   UNL     1      -4.165  17.679  -7.036  1.00  0.00    -0.003 C 
ATOM     16  C   UNL     1      -4.260  19.026  -6.319  1.00  0.00     0.004 C 
ENDBRANCH  14  15
ENDBRANCH  13  14
ENDBRANCH  12  13
ENDBRANCH  11  12
ENDBRANCH  10  11
ENDBRANCH   1  10
TORSDOF 12
ENDMDL
MODEL 6
REMARK VINA RESULT:    -3.681      2.552      6.303
REMARK INTER + INTRA:          -7.876
REMARK INTER:                  -6.407
REMARK INTRA:                  -1.470
REMARK UNBOUND:                -1.613
REMARK SMILES CCCCCCCCCCCCCC(=O)[O-]
REMARK SMILES IDX 8 1 9 2 10 3 11 4 12 5 13 6 14 7 15 8 16 9 7 10 6 11 5 12
REMARK SMILES IDX 4 13 3 14 2 15 1 16
REMARK H PARENT
REMARK Flexibility Score: inf
ROOT
ATOM      1  C   UNL     1      -7.345  17.266  -9.875  1.00  0.00     0.000 C 
ENDROOT
BRANCH   1   2
ATOM      2  C   UNL     1      -6.356  16.433  -9.045  1.00  0.00     0.000 C 
BRANCH   2   3
ATOM      3  C   UNL     1      -6.616  16.533  -7.534  1.00  0.00     0.000 C 
BRANCH   3   4
ATOM      4  C   UNL     1      -5.298  16.518  -6.747  1.00  0.00     0.000 C 
BRANCH   4   5
ATOM      5  C   UNL     1      -4.348  17.664  -7.139  1.00  0.00     0.006 C 
BRANCH   5   6
ATOM      6  C   UNL     1      -4.792  19.047  -6.630  1.00  0.00     0.053 C 
BRANCH   6   7
ATOM      7  C   UNL     1      -5.383  19.901  -7.710  1.00  0.00     0.041 C 
ATOM      8  O   UNL     1      -4.648  20.382  -8.612  1.00  0.00    -0.550 OA
ATOM      9  O   UNL     1      -6.741  20.191  -7.703  1.00  0.00    -0.550 OA
ENDBRANCH   6   7
ENDBRANCH   5   6
ENDBRANCH   4   5
ENDBRANCH   3   4
ENDBRANCH   2   3
ENDBRANCH   1   2
BRANCH   1  10
ATOM     10  C   UNL     1      -6.642  18.296 -10.776  1.00  0.00     0.000 C 
BRANCH  10  11
ATOM     11  C   UNL     1      -7.585  19.420 -11.235  1.00  0.00    -0.000 C 
BRANCH  11  12
ATOM     12  C   UNL     1      -7.970  19.299 -12.721  1.00  0.00    -0.000 C 
BRANCH  12  13
ATOM     13  C   UNL     1      -9.417  18.818 -12.919  1.00  0.00    -0.000 C 
BRANCH  13  14
ATOM     14  C   UNL     1     -10.283  19.014 -11.661  1.00  0.00    -0.000 C 
BRANCH  14  15
ATOM     15  C   UNL     1     -10.934  17.705 -11.186  1.00  0.00    -0.003 C 
ATOM     16  C   UNL     1     -10.520  16.498 -12.027  1.00  0.00     0.004 C 
ENDBRANCH  14  15
ENDBRANCH  13  14
ENDBRANCH  12  13
ENDBRANCH  11  12
ENDBRANCH  10  11
ENDBRANCH   1  10
TORSDOF 12
ENDMDL
MODEL 7
REMARK VINA RESULT:    -3.588      3.292      6.735
REMARK INTER + INTRA:          -7.718
REMARK INTER:                  -6.391
REMARK INTRA:                  -1.328
REMARK UNBOUND:                -1.613
REMARK SMILES CCCCCCCCCCCCCC(=O)[O-]
REMARK SMILES IDX 8 1 9 2 10 3 11 4 12 5 13 6 14 7 15 8 16 9 7 10 6 11 5 12
REMARK SMILES IDX 4 13 3 14 2 15 1 16
REMARK H PARENT
REMARK Flexibility Score: inf
ROOT
ATOM      1  C   UNL     1      -7.168  18.444 -11.166  1.00  0.00     0.000 C 
ENDROOT
BRANCH   1   2
ATOM      2  C   UNL     1      -7.058  18.307  -9.640  1.00  0.00     0.000 C 
BRANCH   2   3
ATOM      3  C   UNL     1      -6.985  16.843  -9.178  1.00  0.00     0.000 C 
BRANCH   3   4
ATOM      4  C   UNL     1      -5.604  16.241  -9.474  1.00  0.00     0.000 C 
BRANCH   4   5
ATOM      5  C   UNL     1      -4.587  16.478  -8.343  1.00  0.00     0.006 C 
BRANCH   5   6
ATOM      6  C   UNL     1      -5.202  16.445  -6.932  1.00  0.00     0.053 C 
BRANCH   6   7
ATOM      7  C   UNL     1      -4.772  17.603  -6.085  1.00  0.00     0.041 C 
ATOM      8  O   UNL     1      -4.335  17.411  -4.919  1.00  0.00    -0.550 OA
ATOM      9  O   UNL     1      -4.884  18.900  -6.570  1.00  0.00    -0.550 OA
ENDBRANCH   6   7
ENDBRANCH   5   6
ENDBRANCH   4   5
ENDBRANCH   3   4
ENDBRANCH   2   3
ENDBRANCH   1   2
BRANCH   1  10
ATOM     10  C   UNL     1      -7.373  19.901 -11.617  1.00  0.00     0.000 C 
BRANCH  10  11
ATOM     11  C   UNL     1      -7.938  20.004 -13.043  1.00  0.00    -0.000 C 
BRANCH  11  12
ATOM     12  C   UNL     1      -9.372  19.457 -13.152  1.00  0.00    -0.000 C 
BRANCH  12  13
ATOM     13  C   UNL     1     -10.338  20.131 -12.163  1.00  0.00    -0.000 C 
BRANCH  13  14
ATOM     14  C   UNL     1     -10.907  19.144 -11.127  1.00  0.00    -0.000 C 
BRANCH  14  15
ATOM     15  C   UNL     1     -11.090  17.731 -11.700  1.00  0.00    -0.003 C 
ATOM     16  C   UNL     1     -10.369  16.661 -10.880  1.00  0.00     0.004 C 
ENDBRANCH  14  15
ENDBRANCH  13  14
ENDBRANCH  12  13
ENDBRANCH  11  12
ENDBRANCH  10  11
ENDBRANCH   1  10
TORSDOF 12
ENDMDL
MODEL 8
REMARK VINA RESULT:    -3.378      1.529      2.445
REMARK INTER + INTRA:          -7.360
REMARK INTER:                  -6.305
REMARK INTRA:                  -1.055
REMARK UNBOUND:                -1.613
REMARK SMILES CCCCCCCCCCCCCC(=O)[O-]
REMARK SMILES IDX 8 1 9 2 10 3 11 4 12 5 13 6 14 7 15 8 16 9 7 10 6 11 5 12
REMARK SMILES IDX 4 13 3 14 2 15 1 16
REMARK H PARENT
REMARK Flexibility Score: inf
ROOT
ATOM      1  C   UNL     1      -6.081  18.557 -10.950  1.00  0.00     0.000 C 
ENDROOT
BRANCH   1   2
ATOM      2  C   UNL     1      -7.390  18.736 -10.165  1.00  0.00     0.000 C 
BRANCH   2   3
ATOM      3  C   UNL     1      -8.637  18.604 -11.053  1.00  0.00     0.000 C 
BRANCH   3   4
ATOM      4  C   UNL     1      -9.229  17.190 -10.964  1.00  0.00     0.000 C 
BRANCH   4   5
ATOM      5  C   UNL     1     -10.287  16.910 -12.046  1.00  0.00     0.006 C 
BRANCH   5   6
ATOM      6  C   UNL     1     -11.642  17.593 -11.787  1.00  0.00     0.053 C 
BRANCH   6   7
ATOM      7  C   UNL     1     -11.888  18.759 -12.696  1.00  0.00     0.041 C 
ATOM      8  O   UNL     1     -12.041  19.915 -12.220  1.00  0.00    -0.550 OA
ATOM      9  O   UNL     1     -11.979  18.565 -14.068  1.00  0.00    -0.550 OA
ENDBRANCH   6   7
ENDBRANCH   5   6
ENDBRANCH   4   5
ENDBRANCH   3   4
ENDBRANCH   2   3
ENDBRANCH   1   2
BRANCH   1  10
ATOM     10  C   UNL     1      -5.302  17.299 -10.523  1.00  0.00     0.000 C 
BRANCH  10  11
ATOM     11  C   UNL     1      -5.956  16.576  -9.334  1.00  0.00    -0.000 C 
BRANCH  11  12
ATOM     12  C   UNL     1      -4.956  16.276  -8.203  1.00  0.00    -0.000 C 
BRANCH  12  13
ATOM     13  C   UNL     1      -5.382  16.892  -6.860  1.00  0.00    -0.000 C 
BRANCH  13  14
ATOM     14  C   UNL     1      -4.251  17.696  -6.193  1.00  0.00    -0.000 C 
BRANCH  14  15
ATOM     15  C   UNL     1      -4.594  19.187  -6.054  1.00  0.00    -0.003 C 
ATOM     16  C   UNL     1      -5.266  19.760  -7.302  1.00  0.00     0.004 C 
ENDBRANCH  14  15
ENDBRANCH  13  14
ENDBRANCH  12  13
ENDBRANCH  11  12
ENDBRANCH  10  11
ENDBRANCH   1  10
TORSDOF 12
ENDMDL
MODEL 9
REMARK VINA RESULT:    -3.360      2.114      6.258
REMARK INTER + INTRA:          -7.330
REMARK INTER:                  -6.206
REMARK INTRA:                  -1.124
REMARK UNBOUND:                -1.613
REMARK SMILES CCCCCCCCCCCCCC(=O)[O-]
REMARK SMILES IDX 8 1 9 2 10 3 11 4 12 5 13 6 14 7 15 8 16 9 7 10 6 11 5 12
REMARK SMILES IDX 4 13 3 14 2 15 1 16
REMARK H PARENT
REMARK Flexibility Score: inf
ROOT
ATOM      1  C   UNL     1      -6.599  19.688  -9.803  1.00  0.00     0.000 C 
ENDROOT
BRANCH   1   2
ATOM      2  C   UNL     1      -7.078  19.930  -8.364  1.00  0.00     0.000 C 
BRANCH   2   3
ATOM      3  C   UNL     1      -5.920  20.002  -7.356  1.00  0.00     0.000 C 
BRANCH   3   4
ATOM      4  C   UNL     1      -4.910  18.871  -7.596  1.00  0.00     0.000 C 
BRANCH   4   5
ATOM      5  C   UNL     1      -4.935  17.796  -6.495  1.00  0.00     0.006 C 
BRANCH   5   6
ATOM      6  C   UNL     1      -5.131  16.363  -7.024  1.00  0.00     0.053 C 
BRANCH   6   7
ATOM      7  C   UNL     1      -5.906  16.319  -8.306  1.00  0.00     0.041 C 
ATOM      8  O   UNL     1      -5.304  16.232  -9.409  1.00  0.00    -0.550 OA
ATOM      9  O   UNL     1      -7.292  16.406  -8.285  1.00  0.00    -0.550 OA
ENDBRANCH   6   7
ENDBRANCH   5   6
ENDBRANCH   4   5
ENDBRANCH   3   4
ENDBRANCH   2   3
ENDBRANCH   1   2
BRANCH   1  10
ATOM     10  C   UNL     1      -7.592  18.848 -10.625  1.00  0.00     0.000 C 
BRANCH  10  11
ATOM     11  C   UNL     1      -7.805  19.404 -12.042  1.00  0.00    -0.000 C 
BRANCH  11  12
ATOM     12  C   UNL     1      -9.222  19.968 -12.250  1.00  0.00    -0.000 C 
BRANCH  12  13
ATOM     13  C   UNL     1     -10.263  19.301 -11.336  1.00  0.00    -0.000 C 
BRANCH  13  14
ATOM     14  C   UNL     1     -11.492  18.792 -12.112  1.00  0.00    -0.000 C 
BRANCH  14  15
ATOM     15  C   UNL     1     -11.671  17.270 -11.998  1.00  0.00    -0.003 C 
ATOM     16  C   UNL     1     -10.404  16.558 -11.525  1.00  0.00     0.004 C 
ENDBRANCH  14  15
ENDBRANCH  13  14
ENDBRANCH  12  13
ENDBRANCH  11  12
ENDBRANCH  10  11
ENDBRANCH   1  10
TORSDOF 12
ENDMDL
