MODEL 1
REMARK VINA RESULT:    -4.120      0.000      0.000
REMARK INTER + INTRA:          -9.725
REMARK INTER:                  -7.492
REMARK INTRA:                  -2.233
REMARK UNBOUND:                -2.233
REMARK SMILES CCCCCCCCCCCCCCCC(=O)[O-]
REMARK SMILES IDX 9 1 10 2 11 3 12 4 13 5 14 6 15 7 16 8 17 9 18 10 8 11 7 12
REMARK SMILES IDX 6 13 5 14 4 15 3 16 2 17 1 18
REMARK H PARENT
REMARK Flexibility Score: inf
ROOT
ATOM      1  C   UNL     1      15.911  22.254  23.998  1.00  0.00     0.000 C 
ENDROOT
BRANCH   1   2
ATOM      2  C   UNL     1      15.053  23.204  23.147  1.00  0.00     0.000 C 
BRANCH   2   3
ATOM      3  C   UNL     1      13.698  22.600  22.755  1.00  0.00     0.000 C 
BRANCH   3   4
ATOM      4  C   UNL     1      13.843  21.646  21.564  1.00  0.00     0.000 C 
BRANCH   4   5
ATOM      5  C   UNL     1      14.781  22.235  20.500  1.00  0.00     0.000 C 
BRANCH   5   6
ATOM      6  C   UNL     1      14.025  22.988  19.389  1.00  0.00     0.006 C 
BRANCH   6   7
ATOM      7  C   UNL     1      12.529  22.649  19.300  1.00  0.00     0.053 C 
BRANCH   7   8
ATOM      8  C   UNL     1      11.670  23.870  19.424  1.00  0.00     0.041 C 
ATOM      9  O   UNL     1      11.044  24.309  18.423  1.00  0.00    -0.550 OA
ATOM     10  O   UNL     1      11.537  24.505  20.652  1.00  0.00    -0.550 OA
ENDBRANCH   7   8
ENDBRANCH   6   7
ENDBRANCH   5   6
ENDBRANCH   4   5
ENDBRANCH   3   4
ENDBRANCH   2   3
ENDBRANCH   1   2
BRANCH   1  11
ATOM     11  C   UNL     1      17.292  21.950  23.379  1.00  0.00     0.000 C 
BRANCH  11  12
ATOM     12  C   UNL     1      17.531  20.439  23.205  1.00  0.00    -0.000 C 
BRANCH  12  13
ATOM     13  C   UNL     1      17.595  20.016  21.729  1.00  0.00    -0.000 C 
BRANCH  13  14
ATOM     14  C   UNL     1      17.100  18.576  21.505  1.00  0.00    -0.000 C 
BRANCH  14  15
ATOM     15  C   UNL     1      15.567  18.480  21.472  1.00  0.00    -0.000 C 
BRANCH  15  16
ATOM     16  C   UNL     1      14.996  17.732  22.689  1.00  0.00    -0.000 C 
BRANCH  16  17
ATOM     17  C   UNL     1      14.393  18.683  23.733  1.00  0.00    -0.003 C 
ATOM     18  C   UNL     1      15.053  18.549  25.106  1.00  0.00     0.004 C 
ENDBRANCH  16  17
ENDBRANCH  15  16
ENDBRANCH  14  15
ENDBRANCH  13  14
ENDBRANCH  12  13
ENDBRANCH  11  12
ENDBRANCH   1  11
TORSDOF 14
ENDMDL
MODEL 2
REMARK VINA RESULT:    -3.993      2.654      4.571
REMARK INTER + INTRA:          -9.493
REMARK INTER:                  -7.263
REMARK INTRA:                  -2.230
REMARK UNBOUND:                -2.233
REMARK SMILES CCCCCCCCCCCCCCCC(=O)[O-]
REMARK SMILES IDX 9 1 10 2 11 3 12 4 13 5 14 6 15 7 16 8 17 9 18 10 8 11 7 12
REMARK SMILES IDX 6 13 5 14 4 15 3 16 2 17 1 18
REMARK H PARENT
REMARK Flexibility Score: inf
ROOT
ATOM      1  C   UNL     1      17.184  18.359  21.452  1.00  0.00     0.000 C 
ENDROOT
BRANCH   1   2
ATOM      2  C   UNL     1      17.384  19.879  21.574  1.00  0.00     0.000 C 
BRANCH   2   3
ATOM      3  C   UNL     1      17.732  20.325  23.001  1.00  0.00     0.000 C 
BRANCH   3   4
ATOM      4  C   UNL     1      16.696  21.321  23.535  1.00  0.00     0.000 C 
BRANCH   4   5
ATOM      5  C   UNL     1      15.666  21.676  22.452  1.00  0.00     0.000 C 
BRANCH   5   6
ATOM      6  C   UNL     1      14.390  22.318  23.029  1.00  0.00     0.006 C 
BRANCH   6   7
ATOM      7  C   UNL     1      14.381  22.439  24.561  1.00  0.00     0.053 C 
BRANCH   7   8
ATOM      8  C   UNL     1      14.252  23.863  25.009  1.00  0.00     0.041 C 
ATOM      9  O   UNL     1      13.684  24.711  24.271  1.00  0.00    -0.550 OA
ATOM     10  O   UNL     1      14.732  24.246  26.254  1.00  0.00    -0.550 OA
ENDBRANCH   7   8
ENDBRANCH   6   7
ENDBRANCH   5   6
ENDBRANCH   4   5
ENDBRANCH   3   4
ENDBRANCH   2   3
ENDBRANCH   1   2
BRANCH   1  11
ATOM     11  C   UNL     1      15.714  17.946  21.228  1.00  0.00     0.000 C 
BRANCH  11  12
ATOM     12  C   UNL     1      15.054  17.429  22.519  1.00  0.00    -0.000 C 
BRANCH  12  13
ATOM     13  C   UNL     1      13.830  18.261  22.932  1.00  0.00    -0.000 C 
BRANCH  13  14
ATOM     14  C   UNL     1      13.958  18.838  24.352  1.00  0.00    -0.000 C 
BRANCH  14  15
ATOM     15  C   UNL     1      15.143  18.237  25.126  1.00  0.00    -0.000 C 
BRANCH  15  16
ATOM     16  C   UNL     1      14.841  18.060  26.624  1.00  0.00    -0.000 C 
BRANCH  16  17
ATOM     17  C   UNL     1      13.334  17.992  26.916  1.00  0.00    -0.003 C 
ATOM     18  C   UNL     1      12.836  16.561  27.124  1.00  0.00     0.004 C 
ENDBRANCH  16  17
ENDBRANCH  15  16
ENDBRANCH  14  15
ENDBRANCH  13  14
ENDBRANCH  12  13
ENDBRANCH  11  12
ENDBRANCH   1  11
TORSDOF 14
ENDMDL
MODEL 3
REMARK VINA RESULT:    -3.902      3.443      5.855
REMARK INTER + INTRA:          -9.328
REMARK INTER:                  -7.854
REMARK INTRA:                  -1.474
REMARK UNBOUND:                -2.233
REMARK SMILES CCCCCCCCCCCCCCCC(=O)[O-]
REMARK SMILES IDX 9 1 10 2 11 3 12 4 13 5 14 6 15 7 16 8 17 9 18 10 8 11 7 12
REMARK SMILES IDX 6 13 5 14 4 15 3 16 2 17 1 18
REMARK H PARENT
REMARK Flexibility Score: inf
ROOT
ATOM      1  C   UNL     1      16.241  19.710  23.749  1.00  0.00     0.000 C 
ENDROOT
BRANCH   1   2
ATOM      2  C   UNL     1      15.646  18.824  22.642  1.00  0.00     0.000 C 
BRANCH   2   3
ATOM      3  C   UNL     1      16.587  18.651  21.442  1.00  0.00     0.000 C 
BRANCH   3   4
ATOM      4  C   UNL     1      16.483  17.237  20.859  1.00  0.00     0.000 C 
BRANCH   4   5
ATOM      5  C   UNL     1      15.430  16.409  21.610  1.00  0.00     0.000 C 
BRANCH   5   6
ATOM      6  C   UNL     1      14.450  15.690  20.664  1.00  0.00     0.006 C 
BRANCH   6   7
ATOM      7  C   UNL     1      13.411  16.614  20.009  1.00  0.00     0.053 C 
BRANCH   7   8
ATOM      8  C   UNL     1      12.515  15.869  19.067  1.00  0.00     0.041 C 
ATOM      9  O   UNL     1      12.653  16.004  17.822  1.00  0.00    -0.550 OA
ATOM     10  O   UNL     1      11.551  15.002  19.563  1.00  0.00    -0.550 OA
ENDBRANCH   7   8
ENDBRANCH   6   7
ENDBRANCH   5   6
ENDBRANCH   4   5
ENDBRANCH   3   4
ENDBRANCH   2   3
ENDBRANCH   1   2
BRANCH   1  11
ATOM     11  C   UNL     1      17.482  20.511  23.298  1.00  0.00     0.000 C 
BRANCH  11  12
ATOM     12  C   UNL     1      17.374  22.003  23.661  1.00  0.00    -0.000 C 
BRANCH  12  13
ATOM     13  C   UNL     1      15.985  22.381  24.199  1.00  0.00    -0.000 C 
BRANCH  13  14
ATOM     14  C   UNL     1      15.271  23.418  23.315  1.00  0.00    -0.000 C 
BRANCH  14  15
ATOM     15  C   UNL     1      14.184  22.787  22.430  1.00  0.00    -0.000 C 
BRANCH  15  16
ATOM     16  C   UNL     1      14.764  22.101  21.182  1.00  0.00    -0.000 C 
BRANCH  16  17
ATOM     17  C   UNL     1      13.953  22.404  19.913  1.00  0.00    -0.003 C 
ATOM     18  C   UNL     1      14.711  23.291  18.925  1.00  0.00     0.004 C 
ENDBRANCH  16  17
ENDBRANCH  15  16
ENDBRANCH  14  15
ENDBRANCH  13  14
ENDBRANCH  12  13
ENDBRANCH  11  12
ENDBRANCH   1  11
TORSDOF 14
ENDMDL
MODEL 4
REMARK VINA RESULT:    -3.861      3.002      5.809
REMARK INTER + INTRA:          -9.253
REMARK INTER:                  -7.392
REMARK INTRA:                  -1.861
REMARK UNBOUND:                -2.233
REMARK SMILES CCCCCCCCCCCCCCCC(=O)[O-]
REMARK SMILES IDX 9 1 10 2 11 3 12 4 13 5 14 6 15 7 16 8 17 9 18 10 8 11 7 12
REMARK SMILES IDX 6 13 5 14 4 15 3 16 2 17 1 18
REMARK H PARENT
REMARK Flexibility Score: inf
ROOT
ATOM      1  C   UNL     1      14.992  22.007  24.218  1.00  0.00     0.000 C 
ENDROOT
BRANCH   1   2
ATOM      2  C   UNL     1      16.341  22.744  24.250  1.00  0.00     0.000 C 
BRANCH   2   3
ATOM      3  C   UNL     1      17.435  22.028  23.446  1.00  0.00     0.000 C 
BRANCH   3   4
ATOM      4  C   UNL     1      17.144  20.527  23.334  1.00  0.00     0.000 C 
BRANCH   4   5
ATOM      5  C   UNL     1      17.698  19.956  22.021  1.00  0.00     0.000 C 
BRANCH   5   6
ATOM      6  C   UNL     1      16.951  18.693  21.555  1.00  0.00     0.006 C 
BRANCH   6   7
ATOM      7  C   UNL     1      15.441  18.709  21.844  1.00  0.00     0.053 C 
BRANCH   7   8
ATOM      8  C   UNL     1      14.949  17.378  22.326  1.00  0.00     0.041 C 
ATOM      9  O   UNL     1      13.998  17.314  23.148  1.00  0.00    -0.550 OA
ATOM     10  O   UNL     1      15.522  16.209  21.841  1.00  0.00    -0.550 OA
ENDBRANCH   7   8
ENDBRANCH   6   7
ENDBRANCH   5   6
ENDBRANCH   4   5
ENDBRANCH   3   4
ENDBRANCH   2   3
ENDBRANCH   1   2
BRANCH   1  11
ATOM     11  C   UNL     1      13.780  22.946  24.040  1.00  0.00     0.000 C 
BRANCH  11  12
ATOM     12  C   UNL     1      13.410  23.143  22.558  1.00  0.00    -0.000 C 
BRANCH  12  13
ATOM     13  C   UNL     1      13.765  21.924  21.693  1.00  0.00    -0.000 C 
BRANCH  13  14
ATOM     14  C   UNL     1      14.708  22.279  20.530  1.00  0.00    -0.000 C 
BRANCH  14  15
ATOM     15  C   UNL     1      13.946  22.706  19.265  1.00  0.00    -0.000 C 
BRANCH  15  16
ATOM     16  C   UNL     1      12.544  22.078  19.181  1.00  0.00    -0.000 C 
BRANCH  16  17
ATOM     17  C   UNL     1      11.461  23.106  18.819  1.00  0.00    -0.003 C 
ATOM     18  C   UNL     1      11.530  24.367  19.680  1.00  0.00     0.004 C 
ENDBRANCH  16  17
ENDBRANCH  15  16
ENDBRANCH  14  15
ENDBRANCH  13  14
ENDBRANCH  12  13
ENDBRANCH  11  12
ENDBRANCH   1  11
TORSDOF 14
ENDMDL
MODEL 5
REMARK VINA RESULT:    -3.834      7.614     10.475
REMARK INTER + INTRA:          -9.205
REMARK INTER:                  -7.501
REMARK INTRA:                  -1.704
REMARK UNBOUND:                -2.233
REMARK SMILES CCCCCCCCCCCCCCCC(=O)[O-]
REMARK SMILES IDX 9 1 10 2 11 3 12 4 13 5 14 6 15 7 16 8 17 9 18 10 8 11 7 12
REMARK SMILES IDX 6 13 5 14 4 15 3 16 2 17 1 18
REMARK H PARENT
REMARK Flexibility Score: inf
ROOT
ATOM      1  C   UNL     1      11.036  16.821  27.965  1.00  0.00     0.000 C 
ENDROOT
BRANCH   1   2
ATOM      2  C   UNL     1      12.526  16.581  27.675  1.00  0.00     0.000 C 
BRANCH   2   3
ATOM      3  C   UNL     1      13.023  17.328  26.430  1.00  0.00     0.000 C 
BRANCH   3   4
ATOM      4  C   UNL     1      13.850  18.559  26.818  1.00  0.00     0.000 C 
BRANCH   4   5
ATOM      5  C   UNL     1      12.944  19.771  27.079  1.00  0.00     0.000 C 
BRANCH   5   6
ATOM      6  C   UNL     1      13.106  20.343  28.500  1.00  0.00     0.006 C 
BRANCH   6   7
ATOM      7  C   UNL     1      11.934  20.035  29.444  1.00  0.00     0.053 C 
BRANCH   7   8
ATOM      8  C   UNL     1      12.046  20.781  30.738  1.00  0.00     0.041 C 
ATOM      9  O   UNL     1      11.129  20.702  31.598  1.00  0.00    -0.550 OA
ATOM     10  O   UNL     1      13.178  21.539  31.007  1.00  0.00    -0.550 OA
ENDBRANCH   7   8
ENDBRANCH   6   7
ENDBRANCH   5   6
ENDBRANCH   4   5
ENDBRANCH   3   4
ENDBRANCH   2   3
ENDBRANCH   1   2
BRANCH   1  11
ATOM     11  C   UNL     1      10.575  16.263  29.329  1.00  0.00     0.000 C 
BRANCH  11  12
ATOM     12  C   UNL     1      11.754  16.040  30.293  1.00  0.00    -0.000 C 
BRANCH  12  13
ATOM     13  C   UNL     1      11.587  16.801  31.617  1.00  0.00    -0.000 C 
BRANCH  13  14
ATOM     14  C   UNL     1      10.914  15.948  32.707  1.00  0.00    -0.000 C 
BRANCH  14  15
ATOM     15  C   UNL     1       9.392  16.151  32.756  1.00  0.00    -0.000 C 
BRANCH  15  16
ATOM     16  C   UNL     1       8.615  14.844  32.523  1.00  0.00    -0.000 C 
BRANCH  16  17
ATOM     17  C   UNL     1       9.529  13.685  32.096  1.00  0.00    -0.003 C 
ATOM     18  C   UNL     1       9.233  13.188  30.681  1.00  0.00     0.004 C 
ENDBRANCH  16  17
ENDBRANCH  15  16
ENDBRANCH  14  15
ENDBRANCH  13  14
ENDBRANCH  12  13
ENDBRANCH  11  12
ENDBRANCH   1  11
TORSDOF 14
ENDMDL
MODEL 6
REMARK VINA RESULT:    -3.771      4.222      7.105
REMARK INTER + INTRA:          -9.091
REMARK INTER:                  -7.583
REMARK INTRA:                  -1.508
REMARK UNBOUND:                -2.233
REMARK SMILES CCCCCCCCCCCCCCCC(=O)[O-]
REMARK SMILES IDX 9 1 10 2 11 3 12 4 13 5 14 6 15 7 16 8 17 9 18 10 8 11 7 12
REMARK SMILES IDX 6 13 5 14 4 15 3 16 2 17 1 18
REMARK H PARENT
REMARK Flexibility Score: inf
ROOT
ATOM      1  C   UNL     1      14.898  19.633  24.511  1.00  0.00     0.000 C 
ENDROOT
BRANCH   1   2
ATOM      2  C   UNL     1      14.792  18.146  24.888  1.00  0.00     0.000 C 
BRANCH   2   3
ATOM      3  C   UNL     1      14.803  17.910  26.404  1.00  0.00     0.000 C 
BRANCH   3   4
ATOM      4  C   UNL     1      13.490  17.272  26.873  1.00  0.00     0.000 C 
BRANCH   4   5
ATOM      5  C   UNL     1      12.422  18.344  27.135  1.00  0.00     0.000 C 
BRANCH   5   6
ATOM      6  C   UNL     1      12.976  19.567  27.891  1.00  0.00     0.006 C 
BRANCH   6   7
ATOM      7  C   UNL     1      12.410  19.743  29.308  1.00  0.00     0.053 C 
BRANCH   7   8
ATOM      8  C   UNL     1      12.707  21.102  29.865  1.00  0.00     0.041 C 
ATOM      9  O   UNL     1      13.846  21.358  30.338  1.00  0.00    -0.550 OA
ATOM     10  O   UNL     1      11.736  22.094  29.832  1.00  0.00    -0.550 OA
ENDBRANCH   7   8
ENDBRANCH   6   7
ENDBRANCH   5   6
ENDBRANCH   4   5
ENDBRANCH   3   4
ENDBRANCH   2   3
ENDBRANCH   1   2
BRANCH   1  11
ATOM     11  C   UNL     1      15.736  19.889  23.240  1.00  0.00     0.000 C 
BRANCH  11  12
ATOM     12  C   UNL     1      17.170  20.339  23.571  1.00  0.00    -0.000 C 
BRANCH  12  13
ATOM     13  C   UNL     1      17.454  21.784  23.132  1.00  0.00    -0.000 C 
BRANCH  13  14
ATOM     14  C   UNL     1      17.274  22.795  24.277  1.00  0.00    -0.000 C 
BRANCH  14  15
ATOM     15  C   UNL     1      16.129  23.787  24.012  1.00  0.00    -0.000 C 
BRANCH  15  16
ATOM     16  C   UNL     1      15.113  23.837  25.166  1.00  0.00    -0.000 C 
BRANCH  16  17
ATOM     17  C   UNL     1      13.791  23.137  24.816  1.00  0.00    -0.003 C 
ATOM     18  C   UNL     1      13.550  23.049  23.309  1.00  0.00     0.004 C 
ENDBRANCH  16  17
ENDBRANCH  15  16
ENDBRANCH  14  15
ENDBRANCH  13  14
ENDBRANCH  12  13
ENDBRANCH  11  12
ENDBRANCH   1  11
TORSDOF 14
ENDMDL
MODEL 7
REMARK VINA RESULT:    -3.709      5.646      8.381
REMARK INTER + INTRA:          -8.976
REMARK INTER:                  -7.528
REMARK INTRA:                  -1.449
REMARK UNBOUND:                -2.233
REMARK SMILES CCCCCCCCCCCCCCCC(=O)[O-]
REMARK SMILES IDX 9 1 10 2 11 3 12 4 13 5 14 6 15 7 16 8 17 9 18 10 8 11 7 12
REMARK SMILES IDX 6 13 5 14 4 15 3 16 2 17 1 18
REMARK H PARENT
REMARK Flexibility Score: inf
ROOT
ATOM      1  C   UNL     1      15.177  18.491  25.284  1.00  0.00     0.000 C 
ENDROOT
BRANCH   1   2
ATOM      2  C   UNL     1      14.723  17.748  26.551  1.00  0.00     0.000 C 
BRANCH   2   3
ATOM      3  C   UNL     1      13.201  17.777  26.749  1.00  0.00     0.000 C 
BRANCH   3   4
ATOM      4  C   UNL     1      12.640  16.360  26.922  1.00  0.00     0.000 C 
BRANCH   4   5
ATOM      5  C   UNL     1      11.767  16.265  28.182  1.00  0.00     0.000 C 
BRANCH   5   6
ATOM      6  C   UNL     1      11.783  17.558  29.018  1.00  0.00     0.006 C 
BRANCH   6   7
ATOM      7  C   UNL     1      10.850  17.532  30.239  1.00  0.00     0.053 C 
BRANCH   7   8
ATOM      8  C   UNL     1      11.104  16.342  31.113  1.00  0.00     0.041 C 
ATOM      9  O   UNL     1      12.247  16.149  31.606  1.00  0.00    -0.550 OA
ATOM     10  O   UNL     1      10.070  15.463  31.408  1.00  0.00    -0.550 OA
ENDBRANCH   7   8
ENDBRANCH   6   7
ENDBRANCH   5   6
ENDBRANCH   4   5
ENDBRANCH   3   4
ENDBRANCH   2   3
ENDBRANCH   1   2
BRANCH   1  11
ATOM     11  C   UNL     1      14.025  19.190  24.532  1.00  0.00     0.000 C 
BRANCH  11  12
ATOM     12  C   UNL     1      13.979  18.795  23.045  1.00  0.00    -0.000 C 
BRANCH  12  13
ATOM     13  C   UNL     1      15.038  17.743  22.679  1.00  0.00    -0.000 C 
BRANCH  13  14
ATOM     14  C   UNL     1      15.738  18.049  21.344  1.00  0.00    -0.000 C 
BRANCH  14  15
ATOM     15  C   UNL     1      17.162  18.596  21.538  1.00  0.00    -0.000 C 
BRANCH  15  16
ATOM     16  C   UNL     1      17.185  20.120  21.744  1.00  0.00    -0.000 C 
BRANCH  16  17
ATOM     17  C   UNL     1      17.586  20.514  23.174  1.00  0.00    -0.003 C 
ATOM     18  C   UNL     1      16.985  21.851  23.609  1.00  0.00     0.004 C 
ENDBRANCH  16  17
ENDBRANCH  15  16
ENDBRANCH  14  15
ENDBRANCH  13  14
ENDBRANCH  12  13
ENDBRANCH  11  12
ENDBRANCH   1  11
TORSDOF 14
ENDMDL
MODEL 8
REMARK VINA RESULT:    -3.678      8.617     11.706
REMARK INTER + INTRA:          -8.920
REMARK INTER:                  -6.908
REMARK INTRA:                  -2.012
REMARK UNBOUND:                -2.233
REMARK SMILES CCCCCCCCCCCCCCCC(=O)[O-]
REMARK SMILES IDX 9 1 10 2 11 3 12 4 13 5 14 6 15 7 16 8 17 9 18 10 8 11 7 12
REMARK SMILES IDX 6 13 5 14 4 15 3 16 2 17 1 18
REMARK H PARENT
REMARK Flexibility Score: inf
ROOT
ATOM      1  C   UNL     1      10.896  16.338  29.604  1.00  0.00     0.000 C 
ENDROOT
BRANCH   1   2
ATOM      2  C   UNL     1      11.943  15.885  30.634  1.00  0.00     0.000 C 
BRANCH   2   3
ATOM      3  C   UNL     1      11.560  16.242  32.076  1.00  0.00     0.000 C 
BRANCH   3   4
ATOM      4  C   UNL     1      10.268  17.066  32.115  1.00  0.00     0.000 C 
BRANCH   4   5
ATOM      5  C   UNL     1       9.201  16.374  32.978  1.00  0.00     0.000 C 
BRANCH   5   6
ATOM      6  C   UNL     1       9.089  14.865  32.691  1.00  0.00     0.006 C 
BRANCH   6   7
ATOM      7  C   UNL     1       8.059  14.502  31.610  1.00  0.00     0.053 C 
BRANCH   7   8
ATOM      8  C   UNL     1       8.459  13.278  30.844  1.00  0.00     0.041 C 
ATOM      9  O   UNL     1       9.574  13.232  30.260  1.00  0.00    -0.550 OA
ATOM     10  O   UNL     1       7.614  12.178  30.801  1.00  0.00    -0.550 OA
ENDBRANCH   7   8
ENDBRANCH   6   7
ENDBRANCH   5   6
ENDBRANCH   4   5
ENDBRANCH   3   4
ENDBRANCH   2   3
ENDBRANCH   1   2
BRANCH   1  11
ATOM     11  C   UNL     1      11.384  16.240  28.143  1.00  0.00     0.000 C 
BRANCH  11  12
ATOM     12  C   UNL     1      11.577  17.626  27.501  1.00  0.00    -0.000 C 
BRANCH  12  13
ATOM     13  C   UNL     1      13.058  18.004  27.345  1.00  0.00    -0.000 C 
BRANCH  13  14
ATOM     14  C   UNL     1      13.256  19.493  27.013  1.00  0.00    -0.000 C 
BRANCH  14  15
ATOM     15  C   UNL     1      12.479  20.416  27.965  1.00  0.00    -0.000 C 
BRANCH  15  16
ATOM     16  C   UNL     1      13.079  20.442  29.382  1.00  0.00    -0.000 C 
BRANCH  16  17
ATOM     17  C   UNL     1      12.105  19.907  30.443  1.00  0.00    -0.003 C 
ATOM     18  C   UNL     1      10.641  20.155  30.080  1.00  0.00     0.004 C 
ENDBRANCH  16  17
ENDBRANCH  15  16
ENDBRANCH  14  15
ENDBRANCH  13  14
ENDBRANCH  12  13
ENDBRANCH  11  12
ENDBRANCH   1  11
TORSDOF 14
ENDMDL
MODEL 9
REMARK VINA RESULT:    -3.662      4.249      6.491
REMARK INTER + INTRA:          -8.892
REMARK INTER:                  -7.306
REMARK INTRA:                  -1.585
REMARK UNBOUND:                -2.233
REMARK SMILES CCCCCCCCCCCCCCCC(=O)[O-]
REMARK SMILES IDX 9 1 10 2 11 3 12 4 13 5 14 6 15 7 16 8 17 9 18 10 8 11 7 12
REMARK SMILES IDX 6 13 5 14 4 15 3 16 2 17 1 18
REMARK H PARENT
REMARK Flexibility Score: inf
ROOT
ATOM      1  C   UNL     1      14.366  19.875  24.764  1.00  0.00     0.000 C 
ENDROOT
BRANCH   1   2
ATOM      2  C   UNL     1      15.010  18.533  25.148  1.00  0.00     0.000 C 
BRANCH   2   3
ATOM      3  C   UNL     1      14.706  18.113  26.593  1.00  0.00     0.000 C 
BRANCH   3   4
ATOM      4  C   UNL     1      13.453  17.233  26.659  1.00  0.00     0.000 C 
BRANCH   4   5
ATOM      5  C   UNL     1      12.434  17.803  27.657  1.00  0.00     0.000 C 
BRANCH   5   6
ATOM      6  C   UNL     1      12.630  19.308  27.917  1.00  0.00     0.006 C 
BRANCH   6   7
ATOM      7  C   UNL     1      12.219  19.765  29.325  1.00  0.00     0.053 C 
BRANCH   7   8
ATOM      8  C   UNL     1      12.394  21.242  29.508  1.00  0.00     0.041 C 
ATOM      9  O   UNL     1      11.967  21.807  30.549  1.00  0.00    -0.550 OA
ATOM     10  O   UNL     1      13.056  21.988  28.541  1.00  0.00    -0.550 OA
ENDBRANCH   7   8
ENDBRANCH   6   7
ENDBRANCH   5   6
ENDBRANCH   4   5
ENDBRANCH   3   4
ENDBRANCH   2   3
ENDBRANCH   1   2
BRANCH   1  11
ATOM     11  C   UNL     1      15.098  20.606  23.618  1.00  0.00     0.000 C 
BRANCH  11  12
ATOM     12  C   UNL     1      16.492  20.010  23.347  1.00  0.00    -0.000 C 
BRANCH  12  13
ATOM     13  C   UNL     1      16.767  19.807  21.849  1.00  0.00    -0.000 C 
BRANCH  13  14
ATOM     14  C   UNL     1      17.471  18.472  21.553  1.00  0.00    -0.000 C 
BRANCH  14  15
ATOM     15  C   UNL     1      16.570  17.489  20.788  1.00  0.00    -0.000 C 
BRANCH  15  16
ATOM     16  C   UNL     1      15.482  16.868  21.681  1.00  0.00    -0.000 C 
BRANCH  16  17
ATOM     17  C   UNL     1      14.068  17.322  21.288  1.00  0.00    -0.003 C 
ATOM     18  C   UNL     1      13.041  17.079  22.395  1.00  0.00     0.004 C 
ENDBRANCH  16  17
ENDBRANCH  15  16
ENDBRANCH  14  15
ENDBRANCH  13  14
ENDBRANCH  12  13
ENDBRANCH  11  12
ENDBRANCH   1  11
TORSDOF 14
ENDMDL
