MODEL 1
REMARK VINA RESULT:     1.393      0.000      0.000
REMARK INTER + INTRA:           2.098
REMARK INTER:                   3.022
REMARK INTRA:                  -0.924
REMARK UNBOUND:                -0.924
REMARK SMILES CCCCCCCCCCCCCCCCCCCCCC(=O)[O-]
REMARK SMILES IDX 12 1 11 2 10 3 9 4 8 5 7 6 6 7 5 8 4 9 3 10 2 11 1 12 13 13
REMARK SMILES IDX 14 14 15 15 16 16 17 17 18 18 19 19 20 20 21 21 22 22 23 23
REMARK SMILES IDX 24 24
REMARK H PARENT
REMARK Flexibility Score: inf
ROOT
ATOM      1  C   UNL     1      -3.169  -5.802 -14.111  1.00  0.00     0.000 C 
ENDROOT
BRANCH   1   2
ATOM      2  C   UNL     1      -4.012  -6.897 -13.437  1.00  0.00     0.000 C 
BRANCH   2   3
ATOM      3  C   UNL     1      -3.749  -8.288 -14.033  1.00  0.00     0.000 C 
BRANCH   3   4
ATOM      4  C   UNL     1      -4.445  -9.378 -13.209  1.00  0.00    -0.000 C 
BRANCH   4   5
ATOM      5  C   UNL     1      -4.142 -10.774 -13.771  1.00  0.00    -0.000 C 
BRANCH   5   6
ATOM      6  C   UNL     1      -5.402 -11.641 -13.929  1.00  0.00    -0.000 C 
BRANCH   6   7
ATOM      7  C   UNL     1      -6.679 -10.806 -14.125  1.00  0.00    -0.000 C 
BRANCH   7   8
ATOM      8  C   UNL     1      -7.625 -10.900 -12.916  1.00  0.00    -0.000 C 
BRANCH   8   9
ATOM      9  C   UNL     1      -8.453  -9.618 -12.722  1.00  0.00    -0.000 C 
BRANCH   9  10
ATOM     10  C   UNL     1      -9.919  -9.785 -13.170  1.00  0.00    -0.000 C 
BRANCH  10  11
ATOM     11  C   UNL     1     -10.940  -9.765 -12.016  1.00  0.00    -0.003 C 
ATOM     12  C   UNL     1     -10.494 -10.601 -10.815  1.00  0.00     0.004 C 
ENDBRANCH  10  11
ENDBRANCH   9  10
ENDBRANCH   8   9
ENDBRANCH   7   8
ENDBRANCH   6   7
ENDBRANCH   5   6
ENDBRANCH   4   5
ENDBRANCH   3   4
ENDBRANCH   2   3
ENDBRANCH   1   2
BRANCH   1  13
ATOM     13  C   UNL     1      -1.660  -6.049 -13.955  1.00  0.00     0.000 C 
BRANCH  13  14
ATOM     14  C   UNL     1      -1.001  -4.934 -13.134  1.00  0.00     0.000 C 
BRANCH  14  15
ATOM     15  C   UNL     1      -0.489  -3.809 -14.047  1.00  0.00     0.000 C 
BRANCH  15  16
ATOM     16  C   UNL     1       1.051  -3.741 -14.104  1.00  0.00     0.000 C 
BRANCH  16  17
ATOM     17  C   UNL     1       1.674  -2.739 -13.114  1.00  0.00     0.000 C 
BRANCH  17  18
ATOM     18  C   UNL     1       3.024  -2.142 -13.546  1.00  0.00     0.000 C 
BRANCH  18  19
ATOM     19  C   UNL     1       3.984  -3.195 -14.122  1.00  0.00     0.000 C 
BRANCH  19  20
ATOM     20  C   UNL     1       5.445  -2.835 -13.813  1.00  0.00     0.006 C 
BRANCH  20  21
ATOM     21  C   UNL     1       5.713  -2.752 -12.304  1.00  0.00     0.053 C 
BRANCH  21  22
ATOM     22  C   UNL     1       6.368  -3.996 -11.788  1.00  0.00     0.041 C 
ATOM     23  O   UNL     1       6.677  -4.095 -10.571  1.00  0.00    -0.550 OA
ATOM     24  O   UNL     1       6.604  -5.062 -12.647  1.00  0.00    -0.550 OA
ENDBRANCH  21  22
ENDBRANCH  20  21
ENDBRANCH  19  20
ENDBRANCH  18  19
ENDBRANCH  17  18
ENDBRANCH  16  17
ENDBRANCH  15  16
ENDBRANCH  14  15
ENDBRANCH  13  14
ENDBRANCH   1  13
TORSDOF 20
ENDMDL
MODEL 2
REMARK VINA RESULT:     3.467     15.808     20.036
REMARK INTER + INTRA:           6.597
REMARK INTER:                   7.422
REMARK INTRA:                  -0.825
REMARK UNBOUND:                -0.924
REMARK SMILES CCCCCCCCCCCCCCCCCCCCCC(=O)[O-]
REMARK SMILES IDX 12 1 11 2 10 3 9 4 8 5 7 6 6 7 5 8 4 9 3 10 2 11 1 12 13 13
REMARK SMILES IDX 14 14 15 15 16 16 17 17 18 18 19 19 20 20 21 21 22 22 23 23
REMARK SMILES IDX 24 24
REMARK H PARENT
REMARK Flexibility Score: inf
ROOT
ATOM      1  C   UNL     1       3.816   7.351  -2.713  1.00  0.00     0.000 C 
ENDROOT
BRANCH   1   2
ATOM      2  C   UNL     1       4.279   7.761  -4.121  1.00  0.00     0.000 C 
BRANCH   2   3
ATOM      3  C   UNL     1       3.465   7.075  -5.228  1.00  0.00     0.000 C 
BRANCH   3   4
ATOM      4  C   UNL     1       3.393   7.955  -6.482  1.00  0.00    -0.000 C 
BRANCH   4   5
ATOM      5  C   UNL     1       3.846   7.180  -7.728  1.00  0.00    -0.000 C 
BRANCH   5   6
ATOM      6  C   UNL     1       4.198   8.100  -8.908  1.00  0.00    -0.000 C 
BRANCH   6   7
ATOM      7  C   UNL     1       4.181   7.368 -10.261  1.00  0.00    -0.000 C 
BRANCH   7   8
ATOM      8  C   UNL     1       5.018   8.097 -11.325  1.00  0.00    -0.000 C 
BRANCH   8   9
ATOM      9  C   UNL     1       4.517   7.817 -12.753  1.00  0.00    -0.000 C 
BRANCH   9  10
ATOM     10  C   UNL     1       3.732   6.495 -12.858  1.00  0.00    -0.000 C 
BRANCH  10  11
ATOM     11  C   UNL     1       2.273   6.660 -13.327  1.00  0.00    -0.003 C 
ATOM     12  C   UNL     1       1.900   8.118 -13.599  1.00  0.00     0.004 C 
ENDBRANCH  10  11
ENDBRANCH   9  10
ENDBRANCH   8   9
ENDBRANCH   7   8
ENDBRANCH   6   7
ENDBRANCH   5   6
ENDBRANCH   4   5
ENDBRANCH   3   4
ENDBRANCH   2   3
ENDBRANCH   1   2
BRANCH   1  13
ATOM     13  C   UNL     1       2.532   8.080  -2.287  1.00  0.00     0.000 C 
BRANCH  13  14
ATOM     14  C   UNL     1       2.405   8.125  -0.760  1.00  0.00     0.000 C 
BRANCH  14  15
ATOM     15  C   UNL     1       2.605   6.728  -0.151  1.00  0.00     0.000 C 
BRANCH  15  16
ATOM     16  C   UNL     1       2.179   6.655   1.329  1.00  0.00     0.000 C 
BRANCH  16  17
ATOM     17  C   UNL     1       3.330   6.329   2.300  1.00  0.00     0.000 C 
BRANCH  17  18
ATOM     18  C   UNL     1       3.189   5.001   3.063  1.00  0.00     0.000 C 
BRANCH  18  19
ATOM     19  C   UNL     1       3.275   5.177   4.587  1.00  0.00     0.000 C 
BRANCH  19  20
ATOM     20  C   UNL     1       1.964   4.749   5.264  1.00  0.00     0.006 C 
BRANCH  20  21
ATOM     21  C   UNL     1       2.093   3.389   5.966  1.00  0.00     0.053 C 
BRANCH  21  22
ATOM     22  C   UNL     1       1.082   2.407   5.460  1.00  0.00     0.041 C 
ATOM     23  O   UNL     1       1.453   1.338   4.908  1.00  0.00    -0.550 OA
ATOM     24  O   UNL     1      -0.274   2.658   5.632  1.00  0.00    -0.550 OA
ENDBRANCH  21  22
ENDBRANCH  20  21
ENDBRANCH  19  20
ENDBRANCH  18  19
ENDBRANCH  17  18
ENDBRANCH  16  17
ENDBRANCH  15  16
ENDBRANCH  14  15
ENDBRANCH  13  14
ENDBRANCH   1  13
TORSDOF 20
ENDMDL
