MODEL 1
REMARK VINA RESULT:    -3.567      0.000      0.000
REMARK INTER + INTRA:          -6.843
REMARK INTER:                  -5.653
REMARK INTRA:                  -1.190
REMARK UNBOUND:                -1.190
REMARK SMILES CCCCCCCCCCCC(=O)[O-]
REMARK SMILES IDX 7 1 8 2 9 3 10 4 11 5 12 6 13 7 14 8 6 9 5 10 4 11 3 12 2 13
REMARK SMILES IDX 1 14
REMARK H PARENT
REMARK Flexibility Score: inf
ROOT
ATOM      1  C   UNL     1      37.290  25.279 225.578  1.00  0.00     0.000 C 
ENDROOT
BRANCH   1   2
ATOM      2  C   UNL     1      36.152  25.199 224.544  1.00  0.00     0.000 C 
BRANCH   2   3
ATOM      3  C   UNL     1      36.166  23.885 223.746  1.00  0.00     0.000 C 
BRANCH   3   4
ATOM      4  C   UNL     1      35.639  24.059 222.313  1.00  0.00     0.006 C 
BRANCH   4   5
ATOM      5  C   UNL     1      36.710  23.765 221.253  1.00  0.00     0.053 C 
BRANCH   5   6
ATOM      6  C   UNL     1      36.154  23.971 219.880  1.00  0.00     0.041 C 
ATOM      7  O   UNL     1      36.923  23.994 218.883  1.00  0.00    -0.550 OA
ATOM      8  O   UNL     1      34.793  24.187 219.705  1.00  0.00    -0.550 OA
ENDBRANCH   5   6
ENDBRANCH   4   5
ENDBRANCH   3   4
ENDBRANCH   2   3
ENDBRANCH   1   2
BRANCH   1   9
ATOM      9  C   UNL     1      38.558  26.013 225.098  1.00  0.00     0.000 C 
BRANCH   9  10
ATOM     10  C   UNL     1      39.789  25.118 224.860  1.00  0.00    -0.000 C 
BRANCH  10  11
ATOM     11  C   UNL     1      39.731  24.364 223.521  1.00  0.00    -0.000 C 
BRANCH  11  12
ATOM     12  C   UNL     1      40.275  22.926 223.620  1.00  0.00    -0.000 C 
BRANCH  12  13
ATOM     13  C   UNL     1      39.978  22.206 224.947  1.00  0.00    -0.003 C 
ATOM     14  C   UNL     1      38.607  21.532 224.969  1.00  0.00     0.004 C 
ENDBRANCH  12  13
ENDBRANCH  11  12
ENDBRANCH  10  11
ENDBRANCH   9  10
ENDBRANCH   1   9
TORSDOF 10
ENDMDL
MODEL 2
REMARK VINA RESULT:    -3.446      4.124      6.391
REMARK INTER + INTRA:          -6.650
REMARK INTER:                  -6.090
REMARK INTRA:                  -0.560
REMARK UNBOUND:                -1.190
REMARK SMILES CCCCCCCCCCCC(=O)[O-]
REMARK SMILES IDX 7 1 8 2 9 3 10 4 11 5 12 6 13 7 14 8 6 9 5 10 4 11 3 12 2 13
REMARK SMILES IDX 1 14
REMARK H PARENT
REMARK Flexibility Score: inf
ROOT
ATOM      1  C   UNL     1      39.356  23.902 222.849  1.00  0.00     0.000 C 
ENDROOT
BRANCH   1   2
ATOM      2  C   UNL     1      40.811  23.579 223.234  1.00  0.00     0.000 C 
BRANCH   2   3
ATOM      3  C   UNL     1      41.037  22.080 223.495  1.00  0.00     0.000 C 
BRANCH   3   4
ATOM      4  C   UNL     1      42.258  21.527 222.743  1.00  0.00     0.006 C 
BRANCH   4   5
ATOM      5  C   UNL     1      42.251  19.995 222.657  1.00  0.00     0.053 C 
BRANCH   5   6
ATOM      6  C   UNL     1      43.000  19.405 223.809  1.00  0.00     0.041 C 
ATOM      7  O   UNL     1      44.150  18.922 223.637  1.00  0.00    -0.550 OA
ATOM      8  O   UNL     1      42.409  19.343 225.065  1.00  0.00    -0.550 OA
ENDBRANCH   5   6
ENDBRANCH   4   5
ENDBRANCH   3   4
ENDBRANCH   2   3
ENDBRANCH   1   2
BRANCH   1   9
ATOM      9  C   UNL     1      38.599  24.794 223.855  1.00  0.00     0.000 C 
BRANCH   9  10
ATOM     10  C   UNL     1      37.216  25.286 223.390  1.00  0.00    -0.000 C 
BRANCH  10  11
ATOM     11  C   UNL     1      36.128  24.204 223.499  1.00  0.00    -0.000 C 
BRANCH  11  12
ATOM     12  C   UNL     1      35.834  23.513 222.154  1.00  0.00    -0.000 C 
BRANCH  12  13
ATOM     13  C   UNL     1      36.220  24.325 220.905  1.00  0.00    -0.003 C 
ATOM     14  C   UNL     1      37.071  23.532 219.914  1.00  0.00     0.004 C 
ENDBRANCH  12  13
ENDBRANCH  11  12
ENDBRANCH  10  11
ENDBRANCH   9  10
ENDBRANCH   1   9
TORSDOF 10
ENDMDL
MODEL 3
REMARK VINA RESULT:    -3.419      3.395      5.635
REMARK INTER + INTRA:          -6.607
REMARK INTER:                  -5.901
REMARK INTRA:                  -0.706
REMARK UNBOUND:                -1.190
REMARK SMILES CCCCCCCCCCCC(=O)[O-]
REMARK SMILES IDX 7 1 8 2 9 3 10 4 11 5 12 6 13 7 14 8 6 9 5 10 4 11 3 12 2 13
REMARK SMILES IDX 1 14
REMARK H PARENT
REMARK Flexibility Score: inf
ROOT
ATOM      1  C   UNL     1      38.936  25.173 224.491  1.00  0.00     0.000 C 
ENDROOT
BRANCH   1   2
ATOM      2  C   UNL     1      39.862  24.060 225.015  1.00  0.00     0.000 C 
BRANCH   2   3
ATOM      3  C   UNL     1      41.268  24.117 224.395  1.00  0.00     0.000 C 
BRANCH   3   4
ATOM      4  C   UNL     1      41.487  23.033 223.328  1.00  0.00     0.006 C 
BRANCH   4   5
ATOM      5  C   UNL     1      41.800  21.661 223.941  1.00  0.00     0.053 C 
BRANCH   5   6
ATOM      6  C   UNL     1      42.120  20.671 222.865  1.00  0.00     0.041 C 
ATOM      7  O   UNL     1      41.717  19.482 222.959  1.00  0.00    -0.550 OA
ATOM      8  O   UNL     1      42.906  21.049 221.783  1.00  0.00    -0.550 OA
ENDBRANCH   5   6
ENDBRANCH   4   5
ENDBRANCH   3   4
ENDBRANCH   2   3
ENDBRANCH   1   2
BRANCH   1   9
ATOM      9  C   UNL     1      37.964  24.741 223.374  1.00  0.00     0.000 C 
BRANCH   9  10
ATOM     10  C   UNL     1      37.170  23.452 223.652  1.00  0.00    -0.000 C 
BRANCH  10  11
ATOM     11  C   UNL     1      36.353  22.978 222.438  1.00  0.00    -0.000 C 
BRANCH  11  12
ATOM     12  C   UNL     1      35.773  24.143 221.615  1.00  0.00    -0.000 C 
BRANCH  12  13
ATOM     13  C   UNL     1      36.112  24.114 220.114  1.00  0.00    -0.003 C 
ATOM     14  C   UNL     1      37.405  23.359 219.807  1.00  0.00     0.004 C 
ENDBRANCH  12  13
ENDBRANCH  11  12
ENDBRANCH  10  11
ENDBRANCH   9  10
ENDBRANCH   1   9
TORSDOF 10
ENDMDL
MODEL 4
REMARK VINA RESULT:    -3.372      3.609      5.990
REMARK INTER + INTRA:          -6.533
REMARK INTER:                  -5.841
REMARK INTRA:                  -0.692
REMARK UNBOUND:                -1.190
REMARK SMILES CCCCCCCCCCCC(=O)[O-]
REMARK SMILES IDX 7 1 8 2 9 3 10 4 11 5 12 6 13 7 14 8 6 9 5 10 4 11 3 12 2 13
REMARK SMILES IDX 1 14
REMARK H PARENT
REMARK Flexibility Score: inf
ROOT
ATOM      1  C   UNL     1      36.728  25.490 223.651  1.00  0.00     0.000 C 
ENDROOT
BRANCH   1   2
ATOM      2  C   UNL     1      37.418  25.454 225.027  1.00  0.00     0.000 C 
BRANCH   2   3
ATOM      3  C   UNL     1      38.877  25.939 224.972  1.00  0.00     0.000 C 
BRANCH   3   4
ATOM      4  C   UNL     1      39.785  25.190 225.960  1.00  0.00     0.006 C 
BRANCH   4   5
ATOM      5  C   UNL     1      41.194  25.793 226.036  1.00  0.00     0.053 C 
BRANCH   5   6
ATOM      6  C   UNL     1      42.226  24.741 225.779  1.00  0.00     0.041 C 
ATOM      7  O   UNL     1      43.286  24.715 226.458  1.00  0.00    -0.550 OA
ATOM      8  O   UNL     1      42.040  23.819 224.756  1.00  0.00    -0.550 OA
ENDBRANCH   5   6
ENDBRANCH   4   5
ENDBRANCH   3   4
ENDBRANCH   2   3
ENDBRANCH   1   2
BRANCH   1   9
ATOM      9  C   UNL     1      35.950  24.212 223.279  1.00  0.00     0.000 C 
BRANCH   9  10
ATOM     10  C   UNL     1      36.787  23.098 222.623  1.00  0.00    -0.000 C 
BRANCH  10  11
ATOM     11  C   UNL     1      37.773  23.630 221.570  1.00  0.00    -0.000 C 
BRANCH  11  12
ATOM     12  C   UNL     1      37.352  23.286 220.129  1.00  0.00    -0.000 C 
BRANCH  12  13
ATOM     13  C   UNL     1      36.494  24.353 219.427  1.00  0.00    -0.003 C 
ATOM     14  C   UNL     1      34.997  24.182 219.686  1.00  0.00     0.004 C 
ENDBRANCH  12  13
ENDBRANCH  11  12
ENDBRANCH  10  11
ENDBRANCH   9  10
ENDBRANCH   1   9
TORSDOF 10
ENDMDL
MODEL 5
REMARK VINA RESULT:    -3.307      3.182      5.659
REMARK INTER + INTRA:          -6.431
REMARK INTER:                  -5.291
REMARK INTRA:                  -1.140
REMARK UNBOUND:                -1.190
REMARK SMILES CCCCCCCCCCCC(=O)[O-]
REMARK SMILES IDX 7 1 8 2 9 3 10 4 11 5 12 6 13 7 14 8 6 9 5 10 4 11 3 12 2 13
REMARK SMILES IDX 1 14
REMARK H PARENT
REMARK Flexibility Score: inf
ROOT
ATOM      1  C   UNL     1      39.196  23.806 222.679  1.00  0.00     0.000 C 
ENDROOT
BRANCH   1   2
ATOM      2  C   UNL     1      40.596  23.791 223.319  1.00  0.00     0.000 C 
BRANCH   2   3
ATOM      3  C   UNL     1      40.576  24.203 224.801  1.00  0.00     0.000 C 
BRANCH   3   4
ATOM      4  C   UNL     1      40.517  22.994 225.748  1.00  0.00     0.006 C 
BRANCH   4   5
ATOM      5  C   UNL     1      39.136  22.820 226.393  1.00  0.00     0.053 C 
BRANCH   5   6
ATOM      6  C   UNL     1      38.559  21.486 226.037  1.00  0.00     0.041 C 
ATOM      7  O   UNL     1      37.935  21.335 224.954  1.00  0.00    -0.550 OA
ATOM      8  O   UNL     1      38.667  20.422 226.923  1.00  0.00    -0.550 OA
ENDBRANCH   5   6
ENDBRANCH   4   5
ENDBRANCH   3   4
ENDBRANCH   2   3
ENDBRANCH   1   2
BRANCH   1   9
ATOM      9  C   UNL     1      38.185  24.762 223.344  1.00  0.00     0.000 C 
BRANCH   9  10
ATOM     10  C   UNL     1      36.758  24.207 223.503  1.00  0.00    -0.000 C 
BRANCH  10  11
ATOM     11  C   UNL     1      36.360  23.246 222.370  1.00  0.00    -0.000 C 
BRANCH  11  12
ATOM     12  C   UNL     1      35.420  23.895 221.337  1.00  0.00    -0.000 C 
BRANCH  12  13
ATOM     13  C   UNL     1      36.124  24.563 220.143  1.00  0.00    -0.003 C 
ATOM     14  C   UNL     1      36.811  23.562 219.215  1.00  0.00     0.004 C 
ENDBRANCH  12  13
ENDBRANCH  11  12
ENDBRANCH  10  11
ENDBRANCH   9  10
ENDBRANCH   1   9
TORSDOF 10
ENDMDL
MODEL 6
REMARK VINA RESULT:    -3.302      2.297      3.938
REMARK INTER + INTRA:          -6.423
REMARK INTER:                  -5.165
REMARK INTRA:                  -1.258
REMARK UNBOUND:                -1.190
REMARK SMILES CCCCCCCCCCCC(=O)[O-]
REMARK SMILES IDX 7 1 8 2 9 3 10 4 11 5 12 6 13 7 14 8 6 9 5 10 4 11 3 12 2 13
REMARK SMILES IDX 1 14
REMARK H PARENT
REMARK Flexibility Score: inf
ROOT
ATOM      1  C   UNL     1      40.776  23.656 225.189  1.00  0.00     0.000 C 
ENDROOT
BRANCH   1   2
ATOM      2  C   UNL     1      41.253  23.764 223.729  1.00  0.00     0.000 C 
BRANCH   2   3
ATOM      3  C   UNL     1      40.089  23.895 222.733  1.00  0.00     0.000 C 
BRANCH   3   4
ATOM      4  C   UNL     1      38.759  24.244 223.421  1.00  0.00     0.006 C 
BRANCH   4   5
ATOM      5  C   UNL     1      37.644  23.245 223.084  1.00  0.00     0.053 C 
BRANCH   5   6
ATOM      6  C   UNL     1      36.445  23.963 222.551  1.00  0.00     0.041 C 
ATOM      7  O   UNL     1      35.533  24.341 223.333  1.00  0.00    -0.550 OA
ATOM      8  O   UNL     1      36.310  24.173 221.184  1.00  0.00    -0.550 OA
ENDBRANCH   5   6
ENDBRANCH   4   5
ENDBRANCH   3   4
ENDBRANCH   2   3
ENDBRANCH   1   2
BRANCH   1   9
ATOM      9  C   UNL     1      40.907  22.253 225.816  1.00  0.00     0.000 C 
BRANCH   9  10
ATOM     10  C   UNL     1      39.940  21.190 225.263  1.00  0.00    -0.000 C 
BRANCH  10  11
ATOM     11  C   UNL     1      40.657  19.915 224.789  1.00  0.00    -0.000 C 
BRANCH  11  12
ATOM     12  C   UNL     1      42.191  20.048 224.812  1.00  0.00    -0.000 C 
BRANCH  12  13
ATOM     13  C   UNL     1      42.882  19.866 223.449  1.00  0.00    -0.003 C 
ATOM     14  C   UNL     1      42.064  20.421 222.283  1.00  0.00     0.004 C 
ENDBRANCH  12  13
ENDBRANCH  11  12
ENDBRANCH  10  11
ENDBRANCH   9  10
ENDBRANCH   1   9
TORSDOF 10
ENDMDL
MODEL 7
REMARK VINA RESULT:    -3.302      2.911      5.422
REMARK INTER + INTRA:          -6.422
REMARK INTER:                  -5.809
REMARK INTRA:                  -0.613
REMARK UNBOUND:                -1.190
REMARK SMILES CCCCCCCCCCCC(=O)[O-]
REMARK SMILES IDX 7 1 8 2 9 3 10 4 11 5 12 6 13 7 14 8 6 9 5 10 4 11 3 12 2 13
REMARK SMILES IDX 1 14
REMARK H PARENT
REMARK Flexibility Score: inf
ROOT
ATOM      1  C   UNL     1      38.031  23.431 225.097  1.00  0.00     0.000 C 
ENDROOT
BRANCH   1   2
ATOM      2  C   UNL     1      37.831  21.905 225.104  1.00  0.00     0.000 C 
BRANCH   2   3
ATOM      3  C   UNL     1      39.148  21.134 225.292  1.00  0.00     0.000 C 
BRANCH   3   4
ATOM      4  C   UNL     1      40.377  22.057 225.288  1.00  0.00     0.006 C 
BRANCH   4   5
ATOM      5  C   UNL     1      41.586  21.423 224.585  1.00  0.00     0.053 C 
BRANCH   5   6
ATOM      6  C   UNL     1      41.804  22.059 223.249  1.00  0.00     0.041 C 
ATOM      7  O   UNL     1      41.278  23.172 222.983  1.00  0.00    -0.550 OA
ATOM      8  O   UNL     1      42.548  21.400 222.278  1.00  0.00    -0.550 OA
ENDBRANCH   5   6
ENDBRANCH   4   5
ENDBRANCH   3   4
ENDBRANCH   2   3
ENDBRANCH   1   2
BRANCH   1   9
ATOM      9  C   UNL     1      36.803  24.248 224.645  1.00  0.00     0.000 C 
BRANCH   9  10
ATOM     10  C   UNL     1      36.915  24.891 223.251  1.00  0.00    -0.000 C 
BRANCH  10  11
ATOM     11  C   UNL     1      36.152  24.109 222.168  1.00  0.00    -0.000 C 
BRANCH  11  12
ATOM     12  C   UNL     1      37.072  23.578 221.053  1.00  0.00    -0.000 C 
BRANCH  12  13
ATOM     13  C   UNL     1      36.625  23.917 219.620  1.00  0.00    -0.003 C 
ATOM     14  C   UNL     1      35.137  24.251 219.521  1.00  0.00     0.004 C 
ENDBRANCH  12  13
ENDBRANCH  11  12
ENDBRANCH  10  11
ENDBRANCH   9  10
ENDBRANCH   1   9
TORSDOF 10
ENDMDL
MODEL 8
REMARK VINA RESULT:    -3.299      1.175      2.740
REMARK INTER + INTRA:          -6.418
REMARK INTER:                  -5.124
REMARK INTRA:                  -1.294
REMARK UNBOUND:                -1.190
REMARK SMILES CCCCCCCCCCCC(=O)[O-]
REMARK SMILES IDX 7 1 8 2 9 3 10 4 11 5 12 6 13 7 14 8 6 9 5 10 4 11 3 12 2 13
REMARK SMILES IDX 1 14
REMARK H PARENT
REMARK Flexibility Score: inf
ROOT
ATOM      1  C   UNL     1      38.214  21.800 224.850  1.00  0.00     0.000 C 
ENDROOT
BRANCH   1   2
ATOM      2  C   UNL     1      37.139  22.632 224.127  1.00  0.00     0.000 C 
BRANCH   2   3
ATOM      3  C   UNL     1      37.728  23.547 223.040  1.00  0.00     0.000 C 
BRANCH   3   4
ATOM      4  C   UNL     1      36.698  24.546 222.489  1.00  0.00     0.006 C 
BRANCH   4   5
ATOM      5  C   UNL     1      35.545  23.853 221.749  1.00  0.00     0.053 C 
BRANCH   5   6
ATOM      6  C   UNL     1      35.648  24.101 220.277  1.00  0.00     0.041 C 
ATOM      7  O   UNL     1      36.772  24.093 219.710  1.00  0.00    -0.550 OA
ATOM      8  O   UNL     1      34.507  24.391 219.539  1.00  0.00    -0.550 OA
ENDBRANCH   5   6
ENDBRANCH   4   5
ENDBRANCH   3   4
ENDBRANCH   2   3
ENDBRANCH   1   2
BRANCH   1   9
ATOM      9  C   UNL     1      39.669  22.139 224.465  1.00  0.00     0.000 C 
BRANCH   9  10
ATOM     10  C   UNL     1      40.545  22.682 225.609  1.00  0.00    -0.000 C 
BRANCH  10  11
ATOM     11  C   UNL     1      39.883  23.843 226.371  1.00  0.00    -0.000 C 
BRANCH  11  12
ATOM     12  C   UNL     1      40.119  25.210 225.701  1.00  0.00    -0.000 C 
BRANCH  12  13
ATOM     13  C   UNL     1      38.845  26.017 225.398  1.00  0.00    -0.003 C 
ATOM     14  C   UNL     1      37.642  25.572 226.229  1.00  0.00     0.004 C 
ENDBRANCH  12  13
ENDBRANCH  11  12
ENDBRANCH  10  11
ENDBRANCH   9  10
ENDBRANCH   1   9
TORSDOF 10
ENDMDL
MODEL 9
REMARK VINA RESULT:    -3.287      2.018      2.854
REMARK INTER + INTRA:          -6.399
REMARK INTER:                  -5.568
REMARK INTRA:                  -0.831
REMARK UNBOUND:                -1.190
REMARK SMILES CCCCCCCCCCCC(=O)[O-]
REMARK SMILES IDX 7 1 8 2 9 3 10 4 11 5 12 6 13 7 14 8 6 9 5 10 4 11 3 12 2 13
REMARK SMILES IDX 1 14
REMARK H PARENT
REMARK Flexibility Score: inf
ROOT
ATOM      1  C   UNL     1      38.951  23.970 225.554  1.00  0.00     0.000 C 
ENDROOT
BRANCH   1   2
ATOM      2  C   UNL     1      38.486  22.504 225.499  1.00  0.00     0.000 C 
BRANCH   2   3
ATOM      3  C   UNL     1      37.464  22.247 224.379  1.00  0.00     0.000 C 
BRANCH   3   4
ATOM      4  C   UNL     1      36.913  23.547 223.773  1.00  0.00     0.006 C 
BRANCH   4   5
ATOM      5  C   UNL     1      37.237  23.682 222.279  1.00  0.00     0.053 C 
BRANCH   5   6
ATOM      6  C   UNL     1      36.006  24.046 221.510  1.00  0.00     0.041 C 
ATOM      7  O   UNL     1      34.874  23.973 222.056  1.00  0.00    -0.550 OA
ATOM      8  O   UNL     1      36.104  24.419 220.176  1.00  0.00    -0.550 OA
ENDBRANCH   5   6
ENDBRANCH   4   5
ENDBRANCH   3   4
ENDBRANCH   2   3
ENDBRANCH   1   2
BRANCH   1   9
ATOM      9  C   UNL     1      40.445  24.193 225.240  1.00  0.00     0.000 C 
BRANCH   9  10
ATOM     10  C   UNL     1      40.884  23.804 223.816  1.00  0.00    -0.000 C 
BRANCH  10  11
ATOM     11  C   UNL     1      41.828  22.589 223.792  1.00  0.00    -0.000 C 
BRANCH  11  12
ATOM     12  C   UNL     1      41.685  21.746 222.511  1.00  0.00    -0.000 C 
BRANCH  12  13
ATOM     13  C   UNL     1      42.861  20.797 222.220  1.00  0.00    -0.003 C 
ATOM     14  C   UNL     1      43.123  19.803 223.351  1.00  0.00     0.004 C 
ENDBRANCH  12  13
ENDBRANCH  11  12
ENDBRANCH  10  11
ENDBRANCH   9  10
ENDBRANCH   1   9
TORSDOF 10
ENDMDL
