MODEL 1
REMARK VINA RESULT:    -3.744      0.000      0.000
REMARK INTER + INTRA:          -6.861
REMARK INTER:                  -5.933
REMARK INTRA:                  -0.928
REMARK UNBOUND:                -0.928
REMARK SMILES CCCCCCCCCCCC(=O)[O-]
REMARK SMILES IDX 7 1 8 2 9 3 10 4 11 5 12 6 13 7 14 8 6 9 5 10 4 11 3 12 2 13
REMARK SMILES IDX 1 14
REMARK H PARENT
REMARK Flexibility Score: inf
ROOT
ATOM      1  C   UNL     1     -18.038  43.802  -7.314  1.00  0.00     0.000 C 
ENDROOT
BRANCH   1   2
ATOM      2  C   UNL     1     -16.517  43.950  -7.193  1.00  0.00     0.000 C 
BRANCH   2   3
ATOM      3  C   UNL     1     -16.026  43.489  -5.812  1.00  0.00     0.000 C 
BRANCH   3   4
ATOM      4  C   UNL     1     -17.021  42.549  -5.114  1.00  0.00     0.006 C 
BRANCH   4   5
ATOM      5  C   UNL     1     -17.292  42.951  -3.658  1.00  0.00     0.053 C 
BRANCH   5   6
ATOM      6  C   UNL     1     -18.728  43.332  -3.481  1.00  0.00     0.041 C 
ATOM      7  O   UNL     1     -19.202  44.320  -4.100  1.00  0.00    -0.550 OA
ATOM      8  O   UNL     1     -19.555  42.566  -2.669  1.00  0.00    -0.550 OA
ENDBRANCH   5   6
ENDBRANCH   4   5
ENDBRANCH   3   4
ENDBRANCH   2   3
ENDBRANCH   1   2
BRANCH   1   9
ATOM      9  C   UNL     1     -18.602  44.765  -8.371  1.00  0.00     0.000 C 
BRANCH   9  10
ATOM     10  C   UNL     1     -19.772  44.158  -9.163  1.00  0.00    -0.000 C 
BRANCH  10  11
ATOM     11  C   UNL     1     -19.335  43.604 -10.530  1.00  0.00    -0.000 C 
BRANCH  11  12
ATOM     12  C   UNL     1     -18.729  42.192 -10.437  1.00  0.00    -0.000 C 
BRANCH  12  13
ATOM     13  C   UNL     1     -17.328  42.043 -11.055  1.00  0.00    -0.003 C 
ATOM     14  C   UNL     1     -16.557  43.361 -11.114  1.00  0.00     0.004 C 
ENDBRANCH  12  13
ENDBRANCH  11  12
ENDBRANCH  10  11
ENDBRANCH   9  10
ENDBRANCH   1   9
TORSDOF 10
ENDMDL
MODEL 2
REMARK VINA RESULT:    -3.684      1.231      2.072
REMARK INTER + INTRA:          -6.765
REMARK INTER:                  -5.841
REMARK INTRA:                  -0.924
REMARK UNBOUND:                -0.928
REMARK SMILES CCCCCCCCCCCC(=O)[O-]
REMARK SMILES IDX 7 1 8 2 9 3 10 4 11 5 12 6 13 7 14 8 6 9 5 10 4 11 3 12 2 13
REMARK SMILES IDX 1 14
REMARK H PARENT
REMARK Flexibility Score: inf
ROOT
ATOM      1  C   UNL     1     -15.892  44.475  -8.800  1.00  0.00     0.000 C 
ENDROOT
BRANCH   1   2
ATOM      2  C   UNL     1     -15.588  44.046  -7.360  1.00  0.00     0.000 C 
BRANCH   2   3
ATOM      3  C   UNL     1     -16.874  43.650  -6.620  1.00  0.00     0.000 C 
BRANCH   3   4
ATOM      4  C   UNL     1     -16.617  43.241  -5.161  1.00  0.00     0.006 C 
BRANCH   4   5
ATOM      5  C   UNL     1     -17.614  42.190  -4.657  1.00  0.00     0.053 C 
BRANCH   5   6
ATOM      6  C   UNL     1     -18.646  42.826  -3.781  1.00  0.00     0.041 C 
ATOM      7  O   UNL     1     -19.185  42.166  -2.855  1.00  0.00    -0.550 OA
ATOM      8  O   UNL     1     -18.975  44.165  -3.955  1.00  0.00    -0.550 OA
ENDBRANCH   5   6
ENDBRANCH   4   5
ENDBRANCH   3   4
ENDBRANCH   2   3
ENDBRANCH   1   2
BRANCH   1   9
ATOM      9  C   UNL     1     -16.995  45.545  -8.833  1.00  0.00     0.000 C 
BRANCH   9  10
ATOM     10  C   UNL     1     -17.434  45.902 -10.262  1.00  0.00    -0.000 C 
BRANCH  10  11
ATOM     11  C   UNL     1     -18.828  45.349 -10.607  1.00  0.00    -0.000 C 
BRANCH  11  12
ATOM     12  C   UNL     1     -19.435  44.507  -9.469  1.00  0.00    -0.000 C 
BRANCH  12  13
ATOM     13  C   UNL     1     -19.709  43.035  -9.825  1.00  0.00    -0.003 C 
ATOM     14  C   UNL     1     -18.436  42.242 -10.119  1.00  0.00     0.004 C 
ENDBRANCH  12  13
ENDBRANCH  11  12
ENDBRANCH  10  11
ENDBRANCH   9  10
ENDBRANCH   1   9
TORSDOF 10
ENDMDL
MODEL 3
REMARK VINA RESULT:    -3.658      0.944      1.570
REMARK INTER + INTRA:          -6.724
REMARK INTER:                  -5.562
REMARK INTRA:                  -1.162
REMARK UNBOUND:                -0.928
REMARK SMILES CCCCCCCCCCCC(=O)[O-]
REMARK SMILES IDX 7 1 8 2 9 3 10 4 11 5 12 6 13 7 14 8 6 9 5 10 4 11 3 12 2 13
REMARK SMILES IDX 1 14
REMARK H PARENT
REMARK Flexibility Score: inf
ROOT
ATOM      1  C   UNL     1     -18.750  44.673  -7.620  1.00  0.00     0.000 C 
ENDROOT
BRANCH   1   2
ATOM      2  C   UNL     1     -18.039  43.419  -7.098  1.00  0.00     0.000 C 
BRANCH   2   3
ATOM      3  C   UNL     1     -16.754  43.788  -6.341  1.00  0.00     0.000 C 
BRANCH   3   4
ATOM      4  C   UNL     1     -16.681  43.143  -4.948  1.00  0.00     0.006 C 
BRANCH   4   5
ATOM      5  C   UNL     1     -17.888  42.246  -4.648  1.00  0.00     0.053 C 
BRANCH   5   6
ATOM      6  C   UNL     1     -18.758  42.871  -3.604  1.00  0.00     0.041 C 
ATOM      7  O   UNL     1     -19.406  42.149  -2.804  1.00  0.00    -0.550 OA
ATOM      8  O   UNL     1     -18.812  44.255  -3.483  1.00  0.00    -0.550 OA
ENDBRANCH   5   6
ENDBRANCH   4   5
ENDBRANCH   3   4
ENDBRANCH   2   3
ENDBRANCH   1   2
BRANCH   1   9
ATOM      9  C   UNL     1     -19.673  44.331  -8.800  1.00  0.00     0.000 C 
BRANCH   9  10
ATOM     10  C   UNL     1     -19.317  42.991  -9.464  1.00  0.00    -0.000 C 
BRANCH  10  11
ATOM     11  C   UNL     1     -18.647  43.172 -10.837  1.00  0.00    -0.000 C 
BRANCH  11  12
ATOM     12  C   UNL     1     -17.144  42.838 -10.817  1.00  0.00    -0.000 C 
BRANCH  12  13
ATOM     13  C   UNL     1     -16.231  43.976 -10.329  1.00  0.00    -0.003 C 
ATOM     14  C   UNL     1     -16.683  45.355 -10.807  1.00  0.00     0.004 C 
ENDBRANCH  12  13
ENDBRANCH  11  12
ENDBRANCH  10  11
ENDBRANCH   9  10
ENDBRANCH   1   9
TORSDOF 10
ENDMDL
MODEL 4
REMARK VINA RESULT:    -3.541      1.373      2.469
REMARK INTER + INTRA:          -6.540
REMARK INTER:                  -5.216
REMARK INTRA:                  -1.324
REMARK UNBOUND:                -0.928
REMARK SMILES CCCCCCCCCCCC(=O)[O-]
REMARK SMILES IDX 7 1 8 2 9 3 10 4 11 5 12 6 13 7 14 8 6 9 5 10 4 11 3 12 2 13
REMARK SMILES IDX 1 14
REMARK H PARENT
REMARK Flexibility Score: inf
ROOT
ATOM      1  C   UNL     1     -19.643  44.500  -8.334  1.00  0.00     0.000 C 
ENDROOT
BRANCH   1   2
ATOM      2  C   UNL     1     -18.889  44.575  -7.002  1.00  0.00     0.000 C 
BRANCH   2   3
ATOM      3  C   UNL     1     -17.978  43.352  -6.815  1.00  0.00     0.000 C 
BRANCH   3   4
ATOM      4  C   UNL     1     -17.212  43.382  -5.483  1.00  0.00     0.006 C 
BRANCH   4   5
ATOM      5  C   UNL     1     -17.715  42.328  -4.488  1.00  0.00     0.053 C 
BRANCH   5   6
ATOM      6  C   UNL     1     -18.680  42.940  -3.523  1.00  0.00     0.041 C 
ATOM      7  O   UNL     1     -18.757  44.191  -3.412  1.00  0.00    -0.550 OA
ATOM      8  O   UNL     1     -19.530  42.128  -2.782  1.00  0.00    -0.550 OA
ENDBRANCH   5   6
ENDBRANCH   4   5
ENDBRANCH   3   4
ENDBRANCH   2   3
ENDBRANCH   1   2
BRANCH   1   9
ATOM      9  C   UNL     1     -19.052  43.407  -9.239  1.00  0.00     0.000 C 
BRANCH   9  10
ATOM     10  C   UNL     1     -18.365  43.979 -10.490  1.00  0.00    -0.000 C 
BRANCH  10  11
ATOM     11  C   UNL     1     -16.856  44.198 -10.287  1.00  0.00    -0.000 C 
BRANCH  11  12
ATOM     12  C   UNL     1     -16.496  45.671 -10.017  1.00  0.00    -0.000 C 
BRANCH  12  13
ATOM     13  C   UNL     1     -15.899  45.950  -8.627  1.00  0.00    -0.003 C 
ATOM     14  C   UNL     1     -14.938  44.858  -8.157  1.00  0.00     0.004 C 
ENDBRANCH  12  13
ENDBRANCH  11  12
ENDBRANCH  10  11
ENDBRANCH   9  10
ENDBRANCH   1   9
TORSDOF 10
ENDMDL
MODEL 5
REMARK VINA RESULT:    -3.492      2.758      5.843
REMARK INTER + INTRA:          -6.462
REMARK INTER:                  -5.400
REMARK INTRA:                  -1.061
REMARK UNBOUND:                -0.928
REMARK SMILES CCCCCCCCCCCC(=O)[O-]
REMARK SMILES IDX 7 1 8 2 9 3 10 4 11 5 12 6 13 7 14 8 6 9 5 10 4 11 3 12 2 13
REMARK SMILES IDX 1 14
REMARK H PARENT
REMARK Flexibility Score: inf
ROOT
ATOM      1  C   UNL     1     -19.092  44.410  -8.637  1.00  0.00     0.000 C 
ENDROOT
BRANCH   1   2
ATOM      2  C   UNL     1     -18.810  43.003  -9.175  1.00  0.00     0.000 C 
BRANCH   2   3
ATOM      3  C   UNL     1     -17.658  43.022 -10.191  1.00  0.00     0.000 C 
BRANCH   3   4
ATOM      4  C   UNL     1     -17.259  44.446 -10.609  1.00  0.00     0.006 C 
BRANCH   4   5
ATOM      5  C   UNL     1     -15.760  44.718 -10.427  1.00  0.00     0.053 C 
BRANCH   5   6
ATOM      6  C   UNL     1     -15.462  45.064  -9.003  1.00  0.00     0.041 C 
ATOM      7  O   UNL     1     -14.745  44.302  -8.303  1.00  0.00    -0.550 OA
ATOM      8  O   UNL     1     -15.934  46.254  -8.463  1.00  0.00    -0.550 OA
ENDBRANCH   5   6
ENDBRANCH   4   5
ENDBRANCH   3   4
ENDBRANCH   2   3
ENDBRANCH   1   2
BRANCH   1   9
ATOM      9  C   UNL     1     -18.683  44.526  -7.159  1.00  0.00     0.000 C 
BRANCH   9  10
ATOM     10  C   UNL     1     -18.072  43.227  -6.609  1.00  0.00    -0.000 C 
BRANCH  10  11
ATOM     11  C   UNL     1     -16.894  43.488  -5.655  1.00  0.00    -0.000 C 
BRANCH  11  12
ATOM     12  C   UNL     1     -17.170  43.006  -4.218  1.00  0.00    -0.000 C 
BRANCH  12  13
ATOM     13  C   UNL     1     -18.460  43.555  -3.585  1.00  0.00    -0.003 C 
ATOM     14  C   UNL     1     -19.415  42.455  -3.122  1.00  0.00     0.004 C 
ENDBRANCH  12  13
ENDBRANCH  11  12
ENDBRANCH  10  11
ENDBRANCH   9  10
ENDBRANCH   1   9
TORSDOF 10
ENDMDL
MODEL 6
REMARK VINA RESULT:    -3.441      2.353      5.793
REMARK INTER + INTRA:          -6.381
REMARK INTER:                  -5.628
REMARK INTRA:                  -0.753
REMARK UNBOUND:                -0.928
REMARK SMILES CCCCCCCCCCCC(=O)[O-]
REMARK SMILES IDX 7 1 8 2 9 3 10 4 11 5 12 6 13 7 14 8 6 9 5 10 4 11 3 12 2 13
REMARK SMILES IDX 1 14
REMARK H PARENT
REMARK Flexibility Score: inf
ROOT
ATOM      1  C   UNL     1     -16.169  45.676  -8.200  1.00  0.00     0.000 C 
ENDROOT
BRANCH   1   2
ATOM      2  C   UNL     1     -16.142  46.006  -9.697  1.00  0.00     0.000 C 
BRANCH   2   3
ATOM      3  C   UNL     1     -16.998  45.012 -10.496  1.00  0.00     0.000 C 
BRANCH   3   4
ATOM      4  C   UNL     1     -18.419  45.533 -10.762  1.00  0.00     0.006 C 
BRANCH   4   5
ATOM      5  C   UNL     1     -19.475  44.421 -10.710  1.00  0.00     0.053 C 
BRANCH   5   6
ATOM      6  C   UNL     1     -19.444  43.734  -9.381  1.00  0.00     0.041 C 
ATOM      7  O   UNL     1     -19.139  42.516  -9.305  1.00  0.00    -0.550 OA
ATOM      8  O   UNL     1     -19.702  44.454  -8.221  1.00  0.00    -0.550 OA
ENDBRANCH   5   6
ENDBRANCH   4   5
ENDBRANCH   3   4
ENDBRANCH   2   3
ENDBRANCH   1   2
BRANCH   1   9
ATOM      9  C   UNL     1     -16.082  44.159  -7.971  1.00  0.00     0.000 C 
BRANCH   9  10
ATOM     10  C   UNL     1     -15.995  43.787  -6.481  1.00  0.00    -0.000 C 
BRANCH  10  11
ATOM     11  C   UNL     1     -17.359  43.389  -5.892  1.00  0.00    -0.000 C 
BRANCH  11  12
ATOM     12  C   UNL     1     -17.282  43.032  -4.396  1.00  0.00    -0.000 C 
BRANCH  12  13
ATOM     13  C   UNL     1     -18.449  43.558  -3.542  1.00  0.00    -0.003 C 
ATOM     14  C   UNL     1     -19.409  42.457  -3.094  1.00  0.00     0.004 C 
ENDBRANCH  12  13
ENDBRANCH  11  12
ENDBRANCH  10  11
ENDBRANCH   9  10
ENDBRANCH   1   9
TORSDOF 10
ENDMDL
MODEL 7
REMARK VINA RESULT:    -3.065      4.231      6.804
REMARK INTER + INTRA:          -5.785
REMARK INTER:                  -5.178
REMARK INTRA:                  -0.607
REMARK UNBOUND:                -0.928
REMARK SMILES CCCCCCCCCCCC(=O)[O-]
REMARK SMILES IDX 7 1 8 2 9 3 10 4 11 5 12 6 13 7 14 8 6 9 5 10 4 11 3 12 2 13
REMARK SMILES IDX 1 14
REMARK H PARENT
REMARK Flexibility Score: inf
ROOT
ATOM      1  C   UNL     1     -15.628  44.321  -7.863  1.00  0.00     0.000 C 
ENDROOT
BRANCH   1   2
ATOM      2  C   UNL     1     -15.419  45.819  -8.119  1.00  0.00     0.000 C 
BRANCH   2   3
ATOM      3  C   UNL     1     -16.086  46.251  -9.434  1.00  0.00     0.000 C 
BRANCH   3   4
ATOM      4  C   UNL     1     -15.192  47.175 -10.276  1.00  0.00     0.006 C 
BRANCH   4   5
ATOM      5  C   UNL     1     -14.166  47.938  -9.429  1.00  0.00     0.053 C 
BRANCH   5   6
ATOM      6  C   UNL     1     -14.646  49.328  -9.154  1.00  0.00     0.041 C 
ATOM      7  O   UNL     1     -14.796  50.145 -10.100  1.00  0.00    -0.550 OA
ATOM      8  O   UNL     1     -14.976  49.707  -7.859  1.00  0.00    -0.550 OA
ENDBRANCH   5   6
ENDBRANCH   4   5
ENDBRANCH   3   4
ENDBRANCH   2   3
ENDBRANCH   1   2
BRANCH   1   9
ATOM      9  C   UNL     1     -17.124  43.969  -7.857  1.00  0.00     0.000 C 
BRANCH   9  10
ATOM     10  C   UNL     1     -17.665  43.705  -6.442  1.00  0.00    -0.000 C 
BRANCH  10  11
ATOM     11  C   UNL     1     -16.563  43.277  -5.459  1.00  0.00    -0.000 C 
BRANCH  11  12
ATOM     12  C   UNL     1     -17.102  42.984  -4.046  1.00  0.00    -0.000 C 
BRANCH  12  13
ATOM     13  C   UNL     1     -18.527  43.497  -3.775  1.00  0.00    -0.003 C 
ATOM     14  C   UNL     1     -19.406  42.474  -3.057  1.00  0.00     0.004 C 
ENDBRANCH  12  13
ENDBRANCH  11  12
ENDBRANCH  10  11
ENDBRANCH   9  10
ENDBRANCH   1   9
TORSDOF 10
ENDMDL
MODEL 8
REMARK VINA RESULT:    -2.847      2.349      3.542
REMARK INTER + INTRA:          -5.439
REMARK INTER:                  -4.486
REMARK INTRA:                  -0.953
REMARK UNBOUND:                -0.928
REMARK SMILES CCCCCCCCCCCC(=O)[O-]
REMARK SMILES IDX 7 1 8 2 9 3 10 4 11 5 12 6 13 7 14 8 6 9 5 10 4 11 3 12 2 13
REMARK SMILES IDX 1 14
REMARK H PARENT
REMARK Flexibility Score: inf
ROOT
ATOM      1  C   UNL     1     -18.103  45.158  -9.095  1.00  0.00     0.000 C 
ENDROOT
BRANCH   1   2
ATOM      2  C   UNL     1     -19.257  44.540  -8.298  1.00  0.00     0.000 C 
BRANCH   2   3
ATOM      3  C   UNL     1     -18.951  44.542  -6.793  1.00  0.00     0.000 C 
BRANCH   3   4
ATOM      4  C   UNL     1     -17.758  43.645  -6.429  1.00  0.00     0.006 C 
BRANCH   4   5
ATOM      5  C   UNL     1     -18.057  42.715  -5.247  1.00  0.00     0.053 C 
BRANCH   5   6
ATOM      6  C   UNL     1     -17.761  43.404  -3.953  1.00  0.00     0.041 C 
ATOM      7  O   UNL     1     -18.689  43.943  -3.296  1.00  0.00    -0.550 OA
ATOM      8  O   UNL     1     -16.467  43.406  -3.446  1.00  0.00    -0.550 OA
ENDBRANCH   5   6
ENDBRANCH   4   5
ENDBRANCH   3   4
ENDBRANCH   2   3
ENDBRANCH   1   2
BRANCH   1   9
ATOM      9  C   UNL     1     -17.581  44.179 -10.158  1.00  0.00     0.000 C 
BRANCH   9  10
ATOM     10  C   UNL     1     -16.047  44.080 -10.173  1.00  0.00    -0.000 C 
BRANCH  10  11
ATOM     11  C   UNL     1     -15.400  44.760  -8.955  1.00  0.00    -0.000 C 
BRANCH  11  12
ATOM     12  C   UNL     1     -14.296  45.760  -9.344  1.00  0.00    -0.000 C 
BRANCH  12  13
ATOM     13  C   UNL     1     -14.685  47.243  -9.211  1.00  0.00    -0.003 C 
ATOM     14  C   UNL     1     -15.388  47.792 -10.451  1.00  0.00     0.004 C 
ENDBRANCH  12  13
ENDBRANCH  11  12
ENDBRANCH  10  11
ENDBRANCH   9  10
ENDBRANCH   1   9
TORSDOF 10
ENDMDL
MODEL 9
REMARK VINA RESULT:    -2.681      2.426      3.789
REMARK INTER + INTRA:          -5.177
REMARK INTER:                  -3.965
REMARK INTRA:                  -1.212
REMARK UNBOUND:                -0.928
REMARK SMILES CCCCCCCCCCCC(=O)[O-]
REMARK SMILES IDX 7 1 8 2 9 3 10 4 11 5 12 6 13 7 14 8 6 9 5 10 4 11 3 12 2 13
REMARK SMILES IDX 1 14
REMARK H PARENT
REMARK Flexibility Score: inf
ROOT
ATOM      1  C   UNL     1     -18.372  45.134  -9.913  1.00  0.00     0.000 C 
ENDROOT
BRANCH   1   2
ATOM      2  C   UNL     1     -18.590  43.617  -9.881  1.00  0.00     0.000 C 
BRANCH   2   3
ATOM      3  C   UNL     1     -18.717  43.109  -8.437  1.00  0.00     0.000 C 
BRANCH   3   4
ATOM      4  C   UNL     1     -18.383  44.190  -7.397  1.00  0.00     0.006 C 
BRANCH   4   5
ATOM      5  C   UNL     1     -17.330  43.727  -6.382  1.00  0.00     0.053 C 
BRANCH   5   6
ATOM      6  C   UNL     1     -17.989  43.105  -5.192  1.00  0.00     0.041 C 
ATOM      7  O   UNL     1     -18.685  43.808  -4.414  1.00  0.00    -0.550 OA
ATOM      8  O   UNL     1     -17.876  41.738  -4.970  1.00  0.00    -0.550 OA
ENDBRANCH   5   6
ENDBRANCH   4   5
ENDBRANCH   3   4
ENDBRANCH   2   3
ENDBRANCH   1   2
BRANCH   1   9
ATOM      9  C   UNL     1     -17.519  45.541 -11.125  1.00  0.00     0.000 C 
BRANCH   9  10
ATOM     10  C   UNL     1     -16.837  46.906 -10.940  1.00  0.00    -0.000 C 
BRANCH  10  11
ATOM     11  C   UNL     1     -15.306  46.792 -10.841  1.00  0.00    -0.000 C 
BRANCH  11  12
ATOM     12  C   UNL     1     -14.770  47.133  -9.438  1.00  0.00    -0.000 C 
BRANCH  12  13
ATOM     13  C   UNL     1     -15.074  46.086  -8.353  1.00  0.00    -0.003 C 
ATOM     14  C   UNL     1     -14.683  44.667  -8.764  1.00  0.00     0.004 C 
ENDBRANCH  12  13
ENDBRANCH  11  12
ENDBRANCH  10  11
ENDBRANCH   9  10
ENDBRANCH   1   9
TORSDOF 10
ENDMDL
