MODEL 1
REMARK VINA RESULT:    -5.568      0.000      0.000
REMARK INTER + INTRA:         -17.267
REMARK INTER:                 -14.032
REMARK INTRA:                  -3.235
REMARK UNBOUND:                -3.235
REMARK SMILES CCCCCCCCCCCCCCCCCCCCCCCCCCCC(=O)[O-]
REMARK SMILES IDX 15 1 16 2 17 3 18 4 19 5 20 6 21 7 22 8 23 9 24 10 25 11
REMARK SMILES IDX 26 12 27 13 28 14 29 15 30 16 14 17 13 18 12 19 11 20 10 21
REMARK SMILES IDX 9 22 8 23 7 24 6 25 5 26 4 27 3 28 2 29 1 30
REMARK H PARENT
REMARK Flexibility Score: inf
ROOT
ATOM      1  C   UNL     1       5.280  42.125  47.458  1.00  0.00     0.000 C 
ENDROOT
BRANCH   1   2
ATOM      2  C   UNL     1       6.045  41.385  48.568  1.00  0.00     0.000 C 
BRANCH   2   3
ATOM      3  C   UNL     1       7.280  40.634  48.041  1.00  0.00     0.000 C 
BRANCH   3   4
ATOM      4  C   UNL     1       8.474  40.677  49.013  1.00  0.00     0.000 C 
BRANCH   4   5
ATOM      5  C   UNL     1       9.738  39.938  48.529  1.00  0.00     0.000 C 
BRANCH   5   6
ATOM      6  C   UNL     1       9.429  38.562  47.912  1.00  0.00     0.000 C 
BRANCH   6   7
ATOM      7  C   UNL     1      10.595  37.571  48.057  1.00  0.00     0.000 C 
BRANCH   7   8
ATOM      8  C   UNL     1      10.243  36.107  47.733  1.00  0.00     0.000 C 
BRANCH   8   9
ATOM      9  C   UNL     1      11.007  35.546  46.514  1.00  0.00     0.000 C 
BRANCH   9  10
ATOM     10  C   UNL     1      10.059  34.937  45.465  1.00  0.00     0.000 C 
BRANCH  10  11
ATOM     11  C   UNL     1      10.748  34.704  44.110  1.00  0.00     0.000 C 
BRANCH  11  12
ATOM     12  C   UNL     1       9.934  33.779  43.188  1.00  0.00     0.006 C 
BRANCH  12  13
ATOM     13  C   UNL     1      10.599  33.588  41.818  1.00  0.00     0.053 C 
BRANCH  13  14
ATOM     14  C   UNL     1       9.628  33.129  40.771  1.00  0.00     0.041 C 
ATOM     15  O   UNL     1      10.039  32.829  39.619  1.00  0.00    -0.550 OA
ATOM     16  O   UNL     1       8.264  33.092  41.044  1.00  0.00    -0.550 OA
ENDBRANCH  13  14
ENDBRANCH  12  13
ENDBRANCH  11  12
ENDBRANCH  10  11
ENDBRANCH   9  10
ENDBRANCH   8   9
ENDBRANCH   7   8
ENDBRANCH   6   7
ENDBRANCH   5   6
ENDBRANCH   4   5
ENDBRANCH   3   4
ENDBRANCH   2   3
ENDBRANCH   1   2
BRANCH   1  17
ATOM     17  C   UNL     1       5.793  41.764  46.053  1.00  0.00     0.000 C 
BRANCH  17  18
ATOM     18  C   UNL     1       5.304  42.747  44.977  1.00  0.00     0.000 C 
BRANCH  18  19
ATOM     19  C   UNL     1       6.349  42.974  43.871  1.00  0.00     0.000 C 
BRANCH  19  20
ATOM     20  C   UNL     1       6.776  44.447  43.815  1.00  0.00     0.000 C 
BRANCH  20  21
ATOM     21  C   UNL     1       7.478  44.769  42.488  1.00  0.00     0.000 C 
BRANCH  21  22
ATOM     22  C   UNL     1       7.769  43.516  41.639  1.00  0.00    -0.000 C 
BRANCH  22  23
ATOM     23  C   UNL     1       9.173  43.463  41.006  1.00  0.00    -0.000 C 
BRANCH  23  24
ATOM     24  C   UNL     1      10.038  42.314  41.553  1.00  0.00    -0.000 C 
BRANCH  24  25
ATOM     25  C   UNL     1       9.200  41.187  42.177  1.00  0.00    -0.000 C 
BRANCH  25  26
ATOM     26  C   UNL     1       9.705  40.757  43.562  1.00  0.00    -0.000 C 
BRANCH  26  27
ATOM     27  C   UNL     1       8.949  39.516  44.052  1.00  0.00    -0.000 C 
BRANCH  27  28
ATOM     28  C   UNL     1       9.905  38.341  44.286  1.00  0.00    -0.000 C 
BRANCH  28  29
ATOM     29  C   UNL     1      11.354  38.828  44.404  1.00  0.00    -0.003 C 
ATOM     30  C   UNL     1      12.285  38.007  43.517  1.00  0.00     0.004 C 
ENDBRANCH  28  29
ENDBRANCH  27  28
ENDBRANCH  26  27
ENDBRANCH  25  26
ENDBRANCH  24  25
ENDBRANCH  23  24
ENDBRANCH  22  23
ENDBRANCH  21  22
ENDBRANCH  20  21
ENDBRANCH  19  20
ENDBRANCH  18  19
ENDBRANCH  17  18
ENDBRANCH   1  17
TORSDOF 26
ENDMDL
MODEL 2
REMARK VINA RESULT:    -5.555      3.949      7.313
REMARK INTER + INTRA:         -17.234
REMARK INTER:                 -12.747
REMARK INTRA:                  -4.487
REMARK UNBOUND:                -3.235
REMARK SMILES CCCCCCCCCCCCCCCCCCCCCCCCCCCC(=O)[O-]
REMARK SMILES IDX 15 1 16 2 17 3 18 4 19 5 20 6 21 7 22 8 23 9 24 10 25 11
REMARK SMILES IDX 26 12 27 13 28 14 29 15 30 16 14 17 13 18 12 19 11 20 10 21
REMARK SMILES IDX 9 22 8 23 7 24 6 25 5 26 4 27 3 28 2 29 1 30
REMARK H PARENT
REMARK Flexibility Score: inf
ROOT
ATOM      1  C   UNL     1      12.960  42.208  44.357  1.00  0.00     0.000 C 
ENDROOT
BRANCH   1   2
ATOM      2  C   UNL     1      13.566  41.623  45.644  1.00  0.00     0.000 C 
BRANCH   2   3
ATOM      3  C   UNL     1      12.509  41.351  46.729  1.00  0.00     0.000 C 
BRANCH   3   4
ATOM      4  C   UNL     1      13.006  40.395  47.830  1.00  0.00     0.000 C 
BRANCH   4   5
ATOM      5  C   UNL     1      13.681  39.106  47.320  1.00  0.00     0.000 C 
BRANCH   5   6
ATOM      6  C   UNL     1      13.125  37.833  47.983  1.00  0.00     0.000 C 
BRANCH   6   7
ATOM      7  C   UNL     1      11.854  38.101  48.806  1.00  0.00     0.000 C 
BRANCH   7   8
ATOM      8  C   UNL     1      10.561  37.522  48.203  1.00  0.00     0.000 C 
BRANCH   8   9
ATOM      9  C   UNL     1       9.529  38.601  47.808  1.00  0.00     0.000 C 
BRANCH   9  10
ATOM     10  C   UNL     1       9.566  39.814  48.754  1.00  0.00     0.000 C 
BRANCH  10  11
ATOM     11  C   UNL     1       8.246  40.601  48.759  1.00  0.00     0.000 C 
BRANCH  11  12
ATOM     12  C   UNL     1       7.362  40.277  47.541  1.00  0.00     0.006 C 
BRANCH  12  13
ATOM     13  C   UNL     1       5.865  40.388  47.860  1.00  0.00     0.053 C 
BRANCH  13  14
ATOM     14  C   UNL     1       5.397  41.813  47.911  1.00  0.00     0.041 C 
ATOM     15  O   UNL     1       5.313  42.407  49.018  1.00  0.00    -0.550 OA
ATOM     16  O   UNL     1       4.996  42.464  46.750  1.00  0.00    -0.550 OA
ENDBRANCH  13  14
ENDBRANCH  12  13
ENDBRANCH  11  12
ENDBRANCH  10  11
ENDBRANCH   9  10
ENDBRANCH   8   9
ENDBRANCH   7   8
ENDBRANCH   6   7
ENDBRANCH   5   6
ENDBRANCH   4   5
ENDBRANCH   3   4
ENDBRANCH   2   3
ENDBRANCH   1   2
BRANCH   1  17
ATOM     17  C   UNL     1      13.048  41.231  43.172  1.00  0.00     0.000 C 
BRANCH  17  18
ATOM     18  C   UNL     1      13.371  39.795  43.615  1.00  0.00     0.000 C 
BRANCH  18  19
ATOM     19  C   UNL     1      12.256  38.802  43.244  1.00  0.00     0.000 C 
BRANCH  19  20
ATOM     20  C   UNL     1      11.478  38.361  44.491  1.00  0.00     0.000 C 
BRANCH  20  21
ATOM     21  C   UNL     1       9.977  38.645  44.335  1.00  0.00     0.000 C 
BRANCH  21  22
ATOM     22  C   UNL     1       9.633  40.145  44.422  1.00  0.00    -0.000 C 
BRANCH  22  23
ATOM     23  C   UNL     1       8.699  40.671  43.316  1.00  0.00    -0.000 C 
BRANCH  23  24
ATOM     24  C   UNL     1       9.459  41.198  42.086  1.00  0.00    -0.000 C 
BRANCH  24  25
ATOM     25  C   UNL     1       9.797  42.694  42.195  1.00  0.00    -0.000 C 
BRANCH  25  26
ATOM     26  C   UNL     1       9.100  43.548  41.125  1.00  0.00    -0.000 C 
BRANCH  26  27
ATOM     27  C   UNL     1       7.637  43.805  41.508  1.00  0.00    -0.000 C 
BRANCH  27  28
ATOM     28  C   UNL     1       7.475  45.166  42.195  1.00  0.00    -0.000 C 
BRANCH  28  29
ATOM     29  C   UNL     1       7.373  46.293  41.161  1.00  0.00    -0.003 C 
ATOM     30  C   UNL     1       8.544  47.264  41.287  1.00  0.00     0.004 C 
ENDBRANCH  28  29
ENDBRANCH  27  28
ENDBRANCH  26  27
ENDBRANCH  25  26
ENDBRANCH  24  25
ENDBRANCH  23  24
ENDBRANCH  22  23
ENDBRANCH  21  22
ENDBRANCH  20  21
ENDBRANCH  19  20
ENDBRANCH  18  19
ENDBRANCH  17  18
ENDBRANCH   1  17
TORSDOF 26
ENDMDL
MODEL 3
REMARK VINA RESULT:    -5.492      3.681      5.823
REMARK INTER + INTRA:         -17.074
REMARK INTER:                 -13.084
REMARK INTRA:                  -3.990
REMARK UNBOUND:                -3.235
REMARK SMILES CCCCCCCCCCCCCCCCCCCCCCCCCCCC(=O)[O-]
REMARK SMILES IDX 15 1 16 2 17 3 18 4 19 5 20 6 21 7 22 8 23 9 24 10 25 11
REMARK SMILES IDX 26 12 27 13 28 14 29 15 30 16 14 17 13 18 12 19 11 20 10 21
REMARK SMILES IDX 9 22 8 23 7 24 6 25 5 26 4 27 3 28 2 29 1 30
REMARK H PARENT
REMARK Flexibility Score: inf
ROOT
ATOM      1  C   UNL     1       5.360  41.950  47.449  1.00  0.00     0.000 C 
ENDROOT
BRANCH   1   2
ATOM      2  C   UNL     1       5.980  41.230  48.658  1.00  0.00     0.000 C 
BRANCH   2   3
ATOM      3  C   UNL     1       7.130  40.288  48.264  1.00  0.00     0.000 C 
BRANCH   3   4
ATOM      4  C   UNL     1       8.475  40.672  48.911  1.00  0.00     0.000 C 
BRANCH   4   5
ATOM      5  C   UNL     1       9.676  39.805  48.485  1.00  0.00     0.000 C 
BRANCH   5   6
ATOM      6  C   UNL     1       9.263  38.406  47.994  1.00  0.00     0.000 C 
BRANCH   6   7
ATOM      7  C   UNL     1      10.431  37.406  48.002  1.00  0.00     0.000 C 
BRANCH   7   8
ATOM      8  C   UNL     1      11.707  37.910  48.704  1.00  0.00     0.000 C 
BRANCH   8   9
ATOM      9  C   UNL     1      13.009  37.516  47.972  1.00  0.00     0.000 C 
BRANCH   9  10
ATOM     10  C   UNL     1      13.544  38.653  47.085  1.00  0.00     0.000 C 
BRANCH  10  11
ATOM     11  C   UNL     1      13.302  40.043  47.695  1.00  0.00     0.000 C 
BRANCH  11  12
ATOM     12  C   UNL     1      12.618  41.007  46.709  1.00  0.00     0.006 C 
BRANCH  12  13
ATOM     13  C   UNL     1      13.452  41.233  45.441  1.00  0.00     0.053 C 
BRANCH  13  14
ATOM     14  C   UNL     1      13.937  42.649  45.321  1.00  0.00     0.041 C 
ATOM     15  O   UNL     1      14.427  43.232  46.324  1.00  0.00    -0.550 OA
ATOM     16  O   UNL     1      13.792  43.343  44.125  1.00  0.00    -0.550 OA
ENDBRANCH  13  14
ENDBRANCH  12  13
ENDBRANCH  11  12
ENDBRANCH  10  11
ENDBRANCH   9  10
ENDBRANCH   8   9
ENDBRANCH   7   8
ENDBRANCH   6   7
ENDBRANCH   5   6
ENDBRANCH   4   5
ENDBRANCH   3   4
ENDBRANCH   2   3
ENDBRANCH   1   2
BRANCH   1  17
ATOM     17  C   UNL     1       5.688  41.250  46.118  1.00  0.00     0.000 C 
BRANCH  17  18
ATOM     18  C   UNL     1       5.661  42.215  44.923  1.00  0.00     0.000 C 
BRANCH  18  19
ATOM     19  C   UNL     1       6.818  41.966  43.940  1.00  0.00     0.000 C 
BRANCH  19  20
ATOM     20  C   UNL     1       7.529  40.643  44.255  1.00  0.00     0.000 C 
BRANCH  20  21
ATOM     21  C   UNL     1       9.041  40.757  44.015  1.00  0.00     0.000 C 
BRANCH  21  22
ATOM     22  C   UNL     1       9.852  39.665  44.740  1.00  0.00    -0.000 C 
BRANCH  22  23
ATOM     23  C   UNL     1      10.903  38.943  43.875  1.00  0.00    -0.000 C 
BRANCH  23  24
ATOM     24  C   UNL     1      11.315  37.575  44.444  1.00  0.00    -0.000 C 
BRANCH  24  25
ATOM     25  C   UNL     1      10.262  36.485  44.189  1.00  0.00    -0.000 C 
BRANCH  25  26
ATOM     26  C   UNL     1      10.590  35.156  44.886  1.00  0.00    -0.000 C 
BRANCH  26  27
ATOM     27  C   UNL     1       9.927  33.983  44.151  1.00  0.00    -0.000 C 
BRANCH  27  28
ATOM     28  C   UNL     1      10.811  33.477  43.006  1.00  0.00    -0.000 C 
BRANCH  28  29
ATOM     29  C   UNL     1      10.242  33.901  41.646  1.00  0.00    -0.003 C 
ATOM     30  C   UNL     1       9.651  32.708  40.901  1.00  0.00     0.004 C 
ENDBRANCH  28  29
ENDBRANCH  27  28
ENDBRANCH  26  27
ENDBRANCH  25  26
ENDBRANCH  24  25
ENDBRANCH  23  24
ENDBRANCH  22  23
ENDBRANCH  21  22
ENDBRANCH  20  21
ENDBRANCH  19  20
ENDBRANCH  18  19
ENDBRANCH  17  18
ENDBRANCH   1  17
TORSDOF 26
ENDMDL
MODEL 4
REMARK VINA RESULT:    -5.457      4.410      8.045
REMARK INTER + INTRA:         -16.987
REMARK INTER:                 -12.967
REMARK INTRA:                  -4.020
REMARK UNBOUND:                -3.235
REMARK SMILES CCCCCCCCCCCCCCCCCCCCCCCCCCCC(=O)[O-]
REMARK SMILES IDX 15 1 16 2 17 3 18 4 19 5 20 6 21 7 22 8 23 9 24 10 25 11
REMARK SMILES IDX 26 12 27 13 28 14 29 15 30 16 14 17 13 18 12 19 11 20 10 21
REMARK SMILES IDX 9 22 8 23 7 24 6 25 5 26 4 27 3 28 2 29 1 30
REMARK H PARENT
REMARK Flexibility Score: inf
ROOT
ATOM      1  C   UNL     1      10.627  40.494  49.285  1.00  0.00     0.000 C 
ENDROOT
BRANCH   1   2
ATOM      2  C   UNL     1       9.119  40.616  49.007  1.00  0.00     0.000 C 
BRANCH   2   3
ATOM      3  C   UNL     1       8.611  39.563  48.008  1.00  0.00     0.000 C 
BRANCH   3   4
ATOM      4  C   UNL     1       7.076  39.552  47.870  1.00  0.00     0.000 C 
BRANCH   4   5
ATOM      5  C   UNL     1       6.383  40.896  48.169  1.00  0.00     0.000 C 
BRANCH   5   6
ATOM      6  C   UNL     1       5.299  41.256  47.137  1.00  0.00     0.000 C 
BRANCH   6   7
ATOM      7  C   UNL     1       5.798  42.248  46.074  1.00  0.00     0.000 C 
BRANCH   7   8
ATOM      8  C   UNL     1       6.009  41.642  44.674  1.00  0.00     0.000 C 
BRANCH   8   9
ATOM      9  C   UNL     1       6.221  42.701  43.570  1.00  0.00     0.000 C 
BRANCH   9  10
ATOM     10  C   UNL     1       6.819  44.006  44.124  1.00  0.00     0.000 C 
BRANCH  10  11
ATOM     11  C   UNL     1       6.909  45.114  43.062  1.00  0.00     0.000 C 
BRANCH  11  12
ATOM     12  C   UNL     1       7.931  44.789  41.958  1.00  0.00     0.006 C 
BRANCH  12  13
ATOM     13  C   UNL     1       7.914  45.824  40.824  1.00  0.00     0.053 C 
BRANCH  13  14
ATOM     14  C   UNL     1       8.197  47.213  41.315  1.00  0.00     0.041 C 
ATOM     15  O   UNL     1       9.383  47.567  41.549  1.00  0.00    -0.550 OA
ATOM     16  O   UNL     1       7.153  48.094  41.573  1.00  0.00    -0.550 OA
ENDBRANCH  13  14
ENDBRANCH  12  13
ENDBRANCH  11  12
ENDBRANCH  10  11
ENDBRANCH   9  10
ENDBRANCH   8   9
ENDBRANCH   7   8
ENDBRANCH   6   7
ENDBRANCH   5   6
ENDBRANCH   4   5
ENDBRANCH   3   4
ENDBRANCH   2   3
ENDBRANCH   1   2
BRANCH   1  17
ATOM     17  C   UNL     1      11.200  39.144  48.819  1.00  0.00     0.000 C 
BRANCH  17  18
ATOM     18  C   UNL     1      12.477  39.305  47.978  1.00  0.00     0.000 C 
BRANCH  18  19
ATOM     19  C   UNL     1      12.692  40.755  47.511  1.00  0.00     0.000 C 
BRANCH  19  20
ATOM     20  C   UNL     1      13.100  40.799  46.032  1.00  0.00     0.000 C 
BRANCH  20  21
ATOM     21  C   UNL     1      13.553  39.416  45.541  1.00  0.00     0.000 C 
BRANCH  21  22
ATOM     22  C   UNL     1      13.231  39.167  44.055  1.00  0.00    -0.000 C 
BRANCH  22  23
ATOM     23  C   UNL     1      12.223  38.034  43.781  1.00  0.00    -0.000 C 
BRANCH  23  24
ATOM     24  C   UNL     1      11.179  37.872  44.900  1.00  0.00    -0.000 C 
BRANCH  24  25
ATOM     25  C   UNL     1       9.766  38.284  44.456  1.00  0.00    -0.000 C 
BRANCH  25  26
ATOM     26  C   UNL     1       9.532  39.801  44.524  1.00  0.00    -0.000 C 
BRANCH  26  27
ATOM     27  C   UNL     1       9.056  40.336  43.168  1.00  0.00    -0.000 C 
BRANCH  27  28
ATOM     28  C   UNL     1       9.774  41.640  42.803  1.00  0.00    -0.000 C 
BRANCH  28  29
ATOM     29  C   UNL     1      11.056  41.356  42.010  1.00  0.00    -0.003 C 
ATOM     30  C   UNL     1      11.276  42.406  40.925  1.00  0.00     0.004 C 
ENDBRANCH  28  29
ENDBRANCH  27  28
ENDBRANCH  26  27
ENDBRANCH  25  26
ENDBRANCH  24  25
ENDBRANCH  23  24
ENDBRANCH  22  23
ENDBRANCH  21  22
ENDBRANCH  20  21
ENDBRANCH  19  20
ENDBRANCH  18  19
ENDBRANCH  17  18
ENDBRANCH   1  17
TORSDOF 26
ENDMDL
MODEL 5
REMARK VINA RESULT:    -5.450      4.392      7.768
REMARK INTER + INTRA:         -16.968
REMARK INTER:                 -12.768
REMARK INTRA:                  -4.200
REMARK UNBOUND:                -3.235
REMARK SMILES CCCCCCCCCCCCCCCCCCCCCCCCCCCC(=O)[O-]
REMARK SMILES IDX 15 1 16 2 17 3 18 4 19 5 20 6 21 7 22 8 23 9 24 10 25 11
REMARK SMILES IDX 26 12 27 13 28 14 29 15 30 16 14 17 13 18 12 19 11 20 10 21
REMARK SMILES IDX 9 22 8 23 7 24 6 25 5 26 4 27 3 28 2 29 1 30
REMARK H PARENT
REMARK Flexibility Score: inf
ROOT
ATOM      1  C   UNL     1      10.168  40.261  49.528  1.00  0.00     0.000 C 
ENDROOT
BRANCH   1   2
ATOM      2  C   UNL     1       9.343  40.197  48.232  1.00  0.00     0.000 C 
BRANCH   2   3
ATOM      3  C   UNL     1       8.351  39.021  48.216  1.00  0.00     0.000 C 
BRANCH   3   4
ATOM      4  C   UNL     1       6.879  39.472  48.172  1.00  0.00     0.000 C 
BRANCH   4   5
ATOM      5  C   UNL     1       6.631  40.935  48.592  1.00  0.00     0.000 C 
BRANCH   5   6
ATOM      6  C   UNL     1       5.577  41.640  47.720  1.00  0.00     0.000 C 
BRANCH   6   7
ATOM      7  C   UNL     1       5.968  41.678  46.233  1.00  0.00     0.000 C 
BRANCH   7   8
ATOM      8  C   UNL     1       5.114  42.622  45.366  1.00  0.00     0.000 C 
BRANCH   8   9
ATOM      9  C   UNL     1       5.647  42.786  43.926  1.00  0.00     0.000 C 
BRANCH   9  10
ATOM     10  C   UNL     1       6.716  43.888  43.824  1.00  0.00     0.000 C 
BRANCH  10  11
ATOM     11  C   UNL     1       7.209  44.104  42.384  1.00  0.00     0.000 C 
BRANCH  11  12
ATOM     12  C   UNL     1       8.666  44.597  42.329  1.00  0.00     0.006 C 
BRANCH  12  13
ATOM     13  C   UNL     1       8.997  45.294  41.002  1.00  0.00     0.053 C 
BRANCH  13  14
ATOM     14  C   UNL     1       8.659  46.755  41.025  1.00  0.00     0.041 C 
ATOM     15  O   UNL     1       7.623  47.171  40.441  1.00  0.00    -0.550 OA
ATOM     16  O   UNL     1       9.515  47.666  41.635  1.00  0.00    -0.550 OA
ENDBRANCH  13  14
ENDBRANCH  12  13
ENDBRANCH  11  12
ENDBRANCH  10  11
ENDBRANCH   9  10
ENDBRANCH   8   9
ENDBRANCH   7   8
ENDBRANCH   6   7
ENDBRANCH   5   6
ENDBRANCH   4   5
ENDBRANCH   3   4
ENDBRANCH   2   3
ENDBRANCH   1   2
BRANCH   1  17
ATOM     17  C   UNL     1      11.676  40.400  49.256  1.00  0.00     0.000 C 
BRANCH  17  18
ATOM     18  C   UNL     1      12.332  39.062  48.878  1.00  0.00     0.000 C 
BRANCH  18  19
ATOM     19  C   UNL     1      13.580  39.247  47.999  1.00  0.00     0.000 C 
BRANCH  19  20
ATOM     20  C   UNL     1      13.233  39.086  46.513  1.00  0.00     0.000 C 
BRANCH  20  21
ATOM     21  C   UNL     1      13.528  40.376  45.734  1.00  0.00     0.000 C 
BRANCH  21  22
ATOM     22  C   UNL     1      12.387  41.408  45.819  1.00  0.00    -0.000 C 
BRANCH  22  23
ATOM     23  C   UNL     1      12.086  42.165  44.511  1.00  0.00    -0.000 C 
BRANCH  23  24
ATOM     24  C   UNL     1      12.124  41.260  43.268  1.00  0.00    -0.000 C 
BRANCH  24  25
ATOM     25  C   UNL     1      10.994  41.572  42.273  1.00  0.00    -0.000 C 
BRANCH  25  26
ATOM     26  C   UNL     1       9.810  40.600  42.383  1.00  0.00    -0.000 C 
BRANCH  26  27
ATOM     27  C   UNL     1       8.882  41.007  43.535  1.00  0.00    -0.000 C 
BRANCH  27  28
ATOM     28  C   UNL     1       8.719  39.865  44.545  1.00  0.00    -0.000 C 
BRANCH  28  29
ATOM     29  C   UNL     1       9.523  38.633  44.114  1.00  0.00    -0.003 C 
ATOM     30  C   UNL     1      10.296  38.041  45.289  1.00  0.00     0.004 C 
ENDBRANCH  28  29
ENDBRANCH  27  28
ENDBRANCH  26  27
ENDBRANCH  25  26
ENDBRANCH  24  25
ENDBRANCH  23  24
ENDBRANCH  22  23
ENDBRANCH  21  22
ENDBRANCH  20  21
ENDBRANCH  19  20
ENDBRANCH  18  19
ENDBRANCH  17  18
ENDBRANCH   1  17
TORSDOF 26
ENDMDL
MODEL 6
REMARK VINA RESULT:    -5.446      3.489      7.821
REMARK INTER + INTRA:         -16.958
REMARK INTER:                 -12.071
REMARK INTRA:                  -4.887
REMARK UNBOUND:                -3.235
REMARK SMILES CCCCCCCCCCCCCCCCCCCCCCCCCCCC(=O)[O-]
REMARK SMILES IDX 15 1 16 2 17 3 18 4 19 5 20 6 21 7 22 8 23 9 24 10 25 11
REMARK SMILES IDX 26 12 27 13 28 14 29 15 30 16 14 17 13 18 12 19 11 20 10 21
REMARK SMILES IDX 9 22 8 23 7 24 6 25 5 26 4 27 3 28 2 29 1 30
REMARK H PARENT
REMARK Flexibility Score: inf
ROOT
ATOM      1  C   UNL     1       9.748  37.977  44.368  1.00  0.00     0.000 C 
ENDROOT
BRANCH   1   2
ATOM      2  C   UNL     1       9.210  39.359  44.775  1.00  0.00     0.000 C 
BRANCH   2   3
ATOM      3  C   UNL     1       9.558  39.729  46.227  1.00  0.00     0.000 C 
BRANCH   3   4
ATOM      4  C   UNL     1       8.382  39.524  47.201  1.00  0.00     0.000 C 
BRANCH   4   5
ATOM      5  C   UNL     1       8.530  40.233  48.563  1.00  0.00     0.000 C 
BRANCH   5   6
ATOM      6  C   UNL     1       7.274  41.025  48.967  1.00  0.00     0.000 C 
BRANCH   6   7
ATOM      7  C   UNL     1       6.118  40.854  47.969  1.00  0.00     0.000 C 
BRANCH   7   8
ATOM      8  C   UNL     1       5.276  42.123  47.733  1.00  0.00     0.000 C 
BRANCH   8   9
ATOM      9  C   UNL     1       5.144  42.506  46.243  1.00  0.00     0.000 C 
BRANCH   9  10
ATOM     10  C   UNL     1       5.778  41.456  45.314  1.00  0.00     0.000 C 
BRANCH  10  11
ATOM     11  C   UNL     1       6.771  42.071  44.315  1.00  0.00     0.000 C 
BRANCH  11  12
ATOM     12  C   UNL     1       6.325  43.459  43.821  1.00  0.00     0.006 C 
BRANCH  12  13
ATOM     13  C   UNL     1       7.512  44.351  43.436  1.00  0.00     0.053 C 
BRANCH  13  14
ATOM     14  C   UNL     1       7.538  44.665  41.969  1.00  0.00     0.041 C 
ATOM     15  O   UNL     1       7.123  45.780  41.556  1.00  0.00    -0.550 OA
ATOM     16  O   UNL     1       7.960  43.707  41.052  1.00  0.00    -0.550 OA
ENDBRANCH  13  14
ENDBRANCH  12  13
ENDBRANCH  11  12
ENDBRANCH  10  11
ENDBRANCH   9  10
ENDBRANCH   8   9
ENDBRANCH   7   8
ENDBRANCH   6   7
ENDBRANCH   5   6
ENDBRANCH   4   5
ENDBRANCH   3   4
ENDBRANCH   2   3
ENDBRANCH   1   2
BRANCH   1  17
ATOM     17  C   UNL     1      11.279  37.886  44.487  1.00  0.00     0.000 C 
BRANCH  17  18
ATOM     18  C   UNL     1      11.727  36.929  45.603  1.00  0.00     0.000 C 
BRANCH  18  19
ATOM     19  C   UNL     1      10.541  36.361  46.401  1.00  0.00     0.000 C 
BRANCH  19  20
ATOM     20  C   UNL     1      10.921  36.151  47.873  1.00  0.00     0.000 C 
BRANCH  20  21
ATOM     21  C   UNL     1      12.097  37.053  48.275  1.00  0.00     0.000 C 
BRANCH  21  22
ATOM     22  C   UNL     1      11.649  38.361  48.956  1.00  0.00    -0.000 C 
BRANCH  22  23
ATOM     23  C   UNL     1      12.458  39.614  48.570  1.00  0.00    -0.000 C 
BRANCH  23  24
ATOM     24  C   UNL     1      13.570  39.322  47.547  1.00  0.00    -0.000 C 
BRANCH  24  25
ATOM     25  C   UNL     1      13.498  40.240  46.316  1.00  0.00    -0.000 C 
BRANCH  25  26
ATOM     26  C   UNL     1      12.493  41.390  46.481  1.00  0.00    -0.000 C 
BRANCH  26  27
ATOM     27  C   UNL     1      12.431  42.240  45.206  1.00  0.00    -0.000 C 
BRANCH  27  28
ATOM     28  C   UNL     1      12.084  41.382  43.984  1.00  0.00    -0.000 C 
BRANCH  28  29
ATOM     29  C   UNL     1      10.967  42.031  43.158  1.00  0.00    -0.003 C 
ATOM     30  C   UNL     1      10.952  41.489  41.732  1.00  0.00     0.004 C 
ENDBRANCH  28  29
ENDBRANCH  27  28
ENDBRANCH  26  27
ENDBRANCH  25  26
ENDBRANCH  24  25
ENDBRANCH  23  24
ENDBRANCH  22  23
ENDBRANCH  21  22
ENDBRANCH  20  21
ENDBRANCH  19  20
ENDBRANCH  18  19
ENDBRANCH  17  18
ENDBRANCH   1  17
TORSDOF 26
ENDMDL
MODEL 7
REMARK VINA RESULT:    -5.436      1.556      3.253
REMARK INTER + INTRA:         -16.933
REMARK INTER:                 -13.468
REMARK INTRA:                  -3.465
REMARK UNBOUND:                -3.235
REMARK SMILES CCCCCCCCCCCCCCCCCCCCCCCCCCCC(=O)[O-]
REMARK SMILES IDX 15 1 16 2 17 3 18 4 19 5 20 6 21 7 22 8 23 9 24 10 25 11
REMARK SMILES IDX 26 12 27 13 28 14 29 15 30 16 14 17 13 18 12 19 11 20 10 21
REMARK SMILES IDX 9 22 8 23 7 24 6 25 5 26 4 27 3 28 2 29 1 30
REMARK H PARENT
REMARK Flexibility Score: inf
ROOT
ATOM      1  C   UNL     1       8.152  40.604  48.639  1.00  0.00     0.000 C 
ENDROOT
BRANCH   1   2
ATOM      2  C   UNL     1       8.278  39.243  47.933  1.00  0.00     0.000 C 
BRANCH   2   3
ATOM      3  C   UNL     1       9.603  38.528  48.250  1.00  0.00     0.000 C 
BRANCH   3   4
ATOM      4  C   UNL     1      10.626  39.438  48.957  1.00  0.00     0.000 C 
BRANCH   4   5
ATOM      5  C   UNL     1      12.104  39.099  48.679  1.00  0.00     0.000 C 
BRANCH   5   6
ATOM      6  C   UNL     1      12.755  40.044  47.653  1.00  0.00     0.000 C 
BRANCH   6   7
ATOM      7  C   UNL     1      12.308  39.752  46.211  1.00  0.00     0.000 C 
BRANCH   7   8
ATOM      8  C   UNL     1      12.878  38.453  45.610  1.00  0.00     0.000 C 
BRANCH   8   9
ATOM      9  C   UNL     1      11.854  37.299  45.555  1.00  0.00     0.000 C 
BRANCH   9  10
ATOM     10  C   UNL     1      11.256  37.118  44.148  1.00  0.00     0.000 C 
BRANCH  10  11
ATOM     11  C   UNL     1      10.212  35.991  44.089  1.00  0.00     0.000 C 
BRANCH  11  12
ATOM     12  C   UNL     1      10.547  34.935  43.020  1.00  0.00     0.006 C 
BRANCH  12  13
ATOM     13  C   UNL     1      10.498  33.506  43.576  1.00  0.00     0.053 C 
BRANCH  13  14
ATOM     14  C   UNL     1       9.120  33.115  44.024  1.00  0.00     0.041 C 
ATOM     15  O   UNL     1       8.795  33.234  45.234  1.00  0.00    -0.550 OA
ATOM     16  O   UNL     1       8.218  32.562  43.121  1.00  0.00    -0.550 OA
ENDBRANCH  13  14
ENDBRANCH  12  13
ENDBRANCH  11  12
ENDBRANCH  10  11
ENDBRANCH   9  10
ENDBRANCH   8   9
ENDBRANCH   7   8
ENDBRANCH   6   7
ENDBRANCH   5   6
ENDBRANCH   4   5
ENDBRANCH   3   4
ENDBRANCH   2   3
ENDBRANCH   1   2
BRANCH   1  17
ATOM     17  C   UNL     1       6.702  41.117  48.669  1.00  0.00     0.000 C 
BRANCH  17  18
ATOM     18  C   UNL     1       5.922  40.751  47.396  1.00  0.00     0.000 C 
BRANCH  18  19
ATOM     19  C   UNL     1       4.830  41.781  47.061  1.00  0.00     0.000 C 
BRANCH  19  20
ATOM     20  C   UNL     1       5.240  42.642  45.858  1.00  0.00     0.000 C 
BRANCH  20  21
ATOM     21  C   UNL     1       5.957  41.799  44.793  1.00  0.00     0.000 C 
BRANCH  21  22
ATOM     22  C   UNL     1       6.317  42.602  43.528  1.00  0.00    -0.000 C 
BRANCH  22  23
ATOM     23  C   UNL     1       6.742  44.062  43.776  1.00  0.00    -0.000 C 
BRANCH  23  24
ATOM     24  C   UNL     1       7.582  44.648  42.628  1.00  0.00    -0.000 C 
BRANCH  24  25
ATOM     25  C   UNL     1       9.021  44.108  42.612  1.00  0.00    -0.000 C 
BRANCH  25  26
ATOM     26  C   UNL     1       9.424  43.510  41.255  1.00  0.00    -0.000 C 
BRANCH  26  27
ATOM     27  C   UNL     1       9.302  41.981  41.282  1.00  0.00    -0.000 C 
BRANCH  27  28
ATOM     28  C   UNL     1       9.861  41.403  42.587  1.00  0.00    -0.000 C 
BRANCH  28  29
ATOM     29  C   UNL     1       9.088  40.146  43.005  1.00  0.00    -0.003 C 
ATOM     30  C   UNL     1       9.051  40.001  44.523  1.00  0.00     0.004 C 
ENDBRANCH  28  29
ENDBRANCH  27  28
ENDBRANCH  26  27
ENDBRANCH  25  26
ENDBRANCH  24  25
ENDBRANCH  23  24
ENDBRANCH  22  23
ENDBRANCH  21  22
ENDBRANCH  20  21
ENDBRANCH  19  20
ENDBRANCH  18  19
ENDBRANCH  17  18
ENDBRANCH   1  17
TORSDOF 26
ENDMDL
MODEL 8
REMARK VINA RESULT:    -5.434      3.715      7.364
REMARK INTER + INTRA:         -16.929
REMARK INTER:                 -12.388
REMARK INTRA:                  -4.541
REMARK UNBOUND:                -3.235
REMARK SMILES CCCCCCCCCCCCCCCCCCCCCCCCCCCC(=O)[O-]
REMARK SMILES IDX 15 1 16 2 17 3 18 4 19 5 20 6 21 7 22 8 23 9 24 10 25 11
REMARK SMILES IDX 26 12 27 13 28 14 29 15 30 16 14 17 13 18 12 19 11 20 10 21
REMARK SMILES IDX 9 22 8 23 7 24 6 25 5 26 4 27 3 28 2 29 1 30
REMARK H PARENT
REMARK Flexibility Score: inf
ROOT
ATOM      1  C   UNL     1       9.253  39.643  48.161  1.00  0.00     0.000 C 
ENDROOT
BRANCH   1   2
ATOM      2  C   UNL     1       7.894  40.237  47.754  1.00  0.00     0.000 C 
BRANCH   2   3
ATOM      3  C   UNL     1       7.223  41.021  48.895  1.00  0.00     0.000 C 
BRANCH   3   4
ATOM      4  C   UNL     1       5.959  41.779  48.446  1.00  0.00     0.000 C 
BRANCH   4   5
ATOM      5  C   UNL     1       5.326  41.274  47.134  1.00  0.00     0.000 C 
BRANCH   5   6
ATOM      6  C   UNL     1       5.399  42.306  45.995  1.00  0.00     0.000 C 
BRANCH   6   7
ATOM      7  C   UNL     1       6.165  41.783  44.769  1.00  0.00     0.000 C 
BRANCH   7   8
ATOM      8  C   UNL     1       6.178  42.739  43.561  1.00  0.00     0.000 C 
BRANCH   8   9
ATOM      9  C   UNL     1       7.007  44.020  43.798  1.00  0.00     0.000 C 
BRANCH   9  10
ATOM     10  C   UNL     1       7.179  44.848  42.512  1.00  0.00     0.000 C 
BRANCH  10  11
ATOM     11  C   UNL     1       8.164  44.206  41.523  1.00  0.00     0.000 C 
BRANCH  11  12
ATOM     12  C   UNL     1       8.975  45.252  40.737  1.00  0.00     0.006 C 
BRANCH  12  13
ATOM     13  C   UNL     1      10.475  45.185  41.051  1.00  0.00     0.053 C 
BRANCH  13  14
ATOM     14  C   UNL     1      11.286  44.736  39.871  1.00  0.00     0.041 C 
ATOM     15  O   UNL     1      11.923  43.651  39.921  1.00  0.00    -0.550 OA
ATOM     16  O   UNL     1      11.389  45.542  38.742  1.00  0.00    -0.550 OA
ENDBRANCH  13  14
ENDBRANCH  12  13
ENDBRANCH  11  12
ENDBRANCH  10  11
ENDBRANCH   9  10
ENDBRANCH   8   9
ENDBRANCH   7   8
ENDBRANCH   6   7
ENDBRANCH   5   6
ENDBRANCH   4   5
ENDBRANCH   3   4
ENDBRANCH   2   3
ENDBRANCH   1   2
BRANCH   1  17
ATOM     17  C   UNL     1       9.954  40.474  49.250  1.00  0.00     0.000 C 
BRANCH  17  18
ATOM     18  C   UNL     1      11.471  40.229  49.292  1.00  0.00     0.000 C 
BRANCH  18  19
ATOM     19  C   UNL     1      11.949  39.308  48.157  1.00  0.00     0.000 C 
BRANCH  19  20
ATOM     20  C   UNL     1      13.045  39.987  47.325  1.00  0.00     0.000 C 
BRANCH  20  21
ATOM     21  C   UNL     1      12.491  41.202  46.566  1.00  0.00     0.000 C 
BRANCH  21  22
ATOM     22  C   UNL     1      13.449  41.723  45.478  1.00  0.00    -0.000 C 
BRANCH  22  23
ATOM     23  C   UNL     1      13.155  41.224  44.050  1.00  0.00    -0.000 C 
BRANCH  23  24
ATOM     24  C   UNL     1      12.539  42.308  43.148  1.00  0.00    -0.000 C 
BRANCH  24  25
ATOM     25  C   UNL     1      11.003  42.311  43.190  1.00  0.00    -0.000 C 
BRANCH  25  26
ATOM     26  C   UNL     1      10.373  41.300  42.220  1.00  0.00    -0.000 C 
BRANCH  26  27
ATOM     27  C   UNL     1       9.218  40.550  42.896  1.00  0.00    -0.000 C 
BRANCH  27  28
ATOM     28  C   UNL     1       9.564  40.190  44.346  1.00  0.00    -0.000 C 
BRANCH  28  29
ATOM     29  C   UNL     1       9.665  38.670  44.523  1.00  0.00    -0.003 C 
ATOM     30  C   UNL     1      11.121  38.221  44.601  1.00  0.00     0.004 C 
ENDBRANCH  28  29
ENDBRANCH  27  28
ENDBRANCH  26  27
ENDBRANCH  25  26
ENDBRANCH  24  25
ENDBRANCH  23  24
ENDBRANCH  22  23
ENDBRANCH  21  22
ENDBRANCH  20  21
ENDBRANCH  19  20
ENDBRANCH  18  19
ENDBRANCH  17  18
ENDBRANCH   1  17
TORSDOF 26
ENDMDL
MODEL 9
REMARK VINA RESULT:    -5.433      3.697      8.317
REMARK INTER + INTRA:         -16.926
REMARK INTER:                 -12.932
REMARK INTRA:                  -3.994
REMARK UNBOUND:                -3.235
REMARK SMILES CCCCCCCCCCCCCCCCCCCCCCCCCCCC(=O)[O-]
REMARK SMILES IDX 15 1 16 2 17 3 18 4 19 5 20 6 21 7 22 8 23 9 24 10 25 11
REMARK SMILES IDX 26 12 27 13 28 14 29 15 30 16 14 17 13 18 12 19 11 20 10 21
REMARK SMILES IDX 9 22 8 23 7 24 6 25 5 26 4 27 3 28 2 29 1 30
REMARK H PARENT
REMARK Flexibility Score: inf
ROOT
ATOM      1  C   UNL     1       8.933  32.151  46.364  1.00  0.00     0.000 C 
ENDROOT
BRANCH   1   2
ATOM      2  C   UNL     1       8.700  32.945  47.660  1.00  0.00     0.000 C 
BRANCH   2   3
ATOM      3  C   UNL     1       9.730  34.071  47.861  1.00  0.00     0.000 C 
BRANCH   3   4
ATOM      4  C   UNL     1       9.182  35.463  47.492  1.00  0.00     0.000 C 
BRANCH   4   5
ATOM      5  C   UNL     1      10.096  36.646  47.870  1.00  0.00     0.000 C 
BRANCH   5   6
ATOM      6  C   UNL     1      11.519  36.206  48.258  1.00  0.00     0.000 C 
BRANCH   6   7
ATOM      7  C   UNL     1      12.484  37.392  48.417  1.00  0.00     0.000 C 
BRANCH   7   8
ATOM      8  C   UNL     1      11.912  38.588  49.200  1.00  0.00     0.000 C 
BRANCH   8   9
ATOM      9  C   UNL     1      11.945  39.915  48.410  1.00  0.00     0.000 C 
BRANCH   9  10
ATOM     10  C   UNL     1      10.561  40.298  47.858  1.00  0.00     0.000 C 
BRANCH  10  11
ATOM     11  C   UNL     1       9.465  40.266  48.936  1.00  0.00     0.000 C 
BRANCH  11  12
ATOM     12  C   UNL     1       8.077  39.941  48.355  1.00  0.00     0.006 C 
BRANCH  12  13
ATOM     13  C   UNL     1       7.039  41.022  48.685  1.00  0.00     0.053 C 
BRANCH  13  14
ATOM     14  C   UNL     1       5.821  40.928  47.813  1.00  0.00     0.041 C 
ATOM     15  O   UNL     1       5.533  39.839  47.250  1.00  0.00    -0.550 OA
ATOM     16  O   UNL     1       5.041  42.053  47.571  1.00  0.00    -0.550 OA
ENDBRANCH  13  14
ENDBRANCH  12  13
ENDBRANCH  11  12
ENDBRANCH  10  11
ENDBRANCH   9  10
ENDBRANCH   8   9
ENDBRANCH   7   8
ENDBRANCH   6   7
ENDBRANCH   5   6
ENDBRANCH   4   5
ENDBRANCH   3   4
ENDBRANCH   2   3
ENDBRANCH   1   2
BRANCH   1  17
ATOM     17  C   UNL     1       7.945  32.544  45.251  1.00  0.00     0.000 C 
BRANCH  17  18
ATOM     18  C   UNL     1       7.161  31.339  44.708  1.00  0.00     0.000 C 
BRANCH  18  19
ATOM     19  C   UNL     1       7.526  31.008  43.251  1.00  0.00     0.000 C 
BRANCH  19  20
ATOM     20  C   UNL     1       7.950  32.273  42.492  1.00  0.00     0.000 C 
BRANCH  20  21
ATOM     21  C   UNL     1       8.718  31.917  41.211  1.00  0.00     0.000 C 
BRANCH  21  22
ATOM     22  C   UNL     1       9.833  32.927  40.875  1.00  0.00    -0.000 C 
BRANCH  22  23
ATOM     23  C   UNL     1      10.044  34.043  41.916  1.00  0.00    -0.000 C 
BRANCH  23  24
ATOM     24  C   UNL     1      10.929  33.608  43.096  1.00  0.00    -0.000 C 
BRANCH  24  25
ATOM     25  C   UNL     1      10.809  34.550  44.305  1.00  0.00    -0.000 C 
BRANCH  25  26
ATOM     26  C   UNL     1      10.477  35.997  43.910  1.00  0.00    -0.000 C 
BRANCH  26  27
ATOM     27  C   UNL     1      11.431  36.978  44.604  1.00  0.00    -0.000 C 
BRANCH  27  28
ATOM     28  C   UNL     1      10.952  38.425  44.441  1.00  0.00    -0.000 C 
BRANCH  28  29
ATOM     29  C   UNL     1       9.431  38.481  44.256  1.00  0.00    -0.003 C 
ATOM     30  C   UNL     1       8.873  39.833  44.691  1.00  0.00     0.004 C 
ENDBRANCH  28  29
ENDBRANCH  27  28
ENDBRANCH  26  27
ENDBRANCH  25  26
ENDBRANCH  24  25
ENDBRANCH  23  24
ENDBRANCH  22  23
ENDBRANCH  21  22
ENDBRANCH  20  21
ENDBRANCH  19  20
ENDBRANCH  18  19
ENDBRANCH  17  18
ENDBRANCH   1  17
TORSDOF 26
ENDMDL
