MODEL 1
REMARK VINA RESULT:    -3.111      0.000      0.000
REMARK INTER + INTRA:         -14.423
REMARK INTER:                  -8.203
REMARK INTRA:                  -6.220
REMARK UNBOUND:                -6.220
REMARK SMILES CCCCCCCCCCCCCCCCCCCCCCCCCCCCCC(=O)[O-]
REMARK SMILES IDX 16 1 17 2 18 3 19 4 20 5 21 6 22 7 23 8 24 9 25 10 26 11
REMARK SMILES IDX 27 12 28 13 29 14 30 15 31 16 32 17 15 18 14 19 13 20 12 21
REMARK SMILES IDX 11 22 10 23 9 24 8 25 7 26 6 27 5 28 4 29 3 30 2 31 1 32
REMARK H PARENT
REMARK Flexibility Score: inf
ROOT
ATOM      1  C   UNL     1      -8.134  37.051  46.249  1.00  0.00     0.000 C 
ENDROOT
BRANCH   1   2
ATOM      2  C   UNL     1      -7.421  35.738  45.863  1.00  0.00     0.000 C 
BRANCH   2   3
ATOM      3  C   UNL     1      -7.412  35.506  44.342  1.00  0.00     0.000 C 
BRANCH   3   4
ATOM      4  C   UNL     1      -7.578  34.023  43.969  1.00  0.00     0.000 C 
BRANCH   4   5
ATOM      5  C   UNL     1      -7.007  33.641  42.588  1.00  0.00     0.000 C 
BRANCH   5   6
ATOM      6  C   UNL     1      -5.480  33.837  42.483  1.00  0.00     0.000 C 
BRANCH   6   7
ATOM      7  C   UNL     1      -4.695  32.842  43.361  1.00  0.00     0.000 C 
BRANCH   7   8
ATOM      8  C   UNL     1      -3.759  33.545  44.355  1.00  0.00     0.000 C 
BRANCH   8   9
ATOM      9  C   UNL     1      -3.912  35.074  44.334  1.00  0.00     0.000 C 
BRANCH   9  10
ATOM     10  C   UNL     1      -2.582  35.799  44.596  1.00  0.00     0.000 C 
BRANCH  10  11
ATOM     11  C   UNL     1      -2.667  36.763  45.793  1.00  0.00     0.000 C 
BRANCH  11  12
ATOM     12  C   UNL     1      -4.116  37.039  46.225  1.00  0.00     0.000 C 
BRANCH  12  13
ATOM     13  C   UNL     1      -4.280  38.415  46.892  1.00  0.00     0.006 C 
BRANCH  13  14
ATOM     14  C   UNL     1      -5.344  38.402  47.997  1.00  0.00     0.053 C 
BRANCH  14  15
ATOM     15  C   UNL     1      -5.127  37.282  48.968  1.00  0.00     0.041 C 
ATOM     16  O   UNL     1      -5.999  36.385  49.103  1.00  0.00    -0.550 OA
ATOM     17  O   UNL     1      -3.955  37.218  49.711  1.00  0.00    -0.550 OA
ENDBRANCH  14  15
ENDBRANCH  13  14
ENDBRANCH  12  13
ENDBRANCH  11  12
ENDBRANCH  10  11
ENDBRANCH   9  10
ENDBRANCH   8   9
ENDBRANCH   7   8
ENDBRANCH   6   7
ENDBRANCH   5   6
ENDBRANCH   4   5
ENDBRANCH   3   4
ENDBRANCH   2   3
ENDBRANCH   1   2
BRANCH   1  18
ATOM     18  C   UNL     1      -8.347  38.009  45.065  1.00  0.00     0.000 C 
BRANCH  18  19
ATOM     19  C   UNL     1      -7.635  39.358  45.249  1.00  0.00     0.000 C 
BRANCH  19  20
ATOM     20  C   UNL     1      -7.025  39.883  43.931  1.00  0.00     0.000 C 
BRANCH  20  21
ATOM     21  C   UNL     1      -6.054  38.895  43.261  1.00  0.00     0.000 C 
BRANCH  21  22
ATOM     22  C   UNL     1      -4.567  39.274  43.363  1.00  0.00     0.000 C 
BRANCH  22  23
ATOM     23  C   UNL     1      -3.689  38.518  42.351  1.00  0.00     0.000 C 
BRANCH  23  24
ATOM     24  C   UNL     1      -4.430  37.348  41.682  1.00  0.00    -0.000 C 
BRANCH  24  25
ATOM     25  C   UNL     1      -3.765  36.805  40.401  1.00  0.00    -0.000 C 
BRANCH  25  26
ATOM     26  C   UNL     1      -2.388  36.151  40.644  1.00  0.00    -0.000 C 
BRANCH  26  27
ATOM     27  C   UNL     1      -2.470  34.614  40.687  1.00  0.00    -0.000 C 
BRANCH  27  28
ATOM     28  C   UNL     1      -1.082  33.955  40.751  1.00  0.00    -0.000 C 
BRANCH  28  29
ATOM     29  C   UNL     1      -0.358  34.231  42.081  1.00  0.00    -0.000 C 
BRANCH  29  30
ATOM     30  C   UNL     1      -0.484  33.054  43.073  1.00  0.00    -0.000 C 
BRANCH  30  31
ATOM     31  C   UNL     1      -0.392  31.669  42.410  1.00  0.00    -0.003 C 
ATOM     32  C   UNL     1      -1.650  30.825  42.606  1.00  0.00     0.004 C 
ENDBRANCH  30  31
ENDBRANCH  29  30
ENDBRANCH  28  29
ENDBRANCH  27  28
ENDBRANCH  26  27
ENDBRANCH  25  26
ENDBRANCH  24  25
ENDBRANCH  23  24
ENDBRANCH  22  23
ENDBRANCH  21  22
ENDBRANCH  20  21
ENDBRANCH  19  20
ENDBRANCH  18  19
ENDBRANCH   1  18
TORSDOF 28
ENDMDL
MODEL 2
REMARK VINA RESULT:    -3.081      2.539      6.230
REMARK INTER + INTRA:         -14.344
REMARK INTER:                  -7.950
REMARK INTRA:                  -6.394
REMARK UNBOUND:                -6.220
REMARK SMILES CCCCCCCCCCCCCCCCCCCCCCCCCCCCCC(=O)[O-]
REMARK SMILES IDX 16 1 17 2 18 3 19 4 20 5 21 6 22 7 23 8 24 9 25 10 26 11
REMARK SMILES IDX 27 12 28 13 29 14 30 15 31 16 32 17 15 18 14 19 13 20 12 21
REMARK SMILES IDX 11 22 10 23 9 24 8 25 7 26 6 27 5 28 4 29 3 30 2 31 1 32
REMARK H PARENT
REMARK Flexibility Score: inf
ROOT
ATOM      1  C   UNL     1      -4.023  35.903  41.016  1.00  0.00     0.000 C 
ENDROOT
BRANCH   1   2
ATOM      2  C   UNL     1      -2.717  35.091  40.892  1.00  0.00     0.000 C 
BRANCH   2   3
ATOM      3  C   UNL     1      -2.883  33.644  41.389  1.00  0.00     0.000 C 
BRANCH   3   4
ATOM      4  C   UNL     1      -1.597  33.087  42.025  1.00  0.00     0.000 C 
BRANCH   4   5
ATOM      5  C   UNL     1      -0.516  34.146  42.320  1.00  0.00     0.000 C 
BRANCH   5   6
ATOM      6  C   UNL     1       0.137  33.983  43.709  1.00  0.00     0.000 C 
BRANCH   6   7
ATOM      7  C   UNL     1      -0.650  34.707  44.820  1.00  0.00     0.000 C 
BRANCH   7   8
ATOM      8  C   UNL     1      -1.498  35.869  44.281  1.00  0.00     0.000 C 
BRANCH   8   9
ATOM      9  C   UNL     1      -2.985  35.735  44.642  1.00  0.00     0.000 C 
BRANCH   9  10
ATOM     10  C   UNL     1      -3.304  34.387  45.310  1.00  0.00     0.000 C 
BRANCH  10  11
ATOM     11  C   UNL     1      -4.523  33.694  44.674  1.00  0.00     0.000 C 
BRANCH  11  12
ATOM     12  C   UNL     1      -5.616  34.690  44.257  1.00  0.00     0.000 C 
BRANCH  12  13
ATOM     13  C   UNL     1      -6.483  34.164  43.099  1.00  0.00     0.006 C 
BRANCH  13  14
ATOM     14  C   UNL     1      -7.316  32.942  43.505  1.00  0.00     0.053 C 
BRANCH  14  15
ATOM     15  C   UNL     1      -8.611  32.874  42.754  1.00  0.00     0.041 C 
ATOM     16  O   UNL     1      -8.626  33.034  41.506  1.00  0.00    -0.550 OA
ATOM     17  O   UNL     1      -9.797  32.616  43.429  1.00  0.00    -0.550 OA
ENDBRANCH  14  15
ENDBRANCH  13  14
ENDBRANCH  12  13
ENDBRANCH  11  12
ENDBRANCH  10  11
ENDBRANCH   9  10
ENDBRANCH   8   9
ENDBRANCH   7   8
ENDBRANCH   6   7
ENDBRANCH   5   6
ENDBRANCH   4   5
ENDBRANCH   3   4
ENDBRANCH   2   3
ENDBRANCH   1   2
BRANCH   1  18
ATOM     18  C   UNL     1      -3.841  37.409  40.760  1.00  0.00     0.000 C 
BRANCH  18  19
ATOM     19  C   UNL     1      -3.861  38.243  42.051  1.00  0.00     0.000 C 
BRANCH  19  20
ATOM     20  C   UNL     1      -5.157  38.034  42.864  1.00  0.00     0.000 C 
BRANCH  20  21
ATOM     21  C   UNL     1      -5.863  39.345  43.252  1.00  0.00     0.000 C 
BRANCH  21  22
ATOM     22  C   UNL     1      -7.242  39.169  43.911  1.00  0.00     0.000 C 
BRANCH  22  23
ATOM     23  C   UNL     1      -7.648  37.693  44.058  1.00  0.00     0.000 C 
BRANCH  23  24
ATOM     24  C   UNL     1      -8.219  37.372  45.450  1.00  0.00    -0.000 C 
BRANCH  24  25
ATOM     25  C   UNL     1      -7.814  38.361  46.562  1.00  0.00    -0.000 C 
BRANCH  25  26
ATOM     26  C   UNL     1      -6.755  37.802  47.537  1.00  0.00    -0.000 C 
BRANCH  26  27
ATOM     27  C   UNL     1      -5.460  37.385  46.817  1.00  0.00    -0.000 C 
BRANCH  27  28
ATOM     28  C   UNL     1      -4.514  38.574  46.578  1.00  0.00    -0.000 C 
BRANCH  28  29
ATOM     29  C   UNL     1      -3.139  38.376  47.239  1.00  0.00    -0.000 C 
BRANCH  29  30
ATOM     30  C   UNL     1      -3.122  37.175  48.210  1.00  0.00    -0.000 C 
BRANCH  30  31
ATOM     31  C   UNL     1      -1.839  36.329  48.130  1.00  0.00    -0.003 C 
ATOM     32  C   UNL     1      -0.566  37.172  48.090  1.00  0.00     0.004 C 
ENDBRANCH  30  31
ENDBRANCH  29  30
ENDBRANCH  28  29
ENDBRANCH  27  28
ENDBRANCH  26  27
ENDBRANCH  25  26
ENDBRANCH  24  25
ENDBRANCH  23  24
ENDBRANCH  22  23
ENDBRANCH  21  22
ENDBRANCH  20  21
ENDBRANCH  19  20
ENDBRANCH  18  19
ENDBRANCH   1  18
TORSDOF 28
ENDMDL
MODEL 3
REMARK VINA RESULT:    -3.051     10.000     12.895
REMARK INTER + INTRA:         -14.266
REMARK INTER:                  -9.420
REMARK INTRA:                  -4.846
REMARK UNBOUND:                -6.220
REMARK SMILES CCCCCCCCCCCCCCCCCCCCCCCCCCCCCC(=O)[O-]
REMARK SMILES IDX 16 1 17 2 18 3 19 4 20 5 21 6 22 7 23 8 24 9 25 10 26 11
REMARK SMILES IDX 27 12 28 13 29 14 30 15 31 16 32 17 15 18 14 19 13 20 12 21
REMARK SMILES IDX 11 22 10 23 9 24 8 25 7 26 6 27 5 28 4 29 3 30 2 31 1 32
REMARK H PARENT
REMARK Flexibility Score: inf
ROOT
ATOM      1  C   UNL     1      -0.051  29.652  55.808  1.00  0.00     0.000 C 
ENDROOT
BRANCH   1   2
ATOM      2  C   UNL     1       0.774  30.027  54.559  1.00  0.00     0.000 C 
BRANCH   2   3
ATOM      3  C   UNL     1       0.174  31.226  53.804  1.00  0.00     0.000 C 
BRANCH   3   4
ATOM      4  C   UNL     1       1.252  32.149  53.210  1.00  0.00     0.000 C 
BRANCH   4   5
ATOM      5  C   UNL     1       2.594  31.455  52.904  1.00  0.00     0.000 C 
BRANCH   5   6
ATOM      6  C   UNL     1       3.493  32.261  51.942  1.00  0.00     0.000 C 
BRANCH   6   7
ATOM      7  C   UNL     1       2.682  33.183  51.010  1.00  0.00     0.000 C 
BRANCH   7   8
ATOM      8  C   UNL     1       2.823  32.797  49.530  1.00  0.00     0.000 C 
BRANCH   8   9
ATOM      9  C   UNL     1       1.466  32.586  48.841  1.00  0.00     0.000 C 
BRANCH   9  10
ATOM     10  C   UNL     1       0.468  31.831  49.734  1.00  0.00     0.000 C 
BRANCH  10  11
ATOM     11  C   UNL     1      -0.989  32.250  49.466  1.00  0.00     0.000 C 
BRANCH  11  12
ATOM     12  C   UNL     1      -1.655  32.889  50.694  1.00  0.00     0.000 C 
BRANCH  12  13
ATOM     13  C   UNL     1      -1.591  34.426  50.667  1.00  0.00     0.006 C 
BRANCH  13  14
ATOM     14  C   UNL     1      -0.509  34.979  51.604  1.00  0.00     0.053 C 
BRANCH  14  15
ATOM     15  C   UNL     1       0.377  35.970  50.910  1.00  0.00     0.041 C 
ATOM     16  O   UNL     1       0.557  35.894  49.667  1.00  0.00    -0.550 OA
ATOM     17  O   UNL     1       0.989  36.986  51.634  1.00  0.00    -0.550 OA
ENDBRANCH  14  15
ENDBRANCH  13  14
ENDBRANCH  12  13
ENDBRANCH  11  12
ENDBRANCH  10  11
ENDBRANCH   9  10
ENDBRANCH   8   9
ENDBRANCH   7   8
ENDBRANCH   6   7
ENDBRANCH   5   6
ENDBRANCH   4   5
ENDBRANCH   3   4
ENDBRANCH   2   3
ENDBRANCH   1   2
BRANCH   1  18
ATOM     18  C   UNL     1       0.805  29.184  56.997  1.00  0.00     0.000 C 
BRANCH  18  19
ATOM     19  C   UNL     1       1.908  28.195  56.589  1.00  0.00     0.000 C 
BRANCH  19  20
ATOM     20  C   UNL     1       3.265  28.525  57.248  1.00  0.00     0.000 C 
BRANCH  20  21
ATOM     21  C   UNL     1       4.482  28.075  56.420  1.00  0.00     0.000 C 
BRANCH  21  22
ATOM     22  C   UNL     1       5.398  29.212  55.939  1.00  0.00     0.000 C 
BRANCH  22  23
ATOM     23  C   UNL     1       5.238  29.512  54.439  1.00  0.00     0.000 C 
BRANCH  23  24
ATOM     24  C   UNL     1       4.241  28.565  53.749  1.00  0.00    -0.000 C 
BRANCH  24  25
ATOM     25  C   UNL     1       4.550  28.261  52.269  1.00  0.00    -0.000 C 
BRANCH  25  26
ATOM     26  C   UNL     1       5.624  29.185  51.655  1.00  0.00    -0.000 C 
BRANCH  26  27
ATOM     27  C   UNL     1       5.229  29.690  50.255  1.00  0.00    -0.000 C 
BRANCH  27  28
ATOM     28  C   UNL     1       3.838  29.195  49.825  1.00  0.00    -0.000 C 
BRANCH  28  29
ATOM     29  C   UNL     1       3.908  28.125  48.722  1.00  0.00    -0.000 C 
BRANCH  29  30
ATOM     30  C   UNL     1       5.324  27.528  48.572  1.00  0.00    -0.000 C 
BRANCH  30  31
ATOM     31  C   UNL     1       5.400  26.022  48.875  1.00  0.00    -0.003 C 
ATOM     32  C   UNL     1       4.273  25.536  49.784  1.00  0.00     0.004 C 
ENDBRANCH  30  31
ENDBRANCH  29  30
ENDBRANCH  28  29
ENDBRANCH  27  28
ENDBRANCH  26  27
ENDBRANCH  25  26
ENDBRANCH  24  25
ENDBRANCH  23  24
ENDBRANCH  22  23
ENDBRANCH  21  22
ENDBRANCH  20  21
ENDBRANCH  19  20
ENDBRANCH  18  19
ENDBRANCH   1  18
TORSDOF 28
ENDMDL
MODEL 4
REMARK VINA RESULT:    -3.044     10.082     13.492
REMARK INTER + INTRA:         -14.247
REMARK INTER:                 -10.711
REMARK INTRA:                  -3.536
REMARK UNBOUND:                -6.220
REMARK SMILES CCCCCCCCCCCCCCCCCCCCCCCCCCCCCC(=O)[O-]
REMARK SMILES IDX 16 1 17 2 18 3 19 4 20 5 21 6 22 7 23 8 24 9 25 10 26 11
REMARK SMILES IDX 27 12 28 13 29 14 30 15 31 16 32 17 15 18 14 19 13 20 12 21
REMARK SMILES IDX 11 22 10 23 9 24 8 25 7 26 6 27 5 28 4 29 3 30 2 31 1 32
REMARK H PARENT
REMARK Flexibility Score: inf
ROOT
ATOM      1  C   UNL     1       0.438  28.799  55.151  1.00  0.00     0.000 C 
ENDROOT
BRANCH   1   2
ATOM      2  C   UNL     1       1.181  29.995  54.520  1.00  0.00     0.000 C 
BRANCH   2   3
ATOM      3  C   UNL     1       0.213  31.066  53.988  1.00  0.00     0.000 C 
BRANCH   3   4
ATOM      4  C   UNL     1       0.922  32.133  53.137  1.00  0.00     0.000 C 
BRANCH   4   5
ATOM      5  C   UNL     1       2.394  31.816  52.805  1.00  0.00     0.000 C 
BRANCH   5   6
ATOM      6  C   UNL     1       2.926  32.593  51.582  1.00  0.00     0.000 C 
BRANCH   6   7
ATOM      7  C   UNL     1       2.734  31.820  50.262  1.00  0.00     0.000 C 
BRANCH   7   8
ATOM      8  C   UNL     1       1.417  32.176  49.556  1.00  0.00     0.000 C 
BRANCH   8   9
ATOM      9  C   UNL     1       0.895  31.035  48.669  1.00  0.00     0.000 C 
BRANCH   9  10
ATOM     10  C   UNL     1       1.967  30.510  47.700  1.00  0.00     0.000 C 
BRANCH  10  11
ATOM     11  C   UNL     1       2.140  31.421  46.470  1.00  0.00     0.000 C 
BRANCH  11  12
ATOM     12  C   UNL     1       1.147  31.087  45.346  1.00  0.00     0.000 C 
BRANCH  12  13
ATOM     13  C   UNL     1       1.691  30.027  44.374  1.00  0.00     0.006 C 
BRANCH  13  14
ATOM     14  C   UNL     1       0.728  29.756  43.210  1.00  0.00     0.053 C 
BRANCH  14  15
ATOM     15  C   UNL     1       1.452  29.300  41.980  1.00  0.00     0.041 C 
ATOM     16  O   UNL     1       2.410  29.977  41.524  1.00  0.00    -0.550 OA
ATOM     17  O   UNL     1       1.082  28.120  41.348  1.00  0.00    -0.550 OA
ENDBRANCH  14  15
ENDBRANCH  13  14
ENDBRANCH  12  13
ENDBRANCH  11  12
ENDBRANCH  10  11
ENDBRANCH   9  10
ENDBRANCH   8   9
ENDBRANCH   7   8
ENDBRANCH   6   7
ENDBRANCH   5   6
ENDBRANCH   4   5
ENDBRANCH   3   4
ENDBRANCH   2   3
ENDBRANCH   1   2
BRANCH   1  18
ATOM     18  C   UNL     1       0.084  29.005  56.634  1.00  0.00     0.000 C 
BRANCH  18  19
ATOM     19  C   UNL     1       1.317  29.246  57.517  1.00  0.00     0.000 C 
BRANCH  19  20
ATOM     20  C   UNL     1       2.286  28.044  57.513  1.00  0.00     0.000 C 
BRANCH  20  21
ATOM     21  C   UNL     1       3.751  28.429  57.240  1.00  0.00     0.000 C 
BRANCH  21  22
ATOM     22  C   UNL     1       4.230  28.181  55.800  1.00  0.00     0.000 C 
BRANCH  22  23
ATOM     23  C   UNL     1       5.269  29.214  55.332  1.00  0.00     0.000 C 
BRANCH  23  24
ATOM     24  C   UNL     1       5.065  29.636  53.867  1.00  0.00    -0.000 C 
BRANCH  24  25
ATOM     25  C   UNL     1       4.236  28.653  53.017  1.00  0.00    -0.000 C 
BRANCH  25  26
ATOM     26  C   UNL     1       4.530  28.736  51.503  1.00  0.00    -0.000 C 
BRANCH  26  27
ATOM     27  C   UNL     1       4.879  27.363  50.899  1.00  0.00    -0.000 C 
BRANCH  27  28
ATOM     28  C   UNL     1       5.199  27.449  49.397  1.00  0.00    -0.000 C 
BRANCH  28  29
ATOM     29  C   UNL     1       4.011  27.023  48.516  1.00  0.00    -0.000 C 
BRANCH  29  30
ATOM     30  C   UNL     1       4.062  27.666  47.113  1.00  0.00    -0.000 C 
BRANCH  30  31
ATOM     31  C   UNL     1       5.362  28.437  46.829  1.00  0.00    -0.003 C 
ATOM     32  C   UNL     1       5.151  29.663  45.942  1.00  0.00     0.004 C 
ENDBRANCH  30  31
ENDBRANCH  29  30
ENDBRANCH  28  29
ENDBRANCH  27  28
ENDBRANCH  26  27
ENDBRANCH  25  26
ENDBRANCH  24  25
ENDBRANCH  23  24
ENDBRANCH  22  23
ENDBRANCH  21  22
ENDBRANCH  20  21
ENDBRANCH  19  20
ENDBRANCH  18  19
ENDBRANCH   1  18
TORSDOF 28
ENDMDL
MODEL 5
REMARK VINA RESULT:    -3.042      2.705      6.110
REMARK INTER + INTRA:         -14.242
REMARK INTER:                 -10.125
REMARK INTRA:                  -4.116
REMARK UNBOUND:                -6.220
REMARK SMILES CCCCCCCCCCCCCCCCCCCCCCCCCCCCCC(=O)[O-]
REMARK SMILES IDX 16 1 17 2 18 3 19 4 20 5 21 6 22 7 23 8 24 9 25 10 26 11
REMARK SMILES IDX 27 12 28 13 29 14 30 15 31 16 32 17 15 18 14 19 13 20 12 21
REMARK SMILES IDX 11 22 10 23 9 24 8 25 7 26 6 27 5 28 4 29 3 30 2 31 1 32
REMARK H PARENT
REMARK Flexibility Score: inf
ROOT
ATOM      1  C   UNL     1      -3.933  37.121  40.713  1.00  0.00     0.000 C 
ENDROOT
BRANCH   1   2
ATOM      2  C   UNL     1      -3.233  37.723  41.950  1.00  0.00     0.000 C 
BRANCH   2   3
ATOM      3  C   UNL     1      -4.170  38.634  42.762  1.00  0.00     0.000 C 
BRANCH   3   4
ATOM      4  C   UNL     1      -5.338  37.862  43.399  1.00  0.00     0.000 C 
BRANCH   4   5
ATOM      5  C   UNL     1      -6.418  38.752  44.047  1.00  0.00     0.000 C 
BRANCH   5   6
ATOM      6  C   UNL     1      -7.815  38.098  44.072  1.00  0.00     0.000 C 
BRANCH   6   7
ATOM      7  C   UNL     1      -8.395  37.996  45.497  1.00  0.00     0.000 C 
BRANCH   7   8
ATOM      8  C   UNL     1      -7.452  38.579  46.560  1.00  0.00     0.000 C 
BRANCH   8   9
ATOM      9  C   UNL     1      -6.720  37.491  47.363  1.00  0.00     0.000 C 
BRANCH   9  10
ATOM     10  C   UNL     1      -7.084  36.073  46.892  1.00  0.00     0.000 C 
BRANCH  10  11
ATOM     11  C   UNL     1      -5.916  35.381  46.166  1.00  0.00     0.000 C 
BRANCH  11  12
ATOM     12  C   UNL     1      -6.376  34.187  45.315  1.00  0.00     0.000 C 
BRANCH  12  13
ATOM     13  C   UNL     1      -7.265  34.611  44.134  1.00  0.00     0.006 C 
BRANCH  13  14
ATOM     14  C   UNL     1      -7.485  33.470  43.133  1.00  0.00     0.053 C 
BRANCH  14  15
ATOM     15  C   UNL     1      -8.638  32.597  43.524  1.00  0.00     0.041 C 
ATOM     16  O   UNL     1      -9.685  32.581  42.825  1.00  0.00    -0.550 OA
ATOM     17  O   UNL     1      -8.552  31.789  44.651  1.00  0.00    -0.550 OA
ENDBRANCH  14  15
ENDBRANCH  13  14
ENDBRANCH  12  13
ENDBRANCH  11  12
ENDBRANCH  10  11
ENDBRANCH   9  10
ENDBRANCH   8   9
ENDBRANCH   7   8
ENDBRANCH   6   7
ENDBRANCH   5   6
ENDBRANCH   4   5
ENDBRANCH   3   4
ENDBRANCH   2   3
ENDBRANCH   1   2
BRANCH   1  18
ATOM     18  C   UNL     1      -3.671  35.616  40.527  1.00  0.00     0.000 C 
BRANCH  18  19
ATOM     19  C   UNL     1      -4.620  34.736  41.356  1.00  0.00     0.000 C 
BRANCH  19  20
ATOM     20  C   UNL     1      -3.864  33.656  42.161  1.00  0.00     0.000 C 
BRANCH  20  21
ATOM     21  C   UNL     1      -3.180  34.195  43.430  1.00  0.00     0.000 C 
BRANCH  21  22
ATOM     22  C   UNL     1      -1.655  34.360  43.326  1.00  0.00     0.000 C 
BRANCH  22  23
ATOM     23  C   UNL     1      -0.978  33.189  42.592  1.00  0.00     0.000 C 
BRANCH  23  24
ATOM     24  C   UNL     1      -0.959  31.898  43.428  1.00  0.00    -0.000 C 
BRANCH  24  25
ATOM     25  C   UNL     1       0.205  31.793  44.434  1.00  0.00    -0.000 C 
BRANCH  25  26
ATOM     26  C   UNL     1       1.162  30.613  44.159  1.00  0.00    -0.000 C 
BRANCH  26  27
ATOM     27  C   UNL     1       2.109  30.891  42.977  1.00  0.00    -0.000 C 
BRANCH  27  28
ATOM     28  C   UNL     1       2.312  29.655  42.085  1.00  0.00    -0.000 C 
BRANCH  28  29
ATOM     29  C   UNL     1       1.572  29.771  40.740  1.00  0.00    -0.000 C 
BRANCH  29  30
ATOM     30  C   UNL     1       0.086  29.368  40.851  1.00  0.00    -0.000 C 
BRANCH  30  31
ATOM     31  C   UNL     1      -0.138  27.983  41.483  1.00  0.00    -0.003 C 
ATOM     32  C   UNL     1       0.553  26.856  40.717  1.00  0.00     0.004 C 
ENDBRANCH  30  31
ENDBRANCH  29  30
ENDBRANCH  28  29
ENDBRANCH  27  28
ENDBRANCH  26  27
ENDBRANCH  25  26
ENDBRANCH  24  25
ENDBRANCH  23  24
ENDBRANCH  22  23
ENDBRANCH  21  22
ENDBRANCH  20  21
ENDBRANCH  19  20
ENDBRANCH  18  19
ENDBRANCH   1  18
TORSDOF 28
ENDMDL
MODEL 6
REMARK VINA RESULT:    -3.027      2.689      4.766
REMARK INTER + INTRA:         -14.203
REMARK INTER:                  -7.930
REMARK INTRA:                  -6.273
REMARK UNBOUND:                -6.220
REMARK SMILES CCCCCCCCCCCCCCCCCCCCCCCCCCCCCC(=O)[O-]
REMARK SMILES IDX 16 1 17 2 18 3 19 4 20 5 21 6 22 7 23 8 24 9 25 10 26 11
REMARK SMILES IDX 27 12 28 13 29 14 30 15 31 16 32 17 15 18 14 19 13 20 12 21
REMARK SMILES IDX 11 22 10 23 9 24 8 25 7 26 6 27 5 28 4 29 3 30 2 31 1 32
REMARK H PARENT
REMARK Flexibility Score: inf
ROOT
ATOM      1  C   UNL     1      -7.664  37.524  44.335  1.00  0.00     0.000 C 
ENDROOT
BRANCH   1   2
ATOM      2  C   UNL     1      -8.456  37.901  45.604  1.00  0.00     0.000 C 
BRANCH   2   3
ATOM      3  C   UNL     1      -7.585  37.847  46.871  1.00  0.00     0.000 C 
BRANCH   3   4
ATOM      4  C   UNL     1      -6.959  39.210  47.216  1.00  0.00     0.000 C 
BRANCH   4   5
ATOM      5  C   UNL     1      -5.419  39.242  47.163  1.00  0.00     0.000 C 
BRANCH   5   6
ATOM      6  C   UNL     1      -4.772  37.859  47.393  1.00  0.00     0.000 C 
BRANCH   6   7
ATOM      7  C   UNL     1      -3.368  37.753  46.763  1.00  0.00     0.000 C 
BRANCH   7   8
ATOM      8  C   UNL     1      -3.172  36.447  45.978  1.00  0.00     0.000 C 
BRANCH   8   9
ATOM      9  C   UNL     1      -4.474  35.938  45.339  1.00  0.00     0.000 C 
BRANCH   9  10
ATOM     10  C   UNL     1      -4.844  34.524  45.814  1.00  0.00     0.000 C 
BRANCH  10  11
ATOM     11  C   UNL     1      -6.365  34.284  45.806  1.00  0.00     0.000 C 
BRANCH  11  12
ATOM     12  C   UNL     1      -6.733  32.850  45.397  1.00  0.00     0.000 C 
BRANCH  12  13
ATOM     13  C   UNL     1      -6.655  32.631  43.876  1.00  0.00     0.006 C 
BRANCH  13  14
ATOM     14  C   UNL     1      -7.517  33.634  43.099  1.00  0.00     0.053 C 
BRANCH  14  15
ATOM     15  C   UNL     1      -8.749  32.994  42.536  1.00  0.00     0.041 C 
ATOM     16  O   UNL     1      -9.716  32.711  43.291  1.00  0.00    -0.550 OA
ATOM     17  O   UNL     1      -8.837  32.725  41.176  1.00  0.00    -0.550 OA
ENDBRANCH  14  15
ENDBRANCH  13  14
ENDBRANCH  12  13
ENDBRANCH  11  12
ENDBRANCH  10  11
ENDBRANCH   9  10
ENDBRANCH   8   9
ENDBRANCH   7   8
ENDBRANCH   6   7
ENDBRANCH   5   6
ENDBRANCH   4   5
ENDBRANCH   3   4
ENDBRANCH   2   3
ENDBRANCH   1   2
BRANCH   1  18
ATOM     18  C   UNL     1      -6.927  38.711  43.692  1.00  0.00     0.000 C 
BRANCH  18  19
ATOM     19  C   UNL     1      -5.510  38.351  43.216  1.00  0.00     0.000 C 
BRANCH  19  20
ATOM     20  C   UNL     1      -4.480  39.448  43.561  1.00  0.00     0.000 C 
BRANCH  20  21
ATOM     21  C   UNL     1      -3.172  39.344  42.756  1.00  0.00     0.000 C 
BRANCH  21  22
ATOM     22  C   UNL     1      -2.107  38.416  43.364  1.00  0.00     0.000 C 
BRANCH  22  23
ATOM     23  C   UNL     1      -1.767  37.223  42.454  1.00  0.00     0.000 C 
BRANCH  23  24
ATOM     24  C   UNL     1      -2.334  37.383  41.032  1.00  0.00    -0.000 C 
BRANCH  24  25
ATOM     25  C   UNL     1      -3.142  36.176  40.515  1.00  0.00    -0.000 C 
BRANCH  25  26
ATOM     26  C   UNL     1      -4.218  35.677  41.504  1.00  0.00    -0.000 C 
BRANCH  26  27
ATOM     27  C   UNL     1      -4.216  34.144  41.646  1.00  0.00    -0.000 C 
BRANCH  27  28
ATOM     28  C   UNL     1      -2.928  33.619  42.302  1.00  0.00    -0.000 C 
BRANCH  28  29
ATOM     29  C   UNL     1      -3.059  32.160  42.774  1.00  0.00    -0.000 C 
BRANCH  29  30
ATOM     30  C   UNL     1      -2.618  31.978  44.243  1.00  0.00    -0.000 C 
BRANCH  30  31
ATOM     31  C   UNL     1      -3.495  30.995  45.038  1.00  0.00    -0.003 C 
ATOM     32  C   UNL     1      -3.472  31.251  46.543  1.00  0.00     0.004 C 
ENDBRANCH  30  31
ENDBRANCH  29  30
ENDBRANCH  28  29
ENDBRANCH  27  28
ENDBRANCH  26  27
ENDBRANCH  25  26
ENDBRANCH  24  25
ENDBRANCH  23  24
ENDBRANCH  22  23
ENDBRANCH  21  22
ENDBRANCH  20  21
ENDBRANCH  19  20
ENDBRANCH  18  19
ENDBRANCH   1  18
TORSDOF 28
ENDMDL
MODEL 7
REMARK VINA RESULT:    -3.012      3.078      5.355
REMARK INTER + INTRA:         -14.162
REMARK INTER:                  -8.429
REMARK INTRA:                  -5.733
REMARK UNBOUND:                -6.220
REMARK SMILES CCCCCCCCCCCCCCCCCCCCCCCCCCCCCC(=O)[O-]
REMARK SMILES IDX 16 1 17 2 18 3 19 4 20 5 21 6 22 7 23 8 24 9 25 10 26 11
REMARK SMILES IDX 27 12 28 13 29 14 30 15 31 16 32 17 15 18 14 19 13 20 12 21
REMARK SMILES IDX 11 22 10 23 9 24 8 25 7 26 6 27 5 28 4 29 3 30 2 31 1 32
REMARK H PARENT
REMARK Flexibility Score: inf
ROOT
ATOM      1  C   UNL     1      -4.880  38.943  47.198  1.00  0.00     0.000 C 
ENDROOT
BRANCH   1   2
ATOM      2  C   UNL     1      -6.325  39.192  47.680  1.00  0.00     0.000 C 
BRANCH   2   3
ATOM      3  C   UNL     1      -7.333  38.248  47.003  1.00  0.00     0.000 C 
BRANCH   3   4
ATOM      4  C   UNL     1      -8.131  38.939  45.884  1.00  0.00     0.000 C 
BRANCH   4   5
ATOM      5  C   UNL     1      -8.087  38.216  44.523  1.00  0.00     0.000 C 
BRANCH   5   6
ATOM      6  C   UNL     1      -6.677  38.179  43.896  1.00  0.00     0.000 C 
BRANCH   6   7
ATOM      7  C   UNL     1      -6.204  36.743  43.592  1.00  0.00     0.000 C 
BRANCH   7   8
ATOM      8  C   UNL     1      -5.268  36.188  44.677  1.00  0.00     0.000 C 
BRANCH   8   9
ATOM      9  C   UNL     1      -5.941  35.113  45.545  1.00  0.00     0.000 C 
BRANCH   9  10
ATOM     10  C   UNL     1      -7.318  34.700  45.001  1.00  0.00     0.000 C 
BRANCH  10  11
ATOM     11  C   UNL     1      -7.271  33.357  44.251  1.00  0.00     0.000 C 
BRANCH  11  12
ATOM     12  C   UNL     1      -7.823  33.460  42.821  1.00  0.00     0.000 C 
BRANCH  12  13
ATOM     13  C   UNL     1      -9.118  32.652  42.628  1.00  0.00     0.006 C 
BRANCH  13  14
ATOM     14  C   UNL     1      -9.229  31.486  43.618  1.00  0.00     0.053 C 
BRANCH  14  15
ATOM     15  C   UNL     1     -10.204  30.448  43.152  1.00  0.00     0.041 C 
ATOM     16  O   UNL     1      -9.878  29.636  42.248  1.00  0.00    -0.550 OA
ATOM     17  O   UNL     1     -11.466  30.367  43.727  1.00  0.00    -0.550 OA
ENDBRANCH  14  15
ENDBRANCH  13  14
ENDBRANCH  12  13
ENDBRANCH  11  12
ENDBRANCH  10  11
ENDBRANCH   9  10
ENDBRANCH   8   9
ENDBRANCH   7   8
ENDBRANCH   6   7
ENDBRANCH   5   6
ENDBRANCH   4   5
ENDBRANCH   3   4
ENDBRANCH   2   3
ENDBRANCH   1   2
BRANCH   1  18
ATOM     18  C   UNL     1      -4.404  39.944  46.131  1.00  0.00     0.000 C 
BRANCH  18  19
ATOM     19  C   UNL     1      -3.313  39.369  45.213  1.00  0.00     0.000 C 
BRANCH  19  20
ATOM     20  C   UNL     1      -3.524  39.763  43.735  1.00  0.00     0.000 C 
BRANCH  20  21
ATOM     21  C   UNL     1      -2.486  39.152  42.777  1.00  0.00     0.000 C 
BRANCH  21  22
ATOM     22  C   UNL     1      -2.863  37.776  42.201  1.00  0.00     0.000 C 
BRANCH  22  23
ATOM     23  C   UNL     1      -3.827  37.874  41.007  1.00  0.00     0.000 C 
BRANCH  23  24
ATOM     24  C   UNL     1      -4.014  36.528  40.286  1.00  0.00    -0.000 C 
BRANCH  24  25
ATOM     25  C   UNL     1      -3.409  35.311  41.014  1.00  0.00    -0.000 C 
BRANCH  25  26
ATOM     26  C   UNL     1      -4.446  34.233  41.394  1.00  0.00    -0.000 C 
BRANCH  26  27
ATOM     27  C   UNL     1      -4.070  33.490  42.689  1.00  0.00    -0.000 C 
BRANCH  27  28
ATOM     28  C   UNL     1      -2.872  32.546  42.495  1.00  0.00    -0.000 C 
BRANCH  28  29
ATOM     29  C   UNL     1      -1.748  32.801  43.515  1.00  0.00    -0.000 C 
BRANCH  29  30
ATOM     30  C   UNL     1      -2.194  33.743  44.655  1.00  0.00    -0.000 C 
BRANCH  30  31
ATOM     31  C   UNL     1      -1.643  35.174  44.529  1.00  0.00    -0.003 C 
ATOM     32  C   UNL     1      -0.466  35.281  43.561  1.00  0.00     0.004 C 
ENDBRANCH  30  31
ENDBRANCH  29  30
ENDBRANCH  28  29
ENDBRANCH  27  28
ENDBRANCH  26  27
ENDBRANCH  25  26
ENDBRANCH  24  25
ENDBRANCH  23  24
ENDBRANCH  22  23
ENDBRANCH  21  22
ENDBRANCH  20  21
ENDBRANCH  19  20
ENDBRANCH  18  19
ENDBRANCH   1  18
TORSDOF 28
ENDMDL
MODEL 8
REMARK VINA RESULT:    -2.991      2.861      5.895
REMARK INTER + INTRA:         -14.106
REMARK INTER:                  -8.050
REMARK INTRA:                  -6.056
REMARK UNBOUND:                -6.220
REMARK SMILES CCCCCCCCCCCCCCCCCCCCCCCCCCCCCC(=O)[O-]
REMARK SMILES IDX 16 1 17 2 18 3 19 4 20 5 21 6 22 7 23 8 24 9 25 10 26 11
REMARK SMILES IDX 27 12 28 13 29 14 30 15 31 16 32 17 15 18 14 19 13 20 12 21
REMARK SMILES IDX 11 22 10 23 9 24 8 25 7 26 6 27 5 28 4 29 3 30 2 31 1 32
REMARK H PARENT
REMARK Flexibility Score: inf
ROOT
ATOM      1  C   UNL     1      -3.610  38.932  42.683  1.00  0.00     0.000 C 
ENDROOT
BRANCH   1   2
ATOM      2  C   UNL     1      -4.457  38.486  43.893  1.00  0.00     0.000 C 
BRANCH   2   3
ATOM      3  C   UNL     1      -5.967  38.554  43.604  1.00  0.00     0.000 C 
BRANCH   3   4
ATOM      4  C   UNL     1      -6.669  37.200  43.807  1.00  0.00     0.000 C 
BRANCH   4   5
ATOM      5  C   UNL     1      -7.774  37.205  44.882  1.00  0.00     0.000 C 
BRANCH   5   6
ATOM      6  C   UNL     1      -7.238  36.965  46.309  1.00  0.00     0.000 C 
BRANCH   6   7
ATOM      7  C   UNL     1      -5.911  36.179  46.317  1.00  0.00     0.000 C 
BRANCH   7   8
ATOM      8  C   UNL     1      -5.957  34.955  47.244  1.00  0.00     0.000 C 
BRANCH   8   9
ATOM      9  C   UNL     1      -7.268  34.163  47.115  1.00  0.00     0.000 C 
BRANCH   9  10
ATOM     10  C   UNL     1      -7.259  33.210  45.909  1.00  0.00     0.000 C 
BRANCH  10  11
ATOM     11  C   UNL     1      -8.475  33.421  44.988  1.00  0.00     0.000 C 
BRANCH  11  12
ATOM     12  C   UNL     1      -8.070  33.720  43.536  1.00  0.00     0.000 C 
BRANCH  12  13
ATOM     13  C   UNL     1      -8.741  32.770  42.529  1.00  0.00     0.006 C 
BRANCH  13  14
ATOM     14  C   UNL     1      -9.867  31.947  43.167  1.00  0.00     0.053 C 
BRANCH  14  15
ATOM     15  C   UNL     1      -9.602  30.475  43.078  1.00  0.00     0.041 C 
ATOM     16  O   UNL     1     -10.173  29.782  42.196  1.00  0.00    -0.550 OA
ATOM     17  O   UNL     1      -8.712  29.871  43.957  1.00  0.00    -0.550 OA
ENDBRANCH  14  15
ENDBRANCH  13  14
ENDBRANCH  12  13
ENDBRANCH  11  12
ENDBRANCH  10  11
ENDBRANCH   9  10
ENDBRANCH   8   9
ENDBRANCH   7   8
ENDBRANCH   6   7
ENDBRANCH   5   6
ENDBRANCH   4   5
ENDBRANCH   3   4
ENDBRANCH   2   3
ENDBRANCH   1   2
BRANCH   1  18
ATOM     18  C   UNL     1      -3.052  37.762  41.855  1.00  0.00     0.000 C 
BRANCH  18  19
ATOM     19  C   UNL     1      -3.641  37.694  40.438  1.00  0.00     0.000 C 
BRANCH  19  20
ATOM     20  C   UNL     1      -3.934  36.245  39.993  1.00  0.00     0.000 C 
BRANCH  20  21
ATOM     21  C   UNL     1      -2.783  35.264  40.280  1.00  0.00     0.000 C 
BRANCH  21  22
ATOM     22  C   UNL     1      -3.122  34.138  41.272  1.00  0.00     0.000 C 
BRANCH  22  23
ATOM     23  C   UNL     1      -4.574  34.203  41.773  1.00  0.00     0.000 C 
BRANCH  23  24
ATOM     24  C   UNL     1      -4.666  34.332  43.304  1.00  0.00    -0.000 C 
BRANCH  24  25
ATOM     25  C   UNL     1      -3.348  34.716  44.004  1.00  0.00    -0.000 C 
BRANCH  25  26
ATOM     26  C   UNL     1      -3.032  33.860  45.250  1.00  0.00    -0.000 C 
BRANCH  26  27
ATOM     27  C   UNL     1      -3.747  32.497  45.220  1.00  0.00    -0.000 C 
BRANCH  27  28
ATOM     28  C   UNL     1      -2.812  31.355  44.789  1.00  0.00    -0.000 C 
BRANCH  28  29
ATOM     29  C   UNL     1      -2.806  31.140  43.266  1.00  0.00    -0.000 C 
BRANCH  29  30
ATOM     30  C   UNL     1      -1.376  31.106  42.684  1.00  0.00    -0.000 C 
BRANCH  30  31
ATOM     31  C   UNL     1      -0.352  31.913  43.501  1.00  0.00    -0.003 C 
ATOM     32  C   UNL     1      -0.055  33.286  42.902  1.00  0.00     0.004 C 
ENDBRANCH  30  31
ENDBRANCH  29  30
ENDBRANCH  28  29
ENDBRANCH  27  28
ENDBRANCH  26  27
ENDBRANCH  25  26
ENDBRANCH  24  25
ENDBRANCH  23  24
ENDBRANCH  22  23
ENDBRANCH  21  22
ENDBRANCH  20  21
ENDBRANCH  19  20
ENDBRANCH  18  19
ENDBRANCH   1  18
TORSDOF 28
ENDMDL
MODEL 9
REMARK VINA RESULT:    -2.915      3.036      5.918
REMARK INTER + INTRA:         -13.906
REMARK INTER:                  -8.093
REMARK INTRA:                  -5.814
REMARK UNBOUND:                -6.220
REMARK SMILES CCCCCCCCCCCCCCCCCCCCCCCCCCCCCC(=O)[O-]
REMARK SMILES IDX 16 1 17 2 18 3 19 4 20 5 21 6 22 7 23 8 24 9 25 10 26 11
REMARK SMILES IDX 27 12 28 13 29 14 30 15 31 16 32 17 15 18 14 19 13 20 12 21
REMARK SMILES IDX 11 22 10 23 9 24 8 25 7 26 6 27 5 28 4 29 3 30 2 31 1 32
REMARK H PARENT
REMARK Flexibility Score: inf
ROOT
ATOM      1  C   UNL     1      -4.112  38.191  45.820  1.00  0.00     0.000 C 
ENDROOT
BRANCH   1   2
ATOM      2  C   UNL     1      -2.966  38.245  44.787  1.00  0.00     0.000 C 
BRANCH   2   3
ATOM      3  C   UNL     1      -3.081  37.131  43.733  1.00  0.00     0.000 C 
BRANCH   3   4
ATOM      4  C   UNL     1      -2.821  37.640  42.304  1.00  0.00     0.000 C 
BRANCH   4   5
ATOM      5  C   UNL     1      -4.032  37.535  41.355  1.00  0.00     0.000 C 
BRANCH   5   6
ATOM      6  C   UNL     1      -3.903  36.390  40.327  1.00  0.00     0.000 C 
BRANCH   6   7
ATOM      7  C   UNL     1      -4.260  35.015  40.928  1.00  0.00     0.000 C 
BRANCH   7   8
ATOM      8  C   UNL     1      -3.040  34.089  41.044  1.00  0.00     0.000 C 
BRANCH   8   9
ATOM      9  C   UNL     1      -1.792  34.664  40.356  1.00  0.00     0.000 C 
BRANCH   9  10
ATOM     10  C   UNL     1      -0.592  34.763  41.313  1.00  0.00     0.000 C 
BRANCH  10  11
ATOM     11  C   UNL     1      -0.903  34.177  42.702  1.00  0.00     0.000 C 
BRANCH  11  12
ATOM     12  C   UNL     1       0.307  33.463  43.325  1.00  0.00     0.000 C 
BRANCH  12  13
ATOM     13  C   UNL     1       0.382  31.977  42.933  1.00  0.00     0.006 C 
BRANCH  13  14
ATOM     14  C   UNL     1      -0.984  31.415  42.519  1.00  0.00     0.053 C 
BRANCH  14  15
ATOM     15  C   UNL     1      -0.995  29.917  42.520  1.00  0.00     0.041 C 
ATOM     16  O   UNL     1       0.025  29.278  42.885  1.00  0.00    -0.550 OA
ATOM     17  O   UNL     1      -2.137  29.227  42.133  1.00  0.00    -0.550 OA
ENDBRANCH  14  15
ENDBRANCH  13  14
ENDBRANCH  12  13
ENDBRANCH  11  12
ENDBRANCH  10  11
ENDBRANCH   9  10
ENDBRANCH   8   9
ENDBRANCH   7   8
ENDBRANCH   6   7
ENDBRANCH   5   6
ENDBRANCH   4   5
ENDBRANCH   3   4
ENDBRANCH   2   3
ENDBRANCH   1   2
BRANCH   1  18
ATOM     18  C   UNL     1      -4.926  39.493  45.907  1.00  0.00     0.000 C 
BRANCH  18  19
ATOM     19  C   UNL     1      -5.396  40.001  44.535  1.00  0.00     0.000 C 
BRANCH  19  20
ATOM     20  C   UNL     1      -6.871  39.645  44.251  1.00  0.00     0.000 C 
BRANCH  20  21
ATOM     21  C   UNL     1      -7.777  39.722  45.494  1.00  0.00     0.000 C 
BRANCH  21  22
ATOM     22  C   UNL     1      -8.498  38.412  45.854  1.00  0.00     0.000 C 
BRANCH  22  23
ATOM     23  C   UNL     1      -8.110  37.245  44.931  1.00  0.00     0.000 C 
BRANCH  23  24
ATOM     24  C   UNL     1      -7.449  36.083  45.692  1.00  0.00    -0.000 C 
BRANCH  24  25
ATOM     25  C   UNL     1      -6.296  35.386  44.942  1.00  0.00    -0.000 C 
BRANCH  25  26
ATOM     26  C   UNL     1      -6.680  34.890  43.532  1.00  0.00    -0.000 C 
BRANCH  26  27
ATOM     27  C   UNL     1      -6.500  33.368  43.378  1.00  0.00    -0.000 C 
BRANCH  27  28
ATOM     28  C   UNL     1      -5.670  32.759  44.520  1.00  0.00    -0.000 C 
BRANCH  28  29
ATOM     29  C   UNL     1      -4.244  32.386  44.079  1.00  0.00    -0.000 C 
BRANCH  29  30
ATOM     30  C   UNL     1      -3.214  32.558  45.217  1.00  0.00    -0.000 C 
BRANCH  30  31
ATOM     31  C   UNL     1      -2.958  34.023  45.609  1.00  0.00    -0.003 C 
ATOM     32  C   UNL     1      -3.383  34.345  47.040  1.00  0.00     0.004 C 
ENDBRANCH  30  31
ENDBRANCH  29  30
ENDBRANCH  28  29
ENDBRANCH  27  28
ENDBRANCH  26  27
ENDBRANCH  25  26
ENDBRANCH  24  25
ENDBRANCH  23  24
ENDBRANCH  22  23
ENDBRANCH  21  22
ENDBRANCH  20  21
ENDBRANCH  19  20
ENDBRANCH  18  19
ENDBRANCH   1  18
TORSDOF 28
ENDMDL
