MODEL 1
REMARK VINA RESULT:    -7.535      0.000      0.000
REMARK INTER + INTRA:          -7.840
REMARK INTER:                  -8.195
REMARK INTRA:                   0.355
REMARK UNBOUND:                 0.355
REMARK SMILES CC1(C)CC[C@]2(C(=O)[O-])CC[C@@]3(C)C(=CC[C@@H]4[C@@]5(C)CC[C@@H](O)C(C)(C)[C@@H]5CC[C@@]43C)[C@H]2C1
REMARK SMILES IDX 6 1 5 2 10 3 32 4 4 5 11 6 14 7 33 8 2 9 12 10 15 11 1 12
REMARK SMILES IDX 3 13 13 14 30 15 16 16 17 17 29 18 31 19 18 20 28 21 27 22
REMARK SMILES IDX 20 23 19 24 24 25 21 26 22 27 25 28 26 29 7 30 8 31 9 32
REMARK SMILES IDX 23 33
REMARK H PARENT 23 34
REMARK Flexibility Score: inf
ROOT
ATOM      1  C   UNL     1     107.262 100.713  97.258  1.00  0.00     0.017 C 
ATOM      2  C   UNL     1     108.215 101.898  97.569  1.00  0.00     0.014 C 
ATOM      3  C   UNL     1     106.228 101.100  96.167  1.00  0.00     0.014 C 
ATOM      4  C   UNL     1     106.432 100.464  98.551  1.00  0.00     0.028 C 
ATOM      5  C   UNL     1     109.148 101.571  98.762  1.00  0.00     0.007 C 
ATOM      6  C   UNL     1     105.147 100.006  95.889  1.00  0.00     0.013 C 
ATOM      7  C   UNL     1     105.118  99.688  98.360  1.00  0.00    -0.064 C 
ATOM      8  C   UNL     1     107.278 100.072  99.776  1.00  0.00     0.015 C 
ATOM      9  C   UNL     1     108.406 101.121 100.063  1.00  0.00    -0.035 C 
ATOM     10  C   UNL     1     104.823  98.956  97.044  1.00  0.00    -0.006 C 
ATOM     11  C   UNL     1     104.130 100.040  99.194  1.00  0.00    -0.027 C 
ATOM     12  C   UNL     1     109.434 100.476 101.017  1.00  0.00     0.011 C 
ATOM     13  C   UNL     1     107.818 102.362 100.780  1.00  0.00     0.011 C 
ATOM     14  C   UNL     1     105.807  97.737  96.921  1.00  0.00     0.017 C 
ATOM     15  C   UNL     1     103.293  98.393  96.938  1.00  0.00    -0.020 C 
ATOM     16  C   UNL     1     102.681  99.850  98.936  1.00  0.00     0.032 C 
ATOM     17  C   UNL     1     102.258  99.468  97.475  1.00  0.00     0.006 C 
ATOM     18  C   UNL     1     103.058  97.080  97.806  1.00  0.00     0.008 C 
ATOM     19  C   UNL     1     103.079  98.053  95.413  1.00  0.00     0.012 C 
ATOM     20  C   UNL     1     100.692  99.037  97.413  1.00  0.00    -0.025 C 
ATOM     21  C   UNL     1     101.597  96.801  98.294  1.00  0.00     0.005 C 
ATOM     22  C   UNL     1     100.556  97.474  97.380  1.00  0.00     0.003 C 
ATOM     23  C   UNL     1     100.005  99.561  96.117  1.00  0.00     0.010 C 
ATOM     24  C   UNL     1      99.917  99.687  98.613  1.00  0.00     0.012 C 
ATOM     25  C   UNL     1      99.096  96.879  97.301  1.00  0.00    -0.006 C 
ATOM     26  C   UNL     1      98.541  99.069  95.955  1.00  0.00     0.033 C 
ATOM     27  C   UNL     1      98.374  97.533  96.059  1.00  0.00     0.120 C 
ATOM     28  C   UNL     1      99.163  95.341  97.063  1.00  0.00     0.014 C 
ATOM     29  C   UNL     1      98.263  97.078  98.598  1.00  0.00     0.014 C 
ENDROOT
BRANCH   1  30
ATOM     30  C   UNL     1     108.152  99.580  96.745  1.00  0.00     0.048 C 
ATOM     31  O   UNL     1     108.549  99.590  95.548  1.00  0.00    -0.550 OA
ATOM     32  O   UNL     1     108.643  98.590  97.585  1.00  0.00    -0.550 OA
ENDBRANCH   1  30
BRANCH  27  33
ATOM     33  O   UNL     1      98.861  96.978  94.856  1.00  0.00    -0.393 OA
ATOM     34  H   UNL     1      99.573  97.578  94.513  1.00  0.00     0.210 HD
ENDBRANCH  27  33
TORSDOF 2
ENDMDL
MODEL 2
REMARK VINA RESULT:    -7.301      1.721      8.351
REMARK INTER + INTRA:          -7.586
REMARK INTER:                  -7.939
REMARK INTRA:                   0.353
REMARK UNBOUND:                 0.355
REMARK SMILES CC1(C)CC[C@]2(C(=O)[O-])CC[C@@]3(C)C(=CC[C@@H]4[C@@]5(C)CC[C@@H](O)C(C)(C)[C@@H]5CC[C@@]43C)[C@H]2C1
REMARK SMILES IDX 6 1 5 2 10 3 32 4 4 5 11 6 14 7 33 8 2 9 12 10 15 11 1 12
REMARK SMILES IDX 3 13 13 14 30 15 16 16 17 17 29 18 31 19 18 20 28 21 27 22
REMARK SMILES IDX 20 23 19 24 24 25 21 26 22 27 25 28 26 29 7 30 8 31 9 32
REMARK SMILES IDX 23 33
REMARK H PARENT 23 34
REMARK Flexibility Score: inf
ROOT
ATOM      1  C   UNL     1      98.405  98.641  96.651  1.00  0.00     0.017 C 
ATOM      2  C   UNL     1      97.193  97.760  96.248  1.00  0.00     0.014 C 
ATOM      3  C   UNL     1      99.221  99.071  95.403  1.00  0.00     0.014 C 
ATOM      4  C   UNL     1      99.357  97.729  97.479  1.00  0.00     0.028 C 
ATOM      5  C   UNL     1      96.464  97.202  97.496  1.00  0.00     0.007 C 
ATOM      6  C   UNL     1     100.535  99.852  95.731  1.00  0.00     0.013 C 
ATOM      7  C   UNL     1     100.815  98.208  97.582  1.00  0.00    -0.064 C 
ATOM      8  C   UNL     1      98.731  97.178  98.773  1.00  0.00     0.015 C 
ATOM      9  C   UNL     1      97.385  96.426  98.494  1.00  0.00    -0.035 C 
ATOM     10  C   UNL     1     101.206  99.630  97.160  1.00  0.00    -0.006 C 
ATOM     11  C   UNL     1     101.726  97.227  97.642  1.00  0.00    -0.027 C 
ATOM     12  C   UNL     1      96.634  96.266  99.833  1.00  0.00     0.011 C 
ATOM     13  C   UNL     1      97.666  95.006  97.943  1.00  0.00     0.011 C 
ATOM     14  C   UNL     1     100.579 100.643  98.185  1.00  0.00     0.017 C 
ATOM     15  C   UNL     1     102.820  99.878  97.116  1.00  0.00    -0.020 C 
ATOM     16  C   UNL     1     103.152  97.356  97.252  1.00  0.00     0.032 C 
ATOM     17  C   UNL     1     103.563  98.642  96.456  1.00  0.00     0.006 C 
ATOM     18  C   UNL     1     103.456 100.054  98.564  1.00  0.00     0.008 C 
ATOM     19  C   UNL     1     103.014 101.212  96.297  1.00  0.00     0.012 C 
ATOM     20  C   UNL     1     105.179  98.767  96.337  1.00  0.00    -0.025 C 
ATOM     21  C   UNL     1     104.968  99.681  98.728  1.00  0.00     0.005 C 
ATOM     22  C   UNL     1     105.727  99.792  97.392  1.00  0.00     0.003 C 
ATOM     23  C   UNL     1     105.612  99.306  94.941  1.00  0.00     0.010 C 
ATOM     24  C   UNL     1     105.830  97.346  96.480  1.00  0.00     0.012 C 
ATOM     25  C   UNL     1     107.284 100.049  97.405  1.00  0.00    -0.006 C 
ATOM     26  C   UNL     1     107.139  99.558  94.826  1.00  0.00     0.033 C 
ATOM     27  C   UNL     1     107.718 100.459  95.944  1.00  0.00     0.120 C 
ATOM     28  C   UNL     1     107.615 101.238  98.356  1.00  0.00     0.014 C 
ATOM     29  C   UNL     1     108.119  98.843  97.917  1.00  0.00     0.014 C 
ENDROOT
BRANCH   1  30
ATOM     30  C   UNL     1      97.819  99.878  97.333  1.00  0.00     0.048 C 
ATOM     31  O   UNL     1      97.384 100.831  96.632  1.00  0.00    -0.550 OA
ATOM     32  O   UNL     1      97.637  99.945  98.708  1.00  0.00    -0.550 OA
ENDBRANCH   1  30
BRANCH  27  33
ATOM     33  O   UNL     1     107.319 101.783  95.662  1.00  0.00    -0.393 OA
ATOM     34  H   UNL     1     107.993 102.393  96.060  1.00  0.00     0.210 HD
ENDBRANCH  27  33
TORSDOF 2
ENDMDL
MODEL 3
REMARK VINA RESULT:    -6.947      1.740      2.698
REMARK INTER + INTRA:          -7.201
REMARK INTER:                  -7.561
REMARK INTRA:                   0.360
REMARK UNBOUND:                 0.355
REMARK SMILES CC1(C)CC[C@]2(C(=O)[O-])CC[C@@]3(C)C(=CC[C@@H]4[C@@]5(C)CC[C@@H](O)C(C)(C)[C@@H]5CC[C@@]43C)[C@H]2C1
REMARK SMILES IDX 6 1 5 2 10 3 32 4 4 5 11 6 14 7 33 8 2 9 12 10 15 11 1 12
REMARK SMILES IDX 3 13 13 14 30 15 16 16 17 17 29 18 31 19 18 20 28 21 27 22
REMARK SMILES IDX 20 23 19 24 24 25 21 26 22 27 25 28 26 29 7 30 8 31 9 32
REMARK SMILES IDX 23 33
REMARK H PARENT 23 34
REMARK Flexibility Score: inf
ROOT
ATOM      1  C   UNL     1     105.462  99.531  95.547  1.00  0.00     0.017 C 
ATOM      2  C   UNL     1     106.600 100.391  94.937  1.00  0.00     0.014 C 
ATOM      3  C   UNL     1     104.222  99.503  94.614  1.00  0.00     0.014 C 
ATOM      4  C   UNL     1     104.997 100.267  96.837  1.00  0.00     0.028 C 
ATOM      5  C   UNL     1     107.779 100.550  95.929  1.00  0.00     0.007 C 
ATOM      6  C   UNL     1     102.981  98.767  95.215  1.00  0.00     0.013 C 
ATOM      7  C   UNL     1     103.596  99.891  97.351  1.00  0.00    -0.064 C 
ATOM      8  C   UNL     1     106.094 100.414  97.908  1.00  0.00     0.015 C 
ATOM      9  C   UNL     1     107.377 101.108  97.334  1.00  0.00    -0.035 C 
ATOM     10  C   UNL     1     102.863  98.661  96.801  1.00  0.00    -0.006 C 
ATOM     11  C   UNL     1     102.928 100.890  97.945  1.00  0.00    -0.027 C 
ATOM     12  C   UNL     1     108.542 100.857  98.314  1.00  0.00     0.011 C 
ATOM     13  C   UNL     1     107.165 102.639  97.241  1.00  0.00     0.011 C 
ATOM     14  C   UNL     1     103.619  97.372  97.288  1.00  0.00     0.017 C 
ATOM     15  C   UNL     1     101.307  98.557  97.287  1.00  0.00    -0.020 C 
ATOM     16  C   UNL     1     101.452 100.975  98.075  1.00  0.00     0.032 C 
ATOM     17  C   UNL     1     100.599  99.975  97.220  1.00  0.00     0.006 C 
ATOM     18  C   UNL     1     101.163  98.061  98.792  1.00  0.00     0.008 C 
ATOM     19  C   UNL     1     100.640  97.500  96.324  1.00  0.00     0.012 C 
ATOM     20  C   UNL     1      99.037 100.009  97.666  1.00  0.00    -0.025 C 
ATOM     21  C   UNL     1      99.870  98.493  99.564  1.00  0.00     0.005 C 
ATOM     22  C   UNL     1      98.707  98.791  98.599  1.00  0.00     0.003 C 
ATOM     23  C   UNL     1      98.087  99.886  96.437  1.00  0.00     0.010 C 
ATOM     24  C   UNL     1      98.709 101.390  98.336  1.00  0.00     0.012 C 
ATOM     25  C   UNL     1      97.221  98.659  99.114  1.00  0.00    -0.006 C 
ATOM     26  C   UNL     1      96.587  99.790  96.826  1.00  0.00     0.033 C 
ATOM     27  C   UNL     1      96.270  98.677  97.854  1.00  0.00     0.120 C 
ATOM     28  C   UNL     1      97.032  97.293  99.840  1.00  0.00     0.014 C 
ATOM     29  C   UNL     1      96.809  99.752 100.139  1.00  0.00     0.014 C 
ENDROOT
BRANCH   1  30
ATOM     30  C   UNL     1     106.030  98.119  95.689  1.00  0.00     0.048 C 
ATOM     31  O   UNL     1     106.015  97.337  94.701  1.00  0.00    -0.550 OA
ATOM     32  O   UNL     1     106.677  97.696  96.843  1.00  0.00    -0.550 OA
ENDBRANCH   1  30
BRANCH  27  33
ATOM     33  O   UNL     1      96.334  97.445  97.169  1.00  0.00    -0.393 OA
ATOM     34  H   UNL     1      95.581  96.882  97.489  1.00  0.00     0.210 HD
ENDBRANCH  27  33
TORSDOF 2
ENDMDL
MODEL 4
REMARK VINA RESULT:    -6.823      2.373      8.333
REMARK INTER + INTRA:          -7.066
REMARK INTER:                  -7.421
REMARK INTRA:                   0.355
REMARK UNBOUND:                 0.355
REMARK SMILES CC1(C)CC[C@]2(C(=O)[O-])CC[C@@]3(C)C(=CC[C@@H]4[C@@]5(C)CC[C@@H](O)C(C)(C)[C@@H]5CC[C@@]43C)[C@H]2C1
REMARK SMILES IDX 6 1 5 2 10 3 32 4 4 5 11 6 14 7 33 8 2 9 12 10 15 11 1 12
REMARK SMILES IDX 3 13 13 14 30 15 16 16 17 17 29 18 31 19 18 20 28 21 27 22
REMARK SMILES IDX 20 23 19 24 24 25 21 26 22 27 25 28 26 29 7 30 8 31 9 32
REMARK SMILES IDX 23 33
REMARK H PARENT 23 34
REMARK Flexibility Score: inf
ROOT
ATOM      1  C   UNL     1     103.450  97.928  97.820  1.00  0.00     0.017 C 
ATOM      2  C   UNL     1     102.748  96.770  98.577  1.00  0.00     0.014 C 
ATOM      3  C   UNL     1     104.755  97.438  97.137  1.00  0.00     0.014 C 
ATOM      4  C   UNL     1     103.904  98.951  98.902  1.00  0.00     0.028 C 
ATOM      5  C   UNL     1     101.531  97.282  99.386  1.00  0.00     0.007 C 
ATOM      6  C   UNL     1     105.593  98.572  96.463  1.00  0.00     0.013 C 
ATOM      7  C   UNL     1     105.016  99.924  98.475  1.00  0.00    -0.064 C 
ATOM      8  C   UNL     1     102.747  99.560  99.715  1.00  0.00     0.015 C 
ATOM      9  C   UNL     1     101.853  98.453 100.373  1.00  0.00    -0.035 C 
ATOM     10  C   UNL     1     105.413 100.062  96.999  1.00  0.00    -0.006 C 
ATOM     11  C   UNL     1     105.855 100.285  99.456  1.00  0.00    -0.027 C 
ATOM     12  C   UNL     1     100.524  99.104 100.812  1.00  0.00     0.011 C 
ATOM     13  C   UNL     1     102.539  97.888 101.640  1.00  0.00     0.011 C 
ATOM     14  C   UNL     1     104.228 100.747  96.228  1.00  0.00     0.017 C 
ATOM     15  C   UNL     1     106.761 100.956  96.767  1.00  0.00    -0.020 C 
ATOM     16  C   UNL     1     107.243 100.771  99.261  1.00  0.00     0.032 C 
ATOM     17  C   UNL     1     107.872 100.590  97.837  1.00  0.00     0.006 C 
ATOM     18  C   UNL     1     106.498 102.518  96.920  1.00  0.00     0.008 C 
ATOM     19  C   UNL     1     107.215 100.647  95.289  1.00  0.00     0.012 C 
ATOM     20  C   UNL     1     109.275 101.401  97.709  1.00  0.00    -0.025 C 
ATOM     21  C   UNL     1     107.717 103.408  97.337  1.00  0.00     0.005 C 
ATOM     22  C   UNL     1     109.055 102.755  96.946  1.00  0.00     0.003 C 
ATOM     23  C   UNL     1     110.326 100.601  96.883  1.00  0.00     0.010 C 
ATOM     24  C   UNL     1     109.900 101.604  99.134  1.00  0.00     0.012 C 
ATOM     25  C   UNL     1     110.324 103.666  96.716  1.00  0.00    -0.006 C 
ATOM     26  C   UNL     1     111.639 101.390  96.630  1.00  0.00     0.033 C 
ATOM     27  C   UNL     1     111.426 102.789  96.002  1.00  0.00     0.120 C 
ATOM     28  C   UNL     1     109.961 104.848  95.768  1.00  0.00     0.014 C 
ATOM     29  C   UNL     1     110.881 104.311  98.015  1.00  0.00     0.014 C 
ENDROOT
BRANCH   1  30
ATOM     30  C   UNL     1     102.458  98.398  96.755  1.00  0.00     0.048 C 
ATOM     31  O   UNL     1     102.367  97.771  95.665  1.00  0.00    -0.550 OA
ATOM     32  O   UNL     1     101.559  99.430  96.990  1.00  0.00    -0.550 OA
ENDBRANCH   1  30
BRANCH  27  33
ATOM     33  O   UNL     1     111.096 102.592  94.644  1.00  0.00    -0.393 OA
ATOM     34  H   UNL     1     111.720 103.139  94.099  1.00  0.00     0.210 HD
ENDBRANCH  27  33
TORSDOF 2
ENDMDL
MODEL 5
REMARK VINA RESULT:    -6.743      2.496      8.123
REMARK INTER + INTRA:          -6.979
REMARK INTER:                  -7.354
REMARK INTRA:                   0.375
REMARK UNBOUND:                 0.355
REMARK SMILES CC1(C)CC[C@]2(C(=O)[O-])CC[C@@]3(C)C(=CC[C@@H]4[C@@]5(C)CC[C@@H](O)C(C)(C)[C@@H]5CC[C@@]43C)[C@H]2C1
REMARK SMILES IDX 6 1 5 2 10 3 32 4 4 5 11 6 14 7 33 8 2 9 12 10 15 11 1 12
REMARK SMILES IDX 3 13 13 14 30 15 16 16 17 17 29 18 31 19 18 20 28 21 27 22
REMARK SMILES IDX 20 23 19 24 24 25 21 26 22 27 25 28 26 29 7 30 8 31 9 32
REMARK SMILES IDX 23 33
REMARK H PARENT 23 34
REMARK Flexibility Score: inf
ROOT
ATOM      1  C   UNL     1      97.793  99.996  97.395  1.00  0.00     0.017 C 
ATOM      2  C   UNL     1      96.414  99.379  97.750  1.00  0.00     0.014 C 
ATOM      3  C   UNL     1      98.359  99.383  96.086  1.00  0.00     0.014 C 
ATOM      4  C   UNL     1      98.775  99.556  98.520  1.00  0.00     0.028 C 
ATOM      5  C   UNL     1      95.915  99.872  99.131  1.00  0.00     0.007 C 
ATOM      6  C   UNL     1      99.805  99.854  95.728  1.00  0.00     0.013 C 
ATOM      7  C   UNL     1     100.270  99.627  98.166  1.00  0.00    -0.064 C 
ATOM      8  C   UNL     1      98.387 100.058  99.924  1.00  0.00     0.015 C 
ATOM      9  C   UNL     1      96.924  99.645 100.305  1.00  0.00    -0.035 C 
ATOM     10  C   UNL     1     100.744 100.369  96.909  1.00  0.00    -0.006 C 
ATOM     11  C   UNL     1     101.030  98.688  98.745  1.00  0.00    -0.027 C 
ATOM     12  C   UNL     1      96.478 100.503 101.508  1.00  0.00     0.011 C 
ATOM     13  C   UNL     1      96.880  98.162 100.746  1.00  0.00     0.011 C 
ATOM     14  C   UNL     1     100.505 101.908  97.121  1.00  0.00     0.017 C 
ATOM     15  C   UNL     1     102.325 100.137  96.572  1.00  0.00    -0.020 C 
ATOM     16  C   UNL     1     102.337  98.206  98.232  1.00  0.00     0.032 C 
ATOM     17  C   UNL     1     102.727  98.616  96.770  1.00  0.00     0.006 C 
ATOM     18  C   UNL     1     103.288 100.977  97.521  1.00  0.00     0.008 C 
ATOM     19  C   UNL     1     102.509 100.624  95.083  1.00  0.00     0.012 C 
ATOM     20  C   UNL     1     104.277  98.245  96.453  1.00  0.00    -0.025 C 
ATOM     21  C   UNL     1     104.734 100.418  97.742  1.00  0.00     0.005 C 
ATOM     22  C   UNL     1     105.181  99.523  96.572  1.00  0.00     0.003 C 
ATOM     23  C   UNL     1     104.455  97.721  94.996  1.00  0.00     0.010 C 
ATOM     24  C   UNL     1     104.746  97.082  97.396  1.00  0.00     0.012 C 
ATOM     25  C   UNL     1     106.721  99.346  96.278  1.00  0.00    -0.006 C 
ATOM     26  C   UNL     1     105.937  97.471  94.608  1.00  0.00     0.033 C 
ATOM     27  C   UNL     1     106.868  98.684  94.851  1.00  0.00     0.120 C 
ATOM     28  C   UNL     1     107.415 100.741  96.234  1.00  0.00     0.014 C 
ATOM     29  C   UNL     1     107.480  98.522  97.355  1.00  0.00     0.014 C 
ENDROOT
BRANCH   1  30
ATOM     30  C   UNL     1      97.548 101.492  97.198  1.00  0.00     0.048 C 
ATOM     31  O   UNL     1      97.012 101.903  96.133  1.00  0.00    -0.550 OA
ATOM     32  O   UNL     1      97.785 102.418  98.205  1.00  0.00    -0.550 OA
ENDBRANCH   1  30
BRANCH  27  33
ATOM     33  O   UNL     1     106.598  99.629  93.839  1.00  0.00    -0.393 OA
ATOM     34  H   UNL     1     105.770 100.115  94.093  1.00  0.00     0.210 HD
ENDBRANCH  27  33
TORSDOF 2
ENDMDL
MODEL 6
REMARK VINA RESULT:    -6.699      2.106      3.975
REMARK INTER + INTRA:          -6.931
REMARK INTER:                  -7.285
REMARK INTRA:                   0.354
REMARK UNBOUND:                 0.355
REMARK SMILES CC1(C)CC[C@]2(C(=O)[O-])CC[C@@]3(C)C(=CC[C@@H]4[C@@]5(C)CC[C@@H](O)C(C)(C)[C@@H]5CC[C@@]43C)[C@H]2C1
REMARK SMILES IDX 6 1 5 2 10 3 32 4 4 5 11 6 14 7 33 8 2 9 12 10 15 11 1 12
REMARK SMILES IDX 3 13 13 14 30 15 16 16 17 17 29 18 31 19 18 20 28 21 27 22
REMARK SMILES IDX 20 23 19 24 24 25 21 26 22 27 25 28 26 29 7 30 8 31 9 32
REMARK SMILES IDX 23 33
REMARK H PARENT 23 34
REMARK Flexibility Score: inf
ROOT
ATOM      1  C   UNL     1     105.539 100.419  98.408  1.00  0.00     0.017 C 
ATOM      2  C   UNL     1     107.058 100.108  98.472  1.00  0.00     0.014 C 
ATOM      3  C   UNL     1     104.750  99.555  99.428  1.00  0.00     0.014 C 
ATOM      4  C   UNL     1     105.053  99.954  97.004  1.00  0.00     0.028 C 
ATOM      5  C   UNL     1     107.832 100.852  97.355  1.00  0.00     0.007 C 
ATOM      6  C   UNL     1     103.198  99.710  99.337  1.00  0.00     0.013 C 
ATOM      7  C   UNL     1     103.540  99.711  96.869  1.00  0.00    -0.064 C 
ATOM      8  C   UNL     1     105.728 100.689  95.831  1.00  0.00     0.015 C 
ATOM      9  C   UNL     1     107.291 100.597  95.909  1.00  0.00    -0.035 C 
ATOM     10  C   UNL     1     102.569 100.192  97.954  1.00  0.00    -0.006 C 
ATOM     11  C   UNL     1     103.203  98.730  96.020  1.00  0.00    -0.027 C 
ATOM     12  C   UNL     1     107.885 101.665  94.967  1.00  0.00     0.011 C 
ATOM     13  C   UNL     1     107.774  99.212  95.412  1.00  0.00     0.011 C 
ATOM     14  C   UNL     1     102.531 101.763  97.926  1.00  0.00     0.017 C 
ATOM     15  C   UNL     1     101.044  99.640  97.757  1.00  0.00    -0.020 C 
ATOM     16  C   UNL     1     101.934  97.961  96.060  1.00  0.00     0.032 C 
ATOM     17  C   UNL     1     101.048  98.108  97.345  1.00  0.00     0.006 C 
ATOM     18  C   UNL     1     100.255 100.405  96.606  1.00  0.00     0.008 C 
ATOM     19  C   UNL     1     100.327  99.895  99.138  1.00  0.00     0.012 C 
ATOM     20  C   UNL     1      99.588  97.428  97.130  1.00  0.00    -0.025 C 
ATOM     21  C   UNL     1      99.092  99.628  95.901  1.00  0.00     0.005 C 
ATOM     22  C   UNL     1      98.514  98.528  96.811  1.00  0.00     0.003 C 
ATOM     23  C   UNL     1      99.098  96.702  98.419  1.00  0.00     0.010 C 
ATOM     24  C   UNL     1      99.676  96.327  96.015  1.00  0.00     0.012 C 
ATOM     25  C   UNL     1      97.029  98.041  96.589  1.00  0.00    -0.006 C 
ATOM     26  C   UNL     1      97.654  96.144  98.299  1.00  0.00     0.033 C 
ATOM     27  C   UNL     1      96.605  97.191  97.850  1.00  0.00     0.120 C 
ATOM     28  C   UNL     1      96.077  99.272  96.497  1.00  0.00     0.014 C 
ATOM     29  C   UNL     1      96.818  97.236  95.277  1.00  0.00     0.014 C 
ENDROOT
BRANCH   1  30
ATOM     30  C   UNL     1     105.395 101.898  98.767  1.00  0.00     0.048 C 
ATOM     31  O   UNL     1     105.398 102.251  99.977  1.00  0.00    -0.550 OA
ATOM     32  O   UNL     1     105.379 102.894  97.799  1.00  0.00    -0.550 OA
ENDBRANCH   1  30
BRANCH  27  33
ATOM     33  O   UNL     1      96.357  98.034  98.953  1.00  0.00    -0.393 OA
ATOM     34  H   UNL     1      95.978  98.883  98.605  1.00  0.00     0.210 HD
ENDBRANCH  27  33
TORSDOF 2
ENDMDL
MODEL 7
REMARK VINA RESULT:    -6.585      1.562      8.130
REMARK INTER + INTRA:          -6.807
REMARK INTER:                  -7.157
REMARK INTRA:                   0.350
REMARK UNBOUND:                 0.355
REMARK SMILES CC1(C)CC[C@]2(C(=O)[O-])CC[C@@]3(C)C(=CC[C@@H]4[C@@]5(C)CC[C@@H](O)C(C)(C)[C@@H]5CC[C@@]43C)[C@H]2C1
REMARK SMILES IDX 6 1 5 2 10 3 32 4 4 5 11 6 14 7 33 8 2 9 12 10 15 11 1 12
REMARK SMILES IDX 3 13 13 14 30 15 16 16 17 17 29 18 31 19 18 20 28 21 27 22
REMARK SMILES IDX 20 23 19 24 24 25 21 26 22 27 25 28 26 29 7 30 8 31 9 32
REMARK SMILES IDX 23 33
REMARK H PARENT 23 34
REMARK Flexibility Score: inf
ROOT
ATOM      1  C   UNL     1      98.942  97.870  97.657  1.00  0.00     0.017 C 
ATOM      2  C   UNL     1      97.846  97.156  98.491  1.00  0.00     0.014 C 
ATOM      3  C   UNL     1     100.065  96.881  97.247  1.00  0.00     0.014 C 
ATOM      4  C   UNL     1      99.619  98.899  98.609  1.00  0.00     0.028 C 
ATOM      5  C   UNL     1      96.803  98.165  99.032  1.00  0.00     0.007 C 
ATOM      6  C   UNL     1     101.275  97.548  96.517  1.00  0.00     0.013 C 
ATOM      7  C   UNL     1     101.017  99.381  98.184  1.00  0.00    -0.064 C 
ATOM      8  C   UNL     1      98.664  99.981  99.147  1.00  0.00     0.015 C 
ATOM      9  C   UNL     1      97.411  99.353  99.849  1.00  0.00    -0.035 C 
ATOM     10  C   UNL     1     101.549  99.097  96.773  1.00  0.00    -0.006 C 
ATOM     11  C   UNL     1     101.849  99.657  99.198  1.00  0.00    -0.027 C 
ATOM     12  C   UNL     1      96.336 100.452  99.991  1.00  0.00     0.011 C 
ATOM     13  C   UNL     1      97.777  98.869 101.273  1.00  0.00     0.011 C 
ATOM     14  C   UNL     1     100.713  99.944  95.747  1.00  0.00     0.017 C 
ATOM     15  C   UNL     1     103.127  99.473  96.583  1.00  0.00    -0.020 C 
ATOM     16  C   UNL     1     103.331  99.647  99.116  1.00  0.00     0.032 C 
ATOM     17  C   UNL     1     103.974  99.004  97.840  1.00  0.00     0.006 C 
ATOM     18  C   UNL     1     103.376 101.038  96.442  1.00  0.00     0.008 C 
ATOM     19  C   UNL     1     103.569  98.753  95.251  1.00  0.00     0.012 C 
ATOM     20  C   UNL     1     105.569  99.306  97.772  1.00  0.00    -0.025 C 
ATOM     21  C   UNL     1     104.782 101.578  96.870  1.00  0.00     0.005 C 
ATOM     22  C   UNL     1     105.861 100.483  96.776  1.00  0.00     0.003 C 
ATOM     23  C   UNL     1     106.364  98.077  97.239  1.00  0.00     0.010 C 
ATOM     24  C   UNL     1     106.115  99.587  99.217  1.00  0.00     0.012 C 
ATOM     25  C   UNL     1     107.370 100.900  96.575  1.00  0.00    -0.006 C 
ATOM     26  C   UNL     1     107.877  98.362  97.041  1.00  0.00     0.033 C 
ATOM     27  C   UNL     1     108.179  99.605  96.169  1.00  0.00     0.120 C 
ATOM     28  C   UNL     1     107.485 101.924  95.406  1.00  0.00     0.014 C 
ATOM     29  C   UNL     1     108.006 101.588  97.815  1.00  0.00     0.014 C 
ENDROOT
BRANCH   1  30
ATOM     30  C   UNL     1      98.241  98.400  96.405  1.00  0.00     0.048 C 
ATOM     31  O   UNL     1      98.036  97.628  95.430  1.00  0.00    -0.550 OA
ATOM     32  O   UNL     1      97.711  99.682  96.344  1.00  0.00    -0.550 OA
ENDBRANCH   1  30
BRANCH  27  33
ATOM     33  O   UNL     1     107.908  99.253  94.830  1.00  0.00    -0.393 OA
ATOM     34  H   UNL     1     108.602  99.678  94.260  1.00  0.00     0.210 HD
ENDBRANCH  27  33
TORSDOF 2
ENDMDL
MODEL 8
REMARK VINA RESULT:    -6.495      3.576      6.608
REMARK INTER + INTRA:          -6.709
REMARK INTER:                  -7.063
REMARK INTRA:                   0.354
REMARK UNBOUND:                 0.355
REMARK SMILES CC1(C)CC[C@]2(C(=O)[O-])CC[C@@]3(C)C(=CC[C@@H]4[C@@]5(C)CC[C@@H](O)C(C)(C)[C@@H]5CC[C@@]43C)[C@H]2C1
REMARK SMILES IDX 6 1 5 2 10 3 32 4 4 5 11 6 14 7 33 8 2 9 12 10 15 11 1 12
REMARK SMILES IDX 3 13 13 14 30 15 16 16 17 17 29 18 31 19 18 20 28 21 27 22
REMARK SMILES IDX 20 23 19 24 24 25 21 26 22 27 25 28 26 29 7 30 8 31 9 32
REMARK SMILES IDX 23 33
REMARK H PARENT 23 34
REMARK Flexibility Score: inf
ROOT
ATOM      1  C   UNL     1     112.740 102.309  97.757  1.00  0.00     0.017 C 
ATOM      2  C   UNL     1     114.161 102.664  97.244  1.00  0.00     0.014 C 
ATOM      3  C   UNL     1     112.434 100.801  97.557  1.00  0.00     0.014 C 
ATOM      4  C   UNL     1     111.738 103.065  96.836  1.00  0.00     0.028 C 
ATOM      5  C   UNL     1     114.415 104.191  97.299  1.00  0.00     0.007 C 
ATOM      6  C   UNL     1     110.973 100.387  97.927  1.00  0.00     0.013 C 
ATOM      7  C   UNL     1     110.300 102.518  96.826  1.00  0.00    -0.064 C 
ATOM      8  C   UNL     1     111.879 104.598  96.877  1.00  0.00     0.015 C 
ATOM      9  C   UNL     1     113.343 105.055  96.556  1.00  0.00    -0.035 C 
ATOM     10  C   UNL     1     109.838 101.505  97.881  1.00  0.00    -0.006 C 
ATOM     11  C   UNL     1     109.661 102.640  95.654  1.00  0.00    -0.027 C 
ATOM     12  C   UNL     1     113.500 106.523  97.004  1.00  0.00     0.011 C 
ATOM     13  C   UNL     1     113.602 105.002  95.030  1.00  0.00     0.011 C 
ATOM     14  C   UNL     1     109.777 102.232  99.274  1.00  0.00     0.017 C 
ATOM     15  C   UNL     1     108.368 100.864  97.572  1.00  0.00    -0.020 C 
ATOM     16  C   UNL     1     108.522 101.799  95.207  1.00  0.00     0.032 C 
ATOM     17  C   UNL     1     108.223 100.501  96.035  1.00  0.00     0.006 C 
ATOM     18  C   UNL     1     107.176 101.866  97.905  1.00  0.00     0.008 C 
ATOM     19  C   UNL     1     108.260  99.599  98.508  1.00  0.00     0.012 C 
ATOM     20  C   UNL     1     106.805  99.840  95.594  1.00  0.00    -0.025 C 
ATOM     21  C   UNL     1     105.837 101.665  97.118  1.00  0.00     0.005 C 
ATOM     22  C   UNL     1     105.682 100.215  96.624  1.00  0.00     0.003 C 
ATOM     23  C   UNL     1     106.879  98.284  95.578  1.00  0.00     0.010 C 
ATOM     24  C   UNL     1     106.452 100.276  94.128  1.00  0.00     0.012 C 
ATOM     25  C   UNL     1     104.238  99.638  96.357  1.00  0.00    -0.006 C 
ATOM     26  C   UNL     1     105.514  97.606  95.282  1.00  0.00     0.033 C 
ATOM     27  C   UNL     1     104.363  98.071  96.206  1.00  0.00     0.120 C 
ATOM     28  C   UNL     1     103.316  99.931  97.579  1.00  0.00     0.014 C 
ATOM     29  C   UNL     1     103.527 100.262  95.123  1.00  0.00     0.014 C 
ENDROOT
BRANCH   1  30
ATOM     30  C   UNL     1     112.736 102.641  99.250  1.00  0.00     0.048 C 
ATOM     31  O   UNL     1     113.220 101.819 100.074  1.00  0.00    -0.550 OA
ATOM     32  O   UNL     1     112.323 103.877  99.730  1.00  0.00    -0.550 OA
ENDBRANCH   1  30
BRANCH  27  33
ATOM     33  O   UNL     1     104.568  97.469  97.465  1.00  0.00    -0.393 OA
ATOM     34  H   UNL     1     105.509  97.154  97.500  1.00  0.00     0.210 HD
ENDBRANCH  27  33
TORSDOF 2
ENDMDL
MODEL 9
REMARK VINA RESULT:    -6.439      3.254      5.634
REMARK INTER + INTRA:          -6.649
REMARK INTER:                  -7.000
REMARK INTRA:                   0.351
REMARK UNBOUND:                 0.355
REMARK SMILES CC1(C)CC[C@]2(C(=O)[O-])CC[C@@]3(C)C(=CC[C@@H]4[C@@]5(C)CC[C@@H](O)C(C)(C)[C@@H]5CC[C@@]43C)[C@H]2C1
REMARK SMILES IDX 6 1 5 2 10 3 32 4 4 5 11 6 14 7 33 8 2 9 12 10 15 11 1 12
REMARK SMILES IDX 3 13 13 14 30 15 16 16 17 17 29 18 31 19 18 20 28 21 27 22
REMARK SMILES IDX 20 23 19 24 24 25 21 26 22 27 25 28 26 29 7 30 8 31 9 32
REMARK SMILES IDX 23 33
REMARK H PARENT 23 34
REMARK Flexibility Score: inf
ROOT
ATOM      1  C   UNL     1     111.064 104.408  97.810  1.00  0.00     0.017 C 
ATOM      2  C   UNL     1     111.668 105.496  98.737  1.00  0.00     0.014 C 
ATOM      3  C   UNL     1     109.654 104.821  97.310  1.00  0.00     0.014 C 
ATOM      4  C   UNL     1     110.840 103.149  98.697  1.00  0.00     0.028 C 
ATOM      5  C   UNL     1     113.005 105.025  99.361  1.00  0.00     0.007 C 
ATOM      6  C   UNL     1     108.919 103.722  96.476  1.00  0.00     0.013 C 
ATOM      7  C   UNL     1     109.834 102.120  98.152  1.00  0.00    -0.064 C 
ATOM      8  C   UNL     1     112.131 102.574  99.310  1.00  0.00     0.015 C 
ATOM      9  C   UNL     1     112.923 103.658 100.118  1.00  0.00    -0.035 C 
ATOM     10  C   UNL     1     109.337 102.200  96.703  1.00  0.00    -0.006 C 
ATOM     11  C   UNL     1     109.135 101.467  99.090  1.00  0.00    -0.027 C 
ATOM     12  C   UNL     1     114.357 103.137 100.347  1.00  0.00     0.011 C 
ATOM     13  C   UNL     1     112.275 103.874 101.508  1.00  0.00     0.011 C 
ATOM     14  C   UNL     1     110.535 101.848  95.747  1.00  0.00     0.017 C 
ATOM     15  C   UNL     1     108.105 101.179  96.377  1.00  0.00    -0.020 C 
ATOM     16  C   UNL     1     107.811 100.828  98.883  1.00  0.00     0.032 C 
ATOM     17  C   UNL     1     107.047 101.176  97.559  1.00  0.00     0.006 C 
ATOM     18  C   UNL     1     108.583  99.670  96.209  1.00  0.00     0.008 C 
ATOM     19  C   UNL     1     107.493 101.686  95.015  1.00  0.00     0.012 C 
ATOM     20  C   UNL     1     105.758 100.208  97.355  1.00  0.00    -0.025 C 
ATOM     21  C   UNL     1     107.530  98.551  96.513  1.00  0.00     0.005 C 
ATOM     22  C   UNL     1     106.090  99.065  96.332  1.00  0.00     0.003 C 
ATOM     23  C   UNL     1     104.546 100.985  96.761  1.00  0.00     0.010 C 
ATOM     24  C   UNL     1     105.285  99.657  98.746  1.00  0.00     0.012 C 
ATOM     25  C   UNL     1     104.938  98.037  96.002  1.00  0.00    -0.006 C 
ATOM     26  C   UNL     1     103.332 100.075  96.433  1.00  0.00     0.033 C 
ATOM     27  C   UNL     1     103.675  98.862  95.534  1.00  0.00     0.120 C 
ATOM     28  C   UNL     1     105.373  97.115  94.823  1.00  0.00     0.014 C 
ATOM     29  C   UNL     1     104.580  97.089  97.180  1.00  0.00     0.014 C 
ENDROOT
BRANCH   1  30
ATOM     30  C   UNL     1     112.017 104.291  96.620  1.00  0.00     0.048 C 
ATOM     31  O   UNL     1     111.950 105.129  95.681  1.00  0.00    -0.550 OA
ATOM     32  O   UNL     1     113.045 103.358  96.588  1.00  0.00    -0.550 OA
ENDBRANCH   1  30
BRANCH  27  33
ATOM     33  O   UNL     1     103.861  99.351  94.225  1.00  0.00    -0.393 OA
ATOM     34  H   UNL     1     104.832  99.302  94.019  1.00  0.00     0.210 HD
ENDBRANCH  27  33
TORSDOF 2
ENDMDL
