MODEL 1
REMARK VINA RESULT:    -8.518      0.000      0.000
REMARK INTER + INTRA:         -16.816
REMARK INTER:                 -13.995
REMARK INTRA:                  -2.821
REMARK UNBOUND:                -2.821
REMARK SMILES C[C@H]1O[C@@H](OC[C@H]2O[C@@H](Oc3c(-c4ccc(O)c(O)c4)oc4cc(O)cc(O)c4c3=O)[C@H](O)[C@H](O)[C@@H]2O)[C@@H](O)[C@H](O)[C@H]1O
REMARK SMILES IDX 7 1 36 2 34 3 32 4 9 5 8 6 6 7 5 8 4 9 1 10 2 11 42 12 3 13
REMARK SMILES IDX 40 14 38 15 43 16 41 18 39 20 37 22 35 24 10 26 11 27 12 28
REMARK SMILES IDX 30 29 21 30 29 31 31 32 22 33 27 34 23 35 26 36 24 37 13 38
REMARK SMILES IDX 20 39 14 40 18 41 15 42 16 43 19 44 17 46 28 48 25 50 33 52
REMARK H PARENT 43 17 41 19 39 21 37 23 35 25 19 45 17 47 28 49 25 51 33 53
REMARK Flexibility Score: inf
ROOT
ATOM      1  C   UNL     1      11.771  45.521   7.472  1.00  0.00     0.180 C 
ATOM      2  C   UNL     1      12.571  46.745   6.966  1.00  0.00     0.177 C 
ATOM      3  C   UNL     1      11.786  47.384   5.832  1.00  0.00     0.180 C 
ATOM      4  C   UNL     1      10.375  47.737   6.281  1.00  0.00     0.214 C 
ATOM      5  C   UNL     1       9.697  46.691   7.238  1.00  0.00     0.339 C 
ATOM      6  O   UNL     1      10.617  46.047   8.171  1.00  0.00    -0.332 OA
ENDROOT
BRANCH   1   7
ATOM      7  C   UNL     1      12.612  44.583   8.363  1.00  0.00     0.198 C 
BRANCH   7   8
ATOM      8  O   UNL     1      12.952  43.403   7.642  1.00  0.00    -0.347 OA
BRANCH   8   9
ATOM      9  C   UNL     1      14.323  43.142   7.411  1.00  0.00     0.281 C 
ATOM     10  C   UNL     1      17.408  44.656   8.652  1.00  0.00     0.041 C 
ATOM     11  C   UNL     1      16.508  43.648   7.995  1.00  0.00     0.150 C 
ATOM     12  C   UNL     1      17.011  43.181   6.570  1.00  0.00     0.174 C 
ATOM     13  O   UNL     1      15.163  44.143   7.925  1.00  0.00    -0.344 OA
ATOM     14  C   UNL     1      15.920  43.509   5.480  1.00  0.00     0.179 C 
ATOM     15  C   UNL     1      14.510  42.993   5.894  1.00  0.00     0.202 C 
BRANCH  12  16
ATOM     16  O   UNL     1      18.229  43.785   6.241  1.00  0.00    -0.388 OA
ATOM     17  H   UNL     1      18.065  44.510   5.584  1.00  0.00     0.211 HD
ENDBRANCH  12  16
BRANCH  14  18
ATOM     18  O   UNL     1      16.212  42.975   4.187  1.00  0.00    -0.387 OA
ATOM     19  H   UNL     1      17.057  43.319   3.853  1.00  0.00     0.211 HD
ENDBRANCH  14  18
BRANCH  15  20
ATOM     20  O   UNL     1      13.509  43.699   5.183  1.00  0.00    -0.385 OA
ATOM     21  H   UNL     1      13.617  44.664   5.333  1.00  0.00     0.211 HD
ENDBRANCH  15  20
ENDBRANCH   8   9
ENDBRANCH   7   8
ENDBRANCH   1   7
BRANCH   2  22
ATOM     22  O   UNL     1      13.870  46.388   6.566  1.00  0.00    -0.387 OA
ATOM     23  H   UNL     1      13.926  45.360   6.585  1.00  0.00     0.211 HD
ENDBRANCH   2  22
BRANCH   3  24
ATOM     24  O   UNL     1      11.842  46.553   4.687  1.00  0.00    -0.387 OA
ATOM     25  H   UNL     1      11.298  46.967   3.973  1.00  0.00     0.211 HD
ENDBRANCH   3  24
BRANCH   5  26
ATOM     26  O   UNL     1       8.697  47.436   7.952  1.00  0.00    -0.454 OA
BRANCH  26  27
ATOM     27  C   UNL     1       7.352  47.082   8.184  1.00  0.00     0.214 A 
ATOM     28  C   UNL     1       6.846  46.536   9.383  1.00  0.00     0.180 A 
ATOM     29  C   UNL     1       6.547  47.024   7.062  1.00  0.00     0.239 A 
ATOM     30  O   UNL     1       5.514  46.425   9.516  1.00  0.00    -0.452 OA
ATOM     31  C   UNL     1       5.269  46.431   7.158  1.00  0.00     0.111 A 
ATOM     32  O   UNL     1       6.943  47.520   5.972  1.00  0.00    -0.285 OA
ATOM     33  C   UNL     1       4.730  46.290   8.463  1.00  0.00     0.146 A 
ATOM     34  C   UNL     1       4.521  45.975   6.054  1.00  0.00     0.134 A 
ATOM     35  C   UNL     1       3.405  45.861   8.639  1.00  0.00     0.094 A 
ATOM     36  C   UNL     1       3.214  45.511   6.231  1.00  0.00     0.093 A 
ATOM     37  C   UNL     1       2.664  45.433   7.525  1.00  0.00     0.123 A 
BRANCH  28  38
ATOM     38  C   UNL     1       7.646  45.534  10.109  1.00  0.00     0.025 A 
ATOM     39  C   UNL     1       8.135  45.952  11.330  1.00  0.00     0.062 A 
ATOM     40  C   UNL     1       8.135  44.314   9.551  1.00  0.00     0.016 A 
ATOM     41  C   UNL     1       9.078  45.214  12.050  1.00  0.00     0.158 A 
ATOM     42  C   UNL     1       9.076  43.527  10.274  1.00  0.00     0.051 A 
ATOM     43  C   UNL     1       9.579  43.991  11.511  1.00  0.00     0.157 A 
BRANCH  41  44
ATOM     44  O   UNL     1       9.535  45.722  13.260  1.00  0.00    -0.504 OA
ATOM     45  H   UNL     1       8.915  46.337  13.722  1.00  0.00     0.293 HD
ENDBRANCH  41  44
BRANCH  43  46
ATOM     46  O   UNL     1      10.520  43.231  12.208  1.00  0.00    -0.504 OA
ATOM     47  H   UNL     1      10.832  42.322  11.899  1.00  0.00     0.293 HD
ENDBRANCH  43  46
ENDBRANCH  28  38
BRANCH  34  48
ATOM     48  O   UNL     1       5.093  45.832   4.806  1.00  0.00    -0.507 OA
ATOM     49  H   UNL     1       4.994  44.992   4.242  1.00  0.00     0.293 HD
ENDBRANCH  34  48
BRANCH  37  50
ATOM     50  O   UNL     1       1.396  44.896   7.699  1.00  0.00    -0.508 OA
ATOM     51  H   UNL     1       0.702  45.052   6.975  1.00  0.00     0.293 HD
ENDBRANCH  37  50
ENDBRANCH  26  27
ENDBRANCH   5  26
BRANCH   4  52
ATOM     52  O   UNL     1       9.611  47.979   5.131  1.00  0.00    -0.384 OA
ATOM     53  H   UNL     1      10.076  48.711   4.631  1.00  0.00     0.211 HD
ENDBRANCH   4  52
TORSDOF 16
ENDMDL
MODEL 2
REMARK VINA RESULT:    -8.489      0.818      1.535
REMARK INTER + INTRA:         -16.769
REMARK INTER:                 -15.007
REMARK INTRA:                  -1.762
REMARK UNBOUND:                -2.821
REMARK SMILES C[C@H]1O[C@@H](OC[C@H]2O[C@@H](Oc3c(-c4ccc(O)c(O)c4)oc4cc(O)cc(O)c4c3=O)[C@H](O)[C@H](O)[C@@H]2O)[C@@H](O)[C@H](O)[C@H]1O
REMARK SMILES IDX 7 1 36 2 34 3 32 4 9 5 8 6 6 7 5 8 4 9 1 10 2 11 42 12 3 13
REMARK SMILES IDX 40 14 38 15 43 16 41 18 39 20 37 22 35 24 10 26 11 27 12 28
REMARK SMILES IDX 30 29 21 30 29 31 31 32 22 33 27 34 23 35 26 36 24 37 13 38
REMARK SMILES IDX 20 39 14 40 18 41 15 42 16 43 19 44 17 46 28 48 25 50 33 52
REMARK H PARENT 43 17 41 19 39 21 37 23 35 25 19 45 17 47 28 49 25 51 33 53
REMARK Flexibility Score: inf
ROOT
ATOM      1  C   UNL     1      11.760  45.548   7.787  1.00  0.00     0.180 C 
ATOM      2  C   UNL     1      12.499  46.729   7.114  1.00  0.00     0.177 C 
ATOM      3  C   UNL     1      11.682  47.172   5.911  1.00  0.00     0.180 C 
ATOM      4  C   UNL     1      10.256  47.515   6.321  1.00  0.00     0.214 C 
ATOM      5  C   UNL     1       9.631  46.576   7.415  1.00  0.00     0.339 C 
ATOM      6  O   UNL     1      10.583  46.107   8.418  1.00  0.00    -0.332 OA
ENDROOT
BRANCH   1   7
ATOM      7  C   UNL     1      12.646  44.779   8.788  1.00  0.00     0.198 C 
BRANCH   7   8
ATOM      8  O   UNL     1      13.380  43.764   8.109  1.00  0.00    -0.347 OA
BRANCH   8   9
ATOM      9  C   UNL     1      14.729  44.032   7.782  1.00  0.00     0.281 C 
ATOM     10  C   UNL     1      16.695  43.632   4.728  1.00  0.00     0.041 C 
ATOM     11  C   UNL     1      16.330  44.104   6.106  1.00  0.00     0.150 C 
ATOM     12  C   UNL     1      17.476  43.891   7.175  1.00  0.00     0.174 C 
ATOM     13  O   UNL     1      15.107  43.492   6.541  1.00  0.00    -0.344 OA
ATOM     14  C   UNL     1      16.958  42.968   8.344  1.00  0.00     0.179 C 
ATOM     15  C   UNL     1      15.596  43.462   8.914  1.00  0.00     0.202 C 
BRANCH  12  16
ATOM     16  O   UNL     1      18.620  43.340   6.587  1.00  0.00    -0.388 OA
ATOM     17  H   UNL     1      18.867  43.877   5.790  1.00  0.00     0.211 HD
ENDBRANCH  12  16
BRANCH  14  18
ATOM     18  O   UNL     1      17.868  42.853   9.440  1.00  0.00    -0.387 OA
ATOM     19  H   UNL     1      17.456  42.384  10.185  1.00  0.00     0.211 HD
ENDBRANCH  14  18
BRANCH  15  20
ATOM     20  O   UNL     1      14.937  42.399   9.579  1.00  0.00    -0.385 OA
ATOM     21  H   UNL     1      15.338  41.544   9.310  1.00  0.00     0.211 HD
ENDBRANCH  15  20
ENDBRANCH   8   9
ENDBRANCH   7   8
ENDBRANCH   1   7
BRANCH   2  22
ATOM     22  O   UNL     1      13.812  46.383   6.754  1.00  0.00    -0.387 OA
ATOM     23  H   UNL     1      14.095  47.005   5.985  1.00  0.00     0.211 HD
ENDBRANCH   2  22
BRANCH   3  24
ATOM     24  O   UNL     1      11.775  46.198   4.888  1.00  0.00    -0.387 OA
ATOM     25  H   UNL     1      11.524  45.321   5.267  1.00  0.00     0.211 HD
ENDBRANCH   3  24
BRANCH   5  26
ATOM     26  O   UNL     1       8.598  47.362   8.031  1.00  0.00    -0.454 OA
BRANCH  26  27
ATOM     27  C   UNL     1       7.256  47.000   8.265  1.00  0.00     0.214 A 
ATOM     28  C   UNL     1       6.750  46.473   9.474  1.00  0.00     0.180 A 
ATOM     29  C   UNL     1       6.456  46.913   7.142  1.00  0.00     0.239 A 
ATOM     30  O   UNL     1       5.419  46.352   9.604  1.00  0.00    -0.452 OA
ATOM     31  C   UNL     1       5.182  46.310   7.245  1.00  0.00     0.111 A 
ATOM     32  O   UNL     1       6.850  47.392   6.044  1.00  0.00    -0.285 OA
ATOM     33  C   UNL     1       4.641  46.189   8.551  1.00  0.00     0.146 A 
ATOM     34  C   UNL     1       4.442  45.825   6.148  1.00  0.00     0.134 A 
ATOM     35  C   UNL     1       3.319  45.752   8.731  1.00  0.00     0.094 A 
ATOM     36  C   UNL     1       3.140  45.353   6.330  1.00  0.00     0.093 A 
ATOM     37  C   UNL     1       2.586  45.295   7.624  1.00  0.00     0.123 A 
BRANCH  28  38
ATOM     38  C   UNL     1       7.557  45.493  10.222  1.00  0.00     0.025 A 
ATOM     39  C   UNL     1       8.090  45.959  11.405  1.00  0.00     0.062 A 
ATOM     40  C   UNL     1       8.010  44.240   9.707  1.00  0.00     0.016 A 
ATOM     41  C   UNL     1       9.044  45.239  12.131  1.00  0.00     0.158 A 
ATOM     42  C   UNL     1       8.961  43.472  10.438  1.00  0.00     0.051 A 
ATOM     43  C   UNL     1       9.509  43.985  11.636  1.00  0.00     0.157 A 
BRANCH  41  44
ATOM     44  O   UNL     1       9.545  45.797  13.301  1.00  0.00    -0.504 OA
ATOM     45  H   UNL     1       9.703  46.771  13.272  1.00  0.00     0.293 HD
ENDBRANCH  41  44
BRANCH  43  46
ATOM     46  O   UNL     1      10.460  43.243  12.339  1.00  0.00    -0.504 OA
ATOM     47  H   UNL     1      10.639  43.369  13.324  1.00  0.00     0.293 HD
ENDBRANCH  43  46
ENDBRANCH  28  38
BRANCH  34  48
ATOM     48  O   UNL     1       5.020  45.664   4.905  1.00  0.00    -0.507 OA
ATOM     49  H   UNL     1       5.768  46.260   4.559  1.00  0.00     0.293 HD
ENDBRANCH  34  48
BRANCH  37  50
ATOM     50  O   UNL     1       1.322  44.750   7.804  1.00  0.00    -0.508 OA
ATOM     51  H   UNL     1       0.801  44.455   6.984  1.00  0.00     0.293 HD
ENDBRANCH  37  50
ENDBRANCH  26  27
ENDBRANCH   5  26
BRANCH   4  52
ATOM     52  O   UNL     1       9.479  47.564   5.155  1.00  0.00    -0.384 OA
ATOM     53  H   UNL     1       8.565  47.858   5.436  1.00  0.00     0.211 HD
ENDBRANCH   4  52
TORSDOF 16
ENDMDL
MODEL 3
REMARK VINA RESULT:    -8.163      1.804      2.526
REMARK INTER + INTRA:         -16.233
REMARK INTER:                 -14.418
REMARK INTRA:                  -1.815
REMARK UNBOUND:                -2.821
REMARK SMILES C[C@H]1O[C@@H](OC[C@H]2O[C@@H](Oc3c(-c4ccc(O)c(O)c4)oc4cc(O)cc(O)c4c3=O)[C@H](O)[C@H](O)[C@@H]2O)[C@@H](O)[C@H](O)[C@H]1O
REMARK SMILES IDX 7 1 36 2 34 3 32 4 9 5 8 6 6 7 5 8 4 9 1 10 2 11 42 12 3 13
REMARK SMILES IDX 40 14 38 15 43 16 41 18 39 20 37 22 35 24 10 26 11 27 12 28
REMARK SMILES IDX 30 29 21 30 29 31 31 32 22 33 27 34 23 35 26 36 24 37 13 38
REMARK SMILES IDX 20 39 14 40 18 41 15 42 16 43 19 44 17 46 28 48 25 50 33 52
REMARK H PARENT 43 17 41 19 39 21 37 23 35 25 19 45 17 47 28 49 25 51 33 53
REMARK Flexibility Score: inf
ROOT
ATOM      1  C   UNL     1      11.377  44.670   6.236  1.00  0.00     0.180 C 
ATOM      2  C   UNL     1      11.650  46.045   6.892  1.00  0.00     0.177 C 
ATOM      3  C   UNL     1      10.530  46.990   6.486  1.00  0.00     0.180 C 
ATOM      4  C   UNL     1       9.171  46.411   6.856  1.00  0.00     0.214 C 
ATOM      5  C   UNL     1       9.027  44.860   6.649  1.00  0.00     0.339 C 
ATOM      6  O   UNL     1      10.242  44.102   6.933  1.00  0.00    -0.332 OA
ENDROOT
BRANCH   1   7
ATOM      7  C   UNL     1      12.605  43.738   6.267  1.00  0.00     0.198 C 
BRANCH   7   8
ATOM      8  O   UNL     1      13.274  43.854   7.519  1.00  0.00    -0.347 OA
BRANCH   8   9
ATOM      9  C   UNL     1      14.570  43.301   7.631  1.00  0.00     0.281 C 
ATOM     10  C   UNL     1      15.911  40.380   9.367  1.00  0.00     0.041 C 
ATOM     11  C   UNL     1      15.855  41.537   8.411  1.00  0.00     0.150 C 
ATOM     12  C   UNL     1      17.128  42.473   8.472  1.00  0.00     0.174 C 
ATOM     13  O   UNL     1      14.653  42.295   8.607  1.00  0.00    -0.344 OA
ATOM     14  C   UNL     1      16.697  43.943   8.847  1.00  0.00     0.179 C 
ATOM     15  C   UNL     1      15.533  44.455   7.948  1.00  0.00     0.202 C 
BRANCH  12  16
ATOM     16  O   UNL     1      18.068  41.990   9.388  1.00  0.00    -0.388 OA
ATOM     17  H   UNL     1      18.948  42.407   9.201  1.00  0.00     0.211 HD
ENDBRANCH  12  16
BRANCH  14  18
ATOM     18  O   UNL     1      17.757  44.898   8.764  1.00  0.00    -0.387 OA
ATOM     19  H   UNL     1      17.459  45.710   8.320  1.00  0.00     0.211 HD
ENDBRANCH  14  18
BRANCH  15  20
ATOM     20  O   UNL     1      14.859  45.522   8.593  1.00  0.00    -0.385 OA
ATOM     21  H   UNL     1      14.571  46.181   7.924  1.00  0.00     0.211 HD
ENDBRANCH  15  20
ENDBRANCH   8   9
ENDBRANCH   7   8
ENDBRANCH   1   7
BRANCH   2  22
ATOM     22  O   UNL     1      12.912  46.549   6.537  1.00  0.00    -0.387 OA
ATOM     23  H   UNL     1      13.597  45.794   6.681  1.00  0.00     0.211 HD
ENDBRANCH   2  22
BRANCH   3  24
ATOM     24  O   UNL     1      10.665  47.330   5.119  1.00  0.00    -0.387 OA
ATOM     25  H   UNL     1      11.309  48.076   5.044  1.00  0.00     0.211 HD
ENDBRANCH   3  24
BRANCH   5  26
ATOM     26  O   UNL     1       7.969  44.464   7.537  1.00  0.00    -0.454 OA
BRANCH  26  27
ATOM     27  C   UNL     1       7.051  45.291   8.215  1.00  0.00     0.214 A 
ATOM     28  C   UNL     1       7.290  45.939   9.447  1.00  0.00     0.180 A 
ATOM     29  C   UNL     1       5.747  45.236   7.761  1.00  0.00     0.239 A 
ATOM     30  O   UNL     1       6.391  46.840   9.873  1.00  0.00    -0.452 OA
ATOM     31  C   UNL     1       4.720  45.821   8.535  1.00  0.00     0.111 A 
ATOM     32  O   UNL     1       5.484  44.691   6.655  1.00  0.00    -0.285 OA
ATOM     33  C   UNL     1       5.122  46.762   9.517  1.00  0.00     0.146 A 
ATOM     34  C   UNL     1       3.351  45.519   8.394  1.00  0.00     0.134 A 
ATOM     35  C   UNL     1       4.161  47.509  10.218  1.00  0.00     0.094 A 
ATOM     36  C   UNL     1       2.394  46.234   9.119  1.00  0.00     0.093 A 
ATOM     37  C   UNL     1       2.799  47.213  10.047  1.00  0.00     0.123 A 
BRANCH  28  38
ATOM     38  C   UNL     1       8.027  45.222  10.503  1.00  0.00     0.025 A 
ATOM     39  C   UNL     1       9.358  44.986  10.227  1.00  0.00     0.062 A 
ATOM     40  C   UNL     1       7.428  44.568  11.622  1.00  0.00     0.016 A 
ATOM     41  C   UNL     1      10.148  44.144  11.015  1.00  0.00     0.158 A 
ATOM     42  C   UNL     1       8.214  43.726  12.459  1.00  0.00     0.051 A 
ATOM     43  C   UNL     1       9.570  43.482  12.138  1.00  0.00     0.157 A 
BRANCH  41  44
ATOM     44  O   UNL     1      11.473  43.943  10.648  1.00  0.00    -0.504 OA
ATOM     45  H   UNL     1      11.608  43.465   9.795  1.00  0.00     0.293 HD
ENDBRANCH  41  44
BRANCH  43  46
ATOM     46  O   UNL     1      10.333  42.636  12.945  1.00  0.00    -0.504 OA
ATOM     47  H   UNL     1       9.932  41.894  13.499  1.00  0.00     0.293 HD
ENDBRANCH  43  46
ENDBRANCH  28  38
BRANCH  34  48
ATOM     48  O   UNL     1       2.925  44.429   7.662  1.00  0.00    -0.507 OA
ATOM     49  H   UNL     1       3.523  43.634   7.452  1.00  0.00     0.293 HD
ENDBRANCH  34  48
BRANCH  37  50
ATOM     50  O   UNL     1       1.845  47.861  10.820  1.00  0.00    -0.508 OA
ATOM     51  H   UNL     1       1.385  48.679  10.434  1.00  0.00     0.293 HD
ENDBRANCH  37  50
ENDBRANCH  26  27
ENDBRANCH   5  26
BRANCH   4  52
ATOM     52  O   UNL     1       8.196  47.134   6.154  1.00  0.00    -0.384 OA
ATOM     53  H   UNL     1       7.369  46.570   6.158  1.00  0.00     0.211 HD
ENDBRANCH   4  52
TORSDOF 16
ENDMDL
MODEL 4
REMARK VINA RESULT:    -8.049      1.728      9.694
REMARK INTER + INTRA:         -16.045
REMARK INTER:                 -14.589
REMARK INTRA:                  -1.456
REMARK UNBOUND:                -2.821
REMARK SMILES C[C@H]1O[C@@H](OC[C@H]2O[C@@H](Oc3c(-c4ccc(O)c(O)c4)oc4cc(O)cc(O)c4c3=O)[C@H](O)[C@H](O)[C@@H]2O)[C@@H](O)[C@H](O)[C@H]1O
REMARK SMILES IDX 7 1 36 2 34 3 32 4 9 5 8 6 6 7 5 8 4 9 1 10 2 11 42 12 3 13
REMARK SMILES IDX 40 14 38 15 43 16 41 18 39 20 37 22 35 24 10 26 11 27 12 28
REMARK SMILES IDX 30 29 21 30 29 31 31 32 22 33 27 34 23 35 26 36 24 37 13 38
REMARK SMILES IDX 20 39 14 40 18 41 15 42 16 43 19 44 17 46 28 48 25 50 33 52
REMARK H PARENT 43 17 41 19 39 21 37 23 35 25 19 45 17 47 28 49 25 51 33 53
REMARK Flexibility Score: inf
ROOT
ATOM      1  C   UNL     1       8.097  44.446   8.153  1.00  0.00     0.180 C 
ATOM      2  C   UNL     1       7.651  44.910   9.560  1.00  0.00     0.177 C 
ATOM      3  C   UNL     1       8.665  44.395  10.569  1.00  0.00     0.180 C 
ATOM      4  C   UNL     1      10.070  44.853  10.206  1.00  0.00     0.214 C 
ATOM      5  C   UNL     1      10.397  44.857   8.669  1.00  0.00     0.339 C 
ATOM      6  O   UNL     1       9.270  45.226   7.818  1.00  0.00    -0.332 OA
ENDROOT
BRANCH   1   7
ATOM      7  C   UNL     1       6.983  44.588   7.095  1.00  0.00     0.198 C 
BRANCH   7   8
ATOM      8  O   UNL     1       6.951  45.922   6.597  1.00  0.00    -0.347 OA
BRANCH   8   9
ATOM      9  C   UNL     1       5.940  46.784   7.080  1.00  0.00     0.281 C 
ATOM     10  C   UNL     1       3.344  46.424   9.627  1.00  0.00     0.041 C 
ATOM     11  C   UNL     1       4.261  47.100   8.648  1.00  0.00     0.150 C 
ATOM     12  C   UNL     1       3.521  48.102   7.673  1.00  0.00     0.174 C 
ATOM     13  O   UNL     1       5.013  46.128   7.907  1.00  0.00    -0.344 OA
ATOM     14  C   UNL     1       3.741  47.656   6.176  1.00  0.00     0.179 C 
ATOM     15  C   UNL     1       5.244  47.403   5.859  1.00  0.00     0.202 C 
BRANCH  12  16
ATOM     16  O   UNL     1       2.155  48.176   7.966  1.00  0.00    -0.388 OA
ATOM     17  H   UNL     1       1.937  47.512   8.669  1.00  0.00     0.211 HD
ENDBRANCH  12  16
BRANCH  14  18
ATOM     18  O   UNL     1       3.249  48.592   5.213  1.00  0.00    -0.387 OA
ATOM     19  H   UNL     1       2.288  48.502   5.102  1.00  0.00     0.211 HD
ENDBRANCH  14  18
BRANCH  15  20
ATOM     20  O   UNL     1       5.363  46.565   4.723  1.00  0.00    -0.385 OA
ATOM     21  H   UNL     1       6.311  46.371   4.555  1.00  0.00     0.211 HD
ENDBRANCH  15  20
ENDBRANCH   8   9
ENDBRANCH   7   8
ENDBRANCH   1   7
BRANCH   2  22
ATOM     22  O   UNL     1       6.348  44.477   9.861  1.00  0.00    -0.387 OA
ATOM     23  H   UNL     1       5.796  45.310  10.110  1.00  0.00     0.211 HD
ENDBRANCH   2  22
BRANCH   3  24
ATOM     24  O   UNL     1       8.528  42.993  10.708  1.00  0.00    -0.387 OA
ATOM     25  H   UNL     1       9.186  42.553  10.116  1.00  0.00     0.211 HD
ENDBRANCH   3  24
BRANCH   5  26
ATOM     26  O   UNL     1      11.470  45.801   8.520  1.00  0.00    -0.454 OA
BRANCH  26  27
ATOM     27  C   UNL     1      12.744  45.585   7.957  1.00  0.00     0.214 A 
ATOM     28  C   UNL     1      13.334  46.372   6.944  1.00  0.00     0.180 A 
ATOM     29  C   UNL     1      13.322  44.362   8.239  1.00  0.00     0.239 A 
ATOM     30  O   UNL     1      14.624  46.153   6.643  1.00  0.00    -0.452 OA
ATOM     31  C   UNL     1      14.465  43.955   7.515  1.00  0.00     0.111 A 
ATOM     32  O   UNL     1      12.849  43.633   9.152  1.00  0.00    -0.285 OA
ATOM     33  C   UNL     1      15.179  44.971   6.830  1.00  0.00     0.146 A 
ATOM     34  C   UNL     1      14.917  42.622   7.430  1.00  0.00     0.134 A 
ATOM     35  C   UNL     1      16.411  44.683   6.221  1.00  0.00     0.094 A 
ATOM     36  C   UNL     1      16.124  42.327   6.790  1.00  0.00     0.093 A 
ATOM     37  C   UNL     1      16.860  43.353   6.167  1.00  0.00     0.123 A 
BRANCH  28  38
ATOM     38  C   UNL     1      12.494  46.865   5.838  1.00  0.00     0.025 A 
ATOM     39  C   UNL     1      11.260  47.351   6.215  1.00  0.00     0.062 A 
ATOM     40  C   UNL     1      12.756  46.651   4.451  1.00  0.00     0.016 A 
ATOM     41  C   UNL     1      10.261  47.661   5.288  1.00  0.00     0.158 A 
ATOM     42  C   UNL     1      11.768  46.983   3.480  1.00  0.00     0.051 A 
ATOM     43  C   UNL     1      10.503  47.456   3.897  1.00  0.00     0.157 A 
BRANCH  41  44
ATOM     44  O   UNL     1       9.038  48.122   5.759  1.00  0.00    -0.504 OA
ATOM     45  H   UNL     1       8.307  48.135   5.095  1.00  0.00     0.293 HD
ENDBRANCH  41  44
BRANCH  43  46
ATOM     46  O   UNL     1       9.526  47.758   2.946  1.00  0.00    -0.504 OA
ATOM     47  H   UNL     1       9.603  47.494   1.975  1.00  0.00     0.293 HD
ENDBRANCH  43  46
ENDBRANCH  28  38
BRANCH  34  48
ATOM     48  O   UNL     1      14.126  41.566   7.836  1.00  0.00    -0.507 OA
ATOM     49  H   UNL     1      14.116  41.215   8.790  1.00  0.00     0.293 HD
ENDBRANCH  34  48
BRANCH  37  50
ATOM     50  O   UNL     1      18.016  43.038   5.466  1.00  0.00    -0.508 OA
ATOM     51  H   UNL     1      18.870  43.539   5.691  1.00  0.00     0.293 HD
ENDBRANCH  37  50
ENDBRANCH  26  27
ENDBRANCH   5  26
BRANCH   4  52
ATOM     52  O   UNL     1      10.974  44.072  10.940  1.00  0.00    -0.384 OA
ATOM     53  H   UNL     1      11.577  43.634  10.272  1.00  0.00     0.211 HD
ENDBRANCH   4  52
TORSDOF 16
ENDMDL
MODEL 5
REMARK VINA RESULT:    -7.437     12.990     15.939
REMARK INTER + INTRA:         -15.041
REMARK INTER:                 -13.194
REMARK INTRA:                  -1.847
REMARK UNBOUND:                -2.821
REMARK SMILES C[C@H]1O[C@@H](OC[C@H]2O[C@@H](Oc3c(-c4ccc(O)c(O)c4)oc4cc(O)cc(O)c4c3=O)[C@H](O)[C@H](O)[C@@H]2O)[C@@H](O)[C@H](O)[C@H]1O
REMARK SMILES IDX 7 1 36 2 34 3 32 4 9 5 8 6 6 7 5 8 4 9 1 10 2 11 42 12 3 13
REMARK SMILES IDX 40 14 38 15 43 16 41 18 39 20 37 22 35 24 10 26 11 27 12 28
REMARK SMILES IDX 30 29 21 30 29 31 31 32 22 33 27 34 23 35 26 36 24 37 13 38
REMARK SMILES IDX 20 39 14 40 18 41 15 42 16 43 19 44 17 46 28 48 25 50 33 52
REMARK H PARENT 43 17 41 19 39 21 37 23 35 25 19 45 17 47 28 49 25 51 33 53
REMARK Flexibility Score: inf
ROOT
ATOM      1  C   UNL     1      10.704  32.878  -1.944  1.00  0.00     0.180 C 
ATOM      2  C   UNL     1      10.936  31.584  -2.761  1.00  0.00     0.177 C 
ATOM      3  C   UNL     1       9.589  31.112  -3.288  1.00  0.00     0.180 C 
ATOM      4  C   UNL     1       8.907  32.211  -4.090  1.00  0.00     0.214 C 
ATOM      5  C   UNL     1       9.082  33.664  -3.517  1.00  0.00     0.339 C 
ATOM      6  O   UNL     1      10.382  33.914  -2.902  1.00  0.00    -0.332 OA
ENDROOT
BRANCH   1   7
ATOM      7  C   UNL     1      11.915  33.255  -1.065  1.00  0.00     0.198 C 
BRANCH   7   8
ATOM      8  O   UNL     1      13.099  33.289  -1.855  1.00  0.00    -0.347 OA
BRANCH   8   9
ATOM      9  C   UNL     1      14.267  32.695  -1.322  1.00  0.00     0.281 C 
ATOM     10  C   UNL     1      16.870  33.883   0.950  1.00  0.00     0.041 C 
ATOM     11  C   UNL     1      16.043  32.916   0.151  1.00  0.00     0.150 C 
ATOM     12  C   UNL     1      16.902  31.909  -0.714  1.00  0.00     0.174 C 
ATOM     13  O   UNL     1      15.101  33.620  -0.672  1.00  0.00    -0.344 OA
ATOM     14  C   UNL     1      16.541  32.067  -2.241  1.00  0.00     0.179 C 
ATOM     15  C   UNL     1      15.004  32.013  -2.484  1.00  0.00     0.202 C 
BRANCH  12  16
ATOM     16  O   UNL     1      18.272  32.109  -0.511  1.00  0.00    -0.388 OA
ATOM     17  H   UNL     1      18.425  33.049  -0.232  1.00  0.00     0.211 HD
ENDBRANCH  12  16
BRANCH  14  18
ATOM     18  O   UNL     1      17.145  31.084  -3.085  1.00  0.00    -0.387 OA
ATOM     19  H   UNL     1      18.108  31.061  -2.956  1.00  0.00     0.211 HD
ENDBRANCH  14  18
BRANCH  15  20
ATOM     20  O   UNL     1      14.689  32.628  -3.721  1.00  0.00    -0.385 OA
ATOM     21  H   UNL     1      13.991  33.305  -3.584  1.00  0.00     0.211 HD
ENDBRANCH  15  20
ENDBRANCH   8   9
ENDBRANCH   7   8
ENDBRANCH   1   7
BRANCH   2  22
ATOM     22  O   UNL     1      11.573  30.593  -1.995  1.00  0.00    -0.387 OA
ATOM     23  H   UNL     1      11.430  29.693  -2.475  1.00  0.00     0.211 HD
ENDBRANCH   2  22
BRANCH   3  24
ATOM     24  O   UNL     1       8.813  30.603  -2.220  1.00  0.00    -0.387 OA
ATOM     25  H   UNL     1       8.833  29.616  -2.260  1.00  0.00     0.211 HD
ENDBRANCH   3  24
BRANCH   5  26
ATOM     26  O   UNL     1       8.883  34.533  -4.644  1.00  0.00    -0.454 OA
BRANCH  26  27
ATOM     27  C   UNL     1       8.708  35.932  -4.640  1.00  0.00     0.214 A 
ATOM     28  C   UNL     1       9.574  36.866  -5.249  1.00  0.00     0.180 A 
ATOM     29  C   UNL     1       7.767  36.415  -3.750  1.00  0.00     0.239 A 
ATOM     30  O   UNL     1       9.176  38.146  -5.320  1.00  0.00    -0.452 OA
ATOM     31  C   UNL     1       7.708  37.802  -3.490  1.00  0.00     0.111 A 
ATOM     32  O   UNL     1       6.952  35.625  -3.200  1.00  0.00    -0.285 OA
ATOM     33  C   UNL     1       8.338  38.653  -4.435  1.00  0.00     0.146 A 
ATOM     34  C   UNL     1       7.082  38.372  -2.364  1.00  0.00     0.134 A 
ATOM     35  C   UNL     1       8.192  40.046  -4.341  1.00  0.00     0.094 A 
ATOM     36  C   UNL     1       6.968  39.761  -2.249  1.00  0.00     0.093 A 
ATOM     37  C   UNL     1       7.543  40.598  -3.225  1.00  0.00     0.123 A 
BRANCH  28  38
ATOM     38  C   UNL     1      11.030  36.652  -5.167  1.00  0.00     0.025 A 
ATOM     39  C   UNL     1      11.759  37.751  -4.761  1.00  0.00     0.062 A 
ATOM     40  C   UNL     1      11.724  35.522  -5.695  1.00  0.00     0.016 A 
ATOM     41  C   UNL     1      13.154  37.790  -4.829  1.00  0.00     0.158 A 
ATOM     42  C   UNL     1      13.147  35.521  -5.752  1.00  0.00     0.051 A 
ATOM     43  C   UNL     1      13.867  36.671  -5.351  1.00  0.00     0.157 A 
BRANCH  41  44
ATOM     44  O   UNL     1      13.805  38.948  -4.421  1.00  0.00    -0.504 OA
ATOM     45  H   UNL     1      13.363  39.794  -4.675  1.00  0.00     0.293 HD
ENDBRANCH  41  44
BRANCH  43  46
ATOM     46  O   UNL     1      15.261  36.680  -5.430  1.00  0.00    -0.504 OA
ATOM     47  H   UNL     1      15.829  35.871  -5.226  1.00  0.00     0.293 HD
ENDBRANCH  43  46
ENDBRANCH  28  38
BRANCH  34  48
ATOM     48  O   UNL     1       6.698  37.601  -1.286  1.00  0.00    -0.507 OA
ATOM     49  H   UNL     1       7.333  37.343  -0.534  1.00  0.00     0.293 HD
ENDBRANCH  34  48
BRANCH  37  50
ATOM     50  O   UNL     1       7.494  41.975  -3.060  1.00  0.00    -0.508 OA
ATOM     51  H   UNL     1       6.641  42.463  -3.314  1.00  0.00     0.293 HD
ENDBRANCH  37  50
ENDBRANCH  26  27
ENDBRANCH   5  26
BRANCH   4  52
ATOM     52  O   UNL     1       7.559  31.856  -4.236  1.00  0.00    -0.384 OA
ATOM     53  H   UNL     1       7.549  30.917  -4.584  1.00  0.00     0.211 HD
ENDBRANCH   4  52
TORSDOF 16
ENDMDL
MODEL 6
REMARK VINA RESULT:    -7.375      1.736      2.308
REMARK INTER + INTRA:         -14.938
REMARK INTER:                 -12.841
REMARK INTRA:                  -2.097
REMARK UNBOUND:                -2.821
REMARK SMILES C[C@H]1O[C@@H](OC[C@H]2O[C@@H](Oc3c(-c4ccc(O)c(O)c4)oc4cc(O)cc(O)c4c3=O)[C@H](O)[C@H](O)[C@@H]2O)[C@@H](O)[C@H](O)[C@H]1O
REMARK SMILES IDX 7 1 36 2 34 3 32 4 9 5 8 6 6 7 5 8 4 9 1 10 2 11 42 12 3 13
REMARK SMILES IDX 40 14 38 15 43 16 41 18 39 20 37 22 35 24 10 26 11 27 12 28
REMARK SMILES IDX 30 29 21 30 29 31 31 32 22 33 27 34 23 35 26 36 24 37 13 38
REMARK SMILES IDX 20 39 14 40 18 41 15 42 16 43 19 44 17 46 28 48 25 50 33 52
REMARK H PARENT 43 17 41 19 39 21 37 23 35 25 19 45 17 47 28 49 25 51 33 53
REMARK Flexibility Score: inf
ROOT
ATOM      1  C   UNL     1       9.923  45.625   6.941  1.00  0.00     0.180 C 
ATOM      2  C   UNL     1      10.783  46.829   6.488  1.00  0.00     0.177 C 
ATOM      3  C   UNL     1       9.845  47.910   5.974  1.00  0.00     0.180 C 
ATOM      4  C   UNL     1       8.812  48.277   7.030  1.00  0.00     0.214 C 
ATOM      5  C   UNL     1       8.262  47.071   7.876  1.00  0.00     0.339 C 
ATOM      6  O   UNL     1       9.251  46.035   8.156  1.00  0.00    -0.332 OA
ENDROOT
BRANCH   1   7
ATOM      7  C   UNL     1      10.752  44.339   7.142  1.00  0.00     0.198 C 
BRANCH   7   8
ATOM      8  O   UNL     1      11.923  44.628   7.901  1.00  0.00    -0.347 OA
BRANCH   8   9
ATOM      9  C   UNL     1      13.137  44.024   7.499  1.00  0.00     0.281 C 
ATOM     10  C   UNL     1      15.196  41.354   8.905  1.00  0.00     0.041 C 
ATOM     11  C   UNL     1      14.677  42.338   7.896  1.00  0.00     0.150 C 
ATOM     12  C   UNL     1      15.812  43.194   7.203  1.00  0.00     0.174 C 
ATOM     13  O   UNL     1      13.685  43.190   8.487  1.00  0.00    -0.344 OA
ATOM     14  C   UNL     1      15.569  44.729   7.471  1.00  0.00     0.179 C 
ATOM     15  C   UNL     1      14.110  45.155   7.133  1.00  0.00     0.202 C 
BRANCH  12  16
ATOM     16  O   UNL     1      17.080  42.813   7.654  1.00  0.00    -0.388 OA
ATOM     17  H   UNL     1      17.495  42.208   6.986  1.00  0.00     0.211 HD
ENDBRANCH  12  16
BRANCH  14  18
ATOM     18  O   UNL     1      16.448  45.592   6.747  1.00  0.00    -0.387 OA
ATOM     19  H   UNL     1      15.974  46.050   6.033  1.00  0.00     0.211 HD
ENDBRANCH  14  18
BRANCH  15  20
ATOM     20  O   UNL     1      13.785  46.351   7.819  1.00  0.00    -0.385 OA
ATOM     21  H   UNL     1      14.603  46.870   7.981  1.00  0.00     0.211 HD
ENDBRANCH  15  20
ENDBRANCH   8   9
ENDBRANCH   7   8
ENDBRANCH   1   7
BRANCH   2  22
ATOM     22  O   UNL     1      11.730  46.456   5.519  1.00  0.00    -0.387 OA
ATOM     23  H   UNL     1      12.502  45.983   6.009  1.00  0.00     0.211 HD
ENDBRANCH   2  22
BRANCH   3  24
ATOM     24  O   UNL     1       9.292  47.510   4.734  1.00  0.00    -0.387 OA
ATOM     25  H   UNL     1       9.042  48.321   4.227  1.00  0.00     0.211 HD
ENDBRANCH   3  24
BRANCH   5  26
ATOM     26  O   UNL     1       7.791  47.661   9.098  1.00  0.00    -0.454 OA
BRANCH  26  27
ATOM     27  C   UNL     1       6.566  47.428   9.758  1.00  0.00     0.214 A 
ATOM     28  C   UNL     1       6.426  46.870  11.047  1.00  0.00     0.180 A 
ATOM     29  C   UNL     1       5.436  47.510   8.966  1.00  0.00     0.239 A 
ATOM     30  O   UNL     1       5.208  46.884  11.613  1.00  0.00    -0.452 OA
ATOM     31  C   UNL     1       4.203  47.041   9.472  1.00  0.00     0.111 A 
ATOM     32  O   UNL     1       5.504  48.024   7.817  1.00  0.00    -0.285 OA
ATOM     33  C   UNL     1       4.112  46.882  10.878  1.00  0.00     0.146 A 
ATOM     34  C   UNL     1       3.088  46.720   8.671  1.00  0.00     0.134 A 
ATOM     35  C   UNL     1       2.880  46.577  11.478  1.00  0.00     0.094 A 
ATOM     36  C   UNL     1       1.870  46.378   9.265  1.00  0.00     0.093 A 
ATOM     37  C   UNL     1       1.771  46.284  10.667  1.00  0.00     0.123 A 
BRANCH  28  38
ATOM     38  C   UNL     1       7.305  45.757  11.447  1.00  0.00     0.025 A 
ATOM     39  C   UNL     1       8.199  46.053  12.454  1.00  0.00     0.062 A 
ATOM     40  C   UNL     1       7.457  44.533  10.726  1.00  0.00     0.016 A 
ATOM     41  C   UNL     1       9.239  45.189  12.809  1.00  0.00     0.158 A 
ATOM     42  C   UNL     1       8.490  43.620  11.083  1.00  0.00     0.051 A 
ATOM     43  C   UNL     1       9.408  43.961  12.104  1.00  0.00     0.157 A 
BRANCH  41  44
ATOM     44  O   UNL     1      10.109  45.579  13.820  1.00  0.00    -0.504 OA
ATOM     45  H   UNL     1      10.559  46.447  13.679  1.00  0.00     0.293 HD
ENDBRANCH  41  44
BRANCH  43  46
ATOM     46  O   UNL     1      10.436  43.076  12.436  1.00  0.00    -0.504 OA
ATOM     47  H   UNL     1      10.570  42.189  11.975  1.00  0.00     0.293 HD
ENDBRANCH  43  46
ENDBRANCH  28  38
BRANCH  34  48
ATOM     48  O   UNL     1       3.199  46.590   7.302  1.00  0.00    -0.507 OA
ATOM     49  H   UNL     1       2.544  47.013   6.649  1.00  0.00     0.293 HD
ENDBRANCH  34  48
BRANCH  37  50
ATOM     50  O   UNL     1       0.580  45.866  11.243  1.00  0.00    -0.508 OA
ATOM     51  H   UNL     1       0.391  44.870  11.293  1.00  0.00     0.293 HD
ENDBRANCH  37  50
ENDBRANCH  26  27
ENDBRANCH   5  26
BRANCH   4  52
ATOM     52  O   UNL     1       7.787  48.990   6.392  1.00  0.00    -0.384 OA
ATOM     53  H   UNL     1       7.068  49.124   7.075  1.00  0.00     0.211 HD
ENDBRANCH   4  52
TORSDOF 16
ENDMDL
MODEL 7
REMARK VINA RESULT:    -7.289     13.333     18.035
REMARK INTER + INTRA:         -14.797
REMARK INTER:                 -12.289
REMARK INTRA:                  -2.508
REMARK UNBOUND:                -2.821
REMARK SMILES C[C@H]1O[C@@H](OC[C@H]2O[C@@H](Oc3c(-c4ccc(O)c(O)c4)oc4cc(O)cc(O)c4c3=O)[C@H](O)[C@H](O)[C@@H]2O)[C@@H](O)[C@H](O)[C@H]1O
REMARK SMILES IDX 7 1 36 2 34 3 32 4 9 5 8 6 6 7 5 8 4 9 1 10 2 11 42 12 3 13
REMARK SMILES IDX 40 14 38 15 43 16 41 18 39 20 37 22 35 24 10 26 11 27 12 28
REMARK SMILES IDX 30 29 21 30 29 31 31 32 22 33 27 34 23 35 26 36 24 37 13 38
REMARK SMILES IDX 20 39 14 40 18 41 15 42 16 43 19 44 17 46 28 48 25 50 33 52
REMARK H PARENT 43 17 41 19 39 21 37 23 35 25 19 45 17 47 28 49 25 51 33 53
REMARK Flexibility Score: inf
ROOT
ATOM      1  C   UNL     1       8.512  34.316  -5.059  1.00  0.00     0.180 C 
ATOM      2  C   UNL     1       8.272  33.816  -3.615  1.00  0.00     0.177 C 
ATOM      3  C   UNL     1       8.449  32.305  -3.605  1.00  0.00     0.180 C 
ATOM      4  C   UNL     1       9.815  31.917  -4.153  1.00  0.00     0.214 C 
ATOM      5  C   UNL     1      10.317  32.776  -5.370  1.00  0.00     0.339 C 
ATOM      6  O   UNL     1       9.932  34.183  -5.309  1.00  0.00    -0.332 OA
ENDROOT
BRANCH   1   7
ATOM      7  C   UNL     1       8.015  35.760  -5.282  1.00  0.00     0.198 C 
BRANCH   7   8
ATOM      8  O   UNL     1       8.273  36.548  -4.124  1.00  0.00    -0.347 OA
BRANCH   8   9
ATOM      9  C   UNL     1       7.778  37.873  -4.102  1.00  0.00     0.281 C 
ATOM     10  C   UNL     1       9.379  41.151  -4.312  1.00  0.00     0.041 C 
ATOM     11  C   UNL     1       8.282  40.124  -4.330  1.00  0.00     0.150 C 
ATOM     12  C   UNL     1       7.040  40.506  -3.429  1.00  0.00     0.174 C 
ATOM     13  O   UNL     1       8.795  38.833  -3.971  1.00  0.00    -0.344 OA
ATOM     14  C   UNL     1       6.813  39.400  -2.328  1.00  0.00     0.179 C 
ATOM     15  C   UNL     1       6.779  37.969  -2.940  1.00  0.00     0.202 C 
BRANCH  12  16
ATOM     16  O   UNL     1       7.214  41.760  -2.833  1.00  0.00    -0.388 OA
ATOM     17  H   UNL     1       6.478  42.361  -3.120  1.00  0.00     0.211 HD
ENDBRANCH  12  16
BRANCH  14  18
ATOM     18  O   UNL     1       5.614  39.573  -1.570  1.00  0.00    -0.387 OA
ATOM     19  H   UNL     1       5.640  39.044  -0.754  1.00  0.00     0.211 HD
ENDBRANCH  14  18
BRANCH  15  20
ATOM     20  O   UNL     1       7.065  37.008  -1.938  1.00  0.00    -0.385 OA
ATOM     21  H   UNL     1       7.873  37.275  -1.447  1.00  0.00     0.211 HD
ENDBRANCH  15  20
ENDBRANCH   8   9
ENDBRANCH   7   8
ENDBRANCH   1   7
BRANCH   2  22
ATOM     22  O   UNL     1       7.007  34.196  -3.136  1.00  0.00    -0.387 OA
ATOM     23  H   UNL     1       6.989  35.225  -3.098  1.00  0.00     0.211 HD
ENDBRANCH   2  22
BRANCH   3  24
ATOM     24  O   UNL     1       7.360  31.694  -4.270  1.00  0.00    -0.387 OA
ATOM     25  H   UNL     1       7.648  31.446  -5.182  1.00  0.00     0.211 HD
ENDBRANCH   3  24
BRANCH   5  26
ATOM     26  O   UNL     1      11.748  32.645  -5.351  1.00  0.00    -0.454 OA
BRANCH  26  27
ATOM     27  C   UNL     1      12.623  32.853  -4.266  1.00  0.00     0.214 A 
ATOM     28  C   UNL     1      12.782  34.069  -3.565  1.00  0.00     0.180 A 
ATOM     29  C   UNL     1      13.571  31.868  -4.065  1.00  0.00     0.239 A 
ATOM     30  O   UNL     1      13.515  34.059  -2.440  1.00  0.00    -0.452 OA
ATOM     31  C   UNL     1      14.644  32.110  -3.179  1.00  0.00     0.111 A 
ATOM     32  O   UNL     1      13.461  30.755  -4.648  1.00  0.00    -0.285 OA
ATOM     33  C   UNL     1      14.479  33.177  -2.258  1.00  0.00     0.146 A 
ATOM     34  C   UNL     1      15.846  31.374  -3.168  1.00  0.00     0.134 A 
ATOM     35  C   UNL     1      15.422  33.385  -1.239  1.00  0.00     0.094 A 
ATOM     36  C   UNL     1      16.804  31.606  -2.177  1.00  0.00     0.093 A 
ATOM     37  C   UNL     1      16.604  32.625  -1.227  1.00  0.00     0.123 A 
BRANCH  28  38
ATOM     38  C   UNL     1      12.781  35.336  -4.317  1.00  0.00     0.025 A 
ATOM     39  C   UNL     1      13.974  35.646  -4.936  1.00  0.00     0.062 A 
ATOM     40  C   UNL     1      11.763  36.333  -4.242  1.00  0.00     0.016 A 
ATOM     41  C   UNL     1      14.215  36.897  -5.512  1.00  0.00     0.158 A 
ATOM     42  C   UNL     1      11.968  37.608  -4.843  1.00  0.00     0.051 A 
ATOM     43  C   UNL     1      13.210  37.908  -5.450  1.00  0.00     0.157 A 
BRANCH  41  44
ATOM     44  O   UNL     1      15.455  37.132  -6.092  1.00  0.00    -0.504 OA
ATOM     45  H   UNL     1      15.517  36.927  -7.056  1.00  0.00     0.293 HD
ENDBRANCH  41  44
BRANCH  43  46
ATOM     46  O   UNL     1      13.421  39.166  -6.016  1.00  0.00    -0.504 OA
ATOM     47  H   UNL     1      14.315  39.634  -6.002  1.00  0.00     0.293 HD
ENDBRANCH  43  46
ENDBRANCH  28  38
BRANCH  34  48
ATOM     48  O   UNL     1      16.177  30.520  -4.200  1.00  0.00    -0.507 OA
ATOM     49  H   UNL     1      15.507  30.208  -4.898  1.00  0.00     0.293 HD
ENDBRANCH  34  48
BRANCH  37  50
ATOM     50  O   UNL     1      17.597  32.901  -0.297  1.00  0.00    -0.508 OA
ATOM     51  H   UNL     1      17.953  32.138   0.270  1.00  0.00     0.293 HD
ENDBRANCH  37  50
ENDBRANCH  26  27
ENDBRANCH   5  26
BRANCH   4  52
ATOM     52  O   UNL     1       9.780  30.547  -4.449  1.00  0.00    -0.384 OA
ATOM     53  H   UNL     1       9.044  30.156  -3.895  1.00  0.00     0.211 HD
ENDBRANCH   4  52
TORSDOF 16
ENDMDL
MODEL 8
REMARK VINA RESULT:    -7.029      2.259      3.632
REMARK INTER + INTRA:         -14.369
REMARK INTER:                 -12.185
REMARK INTRA:                  -2.184
REMARK UNBOUND:                -2.821
REMARK SMILES C[C@H]1O[C@@H](OC[C@H]2O[C@@H](Oc3c(-c4ccc(O)c(O)c4)oc4cc(O)cc(O)c4c3=O)[C@H](O)[C@H](O)[C@@H]2O)[C@@H](O)[C@H](O)[C@H]1O
REMARK SMILES IDX 7 1 36 2 34 3 32 4 9 5 8 6 6 7 5 8 4 9 1 10 2 11 42 12 3 13
REMARK SMILES IDX 40 14 38 15 43 16 41 18 39 20 37 22 35 24 10 26 11 27 12 28
REMARK SMILES IDX 30 29 21 30 29 31 31 32 22 33 27 34 23 35 26 36 24 37 13 38
REMARK SMILES IDX 20 39 14 40 18 41 15 42 16 43 19 44 17 46 28 48 25 50 33 52
REMARK H PARENT 43 17 41 19 39 21 37 23 35 25 19 45 17 47 28 49 25 51 33 53
REMARK Flexibility Score: inf
ROOT
ATOM      1  C   UNL     1      10.931  45.944   7.172  1.00  0.00     0.180 C 
ATOM      2  C   UNL     1      11.130  44.449   7.519  1.00  0.00     0.177 C 
ATOM      3  C   UNL     1      10.387  44.164   8.815  1.00  0.00     0.180 C 
ATOM      4  C   UNL     1       8.922  44.560   8.697  1.00  0.00     0.214 C 
ATOM      5  C   UNL     1       8.649  45.880   7.888  1.00  0.00     0.339 C 
ATOM      6  O   UNL     1       9.551  46.089   6.760  1.00  0.00    -0.332 OA
ENDROOT
BRANCH   1   7
ATOM      7  C   UNL     1      11.916  46.445   6.095  1.00  0.00     0.198 C 
BRANCH   7   8
ATOM      8  O   UNL     1      13.231  46.523   6.636  1.00  0.00    -0.347 OA
BRANCH   8   9
ATOM      9  C   UNL     1      14.288  45.954   5.889  1.00  0.00     0.281 C 
ATOM     10  C   UNL     1      14.425  43.380   3.299  1.00  0.00     0.041 C 
ATOM     11  C   UNL     1      14.878  44.522   4.164  1.00  0.00     0.150 C 
ATOM     12  C   UNL     1      16.300  44.297   4.820  1.00  0.00     0.174 C 
ATOM     13  O   UNL     1      13.894  44.816   5.167  1.00  0.00    -0.344 OA
ATOM     14  C   UNL     1      16.182  44.350   6.392  1.00  0.00     0.179 C 
ATOM     15  C   UNL     1      15.415  45.616   6.875  1.00  0.00     0.202 C 
BRANCH  12  16
ATOM     16  O   UNL     1      16.859  43.082   4.411  1.00  0.00    -0.388 OA
ATOM     17  H   UNL     1      16.708  42.966   3.437  1.00  0.00     0.211 HD
ENDBRANCH  12  16
BRANCH  14  18
ATOM     18  O   UNL     1      17.440  44.323   7.070  1.00  0.00    -0.387 OA
ATOM     19  H   UNL     1      17.698  45.215   7.357  1.00  0.00     0.211 HD
ENDBRANCH  14  18
BRANCH  15  20
ATOM     20  O   UNL     1      14.906  45.403   8.180  1.00  0.00    -0.385 OA
ATOM     21  H   UNL     1      14.099  45.946   8.312  1.00  0.00     0.211 HD
ENDBRANCH  15  20
ENDBRANCH   8   9
ENDBRANCH   7   8
ENDBRANCH   1   7
BRANCH   2  22
ATOM     22  O   UNL     1      12.492  44.115   7.614  1.00  0.00    -0.387 OA
ATOM     23  H   UNL     1      12.823  44.428   8.537  1.00  0.00     0.211 HD
ENDBRANCH   2  22
BRANCH   3  24
ATOM     24  O   UNL     1      11.068  44.769   9.897  1.00  0.00    -0.387 OA
ATOM     25  H   UNL     1      10.616  45.620  10.116  1.00  0.00     0.211 HD
ENDBRANCH   3  24
BRANCH   5  26
ATOM     26  O   UNL     1       7.292  45.760   7.431  1.00  0.00    -0.454 OA
BRANCH  26  27
ATOM     27  C   UNL     1       6.310  46.769   7.356  1.00  0.00     0.214 A 
ATOM     28  C   UNL     1       6.012  47.697   8.378  1.00  0.00     0.180 A 
ATOM     29  C   UNL     1       5.413  46.654   6.311  1.00  0.00     0.239 A 
ATOM     30  O   UNL     1       5.183  48.713   8.088  1.00  0.00    -0.452 OA
ATOM     31  C   UNL     1       4.252  47.458   6.305  1.00  0.00     0.111 A 
ATOM     32  O   UNL     1       5.647  45.859   5.360  1.00  0.00    -0.285 OA
ATOM     33  C   UNL     1       4.264  48.599   7.147  1.00  0.00     0.146 A 
ATOM     34  C   UNL     1       3.103  47.187   5.534  1.00  0.00     0.134 A 
ATOM     35  C   UNL     1       3.222  49.538   7.084  1.00  0.00     0.094 A 
ATOM     36  C   UNL     1       2.046  48.100   5.499  1.00  0.00     0.093 A 
ATOM     37  C   UNL     1       2.095  49.264   6.291  1.00  0.00     0.123 A 
BRANCH  28  38
ATOM     38  C   UNL     1       5.999  47.241   9.779  1.00  0.00     0.025 A 
ATOM     39  C   UNL     1       4.813  46.673  10.196  1.00  0.00     0.062 A 
ATOM     40  C   UNL     1       6.992  47.559  10.754  1.00  0.00     0.016 A 
ATOM     41  C   UNL     1       4.555  46.380  11.538  1.00  0.00     0.158 A 
ATOM     42  C   UNL     1       6.770  47.247  12.126  1.00  0.00     0.051 A 
ATOM     43  C   UNL     1       5.535  46.688  12.529  1.00  0.00     0.157 A 
BRANCH  41  44
ATOM     44  O   UNL     1       3.323  45.832  11.872  1.00  0.00    -0.504 OA
ATOM     45  H   UNL     1       2.819  45.435  11.122  1.00  0.00     0.293 HD
ENDBRANCH  41  44
BRANCH  43  46
ATOM     46  O   UNL     1       5.307  46.406  13.877  1.00  0.00    -0.504 OA
ATOM     47  H   UNL     1       6.048  46.187  14.526  1.00  0.00     0.293 HD
ENDBRANCH  43  46
ENDBRANCH  28  38
BRANCH  34  48
ATOM     48  O   UNL     1       2.922  45.965   4.917  1.00  0.00    -0.507 OA
ATOM     49  H   UNL     1       2.588  45.870   3.962  1.00  0.00     0.293 HD
ENDBRANCH  34  48
BRANCH  37  50
ATOM     50  O   UNL     1       1.006  50.125   6.310  1.00  0.00    -0.508 OA
ATOM     51  H   UNL     1       0.997  50.908   5.664  1.00  0.00     0.293 HD
ENDBRANCH  37  50
ENDBRANCH  26  27
ENDBRANCH   5  26
BRANCH   4  52
ATOM     52  O   UNL     1       8.390  44.611   9.993  1.00  0.00    -0.384 OA
ATOM     53  H   UNL     1       7.856  45.456  10.047  1.00  0.00     0.211 HD
ENDBRANCH   4  52
TORSDOF 16
ENDMDL
MODEL 9
REMARK VINA RESULT:    -6.971      2.423      3.834
REMARK INTER + INTRA:         -14.275
REMARK INTER:                 -12.043
REMARK INTRA:                  -2.232
REMARK UNBOUND:                -2.821
REMARK SMILES C[C@H]1O[C@@H](OC[C@H]2O[C@@H](Oc3c(-c4ccc(O)c(O)c4)oc4cc(O)cc(O)c4c3=O)[C@H](O)[C@H](O)[C@@H]2O)[C@@H](O)[C@H](O)[C@H]1O
REMARK SMILES IDX 7 1 36 2 34 3 32 4 9 5 8 6 6 7 5 8 4 9 1 10 2 11 42 12 3 13
REMARK SMILES IDX 40 14 38 15 43 16 41 18 39 20 37 22 35 24 10 26 11 27 12 28
REMARK SMILES IDX 30 29 21 30 29 31 31 32 22 33 27 34 23 35 26 36 24 37 13 38
REMARK SMILES IDX 20 39 14 40 18 41 15 42 16 43 19 44 17 46 28 48 25 50 33 52
REMARK H PARENT 43 17 41 19 39 21 37 23 35 25 19 45 17 47 28 49 25 51 33 53
REMARK Flexibility Score: inf
ROOT
ATOM      1  C   UNL     1       9.023  45.796   8.112  1.00  0.00     0.180 C 
ATOM      2  C   UNL     1       9.478  47.071   7.363  1.00  0.00     0.177 C 
ATOM      3  C   UNL     1       8.234  47.826   6.921  1.00  0.00     0.180 C 
ATOM      4  C   UNL     1       7.329  48.122   8.109  1.00  0.00     0.214 C 
ATOM      5  C   UNL     1       7.234  46.974   9.179  1.00  0.00     0.339 C 
ATOM      6  O   UNL     1       8.477  46.237   9.379  1.00  0.00    -0.332 OA
ENDROOT
BRANCH   1   7
ATOM      7  C   UNL     1      10.161  44.770   8.294  1.00  0.00     0.198 C 
BRANCH   7   8
ATOM      8  O   UNL     1      11.400  45.447   8.485  1.00  0.00    -0.347 OA
BRANCH   8   9
ATOM      9  C   UNL     1      12.477  45.104   7.636  1.00  0.00     0.281 C 
ATOM     10  C   UNL     1      12.671  43.589   4.317  1.00  0.00     0.041 C 
ATOM     11  C   UNL     1      13.116  44.325   5.548  1.00  0.00     0.150 C 
ATOM     12  C   UNL     1      14.478  43.792   6.150  1.00  0.00     0.174 C 
ATOM     13  O   UNL     1      12.081  44.317   6.542  1.00  0.00    -0.344 OA
ATOM     14  C   UNL     1      14.257  43.302   7.633  1.00  0.00     0.179 C 
ATOM     15  C   UNL     1      13.518  44.369   8.493  1.00  0.00     0.202 C 
BRANCH  12  16
ATOM     16  O   UNL     1      15.007  42.760   5.367  1.00  0.00    -0.388 OA
ATOM     17  H   UNL     1      14.688  41.889   5.720  1.00  0.00     0.211 HD
ENDBRANCH  12  16
BRANCH  14  18
ATOM     18  O   UNL     1      15.464  42.957   8.316  1.00  0.00    -0.387 OA
ATOM     19  H   UNL     1      16.014  43.744   8.466  1.00  0.00     0.211 HD
ENDBRANCH  14  18
BRANCH  15  20
ATOM     20  O   UNL     1      12.913  43.750   9.615  1.00  0.00    -0.385 OA
ATOM     21  H   UNL     1      12.941  42.774   9.506  1.00  0.00     0.211 HD
ENDBRANCH  15  20
ENDBRANCH   8   9
ENDBRANCH   7   8
ENDBRANCH   1   7
BRANCH   2  22
ATOM     22  O   UNL     1      10.316  46.766   6.278  1.00  0.00    -0.387 OA
ATOM     23  H   UNL     1       9.961  45.900   5.848  1.00  0.00     0.211 HD
ENDBRANCH   2  22
BRANCH   3  24
ATOM     24  O   UNL     1       7.601  47.125   5.867  1.00  0.00    -0.387 OA
ATOM     25  H   UNL     1       7.565  47.715   5.075  1.00  0.00     0.211 HD
ENDBRANCH   3  24
BRANCH   5  26
ATOM     26  O   UNL     1       6.838  47.632  10.393  1.00  0.00    -0.454 OA
BRANCH  26  27
ATOM     27  C   UNL     1       5.830  47.247  11.300  1.00  0.00     0.214 A 
ATOM     28  C   UNL     1       6.044  46.578  12.525  1.00  0.00     0.180 A 
ATOM     29  C   UNL     1       4.537  47.299  10.813  1.00  0.00     0.239 A 
ATOM     30  O   UNL     1       5.004  46.445  13.363  1.00  0.00    -0.452 OA
ATOM     31  C   UNL     1       3.497  46.691  11.550  1.00  0.00     0.111 A 
ATOM     32  O   UNL     1       4.289  47.907   9.737  1.00  0.00    -0.285 OA
ATOM     33  C   UNL     1       3.763  46.412  12.915  1.00  0.00     0.146 A 
ATOM     34  C   UNL     1       2.241  46.344  11.012  1.00  0.00     0.134 A 
ATOM     35  C   UNL     1       2.736  45.959  13.759  1.00  0.00     0.094 A 
ATOM     36  C   UNL     1       1.229  45.856  11.842  1.00  0.00     0.093 A 
ATOM     37  C   UNL     1       1.483  45.641  13.211  1.00  0.00     0.123 A 
BRANCH  28  38
ATOM     38  C   UNL     1       7.060  45.512  12.591  1.00  0.00     0.025 A 
ATOM     39  C   UNL     1       8.195  45.833  13.305  1.00  0.00     0.062 A 
ATOM     40  C   UNL     1       7.057  44.326  11.797  1.00  0.00     0.016 A 
ATOM     41  C   UNL     1       9.338  45.029  13.295  1.00  0.00     0.158 A 
ATOM     42  C   UNL     1       8.197  43.471  11.788  1.00  0.00     0.051 A 
ATOM     43  C   UNL     1       9.356  43.838  12.510  1.00  0.00     0.157 A 
BRANCH  41  44
ATOM     44  O   UNL     1      10.446  45.443  14.024  1.00  0.00    -0.504 OA
ATOM     45  H   UNL     1      11.241  45.680  13.488  1.00  0.00     0.293 HD
ENDBRANCH  41  44
BRANCH  43  46
ATOM     46  O   UNL     1      10.482  43.013  12.481  1.00  0.00    -0.504 OA
ATOM     47  H   UNL     1      11.412  43.343  12.694  1.00  0.00     0.293 HD
ENDBRANCH  43  46
ENDBRANCH  28  38
BRANCH  34  48
ATOM     48  O   UNL     1       2.020  46.334   9.649  1.00  0.00    -0.507 OA
ATOM     49  H   UNL     1       2.426  45.642   9.026  1.00  0.00     0.293 HD
ENDBRANCH  34  48
BRANCH  37  50
ATOM     50  O   UNL     1       0.496  45.081  14.011  1.00  0.00    -0.508 OA
ATOM     51  H   UNL     1      -0.473  45.184  13.727  1.00  0.00     0.293 HD
ENDBRANCH  37  50
ENDBRANCH  26  27
ENDBRANCH   5  26
BRANCH   4  52
ATOM     52  O   UNL     1       6.072  48.484   7.605  1.00  0.00    -0.384 OA
ATOM     53  H   UNL     1       5.454  47.724   7.813  1.00  0.00     0.211 HD
ENDBRANCH   4  52
TORSDOF 16
ENDMDL
