MODEL 1
REMARK VINA RESULT:    -2.755      0.000      0.000
REMARK INTER + INTRA:          -5.786
REMARK INTER:                  -5.333
REMARK INTRA:                  -0.453
REMARK UNBOUND:                -0.453
REMARK SMILES CCCCCCCCCCCCCCCCCC(=O)[O-]
REMARK SMILES IDX 10 1 11 2 12 3 13 4 14 5 15 6 16 7 17 8 18 9 19 10 20 11
REMARK SMILES IDX 9 12 8 13 7 14 6 15 5 16 4 17 3 18 2 19 1 20
REMARK H PARENT
REMARK Flexibility Score: inf
ROOT
ATOM      1  C   UNL     1      22.776  66.125  16.065  1.00  0.00     0.000 C 
ENDROOT
BRANCH   1   2
ATOM      2  C   UNL     1      24.037  65.250  16.048  1.00  0.00     0.000 C 
BRANCH   2   3
ATOM      3  C   UNL     1      25.290  65.994  16.542  1.00  0.00     0.000 C 
BRANCH   3   4
ATOM      4  C   UNL     1      26.587  65.166  16.423  1.00  0.00     0.000 C 
BRANCH   4   5
ATOM      5  C   UNL     1      27.840  66.006  16.726  1.00  0.00     0.000 C 
BRANCH   5   6
ATOM      6  C   UNL     1      28.432  65.704  18.111  1.00  0.00     0.000 C 
BRANCH   6   7
ATOM      7  C   UNL     1      29.930  65.352  18.045  1.00  0.00     0.006 C 
BRANCH   7   8
ATOM      8  C   UNL     1      30.668  65.723  19.338  1.00  0.00     0.053 C 
BRANCH   8   9
ATOM      9  C   UNL     1      31.402  64.550  19.912  1.00  0.00     0.041 C 
ATOM     10  O   UNL     1      31.644  63.542  19.197  1.00  0.00    -0.550 OA
ATOM     11  O   UNL     1      31.787  64.556  21.246  1.00  0.00    -0.550 OA
ENDBRANCH   8   9
ENDBRANCH   7   8
ENDBRANCH   6   7
ENDBRANCH   5   6
ENDBRANCH   4   5
ENDBRANCH   3   4
ENDBRANCH   2   3
ENDBRANCH   1   2
BRANCH   1  12
ATOM     12  C   UNL     1      21.509  65.267  15.946  1.00  0.00     0.000 C 
BRANCH  12  13
ATOM     13  C   UNL     1      20.251  66.104  15.662  1.00  0.00    -0.000 C 
BRANCH  13  14
ATOM     14  C   UNL     1      19.007  65.569  16.386  1.00  0.00    -0.000 C 
BRANCH  14  15
ATOM     15  C   UNL     1      17.745  65.782  15.539  1.00  0.00    -0.000 C 
BRANCH  15  16
ATOM     16  C   UNL     1      16.513  65.994  16.432  1.00  0.00    -0.000 C 
BRANCH  16  17
ATOM     17  C   UNL     1      16.044  64.697  17.110  1.00  0.00    -0.000 C 
BRANCH  17  18
ATOM     18  C   UNL     1      14.622  64.810  17.684  1.00  0.00    -0.000 C 
BRANCH  18  19
ATOM     19  C   UNL     1      13.571  65.097  16.601  1.00  0.00    -0.003 C 
ATOM     20  C   UNL     1      13.548  64.032  15.505  1.00  0.00     0.004 C 
ENDBRANCH  18  19
ENDBRANCH  17  18
ENDBRANCH  16  17
ENDBRANCH  15  16
ENDBRANCH  14  15
ENDBRANCH  13  14
ENDBRANCH  12  13
ENDBRANCH   1  12
TORSDOF 16
ENDMDL
MODEL 2
REMARK VINA RESULT:    -2.677      5.876     12.762
REMARK INTER + INTRA:          -5.634
REMARK INTER:                  -5.165
REMARK INTRA:                  -0.469
REMARK UNBOUND:                -0.453
REMARK SMILES CCCCCCCCCCCCCCCCCC(=O)[O-]
REMARK SMILES IDX 10 1 11 2 12 3 13 4 14 5 15 6 16 7 17 8 18 9 19 10 20 11
REMARK SMILES IDX 9 12 8 13 7 14 6 15 5 16 4 17 3 18 2 19 1 20
REMARK H PARENT
REMARK Flexibility Score: inf
ROOT
ATOM      1  C   UNL     1      23.919  66.048  16.000  1.00  0.00     0.000 C 
ENDROOT
BRANCH   1   2
ATOM      2  C   UNL     1      22.787  65.082  16.375  1.00  0.00     0.000 C 
BRANCH   2   3
ATOM      3  C   UNL     1      21.401  65.751  16.371  1.00  0.00     0.000 C 
BRANCH   3   4
ATOM      4  C   UNL     1      20.743  65.801  14.976  1.00  0.00     0.000 C 
BRANCH   4   5
ATOM      5  C   UNL     1      19.264  65.377  15.019  1.00  0.00     0.000 C 
BRANCH   5   6
ATOM      6  C   UNL     1      18.553  65.848  16.297  1.00  0.00     0.000 C 
BRANCH   6   7
ATOM      7  C   UNL     1      17.038  66.025  16.095  1.00  0.00     0.006 C 
BRANCH   7   8
ATOM      8  C   UNL     1      16.223  65.015  16.914  1.00  0.00     0.053 C 
BRANCH   8   9
ATOM      9  C   UNL     1      14.755  65.135  16.640  1.00  0.00     0.041 C 
ATOM     10  O   UNL     1      13.985  65.618  17.510  1.00  0.00    -0.550 OA
ATOM     11  O   UNL     1      14.234  64.682  15.435  1.00  0.00    -0.550 OA
ENDBRANCH   8   9
ENDBRANCH   7   8
ENDBRANCH   6   7
ENDBRANCH   5   6
ENDBRANCH   4   5
ENDBRANCH   3   4
ENDBRANCH   2   3
ENDBRANCH   1   2
BRANCH   1  12
ATOM     12  C   UNL     1      25.277  65.331  16.000  1.00  0.00     0.000 C 
BRANCH  12  13
ATOM     13  C   UNL     1      26.258  65.921  17.027  1.00  0.00    -0.000 C 
BRANCH  13  14
ATOM     14  C   UNL     1      27.649  65.274  16.957  1.00  0.00    -0.000 C 
BRANCH  14  15
ATOM     15  C   UNL     1      28.667  66.069  17.786  1.00  0.00    -0.000 C 
BRANCH  15  16
ATOM     16  C   UNL     1      29.834  65.174  18.230  1.00  0.00    -0.000 C 
BRANCH  16  17
ATOM     17  C   UNL     1      30.904  65.016  17.138  1.00  0.00    -0.000 C 
BRANCH  17  18
ATOM     18  C   UNL     1      31.893  63.877  17.440  1.00  0.00    -0.000 C 
BRANCH  18  19
ATOM     19  C   UNL     1      32.981  63.742  16.364  1.00  0.00    -0.003 C 
ATOM     20  C   UNL     1      32.457  63.123  15.069  1.00  0.00     0.004 C 
ENDBRANCH  18  19
ENDBRANCH  17  18
ENDBRANCH  16  17
ENDBRANCH  15  16
ENDBRANCH  14  15
ENDBRANCH  13  14
ENDBRANCH  12  13
ENDBRANCH   1  12
TORSDOF 16
ENDMDL
MODEL 3
REMARK VINA RESULT:    -2.673      7.743     10.504
REMARK INTER + INTRA:          -5.626
REMARK INTER:                  -4.901
REMARK INTRA:                  -0.725
REMARK UNBOUND:                -0.453
REMARK SMILES CCCCCCCCCCCCCCCCCC(=O)[O-]
REMARK SMILES IDX 10 1 11 2 12 3 13 4 14 5 15 6 16 7 17 8 18 9 19 10 20 11
REMARK SMILES IDX 9 12 8 13 7 14 6 15 5 16 4 17 3 18 2 19 1 20
REMARK H PARENT
REMARK Flexibility Score: inf
ROOT
ATOM      1  C   UNL     1      29.059  65.994  19.031  1.00  0.00     0.000 C 
ENDROOT
BRANCH   1   2
ATOM      2  C   UNL     1      28.848  66.082  20.550  1.00  0.00     0.000 C 
BRANCH   2   3
ATOM      3  C   UNL     1      30.159  65.959  21.346  1.00  0.00     0.000 C 
BRANCH   3   4
ATOM      4  C   UNL     1      29.973  66.115  22.869  1.00  0.00     0.000 C 
BRANCH   4   5
ATOM      5  C   UNL     1      31.069  65.384  23.664  1.00  0.00     0.000 C 
BRANCH   5   6
ATOM      6  C   UNL     1      32.433  65.421  22.958  1.00  0.00     0.000 C 
BRANCH   6   7
ATOM      7  C   UNL     1      33.019  64.014  22.740  1.00  0.00     0.006 C 
BRANCH   7   8
ATOM      8  C   UNL     1      32.786  63.505  21.311  1.00  0.00     0.053 C 
BRANCH   8   9
ATOM      9  C   UNL     1      32.732  62.010  21.257  1.00  0.00     0.041 C 
ATOM     10  O   UNL     1      32.619  61.418  20.152  1.00  0.00    -0.550 OA
ATOM     11  O   UNL     1      32.772  61.270  22.432  1.00  0.00    -0.550 OA
ENDBRANCH   8   9
ENDBRANCH   7   8
ENDBRANCH   6   7
ENDBRANCH   5   6
ENDBRANCH   4   5
ENDBRANCH   3   4
ENDBRANCH   2   3
ENDBRANCH   1   2
BRANCH   1  12
ATOM     12  C   UNL     1      28.065  65.013  18.393  1.00  0.00     0.000 C 
BRANCH  12  13
ATOM     13  C   UNL     1      27.748  65.361  16.929  1.00  0.00    -0.000 C 
BRANCH  13  14
ATOM     14  C   UNL     1      28.940  65.996  16.200  1.00  0.00    -0.000 C 
BRANCH  14  15
ATOM     15  C   UNL     1      30.073  64.979  16.009  1.00  0.00    -0.000 C 
BRANCH  15  16
ATOM     16  C   UNL     1      29.766  64.028  14.841  1.00  0.00    -0.000 C 
BRANCH  16  17
ATOM     17  C   UNL     1      30.857  62.963  14.646  1.00  0.00    -0.000 C 
BRANCH  17  18
ATOM     18  C   UNL     1      32.274  63.562  14.643  1.00  0.00    -0.000 C 
BRANCH  18  19
ATOM     19  C   UNL     1      33.125  63.066  15.822  1.00  0.00    -0.003 C 
ATOM     20  C   UNL     1      32.423  63.235  17.168  1.00  0.00     0.004 C 
ENDBRANCH  18  19
ENDBRANCH  17  18
ENDBRANCH  16  17
ENDBRANCH  15  16
ENDBRANCH  14  15
ENDBRANCH  13  14
ENDBRANCH  12  13
ENDBRANCH   1  12
TORSDOF 16
ENDMDL
MODEL 4
REMARK VINA RESULT:    -2.088      7.764     11.940
REMARK INTER + INTRA:          -4.494
REMARK INTER:                  -2.856
REMARK INTRA:                  -1.638
REMARK UNBOUND:                -0.453
REMARK SMILES CCCCCCCCCCCCCCCCCC(=O)[O-]
REMARK SMILES IDX 10 1 11 2 12 3 13 4 14 5 15 6 16 7 17 8 18 9 19 10 20 11
REMARK SMILES IDX 9 12 8 13 7 14 6 15 5 16 4 17 3 18 2 19 1 20
REMARK H PARENT
REMARK Flexibility Score: inf
ROOT
ATOM      1  C   UNL     1      32.446  63.849  17.737  1.00  0.00     0.000 C 
ENDROOT
BRANCH   1   2
ATOM      2  C   UNL     1      32.678  62.878  16.570  1.00  0.00     0.000 C 
BRANCH   2   3
ATOM      3  C   UNL     1      31.424  62.671  15.703  1.00  0.00     0.000 C 
BRANCH   3   4
ATOM      4  C   UNL     1      31.220  63.771  14.641  1.00  0.00     0.000 C 
BRANCH   4   5
ATOM      5  C   UNL     1      29.790  64.339  14.663  1.00  0.00     0.000 C 
BRANCH   5   6
ATOM      6  C   UNL     1      29.486  65.119  15.951  1.00  0.00     0.000 C 
BRANCH   6   7
ATOM      7  C   UNL     1      28.015  65.566  16.034  1.00  0.00     0.006 C 
BRANCH   7   8
ATOM      8  C   UNL     1      27.655  66.116  17.420  1.00  0.00     0.053 C 
BRANCH   8   9
ATOM      9  C   UNL     1      27.796  65.071  18.484  1.00  0.00     0.041 C 
ATOM     10  O   UNL     1      28.675  65.191  19.377  1.00  0.00    -0.550 OA
ATOM     11  O   UNL     1      26.980  63.948  18.468  1.00  0.00    -0.550 OA
ENDBRANCH   8   9
ENDBRANCH   7   8
ENDBRANCH   6   7
ENDBRANCH   5   6
ENDBRANCH   4   5
ENDBRANCH   3   4
ENDBRANCH   2   3
ENDBRANCH   1   2
BRANCH   1  12
ATOM     12  C   UNL     1      33.102  65.209  17.460  1.00  0.00     0.000 C 
BRANCH  12  13
ATOM     13  C   UNL     1      33.110  66.125  18.696  1.00  0.00    -0.000 C 
BRANCH  13  14
ATOM     14  C   UNL     1      33.125  65.339  20.015  1.00  0.00    -0.000 C 
BRANCH  14  15
ATOM     15  C   UNL     1      31.954  65.756  20.915  1.00  0.00    -0.000 C 
BRANCH  15  16
ATOM     16  C   UNL     1      31.715  64.716  22.021  1.00  0.00    -0.000 C 
BRANCH  16  17
ATOM     17  C   UNL     1      33.016  64.053  22.499  1.00  0.00    -0.000 C 
BRANCH  17  18
ATOM     18  C   UNL     1      32.901  62.522  22.590  1.00  0.00    -0.000 C 
BRANCH  18  19
ATOM     19  C   UNL     1      33.035  61.840  21.220  1.00  0.00    -0.003 C 
ATOM     20  C   UNL     1      32.120  60.625  21.073  1.00  0.00     0.004 C 
ENDBRANCH  18  19
ENDBRANCH  17  18
ENDBRANCH  16  17
ENDBRANCH  15  16
ENDBRANCH  14  15
ENDBRANCH  13  14
ENDBRANCH  12  13
ENDBRANCH   1  12
TORSDOF 16
ENDMDL
MODEL 5
REMARK VINA RESULT:    -2.088      2.135      5.016
REMARK INTER + INTRA:          -4.493
REMARK INTER:                  -3.851
REMARK INTRA:                  -0.643
REMARK UNBOUND:                -0.453
REMARK SMILES CCCCCCCCCCCCCCCCCC(=O)[O-]
REMARK SMILES IDX 10 1 11 2 12 3 13 4 14 5 15 6 16 7 17 8 18 9 19 10 20 11
REMARK SMILES IDX 9 12 8 13 7 14 6 15 5 16 4 17 3 18 2 19 1 20
REMARK H PARENT
REMARK Flexibility Score: inf
ROOT
ATOM      1  C   UNL     1      27.579  65.050  17.928  1.00  0.00     0.000 C 
ENDROOT
BRANCH   1   2
ATOM      2  C   UNL     1      28.958  65.333  18.540  1.00  0.00     0.000 C 
BRANCH   2   3
ATOM      3  C   UNL     1      30.067  65.476  17.483  1.00  0.00     0.000 C 
BRANCH   3   4
ATOM      4  C   UNL     1      31.492  65.409  18.070  1.00  0.00     0.000 C 
BRANCH   4   5
ATOM      5  C   UNL     1      32.018  63.966  18.151  1.00  0.00     0.000 C 
BRANCH   5   6
ATOM      6  C   UNL     1      32.964  63.750  19.343  1.00  0.00     0.000 C 
BRANCH   6   7
ATOM      7  C   UNL     1      32.217  63.730  20.689  1.00  0.00     0.006 C 
BRANCH   7   8
ATOM      8  C   UNL     1      33.008  64.434  21.800  1.00  0.00     0.053 C 
BRANCH   8   9
ATOM      9  C   UNL     1      32.620  63.934  23.157  1.00  0.00     0.041 C 
ATOM     10  O   UNL     1      32.571  62.698  23.388  1.00  0.00    -0.550 OA
ATOM     11  O   UNL     1      32.279  64.835  24.158  1.00  0.00    -0.550 OA
ENDBRANCH   8   9
ENDBRANCH   7   8
ENDBRANCH   6   7
ENDBRANCH   5   6
ENDBRANCH   4   5
ENDBRANCH   3   4
ENDBRANCH   2   3
ENDBRANCH   1   2
BRANCH   1  12
ATOM     12  C   UNL     1      27.267  66.038  16.794  1.00  0.00     0.000 C 
BRANCH  12  13
ATOM     13  C   UNL     1      26.101  65.572  15.907  1.00  0.00    -0.000 C 
BRANCH  13  14
ATOM     14  C   UNL     1      24.781  65.445  16.682  1.00  0.00    -0.000 C 
BRANCH  14  15
ATOM     15  C   UNL     1      23.624  66.085  15.904  1.00  0.00    -0.000 C 
BRANCH  15  16
ATOM     16  C   UNL     1      22.277  65.477  16.324  1.00  0.00    -0.000 C 
BRANCH  16  17
ATOM     17  C   UNL     1      21.086  66.124  15.599  1.00  0.00    -0.000 C 
BRANCH  17  18
ATOM     18  C   UNL     1      19.738  65.503  16.004  1.00  0.00    -0.000 C 
BRANCH  18  19
ATOM     19  C   UNL     1      18.640  65.747  14.958  1.00  0.00    -0.003 C 
ATOM     20  C   UNL     1      17.266  65.972  15.587  1.00  0.00     0.004 C 
ENDBRANCH  18  19
ENDBRANCH  17  18
ENDBRANCH  16  17
ENDBRANCH  15  16
ENDBRANCH  14  15
ENDBRANCH  13  14
ENDBRANCH  12  13
ENDBRANCH   1  12
TORSDOF 16
ENDMDL
MODEL 6
REMARK VINA RESULT:    -2.046      5.291     12.559
REMARK INTER + INTRA:          -4.413
REMARK INTER:                  -3.924
REMARK INTRA:                  -0.488
REMARK UNBOUND:                -0.453
REMARK SMILES CCCCCCCCCCCCCCCCCC(=O)[O-]
REMARK SMILES IDX 10 1 11 2 12 3 13 4 14 5 15 6 16 7 17 8 18 9 19 10 20 11
REMARK SMILES IDX 9 12 8 13 7 14 6 15 5 16 4 17 3 18 2 19 1 20
REMARK H PARENT
REMARK Flexibility Score: inf
ROOT
ATOM      1  C   UNL     1      25.581  65.020  15.774  1.00  0.00     0.000 C 
ENDROOT
BRANCH   1   2
ATOM      2  C   UNL     1      24.161  65.598  15.867  1.00  0.00     0.000 C 
BRANCH   2   3
ATOM      3  C   UNL     1      23.069  64.514  15.825  1.00  0.00     0.000 C 
BRANCH   3   4
ATOM      4  C   UNL     1      21.754  64.937  16.511  1.00  0.00     0.000 C 
BRANCH   4   5
ATOM      5  C   UNL     1      21.066  66.102  15.777  1.00  0.00     0.000 C 
BRANCH   5   6
ATOM      6  C   UNL     1      19.711  65.700  15.174  1.00  0.00     0.000 C 
BRANCH   6   7
ATOM      7  C   UNL     1      18.597  65.625  16.234  1.00  0.00     0.006 C 
BRANCH   7   8
ATOM      8  C   UNL     1      17.198  65.688  15.607  1.00  0.00     0.053 C 
BRANCH   8   9
ATOM      9  C   UNL     1      16.123  65.475  16.628  1.00  0.00     0.041 C 
ATOM     10  O   UNL     1      16.311  64.684  17.590  1.00  0.00    -0.550 OA
ATOM     11  O   UNL     1      14.902  66.124  16.499  1.00  0.00    -0.550 OA
ENDBRANCH   8   9
ENDBRANCH   7   8
ENDBRANCH   6   7
ENDBRANCH   5   6
ENDBRANCH   4   5
ENDBRANCH   3   4
ENDBRANCH   2   3
ENDBRANCH   1   2
BRANCH   1  12
ATOM     12  C   UNL     1      26.436  65.465  16.970  1.00  0.00     0.000 C 
BRANCH  12  13
ATOM     13  C   UNL     1      27.772  66.094  16.540  1.00  0.00    -0.000 C 
BRANCH  13  14
ATOM     14  C   UNL     1      28.864  65.951  17.610  1.00  0.00    -0.000 C 
BRANCH  14  15
ATOM     15  C   UNL     1      30.078  65.193  17.057  1.00  0.00    -0.000 C 
BRANCH  15  16
ATOM     16  C   UNL     1      31.267  65.276  18.027  1.00  0.00    -0.000 C 
BRANCH  16  17
ATOM     17  C   UNL     1      30.928  64.732  19.424  1.00  0.00    -0.000 C 
BRANCH  17  18
ATOM     18  C   UNL     1      32.118  64.018  20.086  1.00  0.00    -0.000 C 
BRANCH  18  19
ATOM     19  C   UNL     1      31.957  62.491  20.096  1.00  0.00    -0.003 C 
ATOM     20  C   UNL     1      32.806  61.815  21.171  1.00  0.00     0.004 C 
ENDBRANCH  18  19
ENDBRANCH  17  18
ENDBRANCH  16  17
ENDBRANCH  15  16
ENDBRANCH  14  15
ENDBRANCH  13  14
ENDBRANCH  12  13
ENDBRANCH   1  12
TORSDOF 16
ENDMDL
MODEL 7
REMARK VINA RESULT:    -1.945      7.237      9.913
REMARK INTER + INTRA:          -4.218
REMARK INTER:                  -2.709
REMARK INTRA:                  -1.509
REMARK UNBOUND:                -0.453
REMARK SMILES CCCCCCCCCCCCCCCCCC(=O)[O-]
REMARK SMILES IDX 10 1 11 2 12 3 13 4 14 5 15 6 16 7 17 8 18 9 19 10 20 11
REMARK SMILES IDX 9 12 8 13 7 14 6 15 5 16 4 17 3 18 2 19 1 20
REMARK H PARENT
REMARK Flexibility Score: inf
ROOT
ATOM      1  C   UNL     1      28.889  64.644  18.681  1.00  0.00     0.000 C 
ENDROOT
BRANCH   1   2
ATOM      2  C   UNL     1      29.437  66.072  18.545  1.00  0.00     0.000 C 
BRANCH   2   3
ATOM      3  C   UNL     1      30.816  66.122  17.863  1.00  0.00     0.000 C 
BRANCH   3   4
ATOM      4  C   UNL     1      31.917  65.373  18.641  1.00  0.00     0.000 C 
BRANCH   4   5
ATOM      5  C   UNL     1      32.227  66.040  19.993  1.00  0.00     0.000 C 
BRANCH   5   6
ATOM      6  C   UNL     1      32.209  65.041  21.160  1.00  0.00     0.000 C 
BRANCH   6   7
ATOM      7  C   UNL     1      33.062  63.791  20.877  1.00  0.00     0.006 C 
BRANCH   7   8
ATOM      8  C   UNL     1      32.536  62.553  21.616  1.00  0.00     0.053 C 
BRANCH   8   9
ATOM      9  C   UNL     1      32.518  61.346  20.730  1.00  0.00     0.041 C 
ATOM     10  O   UNL     1      31.982  60.278  21.124  1.00  0.00    -0.550 OA
ATOM     11  O   UNL     1      33.125  61.391  19.481  1.00  0.00    -0.550 OA
ENDBRANCH   8   9
ENDBRANCH   7   8
ENDBRANCH   6   7
ENDBRANCH   5   6
ENDBRANCH   4   5
ENDBRANCH   3   4
ENDBRANCH   2   3
ENDBRANCH   1   2
BRANCH   1  12
ATOM     12  C   UNL     1      27.382  64.603  18.389  1.00  0.00     0.000 C 
BRANCH  12  13
ATOM     13  C   UNL     1      26.997  65.424  17.147  1.00  0.00    -0.000 C 
BRANCH  13  14
ATOM     14  C   UNL     1      27.938  65.176  15.959  1.00  0.00    -0.000 C 
BRANCH  14  15
ATOM     15  C   UNL     1      27.670  63.806  15.323  1.00  0.00    -0.000 C 
BRANCH  15  16
ATOM     16  C   UNL     1      28.904  63.304  14.558  1.00  0.00    -0.000 C 
BRANCH  16  17
ATOM     17  C   UNL     1      30.222  63.805  15.171  1.00  0.00    -0.000 C 
BRANCH  17  18
ATOM     18  C   UNL     1      31.457  63.332  14.385  1.00  0.00    -0.000 C 
BRANCH  18  19
ATOM     19  C   UNL     1      32.755  63.461  15.197  1.00  0.00    -0.003 C 
ATOM     20  C   UNL     1      32.757  62.586  16.450  1.00  0.00     0.004 C 
ENDBRANCH  18  19
ENDBRANCH  17  18
ENDBRANCH  16  17
ENDBRANCH  15  16
ENDBRANCH  14  15
ENDBRANCH  13  14
ENDBRANCH  12  13
ENDBRANCH   1  12
TORSDOF 16
ENDMDL
MODEL 8
REMARK VINA RESULT:    -1.896      5.861     12.820
REMARK INTER + INTRA:          -4.124
REMARK INTER:                  -3.575
REMARK INTRA:                  -0.549
REMARK UNBOUND:                -0.453
REMARK SMILES CCCCCCCCCCCCCCCCCC(=O)[O-]
REMARK SMILES IDX 10 1 11 2 12 3 13 4 14 5 15 6 16 7 17 8 18 9 19 10 20 11
REMARK SMILES IDX 9 12 8 13 7 14 6 15 5 16 4 17 3 18 2 19 1 20
REMARK H PARENT
REMARK Flexibility Score: inf
ROOT
ATOM      1  C   UNL     1      24.052  64.981  16.209  1.00  0.00     0.000 C 
ENDROOT
BRANCH   1   2
ATOM      2  C   UNL     1      22.842  65.679  15.572  1.00  0.00     0.000 C 
BRANCH   2   3
ATOM      3  C   UNL     1      21.497  65.116  16.062  1.00  0.00     0.000 C 
BRANCH   3   4
ATOM      4  C   UNL     1      20.334  66.125  15.969  1.00  0.00     0.000 C 
BRANCH   4   5
ATOM      5  C   UNL     1      19.107  65.530  15.255  1.00  0.00     0.000 C 
BRANCH   5   6
ATOM      6  C   UNL     1      17.782  66.082  15.802  1.00  0.00     0.000 C 
BRANCH   6   7
ATOM      7  C   UNL     1      16.583  65.729  14.903  1.00  0.00     0.006 C 
BRANCH   7   8
ATOM      8  C   UNL     1      15.243  65.923  15.623  1.00  0.00     0.053 C 
BRANCH   8   9
ATOM      9  C   UNL     1      14.262  64.848  15.268  1.00  0.00     0.041 C 
ATOM     10  O   UNL     1      13.676  64.868  14.154  1.00  0.00    -0.550 OA
ATOM     11  O   UNL     1      13.971  63.843  16.181  1.00  0.00    -0.550 OA
ENDBRANCH   8   9
ENDBRANCH   7   8
ENDBRANCH   6   7
ENDBRANCH   5   6
ENDBRANCH   4   5
ENDBRANCH   3   4
ENDBRANCH   2   3
ENDBRANCH   1   2
BRANCH   1  12
ATOM     12  C   UNL     1      25.343  65.772  15.951  1.00  0.00     0.000 C 
BRANCH  12  13
ATOM     13  C   UNL     1      26.598  65.033  16.445  1.00  0.00    -0.000 C 
BRANCH  13  14
ATOM     14  C   UNL     1      27.563  65.951  17.208  1.00  0.00    -0.000 C 
BRANCH  14  15
ATOM     15  C   UNL     1      27.508  65.673  18.716  1.00  0.00    -0.000 C 
BRANCH  15  16
ATOM     16  C   UNL     1      28.882  65.897  19.367  1.00  0.00    -0.000 C 
BRANCH  16  17
ATOM     17  C   UNL     1      30.027  65.897  18.342  1.00  0.00    -0.000 C 
BRANCH  17  18
ATOM     18  C   UNL     1      31.043  64.770  18.590  1.00  0.00    -0.000 C 
BRANCH  18  19
ATOM     19  C   UNL     1      31.505  64.705  20.054  1.00  0.00    -0.003 C 
ATOM     20  C   UNL     1      32.417  63.512  20.332  1.00  0.00     0.004 C 
ENDBRANCH  18  19
ENDBRANCH  17  18
ENDBRANCH  16  17
ENDBRANCH  15  16
ENDBRANCH  14  15
ENDBRANCH  13  14
ENDBRANCH  12  13
ENDBRANCH   1  12
TORSDOF 16
ENDMDL
