MODEL 1
REMARK VINA RESULT:    -4.199      0.000      0.000
REMARK INTER + INTRA:         -11.920
REMARK INTER:                  -9.109
REMARK INTRA:                  -2.810
REMARK UNBOUND:                -2.810
REMARK SMILES CCCCCCCCCCCCCCCCCCCCCC(=O)[O-]
REMARK SMILES IDX 12 1 11 2 10 3 9 4 8 5 7 6 6 7 5 8 4 9 3 10 2 11 1 12 13 13
REMARK SMILES IDX 14 14 15 15 16 16 17 17 18 18 19 19 20 20 21 21 22 22 23 23
REMARK SMILES IDX 24 24
REMARK H PARENT
REMARK Flexibility Score: inf
ROOT
ATOM      1  C   UNL     1      29.955 -22.851  23.079  1.00  0.00     0.000 C 
ENDROOT
BRANCH   1   2
ATOM      2  C   UNL     1      28.863 -22.125  22.267  1.00  0.00     0.000 C 
BRANCH   2   3
ATOM      3  C   UNL     1      28.724 -20.630  22.604  1.00  0.00     0.000 C 
BRANCH   3   4
ATOM      4  C   UNL     1      30.058 -19.979  23.002  1.00  0.00    -0.000 C 
BRANCH   4   5
ATOM      5  C   UNL     1      30.339 -18.677  22.222  1.00  0.00    -0.000 C 
BRANCH   5   6
ATOM      6  C   UNL     1      30.144 -17.401  23.065  1.00  0.00    -0.000 C 
BRANCH   6   7
ATOM      7  C   UNL     1      29.237 -16.336  22.423  1.00  0.00    -0.000 C 
BRANCH   7   8
ATOM      8  C   UNL     1      28.322 -15.581  23.410  1.00  0.00    -0.000 C 
BRANCH   8   9
ATOM      9  C   UNL     1      27.886 -14.174  22.955  1.00  0.00    -0.000 C 
BRANCH   9  10
ATOM     10  C   UNL     1      28.076 -13.889  21.454  1.00  0.00    -0.000 C 
BRANCH  10  11
ATOM     11  C   UNL     1      29.361 -13.099  21.159  1.00  0.00    -0.003 C 
ATOM     12  C   UNL     1      30.063 -13.632  19.914  1.00  0.00     0.004 C 
ENDBRANCH  10  11
ENDBRANCH   9  10
ENDBRANCH   8   9
ENDBRANCH   7   8
ENDBRANCH   6   7
ENDBRANCH   5   6
ENDBRANCH   4   5
ENDBRANCH   3   4
ENDBRANCH   2   3
ENDBRANCH   1   2
BRANCH   1  13
ATOM     13  C   UNL     1      29.453 -24.175  23.681  1.00  0.00     0.000 C 
BRANCH  13  14
ATOM     14  C   UNL     1      28.372 -23.960  24.754  1.00  0.00     0.000 C 
BRANCH  14  15
ATOM     15  C   UNL     1      28.809 -22.954  25.827  1.00  0.00     0.000 C 
BRANCH  15  16
ATOM     16  C   UNL     1      27.597 -22.232  26.436  1.00  0.00     0.000 C 
BRANCH  16  17
ATOM     17  C   UNL     1      27.156 -21.001  25.613  1.00  0.00     0.000 C 
BRANCH  17  18
ATOM     18  C   UNL     1      27.242 -19.669  26.384  1.00  0.00     0.000 C 
BRANCH  18  19
ATOM     19  C   UNL     1      28.367 -18.724  25.925  1.00  0.00     0.000 C 
BRANCH  19  20
ATOM     20  C   UNL     1      29.555 -18.645  26.909  1.00  0.00     0.006 C 
BRANCH  20  21
ATOM     21  C   UNL     1      30.546 -19.805  26.738  1.00  0.00     0.053 C 
BRANCH  21  22
ATOM     22  C   UNL     1      30.750 -20.514  28.040  1.00  0.00     0.041 C 
ATOM     23  O   UNL     1      31.900 -20.904  28.378  1.00  0.00    -0.550 OA
ATOM     24  O   UNL     1      29.662 -20.792  28.858  1.00  0.00    -0.550 OA
ENDBRANCH  21  22
ENDBRANCH  20  21
ENDBRANCH  19  20
ENDBRANCH  18  19
ENDBRANCH  17  18
ENDBRANCH  16  17
ENDBRANCH  15  16
ENDBRANCH  14  15
ENDBRANCH  13  14
ENDBRANCH   1  13
TORSDOF 20
ENDMDL
MODEL 2
REMARK VINA RESULT:    -4.155      5.529     10.444
REMARK INTER + INTRA:         -11.824
REMARK INTER:                  -8.777
REMARK INTRA:                  -3.048
REMARK UNBOUND:                -2.810
REMARK SMILES CCCCCCCCCCCCCCCCCCCCCC(=O)[O-]
REMARK SMILES IDX 12 1 11 2 10 3 9 4 8 5 7 6 6 7 5 8 4 9 3 10 2 11 1 12 13 13
REMARK SMILES IDX 14 14 15 15 16 16 17 17 18 18 19 19 20 20 21 21 22 22 23 23
REMARK SMILES IDX 24 24
REMARK H PARENT
REMARK Flexibility Score: inf
ROOT
ATOM      1  C   UNL     1      32.461  -9.831  17.870  1.00  0.00     0.000 C 
ENDROOT
BRANCH   1   2
ATOM      2  C   UNL     1      32.243  -8.885  16.671  1.00  0.00     0.000 C 
BRANCH   2   3
ATOM      3  C   UNL     1      31.848  -7.453  17.070  1.00  0.00     0.000 C 
BRANCH   3   4
ATOM      4  C   UNL     1      31.330  -7.353  18.513  1.00  0.00    -0.000 C 
BRANCH   4   5
ATOM      5  C   UNL     1      32.259  -6.520  19.421  1.00  0.00    -0.000 C 
BRANCH   5   6
ATOM      6  C   UNL     1      32.090  -6.828  20.922  1.00  0.00    -0.000 C 
BRANCH   6   7
ATOM      7  C   UNL     1      30.732  -7.442  21.305  1.00  0.00    -0.000 C 
BRANCH   7   8
ATOM      8  C   UNL     1      30.810  -8.851  21.930  1.00  0.00    -0.000 C 
BRANCH   8   9
ATOM      9  C   UNL     1      31.648  -9.874  21.139  1.00  0.00    -0.000 C 
BRANCH   9  10
ATOM     10  C   UNL     1      32.731 -10.599  21.959  1.00  0.00    -0.000 C 
BRANCH  10  11
ATOM     11  C   UNL     1      33.978  -9.731  22.192  1.00  0.00    -0.003 C 
ATOM     12  C   UNL     1      34.680  -9.409  20.875  1.00  0.00     0.004 C 
ENDBRANCH  10  11
ENDBRANCH   9  10
ENDBRANCH   8   9
ENDBRANCH   7   8
ENDBRANCH   6   7
ENDBRANCH   5   6
ENDBRANCH   4   5
ENDBRANCH   3   4
ENDBRANCH   2   3
ENDBRANCH   1   2
BRANCH   1  13
ATOM     13  C   UNL     1      32.872 -11.248  17.431  1.00  0.00     0.000 C 
BRANCH  13  14
ATOM     14  C   UNL     1      33.554 -12.037  18.561  1.00  0.00     0.000 C 
BRANCH  14  15
ATOM     15  C   UNL     1      32.928 -13.424  18.762  1.00  0.00     0.000 C 
BRANCH  15  16
ATOM     16  C   UNL     1      31.410 -13.321  18.979  1.00  0.00     0.000 C 
BRANCH  16  17
ATOM     17  C   UNL     1      30.987 -13.644  20.429  1.00  0.00     0.000 C 
BRANCH  17  18
ATOM     18  C   UNL     1      29.689 -12.942  20.873  1.00  0.00     0.000 C 
BRANCH  18  19
ATOM     19  C   UNL     1      29.333 -13.114  22.361  1.00  0.00     0.000 C 
BRANCH  19  20
ATOM     20  C   UNL     1      27.952 -13.766  22.601  1.00  0.00     0.006 C 
BRANCH  20  21
ATOM     21  C   UNL     1      28.057 -15.194  23.151  1.00  0.00     0.053 C 
BRANCH  21  22
ATOM     22  C   UNL     1      28.651 -16.107  22.126  1.00  0.00     0.041 C 
ATOM     23  O   UNL     1      29.836 -16.519  22.251  1.00  0.00    -0.550 OA
ATOM     24  O   UNL     1      27.915 -16.464  21.003  1.00  0.00    -0.550 OA
ENDBRANCH  21  22
ENDBRANCH  20  21
ENDBRANCH  19  20
ENDBRANCH  18  19
ENDBRANCH  17  18
ENDBRANCH  16  17
ENDBRANCH  15  16
ENDBRANCH  14  15
ENDBRANCH  13  14
ENDBRANCH   1  13
TORSDOF 20
ENDMDL
MODEL 3
REMARK VINA RESULT:    -4.111      2.913      5.202
REMARK INTER + INTRA:         -11.727
REMARK INTER:                  -8.147
REMARK INTRA:                  -3.580
REMARK UNBOUND:                -2.810
REMARK SMILES CCCCCCCCCCCCCCCCCCCCCC(=O)[O-]
REMARK SMILES IDX 12 1 11 2 10 3 9 4 8 5 7 6 6 7 5 8 4 9 3 10 2 11 1 12 13 13
REMARK SMILES IDX 14 14 15 15 16 16 17 17 18 18 19 19 20 20 21 21 22 22 23 23
REMARK SMILES IDX 24 24
REMARK H PARENT
REMARK Flexibility Score: inf
ROOT
ATOM      1  C   UNL     1      29.411 -22.608  24.462  1.00  0.00     0.000 C 
ENDROOT
BRANCH   1   2
ATOM      2  C   UNL     1      28.367 -23.155  25.458  1.00  0.00     0.000 C 
BRANCH   2   3
ATOM      3  C   UNL     1      27.743 -22.077  26.362  1.00  0.00     0.000 C 
BRANCH   3   4
ATOM      4  C   UNL     1      27.069 -20.946  25.569  1.00  0.00    -0.000 C 
BRANCH   4   5
ATOM      5  C   UNL     1      27.045 -19.611  26.344  1.00  0.00    -0.000 C 
BRANCH   5   6
ATOM      6  C   UNL     1      28.422 -19.198  26.899  1.00  0.00    -0.000 C 
BRANCH   6   7
ATOM      7  C   UNL     1      29.442 -18.757  25.833  1.00  0.00    -0.000 C 
BRANCH   7   8
ATOM      8  C   UNL     1      29.112 -17.423  25.132  1.00  0.00    -0.000 C 
BRANCH   8   9
ATOM      9  C   UNL     1      30.329 -16.657  24.575  1.00  0.00    -0.000 C 
BRANCH   9  10
ATOM     10  C   UNL     1      30.072 -15.899  23.260  1.00  0.00    -0.000 C 
BRANCH  10  11
ATOM     11  C   UNL     1      28.579 -15.818  22.905  1.00  0.00    -0.003 C 
ATOM     12  C   UNL     1      28.018 -14.428  23.193  1.00  0.00     0.004 C 
ENDBRANCH  10  11
ENDBRANCH   9  10
ENDBRANCH   8   9
ENDBRANCH   7   8
ENDBRANCH   6   7
ENDBRANCH   5   6
ENDBRANCH   4   5
ENDBRANCH   3   4
ENDBRANCH   2   3
ENDBRANCH   1   2
BRANCH   1  13
ATOM     13  C   UNL     1      29.073 -22.967  23.004  1.00  0.00     0.000 C 
BRANCH  13  14
ATOM     14  C   UNL     1      28.647 -21.740  22.181  1.00  0.00     0.000 C 
BRANCH  14  15
ATOM     15  C   UNL     1      29.020 -20.419  22.869  1.00  0.00     0.000 C 
BRANCH  15  16
ATOM     16  C   UNL     1      29.644 -19.431  21.872  1.00  0.00     0.000 C 
BRANCH  16  17
ATOM     17  C   UNL     1      31.187 -19.398  21.945  1.00  0.00     0.000 C 
BRANCH  17  18
ATOM     18  C   UNL     1      31.767 -20.029  23.225  1.00  0.00     0.000 C 
BRANCH  18  19
ATOM     19  C   UNL     1      32.695 -21.236  22.993  1.00  0.00     0.000 C 
BRANCH  19  20
ATOM     20  C   UNL     1      32.383 -22.023  21.700  1.00  0.00     0.006 C 
BRANCH  20  21
ATOM     21  C   UNL     1      32.520 -23.540  21.881  1.00  0.00     0.053 C 
BRANCH  21  22
ATOM     22  C   UNL     1      33.872 -24.000  21.432  1.00  0.00     0.041 C 
ATOM     23  O   UNL     1      34.304 -23.684  20.292  1.00  0.00    -0.550 OA
ATOM     24  O   UNL     1      34.635 -24.822  22.253  1.00  0.00    -0.550 OA
ENDBRANCH  21  22
ENDBRANCH  20  21
ENDBRANCH  19  20
ENDBRANCH  18  19
ENDBRANCH  17  18
ENDBRANCH  16  17
ENDBRANCH  15  16
ENDBRANCH  14  15
ENDBRANCH  13  14
ENDBRANCH   1  13
TORSDOF 20
ENDMDL
MODEL 4
REMARK VINA RESULT:    -4.090      7.064     11.791
REMARK INTER + INTRA:         -11.683
REMARK INTER:                  -8.317
REMARK INTRA:                  -3.366
REMARK UNBOUND:                -2.810
REMARK SMILES CCCCCCCCCCCCCCCCCCCCCC(=O)[O-]
REMARK SMILES IDX 12 1 11 2 10 3 9 4 8 5 7 6 6 7 5 8 4 9 3 10 2 11 1 12 13 13
REMARK SMILES IDX 14 14 15 15 16 16 17 17 18 18 19 19 20 20 21 21 22 22 23 23
REMARK SMILES IDX 24 24
REMARK H PARENT
REMARK Flexibility Score: inf
ROOT
ATOM      1  C   UNL     1      32.373  -6.797  17.510  1.00  0.00     0.000 C 
ENDROOT
BRANCH   1   2
ATOM      2  C   UNL     1      31.367  -7.358  18.536  1.00  0.00     0.000 C 
BRANCH   2   3
ATOM      3  C   UNL     1      31.674  -6.961  19.991  1.00  0.00     0.000 C 
BRANCH   3   4
ATOM      4  C   UNL     1      33.162  -6.657  20.228  1.00  0.00    -0.000 C 
BRANCH   4   5
ATOM      5  C   UNL     1      33.887  -7.794  20.980  1.00  0.00    -0.000 C 
BRANCH   5   6
ATOM      6  C   UNL     1      34.064  -7.519  22.487  1.00  0.00    -0.000 C 
BRANCH   6   7
ATOM      7  C   UNL     1      33.717  -8.706  23.404  1.00  0.00    -0.000 C 
BRANCH   7   8
ATOM      8  C   UNL     1      33.032  -9.894  22.697  1.00  0.00    -0.000 C 
BRANCH   8   9
ATOM      9  C   UNL     1      31.561 -10.132  23.092  1.00  0.00    -0.000 C 
BRANCH   9  10
ATOM     10  C   UNL     1      30.531  -9.345  22.261  1.00  0.00    -0.000 C 
BRANCH  10  11
ATOM     11  C   UNL     1      29.941  -8.150  23.027  1.00  0.00    -0.003 C 
ATOM     12  C   UNL     1      29.987  -8.383  24.535  1.00  0.00     0.004 C 
ENDBRANCH  10  11
ENDBRANCH   9  10
ENDBRANCH   8   9
ENDBRANCH   7   8
ENDBRANCH   6   7
ENDBRANCH   5   6
ENDBRANCH   4   5
ENDBRANCH   3   4
ENDBRANCH   2   3
ENDBRANCH   1   2
BRANCH   1  13
ATOM     13  C   UNL     1      33.047  -7.907  16.684  1.00  0.00     0.000 C 
BRANCH  13  14
ATOM     14  C   UNL     1      32.149  -9.145  16.523  1.00  0.00     0.000 C 
BRANCH  14  15
ATOM     15  C   UNL     1      32.877 -10.445  16.893  1.00  0.00     0.000 C 
BRANCH  15  16
ATOM     16  C   UNL     1      33.260 -10.462  18.381  1.00  0.00     0.000 C 
BRANCH  16  17
ATOM     17  C   UNL     1      32.174 -11.103  19.273  1.00  0.00     0.000 C 
BRANCH  17  18
ATOM     18  C   UNL     1      31.879 -12.578  18.938  1.00  0.00     0.000 C 
BRANCH  18  19
ATOM     19  C   UNL     1      31.170 -13.369  20.053  1.00  0.00     0.000 C 
BRANCH  19  20
ATOM     20  C   UNL     1      29.984 -12.614  20.695  1.00  0.00     0.006 C 
BRANCH  20  21
ATOM     21  C   UNL     1      29.601 -13.172  22.072  1.00  0.00     0.053 C 
BRANCH  21  22
ATOM     22  C   UNL     1      28.448 -14.118  21.952  1.00  0.00     0.041 C 
ATOM     23  O   UNL     1      28.509 -15.097  21.160  1.00  0.00    -0.550 OA
ATOM     24  O   UNL     1      27.283 -13.890  22.675  1.00  0.00    -0.550 OA
ENDBRANCH  21  22
ENDBRANCH  20  21
ENDBRANCH  19  20
ENDBRANCH  18  19
ENDBRANCH  17  18
ENDBRANCH  16  17
ENDBRANCH  15  16
ENDBRANCH  14  15
ENDBRANCH  13  14
ENDBRANCH   1  13
TORSDOF 20
ENDMDL
MODEL 5
REMARK VINA RESULT:    -4.078      7.522     13.100
REMARK INTER + INTRA:         -11.656
REMARK INTER:                  -8.929
REMARK INTRA:                  -2.728
REMARK UNBOUND:                -2.810
REMARK SMILES CCCCCCCCCCCCCCCCCCCCCC(=O)[O-]
REMARK SMILES IDX 12 1 11 2 10 3 9 4 8 5 7 6 6 7 5 8 4 9 3 10 2 11 1 12 13 13
REMARK SMILES IDX 14 14 15 15 16 16 17 17 18 18 19 19 20 20 21 21 22 22 23 23
REMARK SMILES IDX 24 24
REMARK H PARENT
REMARK Flexibility Score: inf
ROOT
ATOM      1  C   UNL     1      31.851  -6.334  23.653  1.00  0.00     0.000 C 
ENDROOT
BRANCH   1   2
ATOM      2  C   UNL     1      30.390  -6.623  23.250  1.00  0.00     0.000 C 
BRANCH   2   3
ATOM      3  C   UNL     1      30.226  -7.855  22.343  1.00  0.00     0.000 C 
BRANCH   3   4
ATOM      4  C   UNL     1      29.992  -9.153  23.131  1.00  0.00    -0.000 C 
BRANCH   4   5
ATOM      5  C   UNL     1      30.710 -10.366  22.504  1.00  0.00    -0.000 C 
BRANCH   5   6
ATOM      6  C   UNL     1      31.329 -10.069  21.123  1.00  0.00    -0.000 C 
BRANCH   6   7
ATOM      7  C   UNL     1      31.846 -11.306  20.368  1.00  0.00    -0.000 C 
BRANCH   7   8
ATOM      8  C   UNL     1      31.346 -12.659  20.917  1.00  0.00    -0.000 C 
BRANCH   8   9
ATOM      9  C   UNL     1      30.272 -13.357  20.060  1.00  0.00    -0.000 C 
BRANCH   9  10
ATOM     10  C   UNL     1      28.910 -13.546  20.753  1.00  0.00    -0.000 C 
BRANCH  10  11
ATOM     11  C   UNL     1      29.023 -13.564  22.286  1.00  0.00    -0.003 C 
ATOM     12  C   UNL     1      27.861 -14.326  22.916  1.00  0.00     0.004 C 
ENDBRANCH  10  11
ENDBRANCH   9  10
ENDBRANCH   8   9
ENDBRANCH   7   8
ENDBRANCH   6   7
ENDBRANCH   5   6
ENDBRANCH   4   5
ENDBRANCH   3   4
ENDBRANCH   2   3
ENDBRANCH   1   2
BRANCH   1  13
ATOM     13  C   UNL     1      32.861  -7.121  22.799  1.00  0.00     0.000 C 
BRANCH  13  14
ATOM     14  C   UNL     1      33.605  -6.224  21.796  1.00  0.00     0.000 C 
BRANCH  14  15
ATOM     15  C   UNL     1      33.543  -6.775  20.365  1.00  0.00     0.000 C 
BRANCH  15  16
ATOM     16  C   UNL     1      32.340  -6.201  19.601  1.00  0.00     0.000 C 
BRANCH  16  17
ATOM     17  C   UNL     1      31.551  -7.279  18.824  1.00  0.00     0.000 C 
BRANCH  17  18
ATOM     18  C   UNL     1      31.580  -7.093  17.295  1.00  0.00     0.000 C 
BRANCH  18  19
ATOM     19  C   UNL     1      32.335  -8.190  16.520  1.00  0.00     0.000 C 
BRANCH  19  20
ATOM     20  C   UNL     1      32.315  -9.570  17.215  1.00  0.00     0.006 C 
BRANCH  20  21
ATOM     21  C   UNL     1      32.647 -10.722  16.258  1.00  0.00     0.053 C 
BRANCH  21  22
ATOM     22  C   UNL     1      33.862 -11.458  16.727  1.00  0.00     0.041 C 
ATOM     23  O   UNL     1      34.421 -11.137  17.810  1.00  0.00    -0.550 OA
ATOM     24  O   UNL     1      34.410 -12.467  15.944  1.00  0.00    -0.550 OA
ENDBRANCH  21  22
ENDBRANCH  20  21
ENDBRANCH  19  20
ENDBRANCH  18  19
ENDBRANCH  17  18
ENDBRANCH  16  17
ENDBRANCH  15  16
ENDBRANCH  14  15
ENDBRANCH  13  14
ENDBRANCH   1  13
TORSDOF 20
ENDMDL
MODEL 6
REMARK VINA RESULT:    -4.064      6.004     10.812
REMARK INTER + INTRA:         -11.627
REMARK INTER:                  -9.007
REMARK INTRA:                  -2.620
REMARK UNBOUND:                -2.810
REMARK SMILES CCCCCCCCCCCCCCCCCCCCCC(=O)[O-]
REMARK SMILES IDX 12 1 11 2 10 3 9 4 8 5 7 6 6 7 5 8 4 9 3 10 2 11 1 12 13 13
REMARK SMILES IDX 14 14 15 15 16 16 17 17 18 18 19 19 20 20 21 21 22 22 23 23
REMARK SMILES IDX 24 24
REMARK H PARENT
REMARK Flexibility Score: inf
ROOT
ATOM      1  C   UNL     1      33.105  -9.474  17.359  1.00  0.00     0.000 C 
ENDROOT
BRANCH   1   2
ATOM      2  C   UNL     1      32.252  -8.612  16.405  1.00  0.00     0.000 C 
BRANCH   2   3
ATOM      3  C   UNL     1      31.870  -7.237  16.980  1.00  0.00     0.000 C 
BRANCH   3   4
ATOM      4  C   UNL     1      31.349  -7.313  18.423  1.00  0.00    -0.000 C 
BRANCH   4   5
ATOM      5  C   UNL     1      32.262  -6.572  19.423  1.00  0.00    -0.000 C 
BRANCH   5   6
ATOM      6  C   UNL     1      31.927  -6.869  20.898  1.00  0.00    -0.000 C 
BRANCH   6   7
ATOM      7  C   UNL     1      30.621  -7.655  21.117  1.00  0.00    -0.000 C 
BRANCH   7   8
ATOM      8  C   UNL     1      30.136  -7.714  22.581  1.00  0.00    -0.000 C 
BRANCH   8   9
ATOM      9  C   UNL     1      30.916  -6.821  23.566  1.00  0.00    -0.000 C 
BRANCH   9  10
ATOM     10  C   UNL     1      31.737  -7.582  24.623  1.00  0.00    -0.000 C 
BRANCH  10  11
ATOM     11  C   UNL     1      32.142  -8.990  24.156  1.00  0.00    -0.003 C 
ATOM     12  C   UNL     1      33.544  -8.989  23.553  1.00  0.00     0.004 C 
ENDBRANCH  10  11
ENDBRANCH   9  10
ENDBRANCH   8   9
ENDBRANCH   7   8
ENDBRANCH   6   7
ENDBRANCH   5   6
ENDBRANCH   4   5
ENDBRANCH   3   4
ENDBRANCH   2   3
ENDBRANCH   1   2
BRANCH   1  13
ATOM     13  C   UNL     1      32.858 -10.980  17.166  1.00  0.00     0.000 C 
BRANCH  13  14
ATOM     14  C   UNL     1      32.461 -11.682  18.475  1.00  0.00     0.000 C 
BRANCH  14  15
ATOM     15  C   UNL     1      31.925 -10.698  19.524  1.00  0.00     0.000 C 
BRANCH  15  16
ATOM     16  C   UNL     1      32.024 -11.288  20.939  1.00  0.00     0.000 C 
BRANCH  16  17
ATOM     17  C   UNL     1      30.668 -11.802  21.473  1.00  0.00     0.000 C 
BRANCH  17  18
ATOM     18  C   UNL     1      30.254 -13.175  20.911  1.00  0.00     0.000 C 
BRANCH  18  19
ATOM     19  C   UNL     1      28.743 -13.352  20.672  1.00  0.00     0.000 C 
BRANCH  19  20
ATOM     20  C   UNL     1      28.083 -14.396  21.602  1.00  0.00     0.006 C 
BRANCH  20  21
ATOM     21  C   UNL     1      27.867 -13.869  23.027  1.00  0.00     0.053 C 
BRANCH  21  22
ATOM     22  C   UNL     1      28.593 -14.725  24.017  1.00  0.00     0.041 C 
ATOM     23  O   UNL     1      29.763 -15.125  23.774  1.00  0.00    -0.550 OA
ATOM     24  O   UNL     1      27.959 -15.126  25.187  1.00  0.00    -0.550 OA
ENDBRANCH  21  22
ENDBRANCH  20  21
ENDBRANCH  19  20
ENDBRANCH  18  19
ENDBRANCH  17  18
ENDBRANCH  16  17
ENDBRANCH  15  16
ENDBRANCH  14  15
ENDBRANCH  13  14
ENDBRANCH   1  13
TORSDOF 20
ENDMDL
MODEL 7
REMARK VINA RESULT:    -4.045      1.321      2.257
REMARK INTER + INTRA:         -11.585
REMARK INTER:                  -8.352
REMARK INTRA:                  -3.233
REMARK UNBOUND:                -2.810
REMARK SMILES CCCCCCCCCCCCCCCCCCCCCC(=O)[O-]
REMARK SMILES IDX 12 1 11 2 10 3 9 4 8 5 7 6 6 7 5 8 4 9 3 10 2 11 1 12 13 13
REMARK SMILES IDX 14 14 15 15 16 16 17 17 18 18 19 19 20 20 21 21 22 22 23 23
REMARK SMILES IDX 24 24
REMARK H PARENT
REMARK Flexibility Score: inf
ROOT
ATOM      1  C   UNL     1      30.088 -22.253  22.908  1.00  0.00     0.000 C 
ENDROOT
BRANCH   1   2
ATOM      2  C   UNL     1      28.837 -21.570  22.318  1.00  0.00     0.000 C 
BRANCH   2   3
ATOM      3  C   UNL     1      28.995 -20.054  22.106  1.00  0.00     0.000 C 
BRANCH   3   4
ATOM      4  C   UNL     1      30.293 -19.496  22.712  1.00  0.00    -0.000 C 
BRANCH   4   5
ATOM      5  C   UNL     1      30.350 -17.954  22.676  1.00  0.00    -0.000 C 
BRANCH   5   6
ATOM      6  C   UNL     1      29.032 -17.301  22.215  1.00  0.00    -0.000 C 
BRANCH   6   7
ATOM      7  C   UNL     1      29.085 -15.768  22.080  1.00  0.00    -0.000 C 
BRANCH   7   8
ATOM      8  C   UNL     1      28.639 -14.990  23.336  1.00  0.00    -0.000 C 
BRANCH   8   9
ATOM      9  C   UNL     1      28.193 -15.865  24.525  1.00  0.00    -0.000 C 
BRANCH   9  10
ATOM     10  C   UNL     1      29.142 -15.847  25.736  1.00  0.00    -0.000 C 
BRANCH  10  11
ATOM     11  C   UNL     1      30.539 -15.309  25.386  1.00  0.00    -0.003 C 
ATOM     12  C   UNL     1      31.612 -15.948  26.263  1.00  0.00     0.004 C 
ENDBRANCH  10  11
ENDBRANCH   9  10
ENDBRANCH   8   9
ENDBRANCH   7   8
ENDBRANCH   6   7
ENDBRANCH   5   6
ENDBRANCH   4   5
ENDBRANCH   3   4
ENDBRANCH   2   3
ENDBRANCH   1   2
BRANCH   1  13
ATOM     13  C   UNL     1      29.808 -23.699  23.356  1.00  0.00     0.000 C 
BRANCH  13  14
ATOM     14  C   UNL     1      28.684 -23.782  24.402  1.00  0.00     0.000 C 
BRANCH  14  15
ATOM     15  C   UNL     1      28.896 -22.801  25.563  1.00  0.00     0.000 C 
BRANCH  15  16
ATOM     16  C   UNL     1      27.555 -22.383  26.187  1.00  0.00     0.000 C 
BRANCH  16  17
ATOM     17  C   UNL     1      27.015 -21.053  25.615  1.00  0.00     0.000 C 
BRANCH  17  18
ATOM     18  C   UNL     1      28.060 -19.922  25.567  1.00  0.00     0.000 C 
BRANCH  18  19
ATOM     19  C   UNL     1      28.551 -19.430  26.941  1.00  0.00     0.000 C 
BRANCH  19  20
ATOM     20  C   UNL     1      30.075 -19.181  27.007  1.00  0.00     0.006 C 
BRANCH  20  21
ATOM     21  C   UNL     1      30.837 -20.339  27.665  1.00  0.00     0.053 C 
BRANCH  21  22
ATOM     22  C   UNL     1      30.087 -20.851  28.853  1.00  0.00     0.041 C 
ATOM     23  O   UNL     1      29.811 -20.080  29.811  1.00  0.00    -0.550 OA
ATOM     24  O   UNL     1      29.736 -22.194  28.929  1.00  0.00    -0.550 OA
ENDBRANCH  21  22
ENDBRANCH  20  21
ENDBRANCH  19  20
ENDBRANCH  18  19
ENDBRANCH  17  18
ENDBRANCH  16  17
ENDBRANCH  15  16
ENDBRANCH  14  15
ENDBRANCH  13  14
ENDBRANCH   1  13
TORSDOF 20
ENDMDL
MODEL 8
REMARK VINA RESULT:    -4.021      6.511     11.750
REMARK INTER + INTRA:         -11.532
REMARK INTER:                  -8.652
REMARK INTRA:                  -2.880
REMARK UNBOUND:                -2.810
REMARK SMILES CCCCCCCCCCCCCCCCCCCCCC(=O)[O-]
REMARK SMILES IDX 12 1 11 2 10 3 9 4 8 5 7 6 6 7 5 8 4 9 3 10 2 11 1 12 13 13
REMARK SMILES IDX 14 14 15 15 16 16 17 17 18 18 19 19 20 20 21 21 22 22 23 23
REMARK SMILES IDX 24 24
REMARK H PARENT
REMARK Flexibility Score: inf
ROOT
ATOM      1  C   UNL     1      31.441  -7.377  17.703  1.00  0.00     0.000 C 
ENDROOT
BRANCH   1   2
ATOM      2  C   UNL     1      32.183  -6.113  18.184  1.00  0.00     0.000 C 
BRANCH   2   3
ATOM      3  C   UNL     1      33.682  -6.335  18.455  1.00  0.00     0.000 C 
BRANCH   3   4
ATOM      4  C   UNL     1      34.040  -6.248  19.947  1.00  0.00    -0.000 C 
BRANCH   4   5
ATOM      5  C   UNL     1      33.835  -7.588  20.685  1.00  0.00    -0.000 C 
BRANCH   5   6
ATOM      6  C   UNL     1      32.832  -7.501  21.851  1.00  0.00    -0.000 C 
BRANCH   6   7
ATOM      7  C   UNL     1      31.436  -6.980  21.463  1.00  0.00    -0.000 C 
BRANCH   7   8
ATOM      8  C   UNL     1      30.263  -7.886  21.891  1.00  0.00    -0.000 C 
BRANCH   8   9
ATOM      9  C   UNL     1      29.760  -7.672  23.333  1.00  0.00    -0.000 C 
BRANCH   9  10
ATOM     10  C   UNL     1      30.333  -8.653  24.372  1.00  0.00    -0.000 C 
BRANCH  10  11
ATOM     11  C   UNL     1      30.189 -10.122  23.942  1.00  0.00    -0.003 C 
ATOM     12  C   UNL     1      31.180 -11.013  24.685  1.00  0.00     0.004 C 
ENDBRANCH  10  11
ENDBRANCH   9  10
ENDBRANCH   8   9
ENDBRANCH   7   8
ENDBRANCH   6   7
ENDBRANCH   5   6
ENDBRANCH   4   5
ENDBRANCH   3   4
ENDBRANCH   2   3
ENDBRANCH   1   2
BRANCH   1  13
ATOM     13  C   UNL     1      32.128  -8.033  16.492  1.00  0.00     0.000 C 
BRANCH  13  14
ATOM     14  C   UNL     1      32.331  -9.546  16.682  1.00  0.00     0.000 C 
BRANCH  14  15
ATOM     15  C   UNL     1      32.947  -9.884  18.046  1.00  0.00     0.000 C 
BRANCH  15  16
ATOM     16  C   UNL     1      32.209 -11.055  18.712  1.00  0.00     0.000 C 
BRANCH  16  17
ATOM     17  C   UNL     1      31.782 -10.748  20.165  1.00  0.00     0.000 C 
BRANCH  17  18
ATOM     18  C   UNL     1      30.750 -11.738  20.737  1.00  0.00     0.000 C 
BRANCH  18  19
ATOM     19  C   UNL     1      31.350 -12.948  21.478  1.00  0.00     0.000 C 
BRANCH  19  20
ATOM     20  C   UNL     1      30.304 -14.010  21.885  1.00  0.00     0.006 C 
BRANCH  20  21
ATOM     21  C   UNL     1      29.250 -14.254  20.797  1.00  0.00     0.053 C 
BRANCH  21  22
ATOM     22  C   UNL     1      28.292 -15.320  21.227  1.00  0.00     0.041 C 
ATOM     23  O   UNL     1      27.733 -15.257  22.355  1.00  0.00    -0.550 OA
ATOM     24  O   UNL     1      28.054 -16.414  20.403  1.00  0.00    -0.550 OA
ENDBRANCH  21  22
ENDBRANCH  20  21
ENDBRANCH  19  20
ENDBRANCH  18  19
ENDBRANCH  17  18
ENDBRANCH  16  17
ENDBRANCH  15  16
ENDBRANCH  14  15
ENDBRANCH  13  14
ENDBRANCH   1  13
TORSDOF 20
ENDMDL
MODEL 9
REMARK VINA RESULT:    -3.993      5.725     10.072
REMARK INTER + INTRA:         -11.472
REMARK INTER:                  -8.769
REMARK INTRA:                  -2.702
REMARK UNBOUND:                -2.810
REMARK SMILES CCCCCCCCCCCCCCCCCCCCCC(=O)[O-]
REMARK SMILES IDX 12 1 11 2 10 3 9 4 8 5 7 6 6 7 5 8 4 9 3 10 2 11 1 12 13 13
REMARK SMILES IDX 14 14 15 15 16 16 17 17 18 18 19 19 20 20 21 21 22 22 23 23
REMARK SMILES IDX 24 24
REMARK H PARENT
REMARK Flexibility Score: inf
ROOT
ATOM      1  C   UNL     1      32.522 -11.167  17.985  1.00  0.00     0.000 C 
ENDROOT
BRANCH   1   2
ATOM      2  C   UNL     1      32.543 -10.137  16.836  1.00  0.00     0.000 C 
BRANCH   2   3
ATOM      3  C   UNL     1      32.934  -8.716  17.279  1.00  0.00     0.000 C 
BRANCH   3   4
ATOM      4  C   UNL     1      31.829  -7.681  17.019  1.00  0.00    -0.000 C 
BRANCH   4   5
ATOM      5  C   UNL     1      31.784  -6.577  18.097  1.00  0.00    -0.000 C 
BRANCH   5   6
ATOM      6  C   UNL     1      32.898  -6.705  19.154  1.00  0.00    -0.000 C 
BRANCH   6   7
ATOM      7  C   UNL     1      32.402  -6.760  20.611  1.00  0.00    -0.000 C 
BRANCH   7   8
ATOM      8  C   UNL     1      30.937  -7.214  20.781  1.00  0.00    -0.000 C 
BRANCH   8   9
ATOM      9  C   UNL     1      30.713  -8.329  21.822  1.00  0.00    -0.000 C 
BRANCH   9  10
ATOM     10  C   UNL     1      31.832  -8.473  22.869  1.00  0.00    -0.000 C 
BRANCH  10  11
ATOM     11  C   UNL     1      31.622  -9.680  23.798  1.00  0.00    -0.003 C 
ATOM     12  C   UNL     1      30.140 -10.018  23.937  1.00  0.00     0.004 C 
ENDBRANCH  10  11
ENDBRANCH   9  10
ENDBRANCH   8   9
ENDBRANCH   7   8
ENDBRANCH   6   7
ENDBRANCH   5   6
ENDBRANCH   4   5
ENDBRANCH   3   4
ENDBRANCH   2   3
ENDBRANCH   1   2
BRANCH   1  13
ATOM     13  C   UNL     1      32.339 -10.504  19.361  1.00  0.00     0.000 C 
BRANCH  13  14
ATOM     14  C   UNL     1      32.147 -11.534  20.487  1.00  0.00     0.000 C 
BRANCH  14  15
ATOM     15  C   UNL     1      30.666 -11.842  20.748  1.00  0.00     0.000 C 
BRANCH  15  16
ATOM     16  C   UNL     1      30.264 -13.192  20.135  1.00  0.00     0.000 C 
BRANCH  16  17
ATOM     17  C   UNL     1      28.818 -13.606  20.490  1.00  0.00     0.000 C 
BRANCH  17  18
ATOM     18  C   UNL     1      28.687 -15.060  20.982  1.00  0.00     0.000 C 
BRANCH  18  19
ATOM     19  C   UNL     1      28.102 -15.218  22.397  1.00  0.00     0.000 C 
BRANCH  19  20
ATOM     20  C   UNL     1      27.984 -13.888  23.175  1.00  0.00     0.006 C 
BRANCH  20  21
ATOM     21  C   UNL     1      29.206 -13.607  24.060  1.00  0.00     0.053 C 
BRANCH  21  22
ATOM     22  C   UNL     1      29.206 -14.509  25.253  1.00  0.00     0.041 C 
ATOM     23  O   UNL     1      30.281 -14.762  25.859  1.00  0.00    -0.550 OA
ATOM     24  O   UNL     1      28.025 -15.113  25.668  1.00  0.00    -0.550 OA
ENDBRANCH  21  22
ENDBRANCH  20  21
ENDBRANCH  19  20
ENDBRANCH  18  19
ENDBRANCH  17  18
ENDBRANCH  16  17
ENDBRANCH  15  16
ENDBRANCH  14  15
ENDBRANCH  13  14
ENDBRANCH   1  13
TORSDOF 20
ENDMDL
