MODEL 1
REMARK VINA RESULT:    12.913      0.000      0.000
REMARK INTER + INTRA:          15.387
REMARK INTER:                  15.556
REMARK INTRA:                  -0.169
REMARK UNBOUND:                -0.169
REMARK SMILES O=c1c(O)c(-c2ccc(O)c(O)c2)oc2cc(O)cc(O)c12
REMARK SMILES IDX 5 1 3 2 2 3 1 4 22 5 20 6 19 7 17 8 16 9 15 10 14 11 6 12
REMARK SMILES IDX 7 13 8 14 9 15 13 16 11 17 10 18 12 20 4 22 21 24 18 26
REMARK H PARENT 10 19 12 21 4 23 21 25 18 27
REMARK Flexibility Score: inf
ROOT
ATOM      1  C   UNL     1       4.537   8.248  13.540  1.00  0.00     0.180 A 
ATOM      2  C   UNL     1       4.329   8.657  14.869  1.00  0.00     0.208 A 
ATOM      3  C   UNL     1       3.257   9.518  15.156  1.00  0.00     0.238 A 
ATOM      4  O   UNL     1       3.043   9.837  16.355  1.00  0.00    -0.285 OA
ATOM      5  C   UNL     1       2.417   9.969  14.110  1.00  0.00     0.111 A 
ATOM      6  C   UNL     1       1.326  10.875  14.281  1.00  0.00     0.134 A 
ATOM      7  C   UNL     1       0.483  11.151  13.197  1.00  0.00     0.093 A 
ATOM      8  C   UNL     1       0.728  10.609  11.937  1.00  0.00     0.123 A 
ATOM      9  C   UNL     1       1.826   9.770  11.745  1.00  0.00     0.094 A 
ATOM     10  C   UNL     1       2.665   9.447  12.814  1.00  0.00     0.146 A 
ATOM     11  O   UNL     1       3.693   8.637  12.592  1.00  0.00    -0.452 OA
ENDROOT
BRANCH   1  12
ATOM     12  C   UNL     1       5.660   7.363  13.156  1.00  0.00     0.025 A 
ATOM     13  C   UNL     1       5.437   6.054  12.695  1.00  0.00     0.016 A 
ATOM     14  C   UNL     1       6.514   5.228  12.360  1.00  0.00     0.051 A 
ATOM     15  C   UNL     1       7.828   5.695  12.494  1.00  0.00     0.157 A 
ATOM     16  C   UNL     1       6.982   7.817  13.307  1.00  0.00     0.062 A 
ATOM     17  C   UNL     1       8.063   6.990  12.971  1.00  0.00     0.158 A 
BRANCH  15  18
ATOM     18  O   UNL     1       8.905   4.875  12.159  1.00  0.00    -0.504 OA
ATOM     19  H   UNL     1       9.672   4.716  12.802  1.00  0.00     0.293 HD
ENDBRANCH  15  18
BRANCH  17  20
ATOM     20  O   UNL     1       9.371   7.449  13.109  1.00  0.00    -0.504 OA
ATOM     21  H   UNL     1       9.737   7.749  14.005  1.00  0.00     0.293 HD
ENDBRANCH  17  20
ENDBRANCH   1  12
BRANCH   2  22
ATOM     22  O   UNL     1       5.157   8.182  15.889  1.00  0.00    -0.502 OA
ATOM     23  H   UNL     1       5.838   8.768  16.356  1.00  0.00     0.293 HD
ENDBRANCH   2  22
BRANCH   6  24
ATOM     24  O   UNL     1       1.046  11.544  15.476  1.00  0.00    -0.507 OA
ATOM     25  H   UNL     1       0.355  12.272  15.579  1.00  0.00     0.293 HD
ENDBRANCH   6  24
BRANCH   8  26
ATOM     26  O   UNL     1      -0.124  10.918  10.878  1.00  0.00    -0.508 OA
ATOM     27  H   UNL     1       0.132  11.602  10.175  1.00  0.00     0.293 HD
ENDBRANCH   8  26
TORSDOF 6
ENDMDL
MODEL 2
REMARK VINA RESULT:    13.824      2.630      4.795
REMARK INTER + INTRA:          16.484
REMARK INTER:                  16.236
REMARK INTRA:                   0.248
REMARK UNBOUND:                -0.169
REMARK SMILES O=c1c(O)c(-c2ccc(O)c(O)c2)oc2cc(O)cc(O)c12
REMARK SMILES IDX 5 1 3 2 2 3 1 4 22 5 20 6 19 7 17 8 16 9 15 10 14 11 6 12
REMARK SMILES IDX 7 13 8 14 9 15 13 16 11 17 10 18 12 20 4 22 21 24 18 26
REMARK H PARENT 10 19 12 21 4 23 21 25 18 27
REMARK Flexibility Score: inf
ROOT
ATOM      1  C   UNL     1       7.809   7.626  13.977  1.00  0.00     0.180 A 
ATOM      2  C   UNL     1       7.521   6.442  13.276  1.00  0.00     0.208 A 
ATOM      3  C   UNL     1       6.190   6.167  12.922  1.00  0.00     0.238 A 
ATOM      4  O   UNL     1       5.946   5.133  12.246  1.00  0.00    -0.285 OA
ATOM      5  C   UNL     1       5.163   7.070  13.288  1.00  0.00     0.111 A 
ATOM      6  C   UNL     1       3.775   6.871  13.017  1.00  0.00     0.134 A 
ATOM      7  C   UNL     1       2.862   7.892  13.309  1.00  0.00     0.093 A 
ATOM      8  C   UNL     1       3.275   9.074  13.922  1.00  0.00     0.123 A 
ATOM      9  C   UNL     1       4.620   9.254  14.246  1.00  0.00     0.094 A 
ATOM     10  C   UNL     1       5.560   8.269  13.933  1.00  0.00     0.146 A 
ATOM     11  O   UNL     1       6.832   8.484  14.249  1.00  0.00    -0.452 OA
ENDROOT
BRANCH   1  12
ATOM     12  C   UNL     1       9.182   7.972  14.407  1.00  0.00     0.025 A 
ATOM     13  C   UNL     1       9.423   8.660  15.609  1.00  0.00     0.016 A 
ATOM     14  C   UNL     1      10.726   8.998  15.983  1.00  0.00     0.051 A 
ATOM     15  C   UNL     1      11.806   8.666  15.154  1.00  0.00     0.157 A 
ATOM     16  C   UNL     1      10.268   7.661  13.570  1.00  0.00     0.062 A 
ATOM     17  C   UNL     1      11.577   7.999  13.945  1.00  0.00     0.158 A 
BRANCH  15  18
ATOM     18  O   UNL     1      13.107   8.999  15.525  1.00  0.00    -0.504 OA
ATOM     19  H   UNL     1      13.810   8.288  15.695  1.00  0.00     0.293 HD
ENDBRANCH  15  18
BRANCH  17  20
ATOM     20  O   UNL     1      12.652   7.676  13.120  1.00  0.00    -0.504 OA
ATOM     21  H   UNL     1      12.512   7.315  12.183  1.00  0.00     0.293 HD
ENDBRANCH  17  20
ENDBRANCH   1  12
BRANCH   2  22
ATOM     22  O   UNL     1       8.553   5.576  12.905  1.00  0.00    -0.502 OA
ATOM     23  H   UNL     1       8.871   5.486  11.948  1.00  0.00     0.293 HD
ENDBRANCH   2  22
BRANCH   6  24
ATOM     24  O   UNL     1       3.244   5.690  12.490  1.00  0.00    -0.507 OA
ATOM     25  H   UNL     1       2.357   5.622  12.013  1.00  0.00     0.293 HD
ENDBRANCH   6  24
BRANCH   8  26
ATOM     26  O   UNL     1       2.336  10.062  14.212  1.00  0.00    -0.508 OA
ATOM     27  H   UNL     1       1.624  10.330  13.542  1.00  0.00     0.293 HD
ENDBRANCH   8  26
TORSDOF 6
ENDMDL
MODEL 3
REMARK VINA RESULT:    14.571      1.966      2.159
REMARK INTER + INTRA:          17.384
REMARK INTER:                  17.699
REMARK INTRA:                  -0.315
REMARK UNBOUND:                -0.169
REMARK SMILES O=c1c(O)c(-c2ccc(O)c(O)c2)oc2cc(O)cc(O)c12
REMARK SMILES IDX 5 1 3 2 2 3 1 4 22 5 20 6 19 7 17 8 16 9 15 10 14 11 6 12
REMARK SMILES IDX 7 13 8 14 9 15 13 16 11 17 10 18 12 20 4 22 21 24 18 26
REMARK H PARENT 10 19 12 21 4 23 21 25 18 27
REMARK Flexibility Score: inf
ROOT
ATOM      1  C   UNL     1       5.002   8.367  13.049  1.00  0.00     0.180 A 
ATOM      2  C   UNL     1       4.059   7.485  13.605  1.00  0.00     0.208 A 
ATOM      3  C   UNL     1       2.697   7.825  13.557  1.00  0.00     0.238 A 
ATOM      4  O   UNL     1       1.853   7.006  14.006  1.00  0.00    -0.285 OA
ATOM      5  C   UNL     1       2.298   9.049  12.969  1.00  0.00     0.111 A 
ATOM      6  C   UNL     1       0.949   9.513  12.902  1.00  0.00     0.134 A 
ATOM      7  C   UNL     1       0.655  10.678  12.181  1.00  0.00     0.093 A 
ATOM      8  C   UNL     1       1.665  11.429  11.583  1.00  0.00     0.123 A 
ATOM      9  C   UNL     1       2.994  11.017  11.694  1.00  0.00     0.094 A 
ATOM     10  C   UNL     1       3.315   9.840  12.374  1.00  0.00     0.146 A 
ATOM     11  O   UNL     1       4.589   9.477  12.447  1.00  0.00    -0.452 OA
ENDROOT
BRANCH   1  12
ATOM     12  C   UNL     1       6.456   8.090  13.084  1.00  0.00     0.025 A 
ATOM     13  C   UNL     1       7.073   7.290  12.107  1.00  0.00     0.016 A 
ATOM     14  C   UNL     1       8.443   7.022  12.173  1.00  0.00     0.051 A 
ATOM     15  C   UNL     1       9.212   7.539  13.225  1.00  0.00     0.157 A 
ATOM     16  C   UNL     1       7.229   8.588  14.147  1.00  0.00     0.062 A 
ATOM     17  C   UNL     1       8.605   8.320  14.214  1.00  0.00     0.158 A 
BRANCH  15  18
ATOM     18  O   UNL     1      10.579   7.276  13.293  1.00  0.00    -0.504 OA
ATOM     19  H   UNL     1      11.159   7.664  14.029  1.00  0.00     0.293 HD
ENDBRANCH  15  18
BRANCH  17  20
ATOM     20  O   UNL     1       9.371   8.827  15.262  1.00  0.00    -0.504 OA
ATOM     21  H   UNL     1       9.239   8.513  16.216  1.00  0.00     0.293 HD
ENDBRANCH  17  20
ENDBRANCH   1  12
BRANCH   2  22
ATOM     22  O   UNL     1       4.473   6.271  14.160  1.00  0.00    -0.502 OA
ATOM     23  H   UNL     1       3.827   5.523  14.378  1.00  0.00     0.293 HD
ENDBRANCH   2  22
BRANCH   6  24
ATOM     24  O   UNL     1      -0.125   8.887  13.541  1.00  0.00    -0.507 OA
ATOM     25  H   UNL     1      -1.072   8.874  13.194  1.00  0.00     0.293 HD
ENDBRANCH   6  24
BRANCH   8  26
ATOM     26  O   UNL     1       1.338  12.591  10.888  1.00  0.00    -0.508 OA
ATOM     27  H   UNL     1       1.374  13.502  11.331  1.00  0.00     0.293 HD
ENDBRANCH   8  26
TORSDOF 6
ENDMDL
MODEL 4
REMARK VINA RESULT:    14.605      2.830      6.338
REMARK INTER + INTRA:          17.425
REMARK INTER:                  17.052
REMARK INTRA:                   0.372
REMARK UNBOUND:                -0.169
REMARK SMILES O=c1c(O)c(-c2ccc(O)c(O)c2)oc2cc(O)cc(O)c12
REMARK SMILES IDX 5 1 3 2 2 3 1 4 22 5 20 6 19 7 17 8 16 9 15 10 14 11 6 12
REMARK SMILES IDX 7 13 8 14 9 15 13 16 11 17 10 18 12 20 4 22 21 24 18 26
REMARK H PARENT 10 19 12 21 4 23 21 25 18 27
REMARK Flexibility Score: inf
ROOT
ATOM      1  C   UNL     1       3.518   9.126  15.995  1.00  0.00     0.180 A 
ATOM      2  C   UNL     1       2.838  10.008  15.137  1.00  0.00     0.208 A 
ATOM      3  C   UNL     1       3.088   9.943  13.756  1.00  0.00     0.238 A 
ATOM      4  O   UNL     1       2.436  10.698  12.988  1.00  0.00    -0.285 OA
ATOM      5  C   UNL     1       4.024   9.008  13.253  1.00  0.00     0.111 A 
ATOM      6  C   UNL     1       4.384   8.882  11.878  1.00  0.00     0.134 A 
ATOM      7  C   UNL     1       5.224   7.835  11.477  1.00  0.00     0.093 A 
ATOM      8  C   UNL     1       5.769   6.952  12.408  1.00  0.00     0.123 A 
ATOM      9  C   UNL     1       5.471   7.103  13.762  1.00  0.00     0.094 A 
ATOM     10  C   UNL     1       4.607   8.114  14.189  1.00  0.00     0.146 A 
ATOM     11  O   UNL     1       4.341   8.217  15.485  1.00  0.00    -0.452 OA
ENDROOT
BRANCH   1  12
ATOM     12  C   UNL     1       3.327   9.151  17.463  1.00  0.00     0.025 A 
ATOM     13  C   UNL     1       2.773  10.269  18.110  1.00  0.00     0.016 A 
ATOM     14  C   UNL     1       2.624  10.281  19.500  1.00  0.00     0.051 A 
ATOM     15  C   UNL     1       3.040   9.181  20.262  1.00  0.00     0.157 A 
ATOM     16  C   UNL     1       3.761   8.061  18.235  1.00  0.00     0.062 A 
ATOM     17  C   UNL     1       3.611   8.070  19.630  1.00  0.00     0.158 A 
BRANCH  15  18
ATOM     18  O   UNL     1       2.891   9.188  21.648  1.00  0.00    -0.504 OA
ATOM     19  H   UNL     1       1.991   9.352  22.085  1.00  0.00     0.293 HD
ENDBRANCH  15  18
BRANCH  17  20
ATOM     20  O   UNL     1       4.029   6.981  20.392  1.00  0.00    -0.504 OA
ATOM     21  H   UNL     1       4.719   6.325  20.045  1.00  0.00     0.293 HD
ENDBRANCH  17  20
ENDBRANCH   1  12
BRANCH   2  22
ATOM     22  O   UNL     1       1.902  10.908  15.652  1.00  0.00    -0.502 OA
ATOM     23  H   UNL     1       1.878  11.884  15.382  1.00  0.00     0.293 HD
ENDBRANCH   2  22
BRANCH   6  24
ATOM     24  O   UNL     1       3.969   9.767  10.878  1.00  0.00    -0.507 OA
ATOM     25  H   UNL     1       3.297   9.546  10.159  1.00  0.00     0.293 HD
ENDBRANCH   6  24
BRANCH   8  26
ATOM     26  O   UNL     1       6.613   5.932  11.975  1.00  0.00    -0.508 OA
ATOM     27  H   UNL     1       6.654   5.656  11.000  1.00  0.00     0.293 HD
ENDBRANCH   8  26
TORSDOF 6
ENDMDL
