MODEL 1
REMARK VINA RESULT:    -4.966      0.000      0.000
REMARK INTER + INTRA:         -10.704
REMARK INTER:                  -9.031
REMARK INTRA:                  -1.673
REMARK UNBOUND:                -1.673
REMARK SMILES CCCCCCCCCCCCCCCC(=O)[O-]
REMARK SMILES IDX 9 1 10 2 11 3 12 4 13 5 14 6 15 7 16 8 17 9 18 10 8 11 7 12
REMARK SMILES IDX 6 13 5 14 4 15 3 16 2 17 1 18
REMARK H PARENT
REMARK Flexibility Score: inf
ROOT
ATOM      1  C   UNL     1      19.083 -42.047 -24.442  1.00  0.00     0.000 C 
ENDROOT
BRANCH   1   2
ATOM      2  C   UNL     1      18.010 -41.635 -23.418  1.00  0.00     0.000 C 
BRANCH   2   3
ATOM      3  C   UNL     1      16.599 -42.083 -23.832  1.00  0.00     0.000 C 
BRANCH   3   4
ATOM      4  C   UNL     1      15.984 -43.083 -22.838  1.00  0.00     0.000 C 
BRANCH   4   5
ATOM      5  C   UNL     1      16.360 -44.544 -23.148  1.00  0.00     0.000 C 
BRANCH   5   6
ATOM      6  C   UNL     1      17.281 -45.218 -22.110  1.00  0.00     0.006 C 
BRANCH   6   7
ATOM      7  C   UNL     1      17.126 -46.744 -22.015  1.00  0.00     0.053 C 
BRANCH   7   8
ATOM      8  C   UNL     1      18.450 -47.435 -21.908  1.00  0.00     0.041 C 
ATOM      9  O   UNL     1      19.518 -46.791 -22.085  1.00  0.00    -0.550 OA
ATOM     10  O   UNL     1      18.505 -48.798 -21.648  1.00  0.00    -0.550 OA
ENDBRANCH   7   8
ENDBRANCH   6   7
ENDBRANCH   5   6
ENDBRANCH   4   5
ENDBRANCH   3   4
ENDBRANCH   2   3
ENDBRANCH   1   2
BRANCH   1  11
ATOM     11  C   UNL     1      19.924 -43.244 -23.967  1.00  0.00     0.000 C 
BRANCH  11  12
ATOM     12  C   UNL     1      19.715 -44.497 -24.831  1.00  0.00    -0.000 C 
BRANCH  12  13
ATOM     13  C   UNL     1      18.760 -44.207 -25.997  1.00  0.00    -0.000 C 
BRANCH  13  14
ATOM     14  C   UNL     1      17.936 -45.438 -26.418  1.00  0.00    -0.000 C 
BRANCH  14  15
ATOM     15  C   UNL     1      17.472 -45.445 -27.888  1.00  0.00    -0.000 C 
BRANCH  15  16
ATOM     16  C   UNL     1      18.311 -46.323 -28.833  1.00  0.00    -0.000 C 
BRANCH  16  17
ATOM     17  C   UNL     1      17.489 -47.430 -29.506  1.00  0.00    -0.003 C 
ATOM     18  C   UNL     1      18.197 -47.966 -30.746  1.00  0.00     0.004 C 
ENDBRANCH  16  17
ENDBRANCH  15  16
ENDBRANCH  14  15
ENDBRANCH  13  14
ENDBRANCH  12  13
ENDBRANCH  11  12
ENDBRANCH   1  11
TORSDOF 14
ENDMDL
MODEL 2
REMARK VINA RESULT:    -4.915      1.097      1.840
REMARK INTER + INTRA:         -10.611
REMARK INTER:                  -8.962
REMARK INTRA:                  -1.648
REMARK UNBOUND:                -1.673
REMARK SMILES CCCCCCCCCCCCCCCC(=O)[O-]
REMARK SMILES IDX 9 1 10 2 11 3 12 4 13 5 14 6 15 7 16 8 17 9 18 10 8 11 7 12
REMARK SMILES IDX 6 13 5 14 4 15 3 16 2 17 1 18
REMARK H PARENT
REMARK Flexibility Score: inf
ROOT
ATOM      1  C   UNL     1      19.657 -43.557 -25.393  1.00  0.00     0.000 C 
ENDROOT
BRANCH   1   2
ATOM      2  C   UNL     1      19.519 -42.595 -24.199  1.00  0.00     0.000 C 
BRANCH   2   3
ATOM      3  C   UNL     1      18.397 -41.565 -24.401  1.00  0.00     0.000 C 
BRANCH   3   4
ATOM      4  C   UNL     1      17.001 -42.154 -24.138  1.00  0.00     0.000 C 
BRANCH   4   5
ATOM      5  C   UNL     1      16.877 -42.803 -22.747  1.00  0.00     0.000 C 
BRANCH   5   6
ATOM      6  C   UNL     1      16.561 -44.312 -22.753  1.00  0.00     0.006 C 
BRANCH   6   7
ATOM      7  C   UNL     1      17.438 -45.152 -21.811  1.00  0.00     0.053 C 
BRANCH   7   8
ATOM      8  C   UNL     1      17.255 -46.621 -22.038  1.00  0.00     0.041 C 
ATOM      9  O   UNL     1      16.123 -47.150 -21.884  1.00  0.00    -0.550 OA
ATOM     10  O   UNL     1      18.342 -47.413 -22.384  1.00  0.00    -0.550 OA
ENDBRANCH   7   8
ENDBRANCH   6   7
ENDBRANCH   5   6
ENDBRANCH   4   5
ENDBRANCH   3   4
ENDBRANCH   2   3
ENDBRANCH   1   2
BRANCH   1  11
ATOM     11  C   UNL     1      19.512 -45.032 -24.983  1.00  0.00     0.000 C 
BRANCH  11  12
ATOM     12  C   UNL     1      18.248 -45.689 -25.559  1.00  0.00    -0.000 C 
BRANCH  12  13
ATOM     13  C   UNL     1      17.850 -45.038 -26.891  1.00  0.00    -0.000 C 
BRANCH  13  14
ATOM     14  C   UNL     1      17.966 -46.001 -28.087  1.00  0.00    -0.000 C 
BRANCH  14  15
ATOM     15  C   UNL     1      17.408 -45.461 -29.419  1.00  0.00    -0.000 C 
BRANCH  15  16
ATOM     16  C   UNL     1      17.244 -46.513 -30.531  1.00  0.00    -0.000 C 
BRANCH  16  17
ATOM     17  C   UNL     1      17.917 -47.850 -30.190  1.00  0.00    -0.003 C 
ATOM     18  C   UNL     1      18.944 -48.235 -31.250  1.00  0.00     0.004 C 
ENDBRANCH  16  17
ENDBRANCH  15  16
ENDBRANCH  14  15
ENDBRANCH  13  14
ENDBRANCH  12  13
ENDBRANCH  11  12
ENDBRANCH   1  11
TORSDOF 14
ENDMDL
MODEL 3
REMARK VINA RESULT:    -4.887      3.102      5.592
REMARK INTER + INTRA:         -10.561
REMARK INTER:                  -9.149
REMARK INTRA:                  -1.412
REMARK UNBOUND:                -1.673
REMARK SMILES CCCCCCCCCCCCCCCC(=O)[O-]
REMARK SMILES IDX 9 1 10 2 11 3 12 4 13 5 14 6 15 7 16 8 17 9 18 10 8 11 7 12
REMARK SMILES IDX 6 13 5 14 4 15 3 16 2 17 1 18
REMARK H PARENT
REMARK Flexibility Score: inf
ROOT
ATOM      1  C   UNL     1      18.305 -44.200 -25.364  1.00  0.00     0.000 C 
ENDROOT
BRANCH   1   2
ATOM      2  C   UNL     1      19.792 -43.862 -25.574  1.00  0.00     0.000 C 
BRANCH   2   3
ATOM      3  C   UNL     1      20.214 -42.581 -24.837  1.00  0.00     0.000 C 
BRANCH   3   4
ATOM      4  C   UNL     1      19.010 -41.748 -24.366  1.00  0.00     0.000 C 
BRANCH   4   5
ATOM      5  C   UNL     1      18.684 -41.957 -22.876  1.00  0.00     0.000 C 
BRANCH   5   6
ATOM      6  C   UNL     1      17.340 -41.361 -22.408  1.00  0.00     0.006 C 
BRANCH   6   7
ATOM      7  C   UNL     1      16.223 -41.401 -23.463  1.00  0.00     0.053 C 
BRANCH   7   8
ATOM      8  C   UNL     1      15.250 -42.510 -23.206  1.00  0.00     0.041 C 
ATOM      9  O   UNL     1      15.663 -43.680 -22.996  1.00  0.00    -0.550 OA
ATOM     10  O   UNL     1      13.884 -42.258 -23.232  1.00  0.00    -0.550 OA
ENDBRANCH   7   8
ENDBRANCH   6   7
ENDBRANCH   5   6
ENDBRANCH   4   5
ENDBRANCH   3   4
ENDBRANCH   2   3
ENDBRANCH   1   2
BRANCH   1  11
ATOM     11  C   UNL     1      18.099 -45.573 -24.704  1.00  0.00     0.000 C 
BRANCH  11  12
ATOM     12  C   UNL     1      19.415 -46.213 -24.238  1.00  0.00    -0.000 C 
BRANCH  12  13
ATOM     13  C   UNL     1      19.376 -46.514 -22.733  1.00  0.00    -0.000 C 
BRANCH  13  14
ATOM     14  C   UNL     1      18.006 -46.217 -22.097  1.00  0.00    -0.000 C 
BRANCH  14  15
ATOM     15  C   UNL     1      17.138 -47.457 -21.801  1.00  0.00    -0.000 C 
BRANCH  15  16
ATOM     16  C   UNL     1      15.622 -47.244 -21.957  1.00  0.00    -0.000 C 
BRANCH  16  17
ATOM     17  C   UNL     1      14.792 -48.310 -21.228  1.00  0.00    -0.003 C 
ATOM     18  C   UNL     1      15.668 -49.471 -20.770  1.00  0.00     0.004 C 
ENDBRANCH  16  17
ENDBRANCH  15  16
ENDBRANCH  14  15
ENDBRANCH  13  14
ENDBRANCH  12  13
ENDBRANCH  11  12
ENDBRANCH   1  11
TORSDOF 14
ENDMDL
MODEL 4
REMARK VINA RESULT:    -4.827      2.654      5.122
REMARK INTER + INTRA:         -10.451
REMARK INTER:                  -8.538
REMARK INTRA:                  -1.912
REMARK UNBOUND:                -1.673
REMARK SMILES CCCCCCCCCCCCCCCC(=O)[O-]
REMARK SMILES IDX 9 1 10 2 11 3 12 4 13 5 14 6 15 7 16 8 17 9 18 10 8 11 7 12
REMARK SMILES IDX 6 13 5 14 4 15 3 16 2 17 1 18
REMARK H PARENT
REMARK Flexibility Score: inf
ROOT
ATOM      1  C   UNL     1      18.532 -44.305 -25.724  1.00  0.00     0.000 C 
ENDROOT
BRANCH   1   2
ATOM      2  C   UNL     1      18.437 -45.626 -24.941  1.00  0.00     0.000 C 
BRANCH   2   3
ATOM      3  C   UNL     1      19.750 -45.981 -24.226  1.00  0.00     0.000 C 
BRANCH   3   4
ATOM      4  C   UNL     1      19.576 -46.102 -22.702  1.00  0.00     0.000 C 
BRANCH   4   5
ATOM      5  C   UNL     1      18.107 -45.989 -22.256  1.00  0.00     0.000 C 
BRANCH   5   6
ATOM      6  C   UNL     1      17.425 -47.325 -21.900  1.00  0.00     0.006 C 
BRANCH   6   7
ATOM      7  C   UNL     1      15.891 -47.307 -22.001  1.00  0.00     0.053 C 
BRANCH   7   8
ATOM      8  C   UNL     1      15.266 -48.418 -21.216  1.00  0.00     0.041 C 
ATOM      9  O   UNL     1      15.954 -49.411 -20.862  1.00  0.00    -0.550 OA
ATOM     10  O   UNL     1      13.913 -48.374 -20.905  1.00  0.00    -0.550 OA
ENDBRANCH   7   8
ENDBRANCH   6   7
ENDBRANCH   5   6
ENDBRANCH   4   5
ENDBRANCH   3   4
ENDBRANCH   2   3
ENDBRANCH   1   2
BRANCH   1  11
ATOM     11  C   UNL     1      19.938 -43.686 -25.672  1.00  0.00     0.000 C 
BRANCH  11  12
ATOM     12  C   UNL     1      19.939 -42.256 -25.110  1.00  0.00    -0.000 C 
BRANCH  12  13
ATOM     13  C   UNL     1      20.359 -42.247 -23.634  1.00  0.00    -0.000 C 
BRANCH  13  14
ATOM     14  C   UNL     1      19.159 -42.187 -22.670  1.00  0.00    -0.000 C 
BRANCH  14  15
ATOM     15  C   UNL     1      17.873 -41.576 -23.261  1.00  0.00    -0.000 C 
BRANCH  15  16
ATOM     16  C   UNL     1      16.854 -41.071 -22.224  1.00  0.00    -0.000 C 
BRANCH  16  17
ATOM     17  C   UNL     1      15.625 -41.982 -22.104  1.00  0.00    -0.003 C 
ATOM     18  C   UNL     1      15.739 -43.186 -23.032  1.00  0.00     0.004 C 
ENDBRANCH  16  17
ENDBRANCH  15  16
ENDBRANCH  14  15
ENDBRANCH  13  14
ENDBRANCH  12  13
ENDBRANCH  11  12
ENDBRANCH   1  11
TORSDOF 14
ENDMDL
MODEL 5
REMARK VINA RESULT:    -4.811      2.957      5.965
REMARK INTER + INTRA:         -10.421
REMARK INTER:                  -9.836
REMARK INTRA:                  -0.585
REMARK UNBOUND:                -1.673
REMARK SMILES CCCCCCCCCCCCCCCC(=O)[O-]
REMARK SMILES IDX 9 1 10 2 11 3 12 4 13 5 14 6 15 7 16 8 17 9 18 10 8 11 7 12
REMARK SMILES IDX 6 13 5 14 4 15 3 16 2 17 1 18
REMARK H PARENT
REMARK Flexibility Score: inf
ROOT
ATOM      1  C   UNL     1      17.348 -47.403 -29.443  1.00  0.00     0.000 C 
ENDROOT
BRANCH   1   2
ATOM      2  C   UNL     1      17.961 -46.006 -29.242  1.00  0.00     0.000 C 
BRANCH   2   3
ATOM      3  C   UNL     1      17.410 -45.296 -27.994  1.00  0.00     0.000 C 
BRANCH   3   4
ATOM      4  C   UNL     1      18.225 -45.614 -26.729  1.00  0.00     0.000 C 
BRANCH   4   5
ATOM      5  C   UNL     1      18.065 -44.546 -25.631  1.00  0.00     0.000 C 
BRANCH   5   6
ATOM      6  C   UNL     1      17.519 -45.066 -24.285  1.00  0.00     0.006 C 
BRANCH   6   7
ATOM      7  C   UNL     1      17.991 -46.479 -23.908  1.00  0.00     0.053 C 
BRANCH   7   8
ATOM      8  C   UNL     1      17.929 -46.714 -22.430  1.00  0.00     0.041 C 
ATOM      9  O   UNL     1      16.890 -46.416 -21.784  1.00  0.00    -0.550 OA
ATOM     10  O   UNL     1      19.031 -47.230 -21.761  1.00  0.00    -0.550 OA
ENDBRANCH   7   8
ENDBRANCH   6   7
ENDBRANCH   5   6
ENDBRANCH   4   5
ENDBRANCH   3   4
ENDBRANCH   2   3
ENDBRANCH   1   2
BRANCH   1  11
ATOM     11  C   UNL     1      18.020 -48.185 -30.585  1.00  0.00     0.000 C 
BRANCH  11  12
ATOM     12  C   UNL     1      18.970 -47.315 -31.422  1.00  0.00    -0.000 C 
BRANCH  12  13
ATOM     13  C   UNL     1      19.779 -48.174 -32.403  1.00  0.00    -0.000 C 
BRANCH  13  14
ATOM     14  C   UNL     1      20.071 -49.587 -31.863  1.00  0.00    -0.000 C 
BRANCH  14  15
ATOM     15  C   UNL     1      20.301 -50.666 -32.940  1.00  0.00    -0.000 C 
BRANCH  15  16
ATOM     16  C   UNL     1      21.052 -51.920 -32.457  1.00  0.00    -0.000 C 
BRANCH  16  17
ATOM     17  C   UNL     1      20.891 -53.114 -33.408  1.00  0.00    -0.003 C 
ATOM     18  C   UNL     1      19.542 -53.798 -33.209  1.00  0.00     0.004 C 
ENDBRANCH  16  17
ENDBRANCH  15  16
ENDBRANCH  14  15
ENDBRANCH  13  14
ENDBRANCH  12  13
ENDBRANCH  11  12
ENDBRANCH   1  11
TORSDOF 14
ENDMDL
MODEL 6
REMARK VINA RESULT:    -4.806      2.448      4.117
REMARK INTER + INTRA:         -10.413
REMARK INTER:                  -8.511
REMARK INTRA:                  -1.903
REMARK UNBOUND:                -1.673
REMARK SMILES CCCCCCCCCCCCCCCC(=O)[O-]
REMARK SMILES IDX 9 1 10 2 11 3 12 4 13 5 14 6 15 7 16 8 17 9 18 10 8 11 7 12
REMARK SMILES IDX 6 13 5 14 4 15 3 16 2 17 1 18
REMARK H PARENT
REMARK Flexibility Score: inf
ROOT
ATOM      1  C   UNL     1      20.085 -44.639 -21.587  1.00  0.00     0.000 C 
ENDROOT
BRANCH   1   2
ATOM      2  C   UNL     1      20.747 -43.847 -22.727  1.00  0.00     0.000 C 
BRANCH   2   3
ATOM      3  C   UNL     1      20.157 -42.436 -22.883  1.00  0.00     0.000 C 
BRANCH   3   4
ATOM      4  C   UNL     1      19.711 -42.141 -24.325  1.00  0.00     0.000 C 
BRANCH   4   5
ATOM      5  C   UNL     1      18.338 -41.448 -24.398  1.00  0.00     0.000 C 
BRANCH   5   6
ATOM      6  C   UNL     1      17.288 -41.968 -23.395  1.00  0.00     0.006 C 
BRANCH   6   7
ATOM      7  C   UNL     1      16.934 -40.981 -22.271  1.00  0.00     0.053 C 
BRANCH   7   8
ATOM      8  C   UNL     1      16.491 -41.686 -21.027  1.00  0.00     0.041 C 
ATOM      9  O   UNL     1      15.316 -41.541 -20.599  1.00  0.00    -0.550 OA
ATOM     10  O   UNL     1      17.388 -42.475 -20.318  1.00  0.00    -0.550 OA
ENDBRANCH   7   8
ENDBRANCH   6   7
ENDBRANCH   5   6
ENDBRANCH   4   5
ENDBRANCH   3   4
ENDBRANCH   2   3
ENDBRANCH   1   2
BRANCH   1  11
ATOM     11  C   UNL     1      19.255 -45.829 -22.098  1.00  0.00     0.000 C 
BRANCH  11  12
ATOM     12  C   UNL     1      17.742 -45.566 -22.043  1.00  0.00    -0.000 C 
BRANCH  12  13
ATOM     13  C   UNL     1      17.116 -45.669 -23.441  1.00  0.00    -0.000 C 
BRANCH  13  14
ATOM     14  C   UNL     1      18.165 -45.835 -24.557  1.00  0.00    -0.000 C 
BRANCH  14  15
ATOM     15  C   UNL     1      17.887 -45.030 -25.842  1.00  0.00    -0.000 C 
BRANCH  15  16
ATOM     16  C   UNL     1      18.229 -45.757 -27.154  1.00  0.00    -0.000 C 
BRANCH  16  17
ATOM     17  C   UNL     1      17.324 -45.339 -28.321  1.00  0.00    -0.003 C 
ATOM     18  C   UNL     1      17.281 -46.418 -29.398  1.00  0.00     0.004 C 
ENDBRANCH  16  17
ENDBRANCH  15  16
ENDBRANCH  14  15
ENDBRANCH  13  14
ENDBRANCH  12  13
ENDBRANCH  11  12
ENDBRANCH   1  11
TORSDOF 14
ENDMDL
MODEL 7
REMARK VINA RESULT:    -4.800      4.117      5.863
REMARK INTER + INTRA:         -10.402
REMARK INTER:                  -8.801
REMARK INTRA:                  -1.601
REMARK UNBOUND:                -1.673
REMARK SMILES CCCCCCCCCCCCCCCC(=O)[O-]
REMARK SMILES IDX 9 1 10 2 11 3 12 4 13 5 14 6 15 7 16 8 17 9 18 10 8 11 7 12
REMARK SMILES IDX 6 13 5 14 4 15 3 16 2 17 1 18
REMARK H PARENT
REMARK Flexibility Score: inf
ROOT
ATOM      1  C   UNL     1      20.390 -44.638 -22.156  1.00  0.00     0.000 C 
ENDROOT
BRANCH   1   2
ATOM      2  C   UNL     1      20.357 -44.434 -23.681  1.00  0.00     0.000 C 
BRANCH   2   3
ATOM      3  C   UNL     1      20.639 -42.979 -24.087  1.00  0.00     0.000 C 
BRANCH   3   4
ATOM      4  C   UNL     1      19.580 -42.002 -23.548  1.00  0.00     0.000 C 
BRANCH   4   5
ATOM      5  C   UNL     1      18.293 -41.989 -24.392  1.00  0.00     0.000 C 
BRANCH   5   6
ATOM      6  C   UNL     1      17.081 -41.301 -23.730  1.00  0.00     0.006 C 
BRANCH   6   7
ATOM      7  C   UNL     1      17.143 -41.237 -22.196  1.00  0.00     0.053 C 
BRANCH   7   8
ATOM      8  C   UNL     1      15.838 -41.615 -21.567  1.00  0.00     0.041 C 
ATOM      9  O   UNL     1      14.848 -41.909 -22.287  1.00  0.00    -0.550 OA
ATOM     10  O   UNL     1      15.704 -41.609 -20.184  1.00  0.00    -0.550 OA
ENDBRANCH   7   8
ENDBRANCH   6   7
ENDBRANCH   5   6
ENDBRANCH   4   5
ENDBRANCH   3   4
ENDBRANCH   2   3
ENDBRANCH   1   2
BRANCH   1  11
ATOM     11  C   UNL     1      19.192 -45.453 -21.642  1.00  0.00     0.000 C 
BRANCH  11  12
ATOM     12  C   UNL     1      17.857 -44.708 -21.791  1.00  0.00    -0.000 C 
BRANCH  12  13
ATOM     13  C   UNL     1      16.957 -45.398 -22.824  1.00  0.00    -0.000 C 
BRANCH  13  14
ATOM     14  C   UNL     1      17.310 -46.882 -23.033  1.00  0.00    -0.000 C 
BRANCH  14  15
ATOM     15  C   UNL     1      16.676 -47.856 -22.020  1.00  0.00    -0.000 C 
BRANCH  15  16
ATOM     16  C   UNL     1      15.206 -47.564 -21.668  1.00  0.00    -0.000 C 
BRANCH  16  17
ATOM     17  C   UNL     1      14.503 -48.758 -21.007  1.00  0.00    -0.003 C 
ATOM     18  C   UNL     1      15.502 -49.850 -20.639  1.00  0.00     0.004 C 
ENDBRANCH  16  17
ENDBRANCH  15  16
ENDBRANCH  14  15
ENDBRANCH  13  14
ENDBRANCH  12  13
ENDBRANCH  11  12
ENDBRANCH   1  11
TORSDOF 14
ENDMDL
MODEL 8
REMARK VINA RESULT:    -4.764      3.254      6.212
REMARK INTER + INTRA:         -10.336
REMARK INTER:                  -8.211
REMARK INTRA:                  -2.125
REMARK UNBOUND:                -1.673
REMARK SMILES CCCCCCCCCCCCCCCC(=O)[O-]
REMARK SMILES IDX 9 1 10 2 11 3 12 4 13 5 14 6 15 7 16 8 17 9 18 10 8 11 7 12
REMARK SMILES IDX 6 13 5 14 4 15 3 16 2 17 1 18
REMARK H PARENT
REMARK Flexibility Score: inf
ROOT
ATOM      1  C   UNL     1      20.011 -42.383 -24.539  1.00  0.00     0.000 C 
ENDROOT
BRANCH   1   2
ATOM      2  C   UNL     1      20.960 -42.002 -23.388  1.00  0.00     0.000 C 
BRANCH   2   3
ATOM      3  C   UNL     1      20.461 -42.505 -22.024  1.00  0.00     0.000 C 
BRANCH   3   4
ATOM      4  C   UNL     1      20.617 -44.026 -21.865  1.00  0.00     0.000 C 
BRANCH   4   5
ATOM      5  C   UNL     1      19.267 -44.766 -21.828  1.00  0.00     0.000 C 
BRANCH   5   6
ATOM      6  C   UNL     1      19.177 -46.011 -22.734  1.00  0.00     0.006 C 
BRANCH   6   7
ATOM      7  C   UNL     1      17.911 -46.079 -23.603  1.00  0.00     0.053 C 
BRANCH   7   8
ATOM      8  C   UNL     1      16.663 -46.010 -22.778  1.00  0.00     0.041 C 
ATOM      9  O   UNL     1      16.436 -46.880 -21.897  1.00  0.00    -0.550 OA
ATOM     10  O   UNL     1      15.732 -45.005 -23.007  1.00  0.00    -0.550 OA
ENDBRANCH   7   8
ENDBRANCH   6   7
ENDBRANCH   5   6
ENDBRANCH   4   5
ENDBRANCH   3   4
ENDBRANCH   2   3
ENDBRANCH   1   2
BRANCH   1  11
ATOM     11  C   UNL     1      18.737 -41.521 -24.565  1.00  0.00     0.000 C 
BRANCH  11  12
ATOM     12  C   UNL     1      17.457 -42.346 -24.363  1.00  0.00    -0.000 C 
BRANCH  12  13
ATOM     13  C   UNL     1      16.433 -41.573 -23.521  1.00  0.00    -0.000 C 
BRANCH  13  14
ATOM     14  C   UNL     1      17.018 -41.053 -22.194  1.00  0.00    -0.000 C 
BRANCH  14  15
ATOM     15  C   UNL     1      16.845 -41.996 -20.987  1.00  0.00    -0.000 C 
BRANCH  15  16
ATOM     16  C   UNL     1      17.621 -41.586 -19.723  1.00  0.00    -0.000 C 
BRANCH  16  17
ATOM     17  C   UNL     1      16.732 -41.520 -18.473  1.00  0.00    -0.003 C 
ATOM     18  C   UNL     1      15.254 -41.583 -18.845  1.00  0.00     0.004 C 
ENDBRANCH  16  17
ENDBRANCH  15  16
ENDBRANCH  14  15
ENDBRANCH  13  14
ENDBRANCH  12  13
ENDBRANCH  11  12
ENDBRANCH   1  11
TORSDOF 14
ENDMDL
MODEL 9
REMARK VINA RESULT:    -4.681      3.970      7.633
REMARK INTER + INTRA:         -10.186
REMARK INTER:                  -9.022
REMARK INTRA:                  -1.164
REMARK UNBOUND:                -1.673
REMARK SMILES CCCCCCCCCCCCCCCC(=O)[O-]
REMARK SMILES IDX 9 1 10 2 11 3 12 4 13 5 14 6 15 7 16 8 17 9 18 10 8 11 7 12
REMARK SMILES IDX 6 13 5 14 4 15 3 16 2 17 1 18
REMARK H PARENT
REMARK Flexibility Score: inf
ROOT
ATOM      1  C   UNL     1      17.681 -45.315 -25.435  1.00  0.00     0.000 C 
ENDROOT
BRANCH   1   2
ATOM      2  C   UNL     1      18.291 -45.117 -26.834  1.00  0.00     0.000 C 
BRANCH   2   3
ATOM      3  C   UNL     1      17.273 -45.359 -27.959  1.00  0.00     0.000 C 
BRANCH   3   4
ATOM      4  C   UNL     1      17.931 -45.891 -29.244  1.00  0.00     0.000 C 
BRANCH   4   5
ATOM      5  C   UNL     1      17.651 -47.386 -29.485  1.00  0.00     0.000 C 
BRANCH   5   6
ATOM      6  C   UNL     1      18.399 -48.009 -30.682  1.00  0.00     0.006 C 
BRANCH   6   7
ATOM      7  C   UNL     1      18.933 -46.990 -31.701  1.00  0.00     0.053 C 
BRANCH   7   8
ATOM      8  C   UNL     1      19.581 -47.659 -32.873  1.00  0.00     0.041 C 
ATOM      9  O   UNL     1      20.012 -48.838 -32.773  1.00  0.00    -0.550 OA
ATOM     10  O   UNL     1      19.741 -46.968 -34.068  1.00  0.00    -0.550 OA
ENDBRANCH   7   8
ENDBRANCH   6   7
ENDBRANCH   5   6
ENDBRANCH   4   5
ENDBRANCH   3   4
ENDBRANCH   2   3
ENDBRANCH   1   2
BRANCH   1  11
ATOM     11  C   UNL     1      18.601 -46.114 -24.496  1.00  0.00     0.000 C 
BRANCH  11  12
ATOM     12  C   UNL     1      17.859 -46.679 -23.276  1.00  0.00    -0.000 C 
BRANCH  12  13
ATOM     13  C   UNL     1      16.880 -45.646 -22.701  1.00  0.00    -0.000 C 
BRANCH  13  14
ATOM     14  C   UNL     1      17.546 -44.677 -21.707  1.00  0.00    -0.000 C 
BRANCH  14  15
ATOM     15  C   UNL     1      17.065 -43.214 -21.795  1.00  0.00    -0.000 C 
BRANCH  15  16
ATOM     16  C   UNL     1      16.065 -42.924 -22.928  1.00  0.00    -0.000 C 
BRANCH  16  17
ATOM     17  C   UNL     1      16.494 -41.747 -23.815  1.00  0.00    -0.003 C 
ATOM     18  C   UNL     1      17.986 -41.808 -24.127  1.00  0.00     0.004 C 
ENDBRANCH  16  17
ENDBRANCH  15  16
ENDBRANCH  14  15
ENDBRANCH  13  14
ENDBRANCH  12  13
ENDBRANCH  11  12
ENDBRANCH   1  11
TORSDOF 14
ENDMDL
