MODEL 1
REMARK VINA RESULT:    -5.108      0.000      0.000
REMARK INTER + INTRA:         -14.198
REMARK INTER:                 -11.678
REMARK INTRA:                  -2.520
REMARK UNBOUND:                -2.520
REMARK SMILES CCCCCCCCCCCCCCCCCCCCCCCC(=O)[O-]
REMARK SMILES IDX 13 1 14 2 15 3 16 4 17 5 18 6 19 7 20 8 21 9 22 10 23 11
REMARK SMILES IDX 24 12 25 13 26 14 12 15 11 16 10 17 9 18 8 19 7 20 6 21 5 22
REMARK SMILES IDX 4 23 3 24 2 25 1 26
REMARK H PARENT
REMARK Flexibility Score: inf
ROOT
ATOM      1  C   UNL     1      40.734  43.606  16.517  1.00  0.00     0.000 C 
ENDROOT
BRANCH   1   2
ATOM      2  C   UNL     1      41.372  44.949  16.131  1.00  0.00     0.000 C 
BRANCH   2   3
ATOM      3  C   UNL     1      42.889  44.981  16.382  1.00  0.00     0.000 C 
BRANCH   3   4
ATOM      4  C   UNL     1      43.373  46.358  16.864  1.00  0.00     0.000 C 
BRANCH   4   5
ATOM      5  C   UNL     1      44.714  46.283  17.616  1.00  0.00     0.000 C 
BRANCH   5   6
ATOM      6  C   UNL     1      44.842  47.359  18.708  1.00  0.00     0.000 C 
BRANCH   6   7
ATOM      7  C   UNL     1      44.793  46.773  20.131  1.00  0.00     0.000 C 
BRANCH   7   8
ATOM      8  C   UNL     1      44.941  45.243  20.135  1.00  0.00     0.000 C 
BRANCH   8   9
ATOM      9  C   UNL     1      44.462  44.608  21.452  1.00  0.00     0.000 C 
BRANCH   9  10
ATOM     10  C   UNL     1      44.037  43.141  21.273  1.00  0.00     0.006 C 
BRANCH  10  11
ATOM     11  C   UNL     1      43.275  42.905  19.962  1.00  0.00     0.053 C 
BRANCH  11  12
ATOM     12  C   UNL     1      41.966  42.236  20.233  1.00  0.00     0.041 C 
ATOM     13  O   UNL     1      41.570  41.295  19.496  1.00  0.00    -0.550 OA
ATOM     14  O   UNL     1      41.163  42.675  21.281  1.00  0.00    -0.550 OA
ENDBRANCH  11  12
ENDBRANCH  10  11
ENDBRANCH   9  10
ENDBRANCH   8   9
ENDBRANCH   7   8
ENDBRANCH   6   7
ENDBRANCH   5   6
ENDBRANCH   4   5
ENDBRANCH   3   4
ENDBRANCH   2   3
ENDBRANCH   1   2
BRANCH   1  15
ATOM     15  C   UNL     1      41.056  42.482  15.514  1.00  0.00     0.000 C 
BRANCH  15  16
ATOM     16  C   UNL     1      40.693  41.087  16.067  1.00  0.00     0.000 C 
BRANCH  16  17
ATOM     17  C   UNL     1      41.918  40.177  16.275  1.00  0.00     0.000 C 
BRANCH  17  18
ATOM     18  C   UNL     1      43.237  40.852  15.863  1.00  0.00    -0.000 C 
BRANCH  18  19
ATOM     19  C   UNL     1      43.826  40.268  14.569  1.00  0.00    -0.000 C 
BRANCH  19  20
ATOM     20  C   UNL     1      43.882  38.730  14.588  1.00  0.00    -0.000 C 
BRANCH  20  21
ATOM     21  C   UNL     1      43.108  38.087  13.423  1.00  0.00    -0.000 C 
BRANCH  21  22
ATOM     22  C   UNL     1      42.157  36.944  13.824  1.00  0.00    -0.000 C 
BRANCH  22  23
ATOM     23  C   UNL     1      40.699  37.201  13.400  1.00  0.00    -0.000 C 
BRANCH  23  24
ATOM     24  C   UNL     1      40.396  38.695  13.208  1.00  0.00    -0.000 C 
BRANCH  24  25
ATOM     25  C   UNL     1      39.210  38.939  12.265  1.00  0.00    -0.003 C 
ATOM     26  C   UNL     1      38.572  37.621  11.834  1.00  0.00     0.004 C 
ENDBRANCH  24  25
ENDBRANCH  23  24
ENDBRANCH  22  23
ENDBRANCH  21  22
ENDBRANCH  20  21
ENDBRANCH  19  20
ENDBRANCH  18  19
ENDBRANCH  17  18
ENDBRANCH  16  17
ENDBRANCH  15  16
ENDBRANCH   1  15
TORSDOF 22
ENDMDL
MODEL 2
REMARK VINA RESULT:    -4.874      2.980      8.015
REMARK INTER + INTRA:         -13.664
REMARK INTER:                 -10.937
REMARK INTRA:                  -2.727
REMARK UNBOUND:                -2.520
REMARK SMILES CCCCCCCCCCCCCCCCCCCCCCCC(=O)[O-]
REMARK SMILES IDX 13 1 14 2 15 3 16 4 17 5 18 6 19 7 20 8 21 9 22 10 23 11
REMARK SMILES IDX 24 12 25 13 26 14 12 15 11 16 10 17 9 18 8 19 7 20 6 21 5 22
REMARK SMILES IDX 4 23 3 24 2 25 1 26
REMARK H PARENT
REMARK Flexibility Score: inf
ROOT
ATOM      1  C   UNL     1      40.626  40.848  17.270  1.00  0.00     0.000 C 
ENDROOT
BRANCH   1   2
ATOM      2  C   UNL     1      40.971  40.535  15.806  1.00  0.00     0.000 C 
BRANCH   2   3
ATOM      3  C   UNL     1      41.498  41.762  15.045  1.00  0.00     0.000 C 
BRANCH   3   4
ATOM      4  C   UNL     1      42.999  41.656  14.731  1.00  0.00     0.000 C 
BRANCH   4   5
ATOM      5  C   UNL     1      43.625  40.356  15.269  1.00  0.00     0.000 C 
BRANCH   5   6
ATOM      6  C   UNL     1      44.693  39.777  14.325  1.00  0.00     0.000 C 
BRANCH   6   7
ATOM      7  C   UNL     1      44.789  38.242  14.404  1.00  0.00     0.000 C 
BRANCH   7   8
ATOM      8  C   UNL     1      43.812  37.549  13.441  1.00  0.00     0.000 C 
BRANCH   8   9
ATOM      9  C   UNL     1      42.432  37.304  14.078  1.00  0.00     0.000 C 
BRANCH   9  10
ATOM     10  C   UNL     1      41.320  38.115  13.394  1.00  0.00     0.006 C 
BRANCH  10  11
ATOM     11  C   UNL     1      40.087  37.261  13.066  1.00  0.00     0.053 C 
BRANCH  11  12
ATOM     12  C   UNL     1      39.091  38.060  12.288  1.00  0.00     0.041 C 
ATOM     13  O   UNL     1      38.231  37.480  11.574  1.00  0.00    -0.550 OA
ATOM     14  O   UNL     1      39.134  39.450  12.322  1.00  0.00    -0.550 OA
ENDBRANCH  11  12
ENDBRANCH  10  11
ENDBRANCH   9  10
ENDBRANCH   8   9
ENDBRANCH   7   8
ENDBRANCH   6   7
ENDBRANCH   5   6
ENDBRANCH   4   5
ENDBRANCH   3   4
ENDBRANCH   2   3
ENDBRANCH   1   2
BRANCH   1  15
ATOM     15  C   UNL     1      40.880  42.320  17.641  1.00  0.00     0.000 C 
BRANCH  15  16
ATOM     16  C   UNL     1      42.003  42.472  18.690  1.00  0.00     0.000 C 
BRANCH  16  17
ATOM     17  C   UNL     1      43.268  43.150  18.135  1.00  0.00     0.000 C 
BRANCH  17  18
ATOM     18  C   UNL     1      42.949  44.314  17.181  1.00  0.00    -0.000 C 
BRANCH  18  19
ATOM     19  C   UNL     1      43.967  45.461  17.279  1.00  0.00    -0.000 C 
BRANCH  19  20
ATOM     20  C   UNL     1      44.583  45.821  15.916  1.00  0.00    -0.000 C 
BRANCH  20  21
ATOM     21  C   UNL     1      44.637  47.340  15.664  1.00  0.00    -0.000 C 
BRANCH  21  22
ATOM     22  C   UNL     1      44.065  47.797  14.309  1.00  0.00    -0.000 C 
BRANCH  22  23
ATOM     23  C   UNL     1      42.788  47.034  13.911  1.00  0.00    -0.000 C 
BRANCH  23  24
ATOM     24  C   UNL     1      41.554  47.947  13.842  1.00  0.00    -0.000 C 
BRANCH  24  25
ATOM     25  C   UNL     1      40.461  47.536  14.839  1.00  0.00    -0.003 C 
ATOM     26  C   UNL     1      40.670  46.104  15.323  1.00  0.00     0.004 C 
ENDBRANCH  24  25
ENDBRANCH  23  24
ENDBRANCH  22  23
ENDBRANCH  21  22
ENDBRANCH  20  21
ENDBRANCH  19  20
ENDBRANCH  18  19
ENDBRANCH  17  18
ENDBRANCH  16  17
ENDBRANCH  15  16
ENDBRANCH   1  15
TORSDOF 22
ENDMDL
MODEL 3
REMARK VINA RESULT:    -4.792      2.618      7.968
REMARK INTER + INTRA:         -13.476
REMARK INTER:                 -11.017
REMARK INTRA:                  -2.458
REMARK UNBOUND:                -2.520
REMARK SMILES CCCCCCCCCCCCCCCCCCCCCCCC(=O)[O-]
REMARK SMILES IDX 13 1 14 2 15 3 16 4 17 5 18 6 19 7 20 8 21 9 22 10 23 11
REMARK SMILES IDX 24 12 25 13 26 14 12 15 11 16 10 17 9 18 8 19 7 20 6 21 5 22
REMARK SMILES IDX 4 23 3 24 2 25 1 26
REMARK H PARENT
REMARK Flexibility Score: inf
ROOT
ATOM      1  C   UNL     1      41.165  44.560  16.109  1.00  0.00     0.000 C 
ENDROOT
BRANCH   1   2
ATOM      2  C   UNL     1      41.901  43.217  15.987  1.00  0.00     0.000 C 
BRANCH   2   3
ATOM      3  C   UNL     1      41.057  42.140  15.285  1.00  0.00     0.000 C 
BRANCH   3   4
ATOM      4  C   UNL     1      41.848  40.845  15.040  1.00  0.00     0.000 C 
BRANCH   4   5
ATOM      5  C   UNL     1      43.185  40.815  15.804  1.00  0.00     0.000 C 
BRANCH   5   6
ATOM      6  C   UNL     1      44.337  40.244  14.960  1.00  0.00     0.000 C 
BRANCH   6   7
ATOM      7  C   UNL     1      43.862  39.211  13.922  1.00  0.00     0.000 C 
BRANCH   7   8
ATOM      8  C   UNL     1      43.545  37.850  14.561  1.00  0.00     0.000 C 
BRANCH   8   9
ATOM      9  C   UNL     1      42.423  37.099  13.821  1.00  0.00     0.000 C 
BRANCH   9  10
ATOM     10  C   UNL     1      41.286  38.034  13.379  1.00  0.00     0.006 C 
BRANCH  10  11
ATOM     11  C   UNL     1      39.999  37.272  13.035  1.00  0.00     0.053 C 
BRANCH  11  12
ATOM     12  C   UNL     1      39.084  38.134  12.224  1.00  0.00     0.041 C 
ATOM     13  O   UNL     1      39.186  39.388  12.272  1.00  0.00    -0.550 OA
ATOM     14  O   UNL     1      38.095  37.552  11.439  1.00  0.00    -0.550 OA
ENDBRANCH  11  12
ENDBRANCH  10  11
ENDBRANCH   9  10
ENDBRANCH   8   9
ENDBRANCH   7   8
ENDBRANCH   6   7
ENDBRANCH   5   6
ENDBRANCH   4   5
ENDBRANCH   3   4
ENDBRANCH   2   3
ENDBRANCH   1   2
BRANCH   1  15
ATOM     15  C   UNL     1      42.125  45.755  16.261  1.00  0.00     0.000 C 
BRANCH  15  16
ATOM     16  C   UNL     1      43.493  45.334  16.841  1.00  0.00     0.000 C 
BRANCH  16  17
ATOM     17  C   UNL     1      44.128  46.406  17.744  1.00  0.00     0.000 C 
BRANCH  17  18
ATOM     18  C   UNL     1      44.985  45.804  18.870  1.00  0.00    -0.000 C 
BRANCH  18  19
ATOM     19  C   UNL     1      44.673  46.413  20.247  1.00  0.00    -0.000 C 
BRANCH  19  20
ATOM     20  C   UNL     1      44.583  45.350  21.356  1.00  0.00    -0.000 C 
BRANCH  20  21
ATOM     21  C   UNL     1      44.783  43.916  20.830  1.00  0.00    -0.000 C 
BRANCH  21  22
ATOM     22  C   UNL     1      43.510  43.051  20.797  1.00  0.00    -0.000 C 
BRANCH  22  23
ATOM     23  C   UNL     1      43.135  42.591  19.377  1.00  0.00    -0.000 C 
BRANCH  23  24
ATOM     24  C   UNL     1      41.654  42.200  19.255  1.00  0.00    -0.000 C 
BRANCH  24  25
ATOM     25  C   UNL     1      41.459  40.691  19.050  1.00  0.00    -0.003 C 
ATOM     26  C   UNL     1      42.068  39.898  20.203  1.00  0.00     0.004 C 
ENDBRANCH  24  25
ENDBRANCH  23  24
ENDBRANCH  22  23
ENDBRANCH  21  22
ENDBRANCH  20  21
ENDBRANCH  19  20
ENDBRANCH  18  19
ENDBRANCH  17  18
ENDBRANCH  16  17
ENDBRANCH  15  16
ENDBRANCH   1  15
TORSDOF 22
ENDMDL
MODEL 4
REMARK VINA RESULT:    -4.520      1.256      2.373
REMARK INTER + INTRA:         -12.853
REMARK INTER:                 -10.406
REMARK INTRA:                  -2.446
REMARK UNBOUND:                -2.520
REMARK SMILES CCCCCCCCCCCCCCCCCCCCCCCC(=O)[O-]
REMARK SMILES IDX 13 1 14 2 15 3 16 4 17 5 18 6 19 7 20 8 21 9 22 10 23 11
REMARK SMILES IDX 24 12 25 13 26 14 12 15 11 16 10 17 9 18 8 19 7 20 6 21 5 22
REMARK SMILES IDX 4 23 3 24 2 25 1 26
REMARK H PARENT
REMARK Flexibility Score: inf
ROOT
ATOM      1  C   UNL     1      41.724  45.802  16.275  1.00  0.00     0.000 C 
ENDROOT
BRANCH   1   2
ATOM      2  C   UNL     1      42.029  47.257  16.659  1.00  0.00     0.000 C 
BRANCH   2   3
ATOM      3  C   UNL     1      43.496  47.467  17.072  1.00  0.00     0.000 C 
BRANCH   3   4
ATOM      4  C   UNL     1      43.628  48.032  18.496  1.00  0.00     0.000 C 
BRANCH   4   5
ATOM      5  C   UNL     1      44.922  47.578  19.195  1.00  0.00     0.000 C 
BRANCH   5   6
ATOM      6  C   UNL     1      44.653  46.690  20.422  1.00  0.00     0.000 C 
BRANCH   6   7
ATOM      7  C   UNL     1      44.885  45.194  20.139  1.00  0.00     0.000 C 
BRANCH   7   8
ATOM      8  C   UNL     1      44.289  44.297  21.237  1.00  0.00     0.000 C 
BRANCH   8   9
ATOM      9  C   UNL     1      43.605  43.043  20.665  1.00  0.00     0.000 C 
BRANCH   9  10
ATOM     10  C   UNL     1      43.477  43.093  19.134  1.00  0.00     0.006 C 
BRANCH  10  11
ATOM     11  C   UNL     1      43.141  41.724  18.527  1.00  0.00     0.053 C 
BRANCH  11  12
ATOM     12  C   UNL     1      41.719  41.361  18.814  1.00  0.00     0.041 C 
ATOM     13  O   UNL     1      40.781  42.075  18.372  1.00  0.00    -0.550 OA
ATOM     14  O   UNL     1      41.429  40.251  19.600  1.00  0.00    -0.550 OA
ENDBRANCH  11  12
ENDBRANCH  10  11
ENDBRANCH   9  10
ENDBRANCH   8   9
ENDBRANCH   7   8
ENDBRANCH   6   7
ENDBRANCH   5   6
ENDBRANCH   4   5
ENDBRANCH   3   4
ENDBRANCH   2   3
ENDBRANCH   1   2
BRANCH   1  15
ATOM     15  C   UNL     1      42.996  44.959  16.069  1.00  0.00     0.000 C 
BRANCH  15  16
ATOM     16  C   UNL     1      43.383  44.844  14.578  1.00  0.00     0.000 C 
BRANCH  16  17
ATOM     17  C   UNL     1      43.331  43.401  14.045  1.00  0.00     0.000 C 
BRANCH  17  18
ATOM     18  C   UNL     1      42.200  42.573  14.678  1.00  0.00    -0.000 C 
BRANCH  18  19
ATOM     19  C   UNL     1      42.683  41.215  15.213  1.00  0.00    -0.000 C 
BRANCH  19  20
ATOM     20  C   UNL     1      44.020  40.778  14.590  1.00  0.00    -0.000 C 
BRANCH  20  21
ATOM     21  C   UNL     1      44.157  39.249  14.472  1.00  0.00    -0.000 C 
BRANCH  21  22
ATOM     22  C   UNL     1      42.870  38.455  14.764  1.00  0.00    -0.000 C 
BRANCH  22  23
ATOM     23  C   UNL     1      42.623  37.321  13.752  1.00  0.00    -0.000 C 
BRANCH  23  24
ATOM     24  C   UNL     1      41.140  37.175  13.382  1.00  0.00    -0.000 C 
BRANCH  24  25
ATOM     25  C   UNL     1      40.349  38.475  13.590  1.00  0.00    -0.003 C 
ATOM     26  C   UNL     1      39.435  38.757  12.402  1.00  0.00     0.004 C 
ENDBRANCH  24  25
ENDBRANCH  23  24
ENDBRANCH  22  23
ENDBRANCH  21  22
ENDBRANCH  20  21
ENDBRANCH  19  20
ENDBRANCH  18  19
ENDBRANCH  17  18
ENDBRANCH  16  17
ENDBRANCH  15  16
ENDBRANCH   1  15
TORSDOF 22
ENDMDL
MODEL 5
REMARK VINA RESULT:    -4.472      2.600      8.222
REMARK INTER + INTRA:         -12.743
REMARK INTER:                 -10.174
REMARK INTRA:                  -2.569
REMARK UNBOUND:                -2.520
REMARK SMILES CCCCCCCCCCCCCCCCCCCCCCCC(=O)[O-]
REMARK SMILES IDX 13 1 14 2 15 3 16 4 17 5 18 6 19 7 20 8 21 9 22 10 23 11
REMARK SMILES IDX 24 12 25 13 26 14 12 15 11 16 10 17 9 18 8 19 7 20 6 21 5 22
REMARK SMILES IDX 4 23 3 24 2 25 1 26
REMARK H PARENT
REMARK Flexibility Score: inf
ROOT
ATOM      1  C   UNL     1      40.753  42.418  16.654  1.00  0.00     0.000 C 
ENDROOT
BRANCH   1   2
ATOM      2  C   UNL     1      41.043  41.572  15.405  1.00  0.00     0.000 C 
BRANCH   2   3
ATOM      3  C   UNL     1      42.136  40.516  15.644  1.00  0.00     0.000 C 
BRANCH   3   4
ATOM      4  C   UNL     1      43.392  40.773  14.797  1.00  0.00     0.000 C 
BRANCH   4   5
ATOM      5  C   UNL     1      44.463  39.683  14.982  1.00  0.00     0.000 C 
BRANCH   5   6
ATOM      6  C   UNL     1      45.104  39.248  13.653  1.00  0.00     0.000 C 
BRANCH   6   7
ATOM      7  C   UNL     1      44.569  37.896  13.146  1.00  0.00     0.000 C 
BRANCH   7   8
ATOM      8  C   UNL     1      43.546  37.278  14.112  1.00  0.00     0.000 C 
BRANCH   8   9
ATOM      9  C   UNL     1      42.300  36.741  13.387  1.00  0.00     0.000 C 
BRANCH   9  10
ATOM     10  C   UNL     1      41.045  37.580  13.679  1.00  0.00     0.006 C 
BRANCH  10  11
ATOM     11  C   UNL     1      39.785  37.001  13.022  1.00  0.00     0.053 C 
BRANCH  11  12
ATOM     12  C   UNL     1      39.101  38.044  12.197  1.00  0.00     0.041 C 
ATOM     13  O   UNL     1      39.417  39.257  12.319  1.00  0.00    -0.550 OA
ATOM     14  O   UNL     1      38.090  37.681  11.315  1.00  0.00    -0.550 OA
ENDBRANCH  11  12
ENDBRANCH  10  11
ENDBRANCH   9  10
ENDBRANCH   8   9
ENDBRANCH   7   8
ENDBRANCH   6   7
ENDBRANCH   5   6
ENDBRANCH   4   5
ENDBRANCH   3   4
ENDBRANCH   2   3
ENDBRANCH   1   2
BRANCH   1  15
ATOM     15  C   UNL     1      40.945  43.927  16.411  1.00  0.00     0.000 C 
BRANCH  15  16
ATOM     16  C   UNL     1      42.139  44.220  15.477  1.00  0.00     0.000 C 
BRANCH  16  17
ATOM     17  C   UNL     1      43.427  44.591  16.234  1.00  0.00     0.000 C 
BRANCH  17  18
ATOM     18  C   UNL     1      43.260  45.839  17.117  1.00  0.00    -0.000 C 
BRANCH  18  19
ATOM     19  C   UNL     1      44.595  46.357  17.675  1.00  0.00    -0.000 C 
BRANCH  19  20
ATOM     20  C   UNL     1      44.740  46.105  19.186  1.00  0.00    -0.000 C 
BRANCH  20  21
ATOM     21  C   UNL     1      44.668  44.611  19.555  1.00  0.00    -0.000 C 
BRANCH  21  22
ATOM     22  C   UNL     1      44.430  44.318  21.047  1.00  0.00    -0.000 C 
BRANCH  22  23
ATOM     23  C   UNL     1      43.302  43.298  21.285  1.00  0.00    -0.000 C 
BRANCH  23  24
ATOM     24  C   UNL     1      42.847  42.610  19.989  1.00  0.00    -0.000 C 
BRANCH  24  25
ATOM     25  C   UNL     1      41.773  41.540  20.235  1.00  0.00    -0.003 C 
ATOM     26  C   UNL     1      42.035  40.296  19.392  1.00  0.00     0.004 C 
ENDBRANCH  24  25
ENDBRANCH  23  24
ENDBRANCH  22  23
ENDBRANCH  21  22
ENDBRANCH  20  21
ENDBRANCH  19  20
ENDBRANCH  18  19
ENDBRANCH  17  18
ENDBRANCH  16  17
ENDBRANCH  15  16
ENDBRANCH   1  15
TORSDOF 22
ENDMDL
MODEL 6
REMARK VINA RESULT:    -4.459      2.746      6.531
REMARK INTER + INTRA:         -12.715
REMARK INTER:                  -9.909
REMARK INTRA:                  -2.806
REMARK UNBOUND:                -2.520
REMARK SMILES CCCCCCCCCCCCCCCCCCCCCCCC(=O)[O-]
REMARK SMILES IDX 13 1 14 2 15 3 16 4 17 5 18 6 19 7 20 8 21 9 22 10 23 11
REMARK SMILES IDX 24 12 25 13 26 14 12 15 11 16 10 17 9 18 8 19 7 20 6 21 5 22
REMARK SMILES IDX 4 23 3 24 2 25 1 26
REMARK H PARENT
REMARK Flexibility Score: inf
ROOT
ATOM      1  C   UNL     1      43.629  37.851  14.618  1.00  0.00     0.000 C 
ENDROOT
BRANCH   1   2
ATOM      2  C   UNL     1      44.903  38.521  14.082  1.00  0.00     0.000 C 
BRANCH   2   3
ATOM      3  C   UNL     1      45.039  39.985  14.534  1.00  0.00     0.000 C 
BRANCH   3   4
ATOM      4  C   UNL     1      43.691  40.725  14.535  1.00  0.00     0.000 C 
BRANCH   4   5
ATOM      5  C   UNL     1      43.810  42.171  15.050  1.00  0.00     0.000 C 
BRANCH   5   6
ATOM      6  C   UNL     1      43.687  43.213  13.926  1.00  0.00     0.000 C 
BRANCH   6   7
ATOM      7  C   UNL     1      42.899  44.464  14.355  1.00  0.00     0.000 C 
BRANCH   7   8
ATOM      8  C   UNL     1      42.341  44.337  15.782  1.00  0.00     0.000 C 
BRANCH   8   9
ATOM      9  C   UNL     1      42.818  45.472  16.704  1.00  0.00     0.000 C 
BRANCH   9  10
ATOM     10  C   UNL     1      42.580  46.862  16.093  1.00  0.00     0.006 C 
BRANCH  10  11
ATOM     11  C   UNL     1      41.106  47.286  16.151  1.00  0.00     0.053 C 
BRANCH  11  12
ATOM     12  C   UNL     1      40.536  47.382  14.772  1.00  0.00     0.041 C 
ATOM     13  O   UNL     1      39.307  47.186  14.579  1.00  0.00    -0.550 OA
ATOM     14  O   UNL     1      41.368  47.656  13.693  1.00  0.00    -0.550 OA
ENDBRANCH  11  12
ENDBRANCH  10  11
ENDBRANCH   9  10
ENDBRANCH   8   9
ENDBRANCH   7   8
ENDBRANCH   6   7
ENDBRANCH   5   6
ENDBRANCH   4   5
ENDBRANCH   3   4
ENDBRANCH   2   3
ENDBRANCH   1   2
BRANCH   1  15
ATOM     15  C   UNL     1      42.757  37.248  13.502  1.00  0.00     0.000 C 
BRANCH  15  16
ATOM     16  C   UNL     1      41.284  37.088  13.937  1.00  0.00     0.000 C 
BRANCH  16  17
ATOM     17  C   UNL     1      40.316  37.992  13.153  1.00  0.00     0.000 C 
BRANCH  17  18
ATOM     18  C   UNL     1      40.419  39.471  13.563  1.00  0.00    -0.000 C 
BRANCH  18  19
ATOM     19  C   UNL     1      40.552  39.659  15.083  1.00  0.00    -0.000 C 
BRANCH  19  20
ATOM     20  C   UNL     1      40.485  41.138  15.502  1.00  0.00    -0.000 C 
BRANCH  20  21
ATOM     21  C   UNL     1      40.610  41.337  17.024  1.00  0.00    -0.000 C 
BRANCH  21  22
ATOM     22  C   UNL     1      41.763  40.564  17.691  1.00  0.00    -0.000 C 
BRANCH  22  23
ATOM     23  C   UNL     1      41.662  40.545  19.227  1.00  0.00    -0.000 C 
BRANCH  23  24
ATOM     24  C   UNL     1      41.936  41.920  19.852  1.00  0.00    -0.000 C 
BRANCH  24  25
ATOM     25  C   UNL     1      43.152  42.620  19.229  1.00  0.00    -0.003 C 
ATOM     26  C   UNL     1      43.955  43.371  20.287  1.00  0.00     0.004 C 
ENDBRANCH  24  25
ENDBRANCH  23  24
ENDBRANCH  22  23
ENDBRANCH  21  22
ENDBRANCH  20  21
ENDBRANCH  19  20
ENDBRANCH  18  19
ENDBRANCH  17  18
ENDBRANCH  16  17
ENDBRANCH  15  16
ENDBRANCH   1  15
TORSDOF 22
ENDMDL
MODEL 7
REMARK VINA RESULT:    -4.358     12.769     16.433
REMARK INTER + INTRA:         -12.482
REMARK INTER:                 -10.556
REMARK INTRA:                  -1.926
REMARK UNBOUND:                -2.520
REMARK SMILES CCCCCCCCCCCCCCCCCCCCCCCC(=O)[O-]
REMARK SMILES IDX 13 1 14 2 15 3 16 4 17 5 18 6 19 7 20 8 21 9 22 10 23 11
REMARK SMILES IDX 24 12 25 13 26 14 12 15 11 16 10 17 9 18 8 19 7 20 6 21 5 22
REMARK SMILES IDX 4 23 3 24 2 25 1 26
REMARK H PARENT
REMARK Flexibility Score: inf
ROOT
ATOM      1  C   UNL     1      35.685  31.859  14.254  1.00  0.00     0.000 C 
ENDROOT
BRANCH   1   2
ATOM      2  C   UNL     1      35.171  30.412  14.292  1.00  0.00     0.000 C 
BRANCH   2   3
ATOM      3  C   UNL     1      34.211  30.092  13.134  1.00  0.00     0.000 C 
BRANCH   3   4
ATOM      4  C   UNL     1      33.709  31.360  12.424  1.00  0.00     0.000 C 
BRANCH   4   5
ATOM      5  C   UNL     1      32.723  31.048  11.283  1.00  0.00     0.000 C 
BRANCH   5   6
ATOM      6  C   UNL     1      31.699  29.964  11.664  1.00  0.00     0.000 C 
BRANCH   6   7
ATOM      7  C   UNL     1      30.587  29.798  10.613  1.00  0.00     0.000 C 
BRANCH   7   8
ATOM      8  C   UNL     1      29.276  29.284  11.231  1.00  0.00     0.000 C 
BRANCH   8   9
ATOM      9  C   UNL     1      29.222  29.491  12.755  1.00  0.00     0.000 C 
BRANCH   9  10
ATOM     10  C   UNL     1      27.932  30.197  13.203  1.00  0.00     0.006 C 
BRANCH  10  11
ATOM     11  C   UNL     1      28.164  31.669  13.569  1.00  0.00     0.053 C 
BRANCH  11  12
ATOM     12  C   UNL     1      27.376  32.562  12.663  1.00  0.00     0.041 C 
ATOM     13  O   UNL     1      26.452  33.281  13.128  1.00  0.00    -0.550 OA
ATOM     14  O   UNL     1      27.640  32.576  11.298  1.00  0.00    -0.550 OA
ENDBRANCH  11  12
ENDBRANCH  10  11
ENDBRANCH   9  10
ENDBRANCH   8   9
ENDBRANCH   7   8
ENDBRANCH   6   7
ENDBRANCH   5   6
ENDBRANCH   4   5
ENDBRANCH   3   4
ENDBRANCH   2   3
ENDBRANCH   1   2
BRANCH   1  15
ATOM     15  C   UNL     1      37.222  31.948  14.310  1.00  0.00     0.000 C 
BRANCH  15  16
ATOM     16  C   UNL     1      37.901  30.831  13.487  1.00  0.00     0.000 C 
BRANCH  16  17
ATOM     17  C   UNL     1      38.936  30.025  14.293  1.00  0.00     0.000 C 
BRANCH  17  18
ATOM     18  C   UNL     1      39.064  28.571  13.809  1.00  0.00    -0.000 C 
BRANCH  18  19
ATOM     19  C   UNL     1      40.526  28.106  13.705  1.00  0.00    -0.000 C 
BRANCH  19  20
ATOM     20  C   UNL     1      41.303  28.844  12.601  1.00  0.00    -0.000 C 
BRANCH  20  21
ATOM     21  C   UNL     1      42.621  29.461  13.105  1.00  0.00    -0.000 C 
BRANCH  21  22
ATOM     22  C   UNL     1      42.880  29.305  14.614  1.00  0.00    -0.000 C 
BRANCH  22  23
ATOM     23  C   UNL     1      42.400  30.517  15.433  1.00  0.00    -0.000 C 
BRANCH  23  24
ATOM     24  C   UNL     1      41.821  30.115  16.798  1.00  0.00    -0.000 C 
BRANCH  24  25
ATOM     25  C   UNL     1      42.905  29.961  17.875  1.00  0.00    -0.003 C 
ATOM     26  C   UNL     1      42.784  28.617  18.587  1.00  0.00     0.004 C 
ENDBRANCH  24  25
ENDBRANCH  23  24
ENDBRANCH  22  23
ENDBRANCH  21  22
ENDBRANCH  20  21
ENDBRANCH  19  20
ENDBRANCH  18  19
ENDBRANCH  17  18
ENDBRANCH  16  17
ENDBRANCH  15  16
ENDBRANCH   1  15
TORSDOF 22
ENDMDL
MODEL 8
REMARK VINA RESULT:    -4.326      2.280      7.827
REMARK INTER + INTRA:         -12.410
REMARK INTER:                 -10.216
REMARK INTRA:                  -2.194
REMARK UNBOUND:                -2.520
REMARK SMILES CCCCCCCCCCCCCCCCCCCCCCCC(=O)[O-]
REMARK SMILES IDX 13 1 14 2 15 3 16 4 17 5 18 6 19 7 20 8 21 9 22 10 23 11
REMARK SMILES IDX 24 12 25 13 26 14 12 15 11 16 10 17 9 18 8 19 7 20 6 21 5 22
REMARK SMILES IDX 4 23 3 24 2 25 1 26
REMARK H PARENT
REMARK Flexibility Score: inf
ROOT
ATOM      1  C   UNL     1      40.995  38.768  13.228  1.00  0.00     0.000 C 
ENDROOT
BRANCH   1   2
ATOM      2  C   UNL     1      41.185  37.269  13.503  1.00  0.00     0.000 C 
BRANCH   2   3
ATOM      3  C   UNL     1      42.634  36.913  13.878  1.00  0.00     0.000 C 
BRANCH   3   4
ATOM      4  C   UNL     1      43.627  38.021  13.489  1.00  0.00     0.000 C 
BRANCH   4   5
ATOM      5  C   UNL     1      44.140  38.809  14.708  1.00  0.00     0.000 C 
BRANCH   5   6
ATOM      6  C   UNL     1      44.529  40.255  14.358  1.00  0.00     0.000 C 
BRANCH   6   7
ATOM      7  C   UNL     1      43.561  41.294  14.951  1.00  0.00     0.000 C 
BRANCH   7   8
ATOM      8  C   UNL     1      43.663  42.654  14.242  1.00  0.00     0.000 C 
BRANCH   8   9
ATOM      9  C   UNL     1      42.750  43.719  14.875  1.00  0.00     0.000 C 
BRANCH   9  10
ATOM     10  C   UNL     1      43.181  44.084  16.305  1.00  0.00     0.006 C 
BRANCH  10  11
ATOM     11  C   UNL     1      43.916  45.430  16.371  1.00  0.00     0.053 C 
BRANCH  11  12
ATOM     12  C   UNL     1      42.977  46.552  16.065  1.00  0.00     0.041 C 
ATOM     13  O   UNL     1      41.825  46.572  16.573  1.00  0.00    -0.550 OA
ATOM     14  O   UNL     1      43.361  47.562  15.190  1.00  0.00    -0.550 OA
ENDBRANCH  11  12
ENDBRANCH  10  11
ENDBRANCH   9  10
ENDBRANCH   8   9
ENDBRANCH   7   8
ENDBRANCH   6   7
ENDBRANCH   5   6
ENDBRANCH   4   5
ENDBRANCH   3   4
ENDBRANCH   2   3
ENDBRANCH   1   2
BRANCH   1  15
ATOM     15  C   UNL     1      40.017  39.436  14.212  1.00  0.00     0.000 C 
BRANCH  15  16
ATOM     16  C   UNL     1      40.705  40.516  15.075  1.00  0.00     0.000 C 
BRANCH  16  17
ATOM     17  C   UNL     1      40.471  40.331  16.585  1.00  0.00     0.000 C 
BRANCH  17  18
ATOM     18  C   UNL     1      40.927  41.545  17.411  1.00  0.00    -0.000 C 
BRANCH  18  19
ATOM     19  C   UNL     1      42.154  41.241  18.287  1.00  0.00    -0.000 C 
BRANCH  19  20
ATOM     20  C   UNL     1      41.800  41.134  19.780  1.00  0.00    -0.000 C 
BRANCH  20  21
ATOM     21  C   UNL     1      42.315  42.327  20.607  1.00  0.00    -0.000 C 
BRANCH  21  22
ATOM     22  C   UNL     1      43.536  43.054  20.013  1.00  0.00    -0.000 C 
BRANCH  22  23
ATOM     23  C   UNL     1      44.575  43.448  21.079  1.00  0.00    -0.000 C 
BRANCH  23  24
ATOM     24  C   UNL     1      44.682  44.969  21.262  1.00  0.00    -0.000 C 
BRANCH  24  25
ATOM     25  C   UNL     1      43.754  45.496  22.367  1.00  0.00    -0.003 C 
ATOM     26  C   UNL     1      44.530  46.332  23.381  1.00  0.00     0.004 C 
ENDBRANCH  24  25
ENDBRANCH  23  24
ENDBRANCH  22  23
ENDBRANCH  21  22
ENDBRANCH  20  21
ENDBRANCH  19  20
ENDBRANCH  18  19
ENDBRANCH  17  18
ENDBRANCH  16  17
ENDBRANCH  15  16
ENDBRANCH   1  15
TORSDOF 22
ENDMDL
MODEL 9
REMARK VINA RESULT:    -4.252     12.953     16.528
REMARK INTER + INTRA:         -12.240
REMARK INTER:                 -10.420
REMARK INTRA:                  -1.820
REMARK UNBOUND:                -2.520
REMARK SMILES CCCCCCCCCCCCCCCCCCCCCCCC(=O)[O-]
REMARK SMILES IDX 13 1 14 2 15 3 16 4 17 5 18 6 19 7 20 8 21 9 22 10 23 11
REMARK SMILES IDX 24 12 25 13 26 14 12 15 11 16 10 17 9 18 8 19 7 20 6 21 5 22
REMARK SMILES IDX 4 23 3 24 2 25 1 26
REMARK H PARENT
REMARK Flexibility Score: inf
ROOT
ATOM      1  C   UNL     1      36.346  30.148  15.105  1.00  0.00     0.000 C 
ENDROOT
BRANCH   1   2
ATOM      2  C   UNL     1      35.281  30.258  14.003  1.00  0.00     0.000 C 
BRANCH   2   3
ATOM      3  C   UNL     1      35.083  31.702  13.511  1.00  0.00     0.000 C 
BRANCH   3   4
ATOM      4  C   UNL     1      33.890  31.833  12.550  1.00  0.00     0.000 C 
BRANCH   4   5
ATOM      5  C   UNL     1      33.122  30.511  12.377  1.00  0.00     0.000 C 
BRANCH   5   6
ATOM      6  C   UNL     1      32.167  30.533  11.170  1.00  0.00     0.000 C 
BRANCH   6   7
ATOM      7  C   UNL     1      31.078  29.447  11.251  1.00  0.00     0.000 C 
BRANCH   7   8
ATOM      8  C   UNL     1      29.661  30.042  11.216  1.00  0.00     0.000 C 
BRANCH   8   9
ATOM      9  C   UNL     1      28.894  29.663   9.937  1.00  0.00     0.000 C 
BRANCH   9  10
ATOM     10  C   UNL     1      28.735  30.852   8.976  1.00  0.00     0.006 C 
BRANCH  10  11
ATOM     11  C   UNL     1      30.053  31.234   8.290  1.00  0.00     0.053 C 
BRANCH  11  12
ATOM     12  C   UNL     1      30.313  32.699   8.439  1.00  0.00     0.041 C 
ATOM     13  O   UNL     1      31.488  33.146   8.361  1.00  0.00    -0.550 OA
ATOM     14  O   UNL     1      29.261  33.570   8.698  1.00  0.00    -0.550 OA
ENDBRANCH  11  12
ENDBRANCH  10  11
ENDBRANCH   9  10
ENDBRANCH   8   9
ENDBRANCH   7   8
ENDBRANCH   6   7
ENDBRANCH   5   6
ENDBRANCH   4   5
ENDBRANCH   3   4
ENDBRANCH   2   3
ENDBRANCH   1   2
BRANCH   1  15
ATOM     15  C   UNL     1      37.484  31.172  14.939  1.00  0.00     0.000 C 
BRANCH  15  16
ATOM     16  C   UNL     1      38.868  30.494  14.838  1.00  0.00     0.000 C 
BRANCH  16  17
ATOM     17  C   UNL     1      39.057  29.686  13.541  1.00  0.00     0.000 C 
BRANCH  17  18
ATOM     18  C   UNL     1      39.520  28.243  13.801  1.00  0.00    -0.000 C 
BRANCH  18  19
ATOM     19  C   UNL     1      40.791  27.875  13.019  1.00  0.00    -0.000 C 
BRANCH  19  20
ATOM     20  C   UNL     1      41.690  29.094  12.747  1.00  0.00    -0.000 C 
BRANCH  20  21
ATOM     21  C   UNL     1      42.839  29.232  13.763  1.00  0.00    -0.000 C 
BRANCH  21  22
ATOM     22  C   UNL     1      42.529  30.120  14.982  1.00  0.00    -0.000 C 
BRANCH  22  23
ATOM     23  C   UNL     1      42.215  29.307  16.251  1.00  0.00    -0.000 C 
BRANCH  23  24
ATOM     24  C   UNL     1      42.658  30.025  17.535  1.00  0.00    -0.000 C 
BRANCH  24  25
ATOM     25  C   UNL     1      42.999  29.047  18.668  1.00  0.00    -0.003 C 
ATOM     26  C   UNL     1      44.048  29.639  19.605  1.00  0.00     0.004 C 
ENDBRANCH  24  25
ENDBRANCH  23  24
ENDBRANCH  22  23
ENDBRANCH  21  22
ENDBRANCH  20  21
ENDBRANCH  19  20
ENDBRANCH  18  19
ENDBRANCH  17  18
ENDBRANCH  16  17
ENDBRANCH  15  16
ENDBRANCH   1  15
TORSDOF 22
ENDMDL
