MODEL 1
REMARK VINA RESULT:    -4.474      0.000      0.000
REMARK INTER + INTRA:          -5.568
REMARK INTER:                  -5.259
REMARK INTRA:                  -0.309
REMARK UNBOUND:                -0.309
REMARK SMILES O=c1cc(-c2ccc(O)c(O)c2)oc2cc(O)cc(O)c12
REMARK SMILES IDX 4 1 3 2 2 3 1 4 21 5 19 6 18 7 16 8 15 9 14 10 13 11 5 12
REMARK SMILES IDX 6 13 7 14 8 15 12 16 10 17 9 18 11 20 20 22 17 24
REMARK H PARENT 9 19 11 21 20 23 17 25
REMARK Flexibility Score: inf
ROOT
ATOM      1  C   UNL     1     -13.692  30.400  11.435  1.00  0.00     0.138 A 
ATOM      2  C   UNL     1     -12.689  29.527  11.880  1.00  0.00     0.100 A 
ATOM      3  C   UNL     1     -12.817  28.904  13.122  1.00  0.00     0.197 A 
ATOM      4  O   UNL     1     -11.875  28.170  13.518  1.00  0.00    -0.289 OA
ATOM      5  C   UNL     1     -13.974  29.129  13.906  1.00  0.00     0.107 A 
ATOM      6  C   UNL     1     -14.230  28.522  15.172  1.00  0.00     0.134 A 
ATOM      7  C   UNL     1     -15.366  28.898  15.901  1.00  0.00     0.093 A 
ATOM      8  C   UNL     1     -16.284  29.815  15.384  1.00  0.00     0.123 A 
ATOM      9  C   UNL     1     -16.069  30.375  14.127  1.00  0.00     0.094 A 
ATOM     10  C   UNL     1     -14.928  30.047  13.390  1.00  0.00     0.146 A 
ATOM     11  O   UNL     1     -14.753  30.619  12.203  1.00  0.00    -0.456 OA
ENDROOT
BRANCH   1  12
ATOM     12  C   UNL     1     -13.608  31.087  10.121  1.00  0.00     0.021 A 
ATOM     13  C   UNL     1     -12.349  31.307   9.537  1.00  0.00     0.016 A 
ATOM     14  C   UNL     1     -12.242  31.945   8.299  1.00  0.00     0.051 A 
ATOM     15  C   UNL     1     -13.386  32.365   7.618  1.00  0.00     0.157 A 
ATOM     16  C   UNL     1     -14.761  31.500   9.425  1.00  0.00     0.062 A 
ATOM     17  C   UNL     1     -14.654  32.139   8.181  1.00  0.00     0.158 A 
BRANCH  15  18
ATOM     18  O   UNL     1     -13.248  33.000   6.384  1.00  0.00    -0.504 OA
ATOM     19  H   UNL     1     -13.095  33.998   6.308  1.00  0.00     0.293 HD
ENDBRANCH  15  18
BRANCH  17  20
ATOM     20  O   UNL     1     -15.801  32.545   7.500  1.00  0.00    -0.504 OA
ATOM     21  H   UNL     1     -15.936  32.341   6.517  1.00  0.00     0.293 HD
ENDBRANCH  17  20
ENDBRANCH   1  12
BRANCH   6  22
ATOM     22  O   UNL     1     -13.422  27.536  15.748  1.00  0.00    -0.507 OA
ATOM     23  H   UNL     1     -12.647  27.712  16.367  1.00  0.00     0.293 HD
ENDBRANCH   6  22
BRANCH   8  24
ATOM     24  O   UNL     1     -17.419  30.172  16.110  1.00  0.00    -0.508 OA
ATOM     25  H   UNL     1     -18.349  30.064  15.724  1.00  0.00     0.293 HD
ENDBRANCH   8  24
TORSDOF 5
ENDMDL
MODEL 2
REMARK VINA RESULT:    -4.244      4.995      7.429
REMARK INTER + INTRA:          -5.297
REMARK INTER:                  -4.979
REMARK INTRA:                  -0.318
REMARK UNBOUND:                -0.309
REMARK SMILES O=c1cc(-c2ccc(O)c(O)c2)oc2cc(O)cc(O)c12
REMARK SMILES IDX 4 1 3 2 2 3 1 4 21 5 19 6 18 7 16 8 15 9 14 10 13 11 5 12
REMARK SMILES IDX 6 13 7 14 8 15 12 16 10 17 9 18 11 20 20 22 17 24
REMARK H PARENT 9 19 11 21 20 23 17 25
REMARK Flexibility Score: inf
ROOT
ATOM      1  C   UNL     1     -16.931  29.417  15.711  1.00  0.00     0.138 A 
ATOM      2  C   UNL     1     -16.247  30.639  15.745  1.00  0.00     0.100 A 
ATOM      3  C   UNL     1     -14.856  30.655  15.635  1.00  0.00     0.197 A 
ATOM      4  O   UNL     1     -14.266  31.762  15.725  1.00  0.00    -0.289 OA
ATOM      5  C   UNL     1     -14.151  29.441  15.452  1.00  0.00     0.107 A 
ATOM      6  C   UNL     1     -12.736  29.338  15.292  1.00  0.00     0.134 A 
ATOM      7  C   UNL     1     -12.141  28.071  15.217  1.00  0.00     0.093 A 
ATOM      8  C   UNL     1     -12.914  26.909  15.237  1.00  0.00     0.123 A 
ATOM      9  C   UNL     1     -14.300  27.002  15.342  1.00  0.00     0.094 A 
ATOM     10  C   UNL     1     -14.921  28.248  15.454  1.00  0.00     0.146 A 
ATOM     11  O   UNL     1     -16.244  28.289  15.570  1.00  0.00    -0.456 OA
ENDROOT
BRANCH   1  12
ATOM     12  C   UNL     1     -18.411  29.342  15.821  1.00  0.00     0.021 A 
ATOM     13  C   UNL     1     -19.151  30.526  15.974  1.00  0.00     0.016 A 
ATOM     14  C   UNL     1     -20.544  30.486  16.073  1.00  0.00     0.051 A 
ATOM     15  C   UNL     1     -21.222  29.267  16.013  1.00  0.00     0.157 A 
ATOM     16  C   UNL     1     -19.100  28.115  15.748  1.00  0.00     0.062 A 
ATOM     17  C   UNL     1     -20.498  28.074  15.846  1.00  0.00     0.158 A 
BRANCH  15  18
ATOM     18  O   UNL     1     -22.613  29.257  16.116  1.00  0.00    -0.504 OA
ATOM     19  H   UNL     1     -23.146  30.103  16.279  1.00  0.00     0.293 HD
ENDBRANCH  15  18
BRANCH  17  20
ATOM     20  O   UNL     1     -21.170  26.854  15.773  1.00  0.00    -0.504 OA
ATOM     21  H   UNL     1     -21.410  26.433  14.884  1.00  0.00     0.293 HD
ENDBRANCH  17  20
ENDBRANCH   1  12
BRANCH   6  22
ATOM     22  O   UNL     1     -11.877  30.435  15.180  1.00  0.00    -0.507 OA
ATOM     23  H   UNL     1     -12.116  31.317  14.755  1.00  0.00     0.293 HD
ENDBRANCH   6  22
BRANCH   8  24
ATOM     24  O   UNL     1     -12.314  25.654  15.146  1.00  0.00    -0.508 OA
ATOM     25  H   UNL     1     -12.647  24.867  15.690  1.00  0.00     0.293 HD
ENDBRANCH   8  24
TORSDOF 5
ENDMDL
MODEL 3
REMARK VINA RESULT:    -4.180      5.101      8.993
REMARK INTER + INTRA:          -5.222
REMARK INTER:                  -4.925
REMARK INTRA:                  -0.297
REMARK UNBOUND:                -0.309
REMARK SMILES O=c1cc(-c2ccc(O)c(O)c2)oc2cc(O)cc(O)c12
REMARK SMILES IDX 4 1 3 2 2 3 1 4 21 5 19 6 18 7 16 8 15 9 14 10 13 11 5 12
REMARK SMILES IDX 6 13 7 14 8 15 12 16 10 17 9 18 11 20 20 22 17 24
REMARK H PARENT 9 19 11 21 20 23 17 25
REMARK Flexibility Score: inf
ROOT
ATOM      1  C   UNL     1     -18.652  27.128  15.852  1.00  0.00     0.138 A 
ATOM      2  C   UNL     1     -19.082  28.462  15.824  1.00  0.00     0.100 A 
ATOM      3  C   UNL     1     -18.140  29.490  15.762  1.00  0.00     0.197 A 
ATOM      4  O   UNL     1     -18.554  30.677  15.794  1.00  0.00    -0.289 OA
ATOM      5  C   UNL     1     -16.761  29.178  15.693  1.00  0.00     0.107 A 
ATOM      6  C   UNL     1     -15.712  30.141  15.592  1.00  0.00     0.134 A 
ATOM      7  C   UNL     1     -14.378  29.714  15.630  1.00  0.00     0.093 A 
ATOM      8  C   UNL     1     -14.056  28.357  15.706  1.00  0.00     0.123 A 
ATOM      9  C   UNL     1     -15.073  27.407  15.754  1.00  0.00     0.094 A 
ATOM     10  C   UNL     1     -16.413  27.802  15.753  1.00  0.00     0.146 A 
ATOM     11  O   UNL     1     -17.351  26.862  15.818  1.00  0.00    -0.456 OA
ENDROOT
BRANCH   1  12
ATOM     12  C   UNL     1     -19.611  25.996  15.915  1.00  0.00     0.021 A 
ATOM     13  C   UNL     1     -19.123  24.679  15.937  1.00  0.00     0.016 A 
ATOM     14  C   UNL     1     -20.002  23.596  16.002  1.00  0.00     0.051 A 
ATOM     15  C   UNL     1     -21.382  23.807  16.057  1.00  0.00     0.157 A 
ATOM     16  C   UNL     1     -21.003  26.205  15.983  1.00  0.00     0.062 A 
ATOM     17  C   UNL     1     -21.886  25.118  16.051  1.00  0.00     0.158 A 
BRANCH  15  18
ATOM     18  O   UNL     1     -22.235  22.706  16.120  1.00  0.00    -0.504 OA
ATOM     19  H   UNL     1     -23.176  22.733  15.746  1.00  0.00     0.293 HD
ENDBRANCH  15  18
BRANCH  17  20
ATOM     20  O   UNL     1     -23.262  25.336  16.116  1.00  0.00    -0.504 OA
ATOM     21  H   UNL     1     -23.647  26.268  16.215  1.00  0.00     0.293 HD
ENDBRANCH  17  20
ENDBRANCH   1  12
BRANCH   6  22
ATOM     22  O   UNL     1     -15.921  31.514  15.432  1.00  0.00    -0.507 OA
ATOM     23  H   UNL     1     -16.660  31.928  14.887  1.00  0.00     0.293 HD
ENDBRANCH   6  22
BRANCH   8  24
ATOM     24  O   UNL     1     -12.726  27.942  15.727  1.00  0.00    -0.508 OA
ATOM     25  H   UNL     1     -11.963  28.607  15.684  1.00  0.00     0.293 HD
ENDBRANCH   8  24
TORSDOF 5
ENDMDL
MODEL 4
REMARK VINA RESULT:    -4.050      1.273      2.723
REMARK INTER + INTRA:          -5.069
REMARK INTER:                  -4.783
REMARK INTRA:                  -0.286
REMARK UNBOUND:                -0.309
REMARK SMILES O=c1cc(-c2ccc(O)c(O)c2)oc2cc(O)cc(O)c12
REMARK SMILES IDX 4 1 3 2 2 3 1 4 21 5 19 6 18 7 16 8 15 9 14 10 13 11 5 12
REMARK SMILES IDX 6 13 7 14 8 15 12 16 10 17 9 18 11 20 20 22 17 24
REMARK H PARENT 9 19 11 21 20 23 17 25
REMARK Flexibility Score: inf
ROOT
ATOM      1  C   UNL     1     -13.969  30.312  11.544  1.00  0.00     0.138 A 
ATOM      2  C   UNL     1     -15.097  30.692  12.284  1.00  0.00     0.100 A 
ATOM      3  C   UNL     1     -15.390  30.038  13.481  1.00  0.00     0.197 A 
ATOM      4  O   UNL     1     -16.439  30.365  14.094  1.00  0.00    -0.289 OA
ATOM      5  C   UNL     1     -14.528  29.021  13.957  1.00  0.00     0.107 A 
ATOM      6  C   UNL     1     -14.707  28.309  15.181  1.00  0.00     0.134 A 
ATOM      7  C   UNL     1     -13.840  27.254  15.498  1.00  0.00     0.093 A 
ATOM      8  C   UNL     1     -12.769  26.925  14.665  1.00  0.00     0.123 A 
ATOM      9  C   UNL     1     -12.557  27.648  13.494  1.00  0.00     0.094 A 
ATOM     10  C   UNL     1     -13.423  28.682  13.131  1.00  0.00     0.146 A 
ATOM     11  O   UNL     1     -13.194  29.333  11.995  1.00  0.00    -0.456 OA
ENDROOT
BRANCH   1  12
ATOM     12  C   UNL     1     -13.610  30.975  10.265  1.00  0.00     0.021 A 
ATOM     13  C   UNL     1     -12.256  31.095   9.907  1.00  0.00     0.016 A 
ATOM     14  C   UNL     1     -11.890  31.709   8.706  1.00  0.00     0.051 A 
ATOM     15  C   UNL     1     -12.866  32.204   7.839  1.00  0.00     0.157 A 
ATOM     16  C   UNL     1     -14.591  31.466   9.381  1.00  0.00     0.062 A 
ATOM     17  C   UNL     1     -14.224  32.080   8.175  1.00  0.00     0.158 A 
BRANCH  15  18
ATOM     18  O   UNL     1     -12.470  32.813   6.649  1.00  0.00    -0.504 OA
ATOM     19  H   UNL     1     -13.134  33.068   5.928  1.00  0.00     0.293 HD
ENDBRANCH  15  18
BRANCH  17  20
ATOM     20  O   UNL     1     -15.204  32.563   7.308  1.00  0.00    -0.504 OA
ATOM     21  H   UNL     1     -15.707  31.947   6.681  1.00  0.00     0.293 HD
ENDBRANCH  17  20
ENDBRANCH   1  12
BRANCH   6  22
ATOM     22  O   UNL     1     -15.695  28.606  16.124  1.00  0.00    -0.507 OA
ATOM     23  H   UNL     1     -15.528  28.779  17.104  1.00  0.00     0.293 HD
ENDBRANCH   6  22
BRANCH   8  24
ATOM     24  O   UNL     1     -11.903  25.885  14.997  1.00  0.00    -0.508 OA
ATOM     25  H   UNL     1     -11.523  25.790  15.931  1.00  0.00     0.293 HD
ENDBRANCH   8  24
TORSDOF 5
ENDMDL
MODEL 5
REMARK VINA RESULT:    -3.773      4.828      7.286
REMARK INTER + INTRA:          -4.744
REMARK INTER:                  -4.429
REMARK INTRA:                  -0.315
REMARK UNBOUND:                -0.309
REMARK SMILES O=c1cc(-c2ccc(O)c(O)c2)oc2cc(O)cc(O)c12
REMARK SMILES IDX 4 1 3 2 2 3 1 4 21 5 19 6 18 7 16 8 15 9 14 10 13 11 5 12
REMARK SMILES IDX 6 13 7 14 8 15 12 16 10 17 9 18 11 20 20 22 17 24
REMARK H PARENT 9 19 11 21 20 23 17 25
REMARK Flexibility Score: inf
ROOT
ATOM      1  C   UNL     1     -17.535  28.725  15.680  1.00  0.00     0.138 A 
ATOM      2  C   UNL     1     -18.837  29.210  15.871  1.00  0.00     0.100 A 
ATOM      3  C   UNL     1     -19.909  28.317  15.901  1.00  0.00     0.197 A 
ATOM      4  O   UNL     1     -21.069  28.787  16.018  1.00  0.00    -0.289 OA
ATOM      5  C   UNL     1     -19.670  26.927  15.777  1.00  0.00     0.107 A 
ATOM      6  C   UNL     1     -20.681  25.920  15.829  1.00  0.00     0.134 A 
ATOM      7  C   UNL     1     -20.335  24.583  15.594  1.00  0.00     0.093 A 
ATOM      8  C   UNL     1     -19.008  24.210  15.369  1.00  0.00     0.123 A 
ATOM      9  C   UNL     1     -18.008  25.179  15.367  1.00  0.00     0.094 A 
ATOM     10  C   UNL     1     -18.325  26.525  15.562  1.00  0.00     0.146 A 
ATOM     11  O   UNL     1     -17.341  27.419  15.535  1.00  0.00    -0.456 OA
ENDROOT
BRANCH   1  12
ATOM     12  C   UNL     1     -16.358  29.630  15.642  1.00  0.00     0.021 A 
ATOM     13  C   UNL     1     -16.482  30.944  16.125  1.00  0.00     0.016 A 
ATOM     14  C   UNL     1     -15.390  31.813  16.107  1.00  0.00     0.051 A 
ATOM     15  C   UNL     1     -14.153  31.387  15.617  1.00  0.00     0.157 A 
ATOM     16  C   UNL     1     -15.106  29.199  15.161  1.00  0.00     0.062 A 
ATOM     17  C   UNL     1     -14.008  30.072  15.144  1.00  0.00     0.158 A 
BRANCH  15  18
ATOM     18  O   UNL     1     -13.081  32.278  15.611  1.00  0.00    -0.504 OA
ATOM     19  H   UNL     1     -12.918  32.918  14.843  1.00  0.00     0.293 HD
ENDBRANCH  15  18
BRANCH  17  20
ATOM     20  O   UNL     1     -12.774  29.636  14.664  1.00  0.00    -0.504 OA
ATOM     21  H   UNL     1     -12.481  29.818  13.712  1.00  0.00     0.293 HD
ENDBRANCH  17  20
ENDBRANCH   1  12
BRANCH   6  22
ATOM     22  O   UNL     1     -22.024  26.171  16.125  1.00  0.00    -0.507 OA
ATOM     23  H   UNL     1     -22.429  27.087  16.248  1.00  0.00     0.293 HD
ENDBRANCH   6  22
BRANCH   8  24
ATOM     24  O   UNL     1     -18.672  22.875  15.152  1.00  0.00    -0.508 OA
ATOM     25  H   UNL     1     -17.728  22.537  15.295  1.00  0.00     0.293 HD
ENDBRANCH   8  24
TORSDOF 5
ENDMDL
MODEL 6
REMARK VINA RESULT:    -3.687      3.601      7.264
REMARK INTER + INTRA:          -4.642
REMARK INTER:                  -4.350
REMARK INTRA:                  -0.292
REMARK UNBOUND:                -0.309
REMARK SMILES O=c1cc(-c2ccc(O)c(O)c2)oc2cc(O)cc(O)c12
REMARK SMILES IDX 4 1 3 2 2 3 1 4 21 5 19 6 18 7 16 8 15 9 14 10 13 11 5 12
REMARK SMILES IDX 6 13 7 14 8 15 12 16 10 17 9 18 11 20 20 22 17 24
REMARK H PARENT 9 19 11 21 20 23 17 25
REMARK Flexibility Score: inf
ROOT
ATOM      1  C   UNL     1     -17.043  29.050  15.424  1.00  0.00     0.138 A 
ATOM      2  C   UNL     1     -16.263  27.969  15.860  1.00  0.00     0.100 A 
ATOM      3  C   UNL     1     -14.882  27.988  15.657  1.00  0.00     0.197 A 
ATOM      4  O   UNL     1     -14.217  26.981  16.010  1.00  0.00    -0.289 OA
ATOM      5  C   UNL     1     -14.276  29.113  15.047  1.00  0.00     0.107 A 
ATOM      6  C   UNL     1     -12.874  29.259  14.821  1.00  0.00     0.134 A 
ATOM      7  C   UNL     1     -12.402  30.375  14.118  1.00  0.00     0.093 A 
ATOM      8  C   UNL     1     -13.273  31.377  13.685  1.00  0.00     0.123 A 
ATOM      9  C   UNL     1     -14.636  31.268  13.946  1.00  0.00     0.094 A 
ATOM     10  C   UNL     1     -15.144  30.150  14.614  1.00  0.00     0.146 A 
ATOM     11  O   UNL     1     -16.454  30.078  14.825  1.00  0.00    -0.456 OA
ENDROOT
BRANCH   1  12
ATOM     12  C   UNL     1     -18.515  29.082  15.616  1.00  0.00     0.021 A 
ATOM     13  C   UNL     1     -19.186  30.317  15.599  1.00  0.00     0.016 A 
ATOM     14  C   UNL     1     -20.571  30.376  15.770  1.00  0.00     0.051 A 
ATOM     15  C   UNL     1     -21.312  29.206  15.951  1.00  0.00     0.157 A 
ATOM     16  C   UNL     1     -19.268  27.904  15.786  1.00  0.00     0.062 A 
ATOM     17  C   UNL     1     -20.659  27.962  15.956  1.00  0.00     0.158 A 
BRANCH  15  18
ATOM     18  O   UNL     1     -22.693  29.297  16.121  1.00  0.00    -0.504 OA
ATOM     19  H   UNL     1     -23.183  28.767  16.831  1.00  0.00     0.293 HD
ENDBRANCH  15  18
BRANCH  17  20
ATOM     20  O   UNL     1     -21.394  26.790  16.125  1.00  0.00    -0.504 OA
ATOM     21  H   UNL     1     -21.775  26.284  15.334  1.00  0.00     0.293 HD
ENDBRANCH  17  20
ENDBRANCH   1  12
BRANCH   6  22
ATOM     22  O   UNL     1     -11.908  28.358  15.279  1.00  0.00    -0.507 OA
ATOM     23  H   UNL     1     -11.933  27.883  16.168  1.00  0.00     0.293 HD
ENDBRANCH   6  22
BRANCH   8  24
ATOM     24  O   UNL     1     -12.791  32.491  13.000  1.00  0.00    -0.508 OA
ATOM     25  H   UNL     1     -12.526  32.439  12.024  1.00  0.00     0.293 HD
ENDBRANCH   8  24
TORSDOF 5
ENDMDL
MODEL 7
REMARK VINA RESULT:    -3.599      3.684      6.137
REMARK INTER + INTRA:          -4.539
REMARK INTER:                  -4.276
REMARK INTRA:                  -0.263
REMARK UNBOUND:                -0.309
REMARK SMILES O=c1cc(-c2ccc(O)c(O)c2)oc2cc(O)cc(O)c12
REMARK SMILES IDX 4 1 3 2 2 3 1 4 21 5 19 6 18 7 16 8 15 9 14 10 13 11 5 12
REMARK SMILES IDX 6 13 7 14 8 15 12 16 10 17 9 18 11 20 20 22 17 24
REMARK H PARENT 9 19 11 21 20 23 17 25
REMARK Flexibility Score: inf
ROOT
ATOM      1  C   UNL     1     -17.042  29.583  15.302  1.00  0.00     0.138 A 
ATOM      2  C   UNL     1     -17.045  28.195  15.501  1.00  0.00     0.100 A 
ATOM      3  C   UNL     1     -18.248  27.538  15.765  1.00  0.00     0.197 A 
ATOM      4  O   UNL     1     -18.211  26.302  15.993  1.00  0.00    -0.289 OA
ATOM      5  C   UNL     1     -19.459  28.271  15.795  1.00  0.00     0.107 A 
ATOM      6  C   UNL     1     -20.749  27.703  16.020  1.00  0.00     0.134 A 
ATOM      7  C   UNL     1     -21.864  28.545  16.125  1.00  0.00     0.093 A 
ATOM      8  C   UNL     1     -21.744  29.926  15.955  1.00  0.00     0.123 A 
ATOM      9  C   UNL     1     -20.497  30.484  15.685  1.00  0.00     0.094 A 
ATOM     10  C   UNL     1     -19.360  29.676  15.609  1.00  0.00     0.146 A 
ATOM     11  O   UNL     1     -18.187  30.253  15.367  1.00  0.00    -0.456 OA
ENDROOT
BRANCH   1  12
ATOM     12  C   UNL     1     -15.792  30.332  15.016  1.00  0.00     0.021 A 
ATOM     13  C   UNL     1     -15.205  31.108  16.029  1.00  0.00     0.016 A 
ATOM     14  C   UNL     1     -14.026  31.817  15.788  1.00  0.00     0.051 A 
ATOM     15  C   UNL     1     -13.407  31.756  14.538  1.00  0.00     0.157 A 
ATOM     16  C   UNL     1     -15.158  30.263  13.760  1.00  0.00     0.062 A 
ATOM     17  C   UNL     1     -13.972  30.973  13.518  1.00  0.00     0.158 A 
BRANCH  15  18
ATOM     18  O   UNL     1     -12.231  32.476  14.327  1.00  0.00    -0.504 OA
ATOM     19  H   UNL     1     -12.152  33.175  13.599  1.00  0.00     0.293 HD
ENDBRANCH  15  18
BRANCH  17  20
ATOM     20  O   UNL     1     -13.353  30.899  12.271  1.00  0.00    -0.504 OA
ATOM     21  H   UNL     1     -13.179  31.729  11.715  1.00  0.00     0.293 HD
ENDBRANCH  17  20
ENDBRANCH   1  12
BRANCH   6  22
ATOM     22  O   UNL     1     -20.994  26.331  16.125  1.00  0.00    -0.507 OA
ATOM     23  H   UNL     1     -20.588  25.721  16.818  1.00  0.00     0.293 HD
ENDBRANCH   6  22
BRANCH   8  24
ATOM     24  O   UNL     1     -22.862  30.753  16.045  1.00  0.00    -0.508 OA
ATOM     25  H   UNL     1     -23.277  31.174  15.223  1.00  0.00     0.293 HD
ENDBRANCH   8  24
TORSDOF 5
ENDMDL
MODEL 8
REMARK VINA RESULT:    -3.375      5.114      7.799
REMARK INTER + INTRA:          -4.276
REMARK INTER:                  -3.980
REMARK INTRA:                  -0.297
REMARK UNBOUND:                -0.309
REMARK SMILES O=c1cc(-c2ccc(O)c(O)c2)oc2cc(O)cc(O)c12
REMARK SMILES IDX 4 1 3 2 2 3 1 4 21 5 19 6 18 7 16 8 15 9 14 10 13 11 5 12
REMARK SMILES IDX 6 13 7 14 8 15 12 16 10 17 9 18 11 20 20 22 17 24
REMARK H PARENT 9 19 11 21 20 23 17 25
REMARK Flexibility Score: inf
ROOT
ATOM      1  C   UNL     1     -17.013  27.589  15.697  1.00  0.00     0.138 A 
ATOM      2  C   UNL     1     -15.906  26.786  15.389  1.00  0.00     0.100 A 
ATOM      3  C   UNL     1     -14.639  27.364  15.295  1.00  0.00     0.197 A 
ATOM      4  O   UNL     1     -13.674  26.628  14.963  1.00  0.00    -0.289 OA
ATOM      5  C   UNL     1     -14.476  28.748  15.547  1.00  0.00     0.107 A 
ATOM      6  C   UNL     1     -13.228  29.439  15.514  1.00  0.00     0.134 A 
ATOM      7  C   UNL     1     -13.205  30.830  15.683  1.00  0.00     0.093 A 
ATOM      8  C   UNL     1     -14.377  31.544  15.942  1.00  0.00     0.123 A 
ATOM      9  C   UNL     1     -15.593  30.871  16.026  1.00  0.00     0.094 A 
ATOM     10  C   UNL     1     -15.655  29.489  15.827  1.00  0.00     0.146 A 
ATOM     11  O   UNL     1     -16.838  28.890  15.898  1.00  0.00    -0.456 OA
ENDROOT
BRANCH   1  12
ATOM     12  C   UNL     1     -18.382  27.026  15.813  1.00  0.00     0.021 A 
ATOM     13  C   UNL     1     -19.470  27.893  16.008  1.00  0.00     0.016 A 
ATOM     14  C   UNL     1     -20.770  27.391  16.113  1.00  0.00     0.051 A 
ATOM     15  C   UNL     1     -21.007  26.018  16.015  1.00  0.00     0.157 A 
ATOM     16  C   UNL     1     -18.628  25.643  15.702  1.00  0.00     0.062 A 
ATOM     17  C   UNL     1     -19.933  25.138  15.805  1.00  0.00     0.158 A 
BRANCH  15  18
ATOM     18  O   UNL     1     -22.315  25.546  16.125  1.00  0.00    -0.504 OA
ATOM     19  H   UNL     1     -22.857  25.656  16.974  1.00  0.00     0.293 HD
ENDBRANCH  15  18
BRANCH  17  20
ATOM     20  O   UNL     1     -20.164  23.768  15.695  1.00  0.00    -0.504 OA
ATOM     21  H   UNL     1     -20.985  23.334  16.102  1.00  0.00     0.293 HD
ENDBRANCH  17  20
ENDBRANCH   1  12
BRANCH   6  22
ATOM     22  O   UNL     1     -11.989  28.814  15.342  1.00  0.00    -0.507 OA
ATOM     23  H   UNL     1     -11.117  29.293  15.178  1.00  0.00     0.293 HD
ENDBRANCH   6  22
BRANCH   8  24
ATOM     24  O   UNL     1     -14.343  32.925  16.125  1.00  0.00    -0.508 OA
ATOM     25  H   UNL     1     -13.509  33.395  16.457  1.00  0.00     0.293 HD
ENDBRANCH   8  24
TORSDOF 5
ENDMDL
MODEL 9
REMARK VINA RESULT:    -3.217      2.826      7.187
REMARK INTER + INTRA:          -4.090
REMARK INTER:                  -3.827
REMARK INTRA:                  -0.263
REMARK UNBOUND:                -0.309
REMARK SMILES O=c1cc(-c2ccc(O)c(O)c2)oc2cc(O)cc(O)c12
REMARK SMILES IDX 4 1 3 2 2 3 1 4 21 5 19 6 18 7 16 8 15 9 14 10 13 11 5 12
REMARK SMILES IDX 6 13 7 14 8 15 12 16 10 17 9 18 11 20 20 22 17 24
REMARK H PARENT 9 19 11 21 20 23 17 25
REMARK Flexibility Score: inf
ROOT
ATOM      1  C   UNL     1     -16.448  29.743  14.710  1.00  0.00     0.138 A 
ATOM      2  C   UNL     1     -15.812  30.579  15.638  1.00  0.00     0.100 A 
ATOM      3  C   UNL     1     -14.684  31.305  15.254  1.00  0.00     0.197 A 
ATOM      4  O   UNL     1     -14.104  32.003  16.125  1.00  0.00    -0.289 OA
ATOM      5  C   UNL     1     -14.212  31.219  13.922  1.00  0.00     0.107 A 
ATOM      6  C   UNL     1     -13.092  31.940  13.408  1.00  0.00     0.134 A 
ATOM      7  C   UNL     1     -12.659  31.698  12.098  1.00  0.00     0.093 A 
ATOM      8  C   UNL     1     -13.340  30.807  11.266  1.00  0.00     0.123 A 
ATOM      9  C   UNL     1     -14.464  30.137  11.743  1.00  0.00     0.094 A 
ATOM     10  C   UNL     1     -14.901  30.329  13.056  1.00  0.00     0.146 A 
ATOM     11  O   UNL     1     -15.967  29.656  13.475  1.00  0.00    -0.456 OA
ENDROOT
BRANCH   1  12
ATOM     12  C   UNL     1     -17.653  28.951  15.064  1.00  0.00     0.021 A 
ATOM     13  C   UNL     1     -17.501  27.629  15.516  1.00  0.00     0.016 A 
ATOM     14  C   UNL     1     -18.618  26.864  15.862  1.00  0.00     0.051 A 
ATOM     15  C   UNL     1     -19.902  27.405  15.774  1.00  0.00     0.157 A 
ATOM     16  C   UNL     1     -18.950  29.497  14.988  1.00  0.00     0.062 A 
ATOM     17  C   UNL     1     -20.070  28.730  15.338  1.00  0.00     0.158 A 
BRANCH  15  18
ATOM     18  O   UNL     1     -20.997  26.616  16.125  1.00  0.00    -0.504 OA
ATOM     19  H   UNL     1     -21.009  25.615  15.973  1.00  0.00     0.293 HD
ENDBRANCH  15  18
BRANCH  17  20
ATOM     20  O   UNL     1     -21.349  29.280  15.257  1.00  0.00    -0.504 OA
ATOM     21  H   UNL     1     -22.179  28.714  15.384  1.00  0.00     0.293 HD
ENDBRANCH  17  20
ENDBRANCH   1  12
BRANCH   6  22
ATOM     22  O   UNL     1     -12.388  32.912  14.126  1.00  0.00    -0.507 OA
ATOM     23  H   UNL     1     -12.572  33.903  14.094  1.00  0.00     0.293 HD
ENDBRANCH   6  22
BRANCH   8  24
ATOM     24  O   UNL     1     -12.911  30.585   9.959  1.00  0.00    -0.508 OA
ATOM     25  H   UNL     1     -12.761  31.351   9.313  1.00  0.00     0.293 HD
ENDBRANCH   8  24
TORSDOF 5
ENDMDL
