MODEL 1
REMARK VINA RESULT:     6.239      0.000      0.000
REMARK INTER + INTRA:           8.603
REMARK INTER:                   8.610
REMARK INTRA:                  -0.007
REMARK UNBOUND:                -0.007
REMARK SMILES CC[C@@H](CC[C@H](C)[C@H]1CC[C@@H]2[C@@H]3CC=C4C[C@@H](O)CC[C@]4(C)[C@H]3CC[C@@]21C)C(C)C
REMARK SMILES IDX 5 1 4 2 3 3 2 4 1 5 28 6 29 7 30 8 6 9 7 10 8 11 9 12 26 13
REMARK SMILES IDX 10 14 11 15 25 16 27 17 12 18 24 19 23 20 13 21 21 22 14 23
REMARK SMILES IDX 15 24 20 25 22 26 16 27 19 28 17 29 18 30
REMARK H PARENT 18 31
REMARK Flexibility Score: inf
ROOT
ATOM      1  C   UNL     1       5.671  77.886   5.916  1.00  0.00     0.004 C 
ENDROOT
BRANCH   1   2
ATOM      2  C   UNL     1       4.432  78.186   6.797  1.00  0.00     0.004 C 
BRANCH   2   3
ATOM      3  C   UNL     1       4.263  77.345   8.105  1.00  0.00    -0.009 C 
BRANCH   3   4
ATOM      4  C   UNL     1       2.984  76.447   7.998  1.00  0.00     0.000 C 
ATOM      5  C   UNL     1       1.951  76.998   7.008  1.00  0.00     0.004 C 
ENDBRANCH   3   4
BRANCH   3   6
ATOM      6  C   UNL     1       4.302  78.318   9.351  1.00  0.00    -0.014 C 
ATOM      7  C   UNL     1       3.665  77.635  10.579  1.00  0.00     0.007 C 
ATOM      8  C   UNL     1       3.654  79.704   9.164  1.00  0.00     0.007 C 
ENDBRANCH   3   6
ENDBRANCH   2   3
ENDBRANCH   1   2
BRANCH   1   9
ATOM      9  C   UNL     1       5.521  78.201   4.394  1.00  0.00    -0.011 C 
ATOM     10  C   UNL     1       5.197  76.944   3.561  1.00  0.00     0.008 C 
BRANCH   9  11
ATOM     11  C   UNL     1       6.677  79.078   3.777  1.00  0.00    -0.002 C 
ATOM     12  C   UNL     1       7.919  79.078   4.700  1.00  0.00     0.005 C 
ATOM     13  C   UNL     1       7.262  78.769   2.350  1.00  0.00    -0.026 C 
ATOM     14  C   UNL     1       9.009  78.262   3.999  1.00  0.00     0.005 C 
ATOM     15  C   UNL     1       8.440  77.809   2.636  1.00  0.00    -0.001 C 
ATOM     16  C   UNL     1       7.801  80.119   1.758  1.00  0.00     0.007 C 
ATOM     17  C   UNL     1       6.251  78.153   1.351  1.00  0.00     0.012 C 
ATOM     18  C   UNL     1       9.475  77.690   1.470  1.00  0.00     0.000 C 
ATOM     19  C   UNL     1       8.793  79.957   0.597  1.00  0.00     0.005 C 
ATOM     20  C   UNL     1      10.005  79.056   0.964  1.00  0.00     0.003 C 
ATOM     21  C   UNL     1      10.643  76.783   1.878  1.00  0.00     0.031 C 
ATOM     22  C   UNL     1      11.076  78.914  -0.210  1.00  0.00    -0.008 C 
ATOM     23  C   UNL     1      11.649  76.645   0.785  1.00  0.00    -0.027 C 
ATOM     24  C   UNL     1      11.924  77.632  -0.090  1.00  0.00    -0.065 C 
ATOM     25  C   UNL     1      12.060  80.125  -0.133  1.00  0.00     0.014 C 
ATOM     26  C   UNL     1      10.383  78.896  -1.607  1.00  0.00     0.016 C 
ATOM     27  C   UNL     1      13.132  77.477  -0.996  1.00  0.00     0.063 C 
ATOM     28  C   UNL     1      13.276  80.017  -1.078  1.00  0.00     0.033 C 
ATOM     29  C   UNL     1      14.051  78.702  -0.870  1.00  0.00     0.118 C 
BRANCH  29  30
ATOM     30  O   UNL     1      15.125  78.617  -1.776  1.00  0.00    -0.393 OA
ATOM     31  H   UNL     1      15.962  78.569  -1.245  1.00  0.00     0.210 HD
ENDBRANCH  29  30
ENDBRANCH   9  11
ENDBRANCH   1   9
TORSDOF 7
ENDMDL
