MODEL 1
REMARK VINA RESULT:    74.949      0.000      0.000
REMARK INTER + INTRA:          81.793
REMARK INTER:                  81.521
REMARK INTRA:                   0.272
REMARK UNBOUND:                 0.272
REMARK SMILES C[C@H]1[C@H](C)CC[C@@]2(C(=O)[O-])CC[C@@]3(C)C(=CC[C@H]4[C@]5(C)CC[C@@H](O)C(C)(C)[C@H]5CC[C@]43C)[C@@H]12
REMARK SMILES IDX 7 1 6 2 11 3 33 4 5 5 12 6 15 7 2 8 3 9 13 10 16 11 1 12
REMARK SMILES IDX 4 13 14 14 31 15 17 16 18 17 30 18 32 19 19 20 29 21 28 22
REMARK SMILES IDX 21 23 20 24 25 25 22 26 23 27 26 28 27 29 8 30 9 31 10 32
REMARK SMILES IDX 24 33
REMARK H PARENT 24 34
REMARK Flexibility Score: inf
ROOT
ATOM      1  C   UNL     1      -8.359  16.546 -13.912  1.00  0.00     0.017 C 
ATOM      2  C   UNL     1      -8.258  17.523 -15.125  1.00  0.00     0.014 C 
ATOM      3  C   UNL     1      -8.159  15.112 -14.437  1.00  0.00     0.014 C 
ATOM      4  C   UNL     1      -7.277  16.890 -12.815  1.00  0.00     0.030 C 
ATOM      5  C   UNL     1      -7.912  18.938 -14.671  1.00  0.00     0.004 C 
ATOM      6  C   UNL     1      -8.224  14.073 -13.318  1.00  0.00     0.013 C 
ATOM      7  C   UNL     1      -6.888  15.715 -11.888  1.00  0.00    -0.063 C 
ATOM      8  C   UNL     1      -6.045  17.712 -13.339  1.00  0.00    -0.003 C 
ATOM      9  C   UNL     1      -6.468  18.997 -14.134  1.00  0.00    -0.011 C 
ATOM     10  C   UNL     1      -7.126  14.231 -12.208  1.00  0.00    -0.006 C 
ATOM     11  C   UNL     1      -6.261  16.034 -10.745  1.00  0.00    -0.027 C 
ATOM     12  C   UNL     1      -5.021  16.879 -14.129  1.00  0.00     0.008 C 
ATOM     13  C   UNL     1      -6.284  20.269 -13.292  1.00  0.00     0.008 C 
ATOM     14  C   UNL     1      -5.775  13.693 -12.783  1.00  0.00     0.017 C 
ATOM     15  C   UNL     1      -7.532  13.410 -10.872  1.00  0.00    -0.020 C 
ATOM     16  C   UNL     1      -6.062  15.104  -9.591  1.00  0.00     0.032 C 
ATOM     17  C   UNL     1      -6.407  13.581  -9.755  1.00  0.00     0.006 C 
ATOM     18  C   UNL     1      -8.877  13.947 -10.244  1.00  0.00     0.008 C 
ATOM     19  C   UNL     1      -7.730  11.897 -11.283  1.00  0.00     0.012 C 
ATOM     20  C   UNL     1      -6.707  12.867  -8.316  1.00  0.00    -0.025 C 
ATOM     21  C   UNL     1      -9.116  13.612  -8.740  1.00  0.00     0.005 C 
ATOM     22  C   UNL     1      -8.219  12.458  -8.232  1.00  0.00     0.003 C 
ATOM     23  C   UNL     1      -5.865  11.562  -8.148  1.00  0.00     0.010 C 
ATOM     24  C   UNL     1      -6.287  13.797  -7.120  1.00  0.00     0.012 C 
ATOM     25  C   UNL     1      -8.681  11.670  -6.944  1.00  0.00    -0.006 C 
ATOM     26  C   UNL     1      -6.232  10.736  -6.893  1.00  0.00     0.033 C 
ATOM     27  C   UNL     1      -7.742  10.424  -6.772  1.00  0.00     0.120 C 
ATOM     28  C   UNL     1      -8.726  12.537  -5.656  1.00  0.00     0.014 C 
ATOM     29  C   UNL     1     -10.123  11.121  -7.164  1.00  0.00     0.014 C 
ENDROOT
BRANCH   1  30
ATOM     30  C   UNL     1      -9.777  16.648 -13.339  1.00  0.00     0.048 C 
ATOM     31  O   UNL     1     -10.717  17.161 -14.001  1.00  0.00    -0.550 OA
ATOM     32  O   UNL     1     -10.030  16.245 -12.031  1.00  0.00    -0.550 OA
ENDBRANCH   1  30
BRANCH  27  33
ATOM     33  O   UNL     1      -8.001   9.792  -5.543  1.00  0.00    -0.393 OA
ATOM     34  H   UNL     1      -8.210  10.508  -4.884  1.00  0.00     0.210 HD
ENDBRANCH  27  33
TORSDOF 2
ENDMDL
