MODEL 1
REMARK VINA RESULT:    -4.350      0.000      0.000
REMARK INTER + INTRA:          -7.167
REMARK INTER:                  -6.893
REMARK INTRA:                  -0.274
REMARK UNBOUND:                -0.274
REMARK SMILES CCCCCCCCCCCC(=O)[O-]
REMARK SMILES IDX 7 1 8 2 9 3 10 4 11 5 12 6 13 7 14 8 6 9 5 10 4 11 3 12 2 13
REMARK SMILES IDX 1 14
REMARK H PARENT
REMARK Flexibility Score: inf
ROOT
ATOM      1  C   UNL     1      -8.735  21.506  14.308  1.00  0.00     0.000 C 
ENDROOT
BRANCH   1   2
ATOM      2  C   UNL     1      -7.437  21.295  15.106  1.00  0.00     0.000 C 
BRANCH   2   3
ATOM      3  C   UNL     1      -6.972  19.828  15.104  1.00  0.00     0.000 C 
BRANCH   3   4
ATOM      4  C   UNL     1      -5.572  19.654  14.497  1.00  0.00     0.006 C 
BRANCH   4   5
ATOM      5  C   UNL     1      -4.906  18.338  14.918  1.00  0.00     0.053 C 
BRANCH   5   6
ATOM      6  C   UNL     1      -3.870  17.933  13.917  1.00  0.00     0.041 C 
ATOM      7  O   UNL     1      -3.190  16.890  14.096  1.00  0.00    -0.550 OA
ATOM      8  O   UNL     1      -3.624  18.735  12.810  1.00  0.00    -0.550 OA
ENDBRANCH   5   6
ENDBRANCH   4   5
ENDBRANCH   3   4
ENDBRANCH   2   3
ENDBRANCH   1   2
BRANCH   1   9
ATOM      9  C   UNL     1      -9.240  22.959  14.377  1.00  0.00     0.000 C 
BRANCH   9  10
ATOM     10  C   UNL     1      -8.262  23.947  13.722  1.00  0.00    -0.000 C 
BRANCH  10  11
ATOM     11  C   UNL     1      -8.897  25.327  13.473  1.00  0.00    -0.000 C 
BRANCH  11  12
ATOM     12  C   UNL     1      -8.265  26.425  14.356  1.00  0.00    -0.000 C 
BRANCH  12  13
ATOM     13  C   UNL     1      -8.145  27.786  13.650  1.00  0.00    -0.003 C 
ATOM     14  C   UNL     1      -9.427  28.203  12.932  1.00  0.00     0.004 C 
ENDBRANCH  12  13
ENDBRANCH  11  12
ENDBRANCH  10  11
ENDBRANCH   9  10
ENDBRANCH   1   9
TORSDOF 10
ENDMDL
MODEL 2
REMARK VINA RESULT:    -4.168      2.806      5.173
REMARK INTER + INTRA:          -6.879
REMARK INTER:                  -6.552
REMARK INTRA:                  -0.327
REMARK UNBOUND:                -0.274
REMARK SMILES CCCCCCCCCCCC(=O)[O-]
REMARK SMILES IDX 7 1 8 2 9 3 10 4 11 5 12 6 13 7 14 8 6 9 5 10 4 11 3 12 2 13
REMARK SMILES IDX 1 14
REMARK H PARENT
REMARK Flexibility Score: inf
ROOT
ATOM      1  C   UNL     1      -3.833  18.648  14.616  1.00  0.00     0.000 C 
ENDROOT
BRANCH   1   2
ATOM      2  C   UNL     1      -3.674  18.666  13.087  1.00  0.00     0.000 C 
BRANCH   2   3
ATOM      3  C   UNL     1      -2.259  18.265  12.634  1.00  0.00     0.000 C 
BRANCH   3   4
ATOM      4  C   UNL     1      -2.002  16.756  12.770  1.00  0.00     0.006 C 
BRANCH   4   5
ATOM      5  C   UNL     1      -1.682  16.089  11.426  1.00  0.00     0.053 C 
BRANCH   5   6
ATOM      6  C   UNL     1      -2.087  14.649  11.449  1.00  0.00     0.041 C 
ATOM      7  O   UNL     1      -1.801  13.926  12.439  1.00  0.00    -0.550 OA
ATOM      8  O   UNL     1      -2.738  14.093  10.355  1.00  0.00    -0.550 OA
ENDBRANCH   5   6
ENDBRANCH   4   5
ENDBRANCH   3   4
ENDBRANCH   2   3
ENDBRANCH   1   2
BRANCH   1   9
ATOM      9  C   UNL     1      -4.776  19.754  15.124  1.00  0.00     0.000 C 
BRANCH   9  10
ATOM     10  C   UNL     1      -6.084  19.821  14.319  1.00  0.00    -0.000 C 
BRANCH  10  11
ATOM     11  C   UNL     1      -6.968  21.012  14.729  1.00  0.00    -0.000 C 
BRANCH  11  12
ATOM     12  C   UNL     1      -8.471  20.706  14.556  1.00  0.00    -0.000 C 
BRANCH  12  13
ATOM     13  C   UNL     1      -9.349  21.966  14.476  1.00  0.00    -0.003 C 
ATOM     14  C   UNL     1      -8.541  23.247  14.281  1.00  0.00     0.004 C 
ENDBRANCH  12  13
ENDBRANCH  11  12
ENDBRANCH  10  11
ENDBRANCH   9  10
ENDBRANCH   1   9
TORSDOF 10
ENDMDL
MODEL 3
REMARK VINA RESULT:    -3.721      5.316      8.691
REMARK INTER + INTRA:          -6.171
REMARK INTER:                  -5.650
REMARK INTRA:                  -0.521
REMARK UNBOUND:                -0.274
REMARK SMILES CCCCCCCCCCCC(=O)[O-]
REMARK SMILES IDX 7 1 8 2 9 3 10 4 11 5 12 6 13 7 14 8 6 9 5 10 4 11 3 12 2 13
REMARK SMILES IDX 1 14
REMARK H PARENT
REMARK Flexibility Score: inf
ROOT
ATOM      1  C   UNL     1      -1.792  16.415  11.441  1.00  0.00     0.000 C 
ENDROOT
BRANCH   1   2
ATOM      2  C   UNL     1      -1.140  15.062  11.767  1.00  0.00     0.000 C 
BRANCH   2   3
ATOM      3  C   UNL     1      -2.169  13.928  11.917  1.00  0.00     0.000 C 
BRANCH   3   4
ATOM      4  C   UNL     1      -2.778  13.503  10.572  1.00  0.00     0.006 C 
BRANCH   4   5
ATOM      5  C   UNL     1      -2.668  11.993  10.326  1.00  0.00     0.053 C 
BRANCH   5   6
ATOM      6  C   UNL     1      -1.517  11.694   9.419  1.00  0.00     0.041 C 
ATOM      7  O   UNL     1      -1.676  11.697   8.171  1.00  0.00    -0.550 OA
ATOM      8  O   UNL     1      -0.277  11.366   9.955  1.00  0.00    -0.550 OA
ENDBRANCH   5   6
ENDBRANCH   4   5
ENDBRANCH   3   4
ENDBRANCH   2   3
ENDBRANCH   1   2
BRANCH   1   9
ATOM      9  C   UNL     1      -1.554  17.466  12.540  1.00  0.00     0.000 C 
BRANCH   9  10
ATOM     10  C   UNL     1      -2.861  18.125  13.011  1.00  0.00    -0.000 C 
BRANCH  10  11
ATOM     11  C   UNL     1      -3.496  17.390  14.204  1.00  0.00    -0.000 C 
BRANCH  11  12
ATOM     12  C   UNL     1      -4.774  18.094  14.707  1.00  0.00    -0.000 C 
BRANCH  12  13
ATOM     13  C   UNL     1      -5.102  19.388  13.944  1.00  0.00    -0.003 C 
ATOM     14  C   UNL     1      -6.109  20.275  14.673  1.00  0.00     0.004 C 
ENDBRANCH  12  13
ENDBRANCH  11  12
ENDBRANCH  10  11
ENDBRANCH   9  10
ENDBRANCH   1   9
TORSDOF 10
ENDMDL
MODEL 4
REMARK VINA RESULT:    -3.656      4.518      7.643
REMARK INTER + INTRA:          -6.067
REMARK INTER:                  -5.139
REMARK INTRA:                  -0.928
REMARK UNBOUND:                -0.274
REMARK SMILES CCCCCCCCCCCC(=O)[O-]
REMARK SMILES IDX 7 1 8 2 9 3 10 4 11 5 12 6 13 7 14 8 6 9 5 10 4 11 3 12 2 13
REMARK SMILES IDX 1 14
REMARK H PARENT
REMARK Flexibility Score: inf
ROOT
ATOM      1  C   UNL     1      -2.131  17.135  12.163  1.00  0.00     0.000 C 
ENDROOT
BRANCH   1   2
ATOM      2  C   UNL     1      -0.811  16.395  12.434  1.00  0.00     0.000 C 
BRANCH   2   3
ATOM      3  C   UNL     1      -0.987  15.201  13.389  1.00  0.00     0.000 C 
BRANCH   3   4
ATOM      4  C   UNL     1      -2.276  14.410  13.112  1.00  0.00     0.006 C 
BRANCH   4   5
ATOM      5  C   UNL     1      -2.013  13.099  12.359  1.00  0.00     0.053 C 
BRANCH   5   6
ATOM      6  C   UNL     1      -2.746  13.091  11.055  1.00  0.00     0.041 C 
ATOM      7  O   UNL     1      -3.323  12.045  10.659  1.00  0.00    -0.550 OA
ATOM      8  O   UNL     1      -2.752  14.226  10.254  1.00  0.00    -0.550 OA
ENDBRANCH   5   6
ENDBRANCH   4   5
ENDBRANCH   3   4
ENDBRANCH   2   3
ENDBRANCH   1   2
BRANCH   1   9
ATOM      9  C   UNL     1      -2.179  18.522  12.831  1.00  0.00     0.000 C 
BRANCH   9  10
ATOM     10  C   UNL     1      -2.730  18.459  14.265  1.00  0.00    -0.000 C 
BRANCH  10  11
ATOM     11  C   UNL     1      -3.983  17.573  14.377  1.00  0.00    -0.000 C 
BRANCH  11  12
ATOM     12  C   UNL     1      -5.193  18.346  14.944  1.00  0.00    -0.000 C 
BRANCH  12  13
ATOM     13  C   UNL     1      -5.205  19.834  14.558  1.00  0.00    -0.003 C 
ATOM     14  C   UNL     1      -6.614  20.402  14.405  1.00  0.00     0.004 C 
ENDBRANCH  12  13
ENDBRANCH  11  12
ENDBRANCH  10  11
ENDBRANCH   9  10
ENDBRANCH   1   9
TORSDOF 10
ENDMDL
MODEL 5
REMARK VINA RESULT:    -3.580      6.650     11.846
REMARK INTER + INTRA:          -5.948
REMARK INTER:                  -5.297
REMARK INTRA:                  -0.650
REMARK UNBOUND:                -0.274
REMARK SMILES CCCCCCCCCCCC(=O)[O-]
REMARK SMILES IDX 7 1 8 2 9 3 10 4 11 5 12 6 13 7 14 8 6 9 5 10 4 11 3 12 2 13
REMARK SMILES IDX 1 14
REMARK H PARENT
REMARK Flexibility Score: inf
ROOT
ATOM      1  C   UNL     1      -2.115  14.636  11.040  1.00  0.00     0.000 C 
ENDROOT
BRANCH   1   2
ATOM      2  C   UNL     1      -1.764  16.124  11.204  1.00  0.00     0.000 C 
BRANCH   2   3
ATOM      3  C   UNL     1      -0.804  16.380  12.379  1.00  0.00     0.000 C 
BRANCH   3   4
ATOM      4  C   UNL     1      -1.337  17.443  13.354  1.00  0.00     0.006 C 
BRANCH   4   5
ATOM      5  C   UNL     1      -2.536  18.214  12.787  1.00  0.00     0.053 C 
BRANCH   5   6
ATOM      6  C   UNL     1      -3.712  18.098  13.705  1.00  0.00     0.041 C 
ATOM      7  O   UNL     1      -3.849  17.081  14.433  1.00  0.00    -0.550 OA
ATOM      8  O   UNL     1      -4.682  19.093  13.720  1.00  0.00    -0.550 OA
ENDBRANCH   5   6
ENDBRANCH   4   5
ENDBRANCH   3   4
ENDBRANCH   2   3
ENDBRANCH   1   2
BRANCH   1   9
ATOM      9  C   UNL     1      -1.080  13.709  11.703  1.00  0.00     0.000 C 
BRANCH   9  10
ATOM     10  C   UNL     1      -0.912  12.383  10.942  1.00  0.00    -0.000 C 
BRANCH  10  11
ATOM     11  C   UNL     1      -2.117  12.065  10.039  1.00  0.00    -0.000 C 
BRANCH  11  12
ATOM     12  C   UNL     1      -1.697  11.823   8.574  1.00  0.00    -0.000 C 
BRANCH  12  13
ATOM     13  C   UNL     1      -0.759  10.617   8.396  1.00  0.00    -0.003 C 
ATOM     14  C   UNL     1      -1.409   9.290   8.781  1.00  0.00     0.004 C 
ENDBRANCH  12  13
ENDBRANCH  11  12
ENDBRANCH  10  11
ENDBRANCH   9  10
ENDBRANCH   1   9
TORSDOF 10
ENDMDL
MODEL 6
REMARK VINA RESULT:    -3.541      5.460      8.620
REMARK INTER + INTRA:          -5.885
REMARK INTER:                  -5.361
REMARK INTRA:                  -0.524
REMARK UNBOUND:                -0.274
REMARK SMILES CCCCCCCCCCCC(=O)[O-]
REMARK SMILES IDX 7 1 8 2 9 3 10 4 11 5 12 6 13 7 14 8 6 9 5 10 4 11 3 12 2 13
REMARK SMILES IDX 1 14
REMARK H PARENT
REMARK Flexibility Score: inf
ROOT
ATOM      1  C   UNL     1      -1.722  16.074  11.368  1.00  0.00     0.000 C 
ENDROOT
BRANCH   1   2
ATOM      2  C   UNL     1      -2.124  14.596  11.229  1.00  0.00     0.000 C 
BRANCH   2   3
ATOM      3  C   UNL     1      -2.068  13.838  12.567  1.00  0.00     0.000 C 
BRANCH   3   4
ATOM      4  C   UNL     1      -3.199  12.808  12.709  1.00  0.00     0.006 C 
BRANCH   4   5
ATOM      5  C   UNL     1      -3.564  12.146  11.374  1.00  0.00     0.053 C 
BRANCH   5   6
ATOM      6  C   UNL     1      -4.410  10.934  11.607  1.00  0.00     0.041 C 
ATOM      7  O   UNL     1      -5.630  11.057  11.889  1.00  0.00    -0.550 OA
ATOM      8  O   UNL     1      -3.838   9.668  11.559  1.00  0.00    -0.550 OA
ENDBRANCH   5   6
ENDBRANCH   4   5
ENDBRANCH   3   4
ENDBRANCH   2   3
ENDBRANCH   1   2
BRANCH   1   9
ATOM      9  C   UNL     1      -2.107  16.665  12.737  1.00  0.00     0.000 C 
BRANCH   9  10
ATOM     10  C   UNL     1      -2.267  18.193  12.688  1.00  0.00    -0.000 C 
BRANCH  10  11
ATOM     11  C   UNL     1      -3.663  18.654  13.143  1.00  0.00    -0.000 C 
BRANCH  11  12
ATOM     12  C   UNL     1      -4.140  17.904  14.405  1.00  0.00    -0.000 C 
BRANCH  12  13
ATOM     13  C   UNL     1      -5.470  18.433  14.967  1.00  0.00    -0.003 C 
ATOM     14  C   UNL     1      -5.789  19.856  14.513  1.00  0.00     0.004 C 
ENDBRANCH  12  13
ENDBRANCH  11  12
ENDBRANCH  10  11
ENDBRANCH   9  10
ENDBRANCH   1   9
TORSDOF 10
ENDMDL
MODEL 7
REMARK VINA RESULT:    -3.529      6.562     10.912
REMARK INTER + INTRA:          -5.867
REMARK INTER:                  -4.974
REMARK INTRA:                  -0.893
REMARK UNBOUND:                -0.274
REMARK SMILES CCCCCCCCCCCC(=O)[O-]
REMARK SMILES IDX 7 1 8 2 9 3 10 4 11 5 12 6 13 7 14 8 6 9 5 10 4 11 3 12 2 13
REMARK SMILES IDX 1 14
REMARK H PARENT
REMARK Flexibility Score: inf
ROOT
ATOM      1  C   UNL     1      -2.150  14.665  11.434  1.00  0.00     0.000 C 
ENDROOT
BRANCH   1   2
ATOM      2  C   UNL     1      -1.746  16.146  11.359  1.00  0.00     0.000 C 
BRANCH   2   3
ATOM      3  C   UNL     1      -0.770  16.553  12.477  1.00  0.00     0.000 C 
BRANCH   3   4
ATOM      4  C   UNL     1      -1.404  17.519  13.489  1.00  0.00     0.006 C 
BRANCH   4   5
ATOM      5  C   UNL     1      -2.550  18.339  12.883  1.00  0.00     0.053 C 
BRANCH   5   6
ATOM      6  C   UNL     1      -3.793  18.182  13.701  1.00  0.00     0.041 C 
ATOM      7  O   UNL     1      -4.707  19.045  13.638  1.00  0.00    -0.550 OA
ATOM      8  O   UNL     1      -3.921  17.105  14.571  1.00  0.00    -0.550 OA
ENDBRANCH   5   6
ENDBRANCH   4   5
ENDBRANCH   3   4
ENDBRANCH   2   3
ENDBRANCH   1   2
BRANCH   1   9
ATOM      9  C   UNL     1      -0.965  13.747  11.788  1.00  0.00     0.000 C 
BRANCH   9  10
ATOM     10  C   UNL     1      -1.159  12.316  11.260  1.00  0.00    -0.000 C 
BRANCH  10  11
ATOM     11  C   UNL     1      -2.545  12.103  10.626  1.00  0.00    -0.000 C 
BRANCH  11  12
ATOM     12  C   UNL     1      -3.392  11.080  11.411  1.00  0.00    -0.000 C 
BRANCH  12  13
ATOM     13  C   UNL     1      -4.646  11.691  12.060  1.00  0.00    -0.003 C 
ATOM     14  C   UNL     1      -4.359  12.365  13.399  1.00  0.00     0.004 C 
ENDBRANCH  12  13
ENDBRANCH  11  12
ENDBRANCH  10  11
ENDBRANCH   9  10
ENDBRANCH   1   9
TORSDOF 10
ENDMDL
MODEL 8
REMARK VINA RESULT:    -3.388      6.612     10.654
REMARK INTER + INTRA:          -5.644
REMARK INTER:                  -4.663
REMARK INTRA:                  -0.981
REMARK UNBOUND:                -0.274
REMARK SMILES CCCCCCCCCCCC(=O)[O-]
REMARK SMILES IDX 7 1 8 2 9 3 10 4 11 5 12 6 13 7 14 8 6 9 5 10 4 11 3 12 2 13
REMARK SMILES IDX 1 14
REMARK H PARENT
REMARK Flexibility Score: inf
ROOT
ATOM      1  C   UNL     1      -0.973  13.998  12.177  1.00  0.00     0.000 C 
ENDROOT
BRANCH   1   2
ATOM      2  C   UNL     1      -2.097  14.794  11.493  1.00  0.00     0.000 C 
BRANCH   2   3
ATOM      3  C   UNL     1      -1.762  16.289  11.350  1.00  0.00     0.000 C 
BRANCH   3   4
ATOM      4  C   UNL     1      -1.678  17.006  12.707  1.00  0.00     0.006 C 
BRANCH   4   5
ATOM      5  C   UNL     1      -2.460  18.326  12.725  1.00  0.00     0.053 C 
BRANCH   5   6
ATOM      6  C   UNL     1      -3.683  18.196  13.576  1.00  0.00     0.041 C 
ATOM      7  O   UNL     1      -4.591  19.066  13.519  1.00  0.00    -0.550 OA
ATOM      8  O   UNL     1      -3.799  17.138  14.469  1.00  0.00    -0.550 OA
ENDBRANCH   5   6
ENDBRANCH   4   5
ENDBRANCH   3   4
ENDBRANCH   2   3
ENDBRANCH   1   2
BRANCH   1   9
ATOM      9  C   UNL     1      -1.446  13.298  13.464  1.00  0.00     0.000 C 
BRANCH   9  10
ATOM     10  C   UNL     1      -2.865  13.726  13.874  1.00  0.00    -0.000 C 
BRANCH  10  11
ATOM     11  C   UNL     1      -3.552  12.694  14.786  1.00  0.00    -0.000 C 
BRANCH  11  12
ATOM     12  C   UNL     1      -4.368  11.660  13.981  1.00  0.00    -0.000 C 
BRANCH  12  13
ATOM     13  C   UNL     1      -4.767  12.150  12.579  1.00  0.00    -0.003 C 
ATOM     14  C   UNL     1      -4.027  11.424  11.458  1.00  0.00     0.004 C 
ENDBRANCH  12  13
ENDBRANCH  11  12
ENDBRANCH  10  11
ENDBRANCH   9  10
ENDBRANCH   1   9
TORSDOF 10
ENDMDL
MODEL 9
REMARK VINA RESULT:    -3.375      7.857     11.070
REMARK INTER + INTRA:          -5.622
REMARK INTER:                  -4.222
REMARK INTRA:                  -1.400
REMARK UNBOUND:                -0.274
REMARK SMILES CCCCCCCCCCCC(=O)[O-]
REMARK SMILES IDX 7 1 8 2 9 3 10 4 11 5 12 6 13 7 14 8 6 9 5 10 4 11 3 12 2 13
REMARK SMILES IDX 1 14
REMARK H PARENT
REMARK Flexibility Score: inf
ROOT
ATOM      1  C   UNL     1      -2.809  12.903  10.638  1.00  0.00     0.000 C 
ENDROOT
BRANCH   1   2
ATOM      2  C   UNL     1      -1.320  13.001  11.010  1.00  0.00     0.000 C 
BRANCH   2   3
ATOM      3  C   UNL     1      -0.998  14.257  11.838  1.00  0.00     0.000 C 
BRANCH   3   4
ATOM      4  C   UNL     1      -1.870  15.460  11.449  1.00  0.00     0.006 C 
BRANCH   4   5
ATOM      5  C   UNL     1      -1.444  16.752  12.160  1.00  0.00     0.053 C 
BRANCH   5   6
ATOM      6  C   UNL     1      -2.512  17.203  13.106  1.00  0.00     0.041 C 
ATOM      7  O   UNL     1      -2.750  16.545  14.152  1.00  0.00    -0.550 OA
ATOM      8  O   UNL     1      -3.277  18.323  12.808  1.00  0.00    -0.550 OA
ENDBRANCH   5   6
ENDBRANCH   4   5
ENDBRANCH   3   4
ENDBRANCH   2   3
ENDBRANCH   1   2
BRANCH   1   9
ATOM      9  C   UNL     1      -3.487  11.658  11.239  1.00  0.00     0.000 C 
BRANCH   9  10
ATOM     10  C   UNL     1      -4.683  12.019  12.133  1.00  0.00    -0.000 C 
BRANCH  10  11
ATOM     11  C   UNL     1      -4.374  11.847  13.631  1.00  0.00    -0.000 C 
BRANCH  11  12
ATOM     12  C   UNL     1      -3.738  13.113  14.242  1.00  0.00    -0.000 C 
BRANCH  12  13
ATOM     13  C   UNL     1      -2.347  12.869  14.850  1.00  0.00    -0.003 C 
ATOM     14  C   UNL     1      -1.793  11.479  14.541  1.00  0.00     0.004 C 
ENDBRANCH  12  13
ENDBRANCH  11  12
ENDBRANCH  10  11
ENDBRANCH   9  10
ENDBRANCH   1   9
TORSDOF 10
ENDMDL
