MODEL 1
REMARK VINA RESULT:     4.272      0.000      0.000
REMARK INTER + INTRA:           6.142
REMARK INTER:                   5.896
REMARK INTRA:                   0.246
REMARK UNBOUND:                 0.246
REMARK SMILES CC[C@@H](CC[C@@H](C)[C@@H]1CC[C@@H]2[C@@H]3CC=C4C[C@H](O)CC[C@]4(C)[C@@H]3CC[C@@]21C)C(C)C
REMARK SMILES IDX 5 1 4 2 3 3 2 4 1 5 28 6 29 7 30 8 6 9 7 10 8 11 9 12 26 13
REMARK SMILES IDX 10 14 11 15 25 16 27 17 12 18 24 19 23 20 13 21 21 22 14 23
REMARK SMILES IDX 15 24 20 25 22 26 16 27 19 28 17 29 18 30
REMARK H PARENT 18 31
REMARK Flexibility Score: inf
ROOT
ATOM      1  C   UNL     1      73.433  33.763  52.541  1.00  0.00     0.004 C 
ENDROOT
BRANCH   1   2
ATOM      2  C   UNL     1      72.222  33.766  53.494  1.00  0.00     0.004 C 
BRANCH   2   3
ATOM      3  C   UNL     1      72.644  33.569  54.985  1.00  0.00    -0.009 C 
BRANCH   3   4
ATOM      4  C   UNL     1      73.719  32.453  55.089  1.00  0.00     0.000 C 
ATOM      5  C   UNL     1      73.873  31.877  56.497  1.00  0.00     0.004 C 
ENDBRANCH   3   4
BRANCH   3   6
ATOM      6  C   UNL     1      71.432  33.353  55.954  1.00  0.00    -0.014 C 
ATOM      7  C   UNL     1      71.745  33.823  57.383  1.00  0.00     0.007 C 
ATOM      8  C   UNL     1      70.115  33.978  55.460  1.00  0.00     0.007 C 
ENDBRANCH   3   6
ENDBRANCH   2   3
ENDBRANCH   1   2
BRANCH   1   9
ATOM      9  C   UNL     1      73.434  34.974  51.570  1.00  0.00    -0.011 C 
ATOM     10  C   UNL     1      72.209  35.861  51.875  1.00  0.00     0.008 C 
BRANCH   9  11
ATOM     11  C   UNL     1      74.811  35.740  51.600  1.00  0.00    -0.002 C 
ATOM     12  C   UNL     1      75.601  35.789  50.290  1.00  0.00     0.005 C 
ATOM     13  C   UNL     1      75.830  35.344  52.711  1.00  0.00    -0.026 C 
ATOM     14  C   UNL     1      77.037  36.125  50.679  1.00  0.00     0.005 C 
ATOM     15  C   UNL     1      77.142  36.021  52.217  1.00  0.00    -0.001 C 
ATOM     16  C   UNL     1      76.019  33.800  52.902  1.00  0.00     0.007 C 
ATOM     17  C   UNL     1      75.387  35.955  54.065  1.00  0.00     0.012 C 
ATOM     18  C   UNL     1      78.446  35.339  52.747  1.00  0.00     0.000 C 
ATOM     19  C   UNL     1      77.151  33.210  52.057  1.00  0.00     0.005 C 
ATOM     20  C   UNL     1      78.525  33.781  52.501  1.00  0.00     0.003 C 
ATOM     21  C   UNL     1      79.710  36.112  52.307  1.00  0.00     0.031 C 
ATOM     22  C   UNL     1      79.779  33.295  51.644  1.00  0.00    -0.008 C 
ATOM     23  C   UNL     1      80.185  35.664  50.960  1.00  0.00    -0.027 C 
ATOM     24  C   UNL     1      80.200  34.361  50.630  1.00  0.00    -0.065 C 
ATOM     25  C   UNL     1      79.498  31.965  50.873  1.00  0.00     0.014 C 
ATOM     26  C   UNL     1      80.969  33.035  52.611  1.00  0.00     0.016 C 
ATOM     27  C   UNL     1      80.548  33.959  49.213  1.00  0.00     0.063 C 
ATOM     28  C   UNL     1      80.664  31.506  49.973  1.00  0.00     0.033 C 
ATOM     29  C   UNL     1      81.364  32.659  49.209  1.00  0.00     0.118 C 
BRANCH  29  30
ATOM     30  O   UNL     1      81.611  32.280  47.879  1.00  0.00    -0.393 OA
ATOM     31  H   UNL     1      80.820  32.562  47.349  1.00  0.00     0.210 HD
ENDBRANCH  29  30
ENDBRANCH   9  11
ENDBRANCH   1   9
TORSDOF 7
ENDMDL
MODEL 2
REMARK VINA RESULT:     6.131      0.671      1.483
REMARK INTER + INTRA:           8.707
REMARK INTER:                   8.468
REMARK INTRA:                   0.240
REMARK UNBOUND:                 0.246
REMARK SMILES CC[C@@H](CC[C@@H](C)[C@@H]1CC[C@@H]2[C@@H]3CC=C4C[C@H](O)CC[C@]4(C)[C@@H]3CC[C@@]21C)C(C)C
REMARK SMILES IDX 5 1 4 2 3 3 2 4 1 5 28 6 29 7 30 8 6 9 7 10 8 11 9 12 26 13
REMARK SMILES IDX 10 14 11 15 25 16 27 17 12 18 24 19 23 20 13 21 21 22 14 23
REMARK SMILES IDX 15 24 20 25 22 26 16 27 19 28 17 29 18 30
REMARK H PARENT 18 31
REMARK Flexibility Score: inf
ROOT
ATOM      1  C   UNL     1      72.765  34.477  53.488  1.00  0.00     0.004 C 
ENDROOT
BRANCH   1   2
ATOM      2  C   UNL     1      71.734  33.341  53.635  1.00  0.00     0.004 C 
BRANCH   2   3
ATOM      3  C   UNL     1      71.362  33.071  55.128  1.00  0.00    -0.009 C 
BRANCH   3   4
ATOM      4  C   UNL     1      71.126  34.416  55.867  1.00  0.00     0.000 C 
ATOM      5  C   UNL     1      69.966  34.374  56.864  1.00  0.00     0.004 C 
ENDBRANCH   3   4
BRANCH   3   6
ATOM      6  C   UNL     1      72.377  32.131  55.863  1.00  0.00    -0.014 C 
ATOM      7  C   UNL     1      73.760  32.142  55.196  1.00  0.00     0.007 C 
ATOM      8  C   UNL     1      72.508  32.406  57.372  1.00  0.00     0.007 C 
ENDBRANCH   3   6
ENDBRANCH   2   3
ENDBRANCH   1   2
BRANCH   1   9
ATOM      9  C   UNL     1      73.249  34.662  52.025  1.00  0.00    -0.011 C 
ATOM     10  C   UNL     1      72.096  35.247  51.186  1.00  0.00     0.008 C 
BRANCH   9  11
ATOM     11  C   UNL     1      74.585  35.496  51.959  1.00  0.00    -0.002 C 
ATOM     12  C   UNL     1      75.290  35.560  50.601  1.00  0.00     0.005 C 
ATOM     13  C   UNL     1      75.689  35.172  53.010  1.00  0.00    -0.026 C 
ATOM     14  C   UNL     1      76.729  35.974  50.895  1.00  0.00     0.005 C 
ATOM     15  C   UNL     1      76.932  35.905  52.425  1.00  0.00    -0.001 C 
ATOM     16  C   UNL     1      75.968  33.643  53.213  1.00  0.00     0.007 C 
ATOM     17  C   UNL     1      75.299  35.785  54.379  1.00  0.00     0.012 C 
ATOM     18  C   UNL     1      78.299  35.298  52.884  1.00  0.00     0.000 C 
ATOM     19  C   UNL     1      77.075  33.095  52.308  1.00  0.00     0.005 C 
ATOM     20  C   UNL     1      78.442  33.742  52.657  1.00  0.00     0.003 C 
ATOM     21  C   UNL     1      79.493  36.125  52.355  1.00  0.00     0.031 C 
ATOM     22  C   UNL     1      79.665  33.304  51.731  1.00  0.00    -0.008 C 
ATOM     23  C   UNL     1      79.907  35.676  50.987  1.00  0.00    -0.027 C 
ATOM     24  C   UNL     1      79.968  34.370  50.677  1.00  0.00    -0.065 C 
ATOM     25  C   UNL     1      79.405  31.947  51.000  1.00  0.00     0.014 C 
ATOM     26  C   UNL     1      80.923  33.121  52.626  1.00  0.00     0.016 C 
ATOM     27  C   UNL     1      80.249  33.960  49.247  1.00  0.00     0.063 C 
ATOM     28  C   UNL     1      80.536  31.531  50.036  1.00  0.00     0.033 C 
ATOM     29  C   UNL     1      81.128  32.703  49.212  1.00  0.00     0.118 C 
BRANCH  29  30
ATOM     30  O   UNL     1      81.312  32.312  47.876  1.00  0.00    -0.393 OA
ATOM     31  H   UNL     1      80.426  32.382  47.432  1.00  0.00     0.210 HD
ENDBRANCH  29  30
ENDBRANCH   9  11
ENDBRANCH   1   9
TORSDOF 7
ENDMDL
