MODEL 1
REMARK VINA RESULT:    -2.914      0.000      0.000
REMARK INTER + INTRA:         -11.342
REMARK INTER:                  -6.661
REMARK INTRA:                  -4.681
REMARK UNBOUND:                -4.681
REMARK SMILES CCCCCCCCCCCCCCCCCCCCCCCC(=O)[O-]
REMARK SMILES IDX 13 1 14 2 15 3 16 4 17 5 18 6 19 7 20 8 21 9 22 10 23 11
REMARK SMILES IDX 24 12 25 13 26 14 12 15 11 16 10 17 9 18 8 19 7 20 6 21 5 22
REMARK SMILES IDX 4 23 3 24 2 25 1 26
REMARK H PARENT
REMARK Flexibility Score: inf
ROOT
ATOM      1  C   UNL     1     168.441 165.938 144.749  1.00  0.00     0.000 C 
ENDROOT
BRANCH   1   2
ATOM      2  C   UNL     1     169.009 166.631 145.999  1.00  0.00     0.000 C 
BRANCH   2   3
ATOM      3  C   UNL     1     169.558 168.034 145.692  1.00  0.00     0.000 C 
BRANCH   3   4
ATOM      4  C   UNL     1     170.775 168.403 146.560  1.00  0.00     0.000 C 
BRANCH   4   5
ATOM      5  C   UNL     1     172.096 168.592 145.788  1.00  0.00     0.000 C 
BRANCH   5   6
ATOM      6  C   UNL     1     172.902 167.300 145.539  1.00  0.00     0.000 C 
BRANCH   6   7
ATOM      7  C   UNL     1     172.850 166.268 146.680  1.00  0.00     0.000 C 
BRANCH   7   8
ATOM      8  C   UNL     1     172.363 164.887 146.213  1.00  0.00     0.000 C 
BRANCH   8   9
ATOM      9  C   UNL     1     173.125 164.382 144.976  1.00  0.00     0.000 C 
BRANCH   9  10
ATOM     10  C   UNL     1     173.080 162.850 144.836  1.00  0.00     0.006 C 
BRANCH  10  11
ATOM     11  C   UNL     1     171.805 162.249 145.441  1.00  0.00     0.053 C 
BRANCH  11  12
ATOM     12  C   UNL     1     171.534 160.875 144.908  1.00  0.00     0.041 C 
ATOM     13  O   UNL     1     170.762 160.095 145.525  1.00  0.00    -0.550 OA
ATOM     14  O   UNL     1     172.162 160.444 143.746  1.00  0.00    -0.550 OA
ENDBRANCH  11  12
ENDBRANCH  10  11
ENDBRANCH   9  10
ENDBRANCH   8   9
ENDBRANCH   7   8
ENDBRANCH   6   7
ENDBRANCH   5   6
ENDBRANCH   4   5
ENDBRANCH   3   4
ENDBRANCH   2   3
ENDBRANCH   1   2
BRANCH   1  15
ATOM     15  C   UNL     1     169.519 165.185 143.949  1.00  0.00     0.000 C 
BRANCH  15  16
ATOM     16  C   UNL     1     169.057 163.788 143.506  1.00  0.00     0.000 C 
BRANCH  16  17
ATOM     17  C   UNL     1     169.627 163.384 142.135  1.00  0.00     0.000 C 
BRANCH  17  18
ATOM     18  C   UNL     1     168.554 163.392 141.025  1.00  0.00    -0.000 C 
BRANCH  18  19
ATOM     19  C   UNL     1     168.468 164.722 140.253  1.00  0.00    -0.000 C 
BRANCH  19  20
ATOM     20  C   UNL     1     167.257 165.605 140.605  1.00  0.00    -0.000 C 
BRANCH  20  21
ATOM     21  C   UNL     1     167.605 166.939 141.293  1.00  0.00    -0.000 C 
BRANCH  21  22
ATOM     22  C   UNL     1     169.016 167.443 140.945  1.00  0.00    -0.000 C 
BRANCH  22  23
ATOM     23  C   UNL     1     169.674 168.204 142.108  1.00  0.00    -0.000 C 
BRANCH  23  24
ATOM     24  C   UNL     1     171.198 167.994 142.160  1.00  0.00    -0.000 C 
BRANCH  24  25
ATOM     25  C   UNL     1     171.652 166.773 141.345  1.00  0.00    -0.003 C 
ATOM     26  C   UNL     1     172.805 166.017 142.006  1.00  0.00     0.004 C 
ENDBRANCH  24  25
ENDBRANCH  23  24
ENDBRANCH  22  23
ENDBRANCH  21  22
ENDBRANCH  20  21
ENDBRANCH  19  20
ENDBRANCH  18  19
ENDBRANCH  17  18
ENDBRANCH  16  17
ENDBRANCH  15  16
ENDBRANCH   1  15
TORSDOF 22
ENDMDL
MODEL 2
REMARK VINA RESULT:    -2.783      3.080      5.931
REMARK INTER + INTRA:         -11.043
REMARK INTER:                  -6.673
REMARK INTRA:                  -4.370
REMARK UNBOUND:                -4.681
REMARK SMILES CCCCCCCCCCCCCCCCCCCCCCCC(=O)[O-]
REMARK SMILES IDX 13 1 14 2 15 3 16 4 17 5 18 6 19 7 20 8 21 9 22 10 23 11
REMARK SMILES IDX 24 12 25 13 26 14 12 15 11 16 10 17 9 18 8 19 7 20 6 21 5 22
REMARK SMILES IDX 4 23 3 24 2 25 1 26
REMARK H PARENT
REMARK Flexibility Score: inf
ROOT
ATOM      1  C   UNL     1     172.448 167.586 143.687  1.00  0.00     0.000 C 
ENDROOT
BRANCH   1   2
ATOM      2  C   UNL     1     172.686 167.279 145.175  1.00  0.00     0.000 C 
BRANCH   2   3
ATOM      3  C   UNL     1     172.687 165.770 145.469  1.00  0.00     0.000 C 
BRANCH   3   4
ATOM      4  C   UNL     1     171.903 165.407 146.744  1.00  0.00     0.000 C 
BRANCH   4   5
ATOM      5  C   UNL     1     170.715 164.447 146.532  1.00  0.00     0.000 C 
BRANCH   5   6
ATOM      6  C   UNL     1     169.911 164.673 145.235  1.00  0.00     0.000 C 
BRANCH   6   7
ATOM      7  C   UNL     1     168.418 164.984 145.439  1.00  0.00     0.000 C 
BRANCH   7   8
ATOM      8  C   UNL     1     168.005 166.339 144.839  1.00  0.00     0.000 C 
BRANCH   8   9
ATOM      9  C   UNL     1     167.330 167.258 145.871  1.00  0.00     0.000 C 
BRANCH   9  10
ATOM     10  C   UNL     1     168.281 167.676 147.006  1.00  0.00     0.006 C 
BRANCH  10  11
ATOM     11  C   UNL     1     169.503 168.445 146.484  1.00  0.00     0.053 C 
BRANCH  11  12
ATOM     12  C   UNL     1     170.159 169.242 147.570  1.00  0.00     0.041 C 
ATOM     13  O   UNL     1     171.130 168.763 148.211  1.00  0.00    -0.550 OA
ATOM     14  O   UNL     1     169.674 170.503 147.896  1.00  0.00    -0.550 OA
ENDBRANCH  11  12
ENDBRANCH  10  11
ENDBRANCH   9  10
ENDBRANCH   8   9
ENDBRANCH   7   8
ENDBRANCH   6   7
ENDBRANCH   5   6
ENDBRANCH   4   5
ENDBRANCH   3   4
ENDBRANCH   2   3
ENDBRANCH   1   2
BRANCH   1  15
ATOM     15  C   UNL     1     170.952 167.635 143.326  1.00  0.00     0.000 C 
BRANCH  15  16
ATOM     16  C   UNL     1     170.706 168.167 141.905  1.00  0.00     0.000 C 
BRANCH  16  17
ATOM     17  C   UNL     1     170.007 167.136 141.001  1.00  0.00     0.000 C 
BRANCH  17  18
ATOM     18  C   UNL     1     169.812 165.775 141.700  1.00  0.00    -0.000 C 
BRANCH  18  19
ATOM     19  C   UNL     1     170.087 164.563 140.790  1.00  0.00    -0.000 C 
BRANCH  19  20
ATOM     20  C   UNL     1     171.151 163.581 141.314  1.00  0.00    -0.000 C 
BRANCH  20  21
ATOM     21  C   UNL     1     172.302 164.232 142.104  1.00  0.00    -0.000 C 
BRANCH  21  22
ATOM     22  C   UNL     1     173.086 163.224 142.962  1.00  0.00    -0.000 C 
BRANCH  22  23
ATOM     23  C   UNL     1     172.167 162.230 143.691  1.00  0.00    -0.000 C 
BRANCH  23  24
ATOM     24  C   UNL     1     172.748 161.773 145.041  1.00  0.00    -0.000 C 
BRANCH  24  25
ATOM     25  C   UNL     1     172.084 160.490 145.564  1.00  0.00    -0.003 C 
ATOM     26  C   UNL     1     170.795 160.765 146.337  1.00  0.00     0.004 C 
ENDBRANCH  24  25
ENDBRANCH  23  24
ENDBRANCH  22  23
ENDBRANCH  21  22
ENDBRANCH  20  21
ENDBRANCH  19  20
ENDBRANCH  18  19
ENDBRANCH  17  18
ENDBRANCH  16  17
ENDBRANCH  15  16
ENDBRANCH   1  15
TORSDOF 22
ENDMDL
MODEL 3
REMARK VINA RESULT:    -2.761      2.782      5.896
REMARK INTER + INTRA:         -10.993
REMARK INTER:                  -6.335
REMARK INTRA:                  -4.658
REMARK UNBOUND:                -4.681
REMARK SMILES CCCCCCCCCCCCCCCCCCCCCCCC(=O)[O-]
REMARK SMILES IDX 13 1 14 2 15 3 16 4 17 5 18 6 19 7 20 8 21 9 22 10 23 11
REMARK SMILES IDX 24 12 25 13 26 14 12 15 11 16 10 17 9 18 8 19 7 20 6 21 5 22
REMARK SMILES IDX 4 23 3 24 2 25 1 26
REMARK H PARENT
REMARK Flexibility Score: inf
ROOT
ATOM      1  C   UNL     1     168.917 163.405 142.621  1.00  0.00     0.000 C 
ENDROOT
BRANCH   1   2
ATOM      2  C   UNL     1     168.420 164.795 143.050  1.00  0.00     0.000 C 
BRANCH   2   3
ATOM      3  C   UNL     1     169.549 165.839 143.075  1.00  0.00     0.000 C 
BRANCH   3   4
ATOM      4  C   UNL     1     169.258 167.057 142.179  1.00  0.00     0.000 C 
BRANCH   4   5
ATOM      5  C   UNL     1     170.451 168.009 141.960  1.00  0.00     0.000 C 
BRANCH   5   6
ATOM      6  C   UNL     1     171.699 167.704 142.814  1.00  0.00     0.000 C 
BRANCH   6   7
ATOM      7  C   UNL     1     172.321 168.923 143.519  1.00  0.00     0.000 C 
BRANCH   7   8
ATOM      8  C   UNL     1     172.381 168.760 145.047  1.00  0.00     0.000 C 
BRANCH   8   9
ATOM      9  C   UNL     1     171.407 167.688 145.563  1.00  0.00     0.000 C 
BRANCH   9  10
ATOM     10  C   UNL     1     170.233 168.285 146.358  1.00  0.00     0.006 C 
BRANCH  10  11
ATOM     11  C   UNL     1     168.995 168.514 145.481  1.00  0.00     0.053 C 
BRANCH  11  12
ATOM     12  C   UNL     1     167.793 167.802 146.025  1.00  0.00     0.041 C 
ATOM     13  O   UNL     1     167.629 167.694 147.268  1.00  0.00    -0.550 OA
ATOM     14  O   UNL     1     166.872 167.230 145.156  1.00  0.00    -0.550 OA
ENDBRANCH  11  12
ENDBRANCH  10  11
ENDBRANCH   9  10
ENDBRANCH   8   9
ENDBRANCH   7   8
ENDBRANCH   6   7
ENDBRANCH   5   6
ENDBRANCH   4   5
ENDBRANCH   3   4
ENDBRANCH   2   3
ENDBRANCH   1   2
BRANCH   1  15
ATOM     15  C   UNL     1     170.320 163.447 141.991  1.00  0.00     0.000 C 
BRANCH  15  16
ATOM     16  C   UNL     1     171.160 162.207 142.339  1.00  0.00     0.000 C 
BRANCH  16  17
ATOM     17  C   UNL     1     172.563 162.570 142.857  1.00  0.00     0.000 C 
BRANCH  17  18
ATOM     18  C   UNL     1     172.831 164.089 142.822  1.00  0.00    -0.000 C 
BRANCH  18  19
ATOM     19  C   UNL     1     173.013 164.722 144.215  1.00  0.00    -0.000 C 
BRANCH  19  20
ATOM     20  C   UNL     1     172.655 163.807 145.400  1.00  0.00    -0.000 C 
BRANCH  20  21
ATOM     21  C   UNL     1     171.422 164.247 146.211  1.00  0.00    -0.000 C 
BRANCH  21  22
ATOM     22  C   UNL     1     170.231 163.285 146.060  1.00  0.00    -0.000 C 
BRANCH  22  23
ATOM     23  C   UNL     1     169.960 162.475 147.338  1.00  0.00    -0.000 C 
BRANCH  23  24
ATOM     24  C   UNL     1     170.382 161.001 147.200  1.00  0.00    -0.000 C 
BRANCH  24  25
ATOM     25  C   UNL     1     170.619 160.592 145.738  1.00  0.00    -0.003 C 
ATOM     26  C   UNL     1     171.996 159.966 145.516  1.00  0.00     0.004 C 
ENDBRANCH  24  25
ENDBRANCH  23  24
ENDBRANCH  22  23
ENDBRANCH  21  22
ENDBRANCH  20  21
ENDBRANCH  19  20
ENDBRANCH  18  19
ENDBRANCH  17  18
ENDBRANCH  16  17
ENDBRANCH  15  16
ENDBRANCH   1  15
TORSDOF 22
ENDMDL
MODEL 4
REMARK VINA RESULT:    -2.756     12.107     15.999
REMARK INTER + INTRA:         -10.981
REMARK INTER:                  -6.780
REMARK INTRA:                  -4.201
REMARK UNBOUND:                -4.681
REMARK SMILES CCCCCCCCCCCCCCCCCCCCCCCC(=O)[O-]
REMARK SMILES IDX 13 1 14 2 15 3 16 4 17 5 18 6 19 7 20 8 21 9 22 10 23 11
REMARK SMILES IDX 24 12 25 13 26 14 12 15 11 16 10 17 9 18 8 19 7 20 6 21 5 22
REMARK SMILES IDX 4 23 3 24 2 25 1 26
REMARK H PARENT
REMARK Flexibility Score: inf
ROOT
ATOM      1  C   UNL     1     169.629 153.563 152.740  1.00  0.00     0.000 C 
ENDROOT
BRANCH   1   2
ATOM      2  C   UNL     1     170.243 152.276 152.165  1.00  0.00     0.000 C 
BRANCH   2   3
ATOM      3  C   UNL     1     171.176 151.574 153.165  1.00  0.00     0.000 C 
BRANCH   3   4
ATOM      4  C   UNL     1     172.357 152.459 153.605  1.00  0.00     0.000 C 
BRANCH   4   5
ATOM      5  C   UNL     1     172.764 152.320 155.085  1.00  0.00     0.000 C 
BRANCH   5   6
ATOM      6  C   UNL     1     171.669 151.764 156.018  1.00  0.00     0.000 C 
BRANCH   6   7
ATOM      7  C   UNL     1     170.862 152.828 156.783  1.00  0.00     0.000 C 
BRANCH   7   8
ATOM      8  C   UNL     1     169.353 152.530 156.804  1.00  0.00     0.000 C 
BRANCH   8   9
ATOM      9  C   UNL     1     168.981 151.315 155.938  1.00  0.00     0.000 C 
BRANCH   9  10
ATOM     10  C   UNL     1     167.520 150.875 156.128  1.00  0.00     0.006 C 
BRANCH  10  11
ATOM     11  C   UNL     1     166.745 151.821 157.055  1.00  0.00     0.053 C 
BRANCH  11  12
ATOM     12  C   UNL     1     165.800 152.696 156.288  1.00  0.00     0.041 C 
ATOM     13  O   UNL     1     166.107 153.889 156.030  1.00  0.00    -0.550 OA
ATOM     14  O   UNL     1     164.566 152.201 155.886  1.00  0.00    -0.550 OA
ENDBRANCH  11  12
ENDBRANCH  10  11
ENDBRANCH   9  10
ENDBRANCH   8   9
ENDBRANCH   7   8
ENDBRANCH   6   7
ENDBRANCH   5   6
ENDBRANCH   4   5
ENDBRANCH   3   4
ENDBRANCH   2   3
ENDBRANCH   1   2
BRANCH   1  15
ATOM     15  C   UNL     1     169.701 154.744 151.755  1.00  0.00     0.000 C 
BRANCH  15  16
ATOM     16  C   UNL     1     170.986 154.730 150.911  1.00  0.00     0.000 C 
BRANCH  16  17
ATOM     17  C   UNL     1     172.143 155.490 151.584  1.00  0.00     0.000 C 
BRANCH  17  18
ATOM     18  C   UNL     1     171.658 156.720 152.379  1.00  0.00    -0.000 C 
BRANCH  18  19
ATOM     19  C   UNL     1     172.203 156.785 153.819  1.00  0.00    -0.000 C 
BRANCH  19  20
ATOM     20  C   UNL     1     171.572 155.782 154.801  1.00  0.00    -0.000 C 
BRANCH  20  21
ATOM     21  C   UNL     1     170.486 156.370 155.722  1.00  0.00    -0.000 C 
BRANCH  21  22
ATOM     22  C   UNL     1     169.141 156.577 155.005  1.00  0.00    -0.000 C 
BRANCH  22  23
ATOM     23  C   UNL     1     168.678 158.043 155.033  1.00  0.00    -0.000 C 
BRANCH  23  24
ATOM     24  C   UNL     1     168.930 158.764 153.696  1.00  0.00    -0.000 C 
BRANCH  24  25
ATOM     25  C   UNL     1     168.273 158.047 152.507  1.00  0.00    -0.003 C 
ATOM     26  C   UNL     1     168.094 158.959 151.293  1.00  0.00     0.004 C 
ENDBRANCH  24  25
ENDBRANCH  23  24
ENDBRANCH  22  23
ENDBRANCH  21  22
ENDBRANCH  20  21
ENDBRANCH  19  20
ENDBRANCH  18  19
ENDBRANCH  17  18
ENDBRANCH  16  17
ENDBRANCH  15  16
ENDBRANCH   1  15
TORSDOF 22
ENDMDL
MODEL 5
REMARK VINA RESULT:    -2.736      2.272      5.582
REMARK INTER + INTRA:         -10.936
REMARK INTER:                  -5.973
REMARK INTRA:                  -4.963
REMARK UNBOUND:                -4.681
REMARK SMILES CCCCCCCCCCCCCCCCCCCCCCCC(=O)[O-]
REMARK SMILES IDX 13 1 14 2 15 3 16 4 17 5 18 6 19 7 20 8 21 9 22 10 23 11
REMARK SMILES IDX 24 12 25 13 26 14 12 15 11 16 10 17 9 18 8 19 7 20 6 21 5 22
REMARK SMILES IDX 4 23 3 24 2 25 1 26
REMARK H PARENT
REMARK Flexibility Score: inf
ROOT
ATOM      1  C   UNL     1     171.738 164.377 145.672  1.00  0.00     0.000 C 
ENDROOT
BRANCH   1   2
ATOM      2  C   UNL     1     172.707 165.468 146.155  1.00  0.00     0.000 C 
BRANCH   2   3
ATOM      3  C   UNL     1     173.092 166.448 145.035  1.00  0.00     0.000 C 
BRANCH   3   4
ATOM      4  C   UNL     1     172.867 165.866 143.627  1.00  0.00     0.000 C 
BRANCH   4   5
ATOM      5  C   UNL     1     171.959 166.707 142.708  1.00  0.00     0.000 C 
BRANCH   5   6
ATOM      6  C   UNL     1     171.206 167.860 143.404  1.00  0.00     0.000 C 
BRANCH   6   7
ATOM      7  C   UNL     1     169.722 167.582 143.705  1.00  0.00     0.000 C 
BRANCH   7   8
ATOM      8  C   UNL     1     168.828 167.708 142.460  1.00  0.00     0.000 C 
BRANCH   8   9
ATOM      9  C   UNL     1     168.071 166.407 142.146  1.00  0.00     0.000 C 
BRANCH   9  10
ATOM     10  C   UNL     1     168.154 166.016 140.660  1.00  0.00     0.006 C 
BRANCH  10  11
ATOM     11  C   UNL     1     169.339 165.084 140.372  1.00  0.00     0.053 C 
BRANCH  11  12
ATOM     12  C   UNL     1     168.881 163.736 139.904  1.00  0.00     0.041 C 
ATOM     13  O   UNL     1     167.686 163.559 139.551  1.00  0.00    -0.550 OA
ATOM     14  O   UNL     1     169.768 162.666 139.890  1.00  0.00    -0.550 OA
ENDBRANCH  11  12
ENDBRANCH  10  11
ENDBRANCH   9  10
ENDBRANCH   8   9
ENDBRANCH   7   8
ENDBRANCH   6   7
ENDBRANCH   5   6
ENDBRANCH   4   5
ENDBRANCH   3   4
ENDBRANCH   2   3
ENDBRANCH   1   2
BRANCH   1  15
ATOM     15  C   UNL     1     170.319 164.551 146.243  1.00  0.00     0.000 C 
BRANCH  15  16
ATOM     16  C   UNL     1     169.225 164.204 145.221  1.00  0.00     0.000 C 
BRANCH  16  17
ATOM     17  C   UNL     1     169.801 163.733 143.874  1.00  0.00     0.000 C 
BRANCH  17  18
ATOM     18  C   UNL     1     169.265 162.348 143.455  1.00  0.00    -0.000 C 
BRANCH  18  19
ATOM     19  C   UNL     1     168.672 161.532 144.620  1.00  0.00    -0.000 C 
BRANCH  19  20
ATOM     20  C   UNL     1     169.496 160.303 145.043  1.00  0.00    -0.000 C 
BRANCH  20  21
ATOM     21  C   UNL     1     170.667 160.604 145.997  1.00  0.00    -0.000 C 
BRANCH  21  22
ATOM     22  C   UNL     1     172.018 160.717 145.271  1.00  0.00    -0.000 C 
BRANCH  22  23
ATOM     23  C   UNL     1     172.021 159.994 143.914  1.00  0.00    -0.000 C 
BRANCH  23  24
ATOM     24  C   UNL     1     173.028 160.607 142.924  1.00  0.00    -0.000 C 
BRANCH  24  25
ATOM     25  C   UNL     1     173.125 162.135 143.052  1.00  0.00    -0.003 C 
ATOM     26  C   UNL     1     172.744 162.861 141.762  1.00  0.00     0.004 C 
ENDBRANCH  24  25
ENDBRANCH  23  24
ENDBRANCH  22  23
ENDBRANCH  21  22
ENDBRANCH  20  21
ENDBRANCH  19  20
ENDBRANCH  18  19
ENDBRANCH  17  18
ENDBRANCH  16  17
ENDBRANCH  15  16
ENDBRANCH   1  15
TORSDOF 22
ENDMDL
MODEL 6
REMARK VINA RESULT:    -2.678      2.814      6.060
REMARK INTER + INTRA:         -10.803
REMARK INTER:                  -6.126
REMARK INTRA:                  -4.677
REMARK UNBOUND:                -4.681
REMARK SMILES CCCCCCCCCCCCCCCCCCCCCCCC(=O)[O-]
REMARK SMILES IDX 13 1 14 2 15 3 16 4 17 5 18 6 19 7 20 8 21 9 22 10 23 11
REMARK SMILES IDX 24 12 25 13 26 14 12 15 11 16 10 17 9 18 8 19 7 20 6 21 5 22
REMARK SMILES IDX 4 23 3 24 2 25 1 26
REMARK H PARENT
REMARK Flexibility Score: inf
ROOT
ATOM      1  C   UNL     1     170.131 162.926 142.627  1.00  0.00     0.000 C 
ENDROOT
BRANCH   1   2
ATOM      2  C   UNL     1     170.729 162.952 141.210  1.00  0.00     0.000 C 
BRANCH   2   3
ATOM      3  C   UNL     1     171.410 164.292 140.886  1.00  0.00     0.000 C 
BRANCH   3   4
ATOM      4  C   UNL     1     172.359 164.766 142.002  1.00  0.00     0.000 C 
BRANCH   4   5
ATOM      5  C   UNL     1     172.700 166.269 141.977  1.00  0.00     0.000 C 
BRANCH   5   6
ATOM      6  C   UNL     1     171.691 167.184 142.703  1.00  0.00     0.000 C 
BRANCH   6   7
ATOM      7  C   UNL     1     170.907 168.144 141.791  1.00  0.00     0.000 C 
BRANCH   7   8
ATOM      8  C   UNL     1     169.387 168.064 142.009  1.00  0.00     0.000 C 
BRANCH   8   9
ATOM      9  C   UNL     1     168.813 166.683 141.650  1.00  0.00     0.000 C 
BRANCH   9  10
ATOM     10  C   UNL     1     167.871 166.132 142.733  1.00  0.00     0.006 C 
BRANCH  10  11
ATOM     11  C   UNL     1     167.807 167.044 143.965  1.00  0.00     0.053 C 
BRANCH  11  12
ATOM     12  C   UNL     1     166.673 166.670 144.871  1.00  0.00     0.041 C 
ATOM     13  O   UNL     1     166.556 167.216 146.000  1.00  0.00    -0.550 OA
ATOM     14  O   UNL     1     165.764 165.695 144.481  1.00  0.00    -0.550 OA
ENDBRANCH  11  12
ENDBRANCH  10  11
ENDBRANCH   9  10
ENDBRANCH   8   9
ENDBRANCH   7   8
ENDBRANCH   6   7
ENDBRANCH   5   6
ENDBRANCH   4   5
ENDBRANCH   3   4
ENDBRANCH   2   3
ENDBRANCH   1   2
BRANCH   1  15
ATOM     15  C   UNL     1     170.735 161.813 143.502  1.00  0.00     0.000 C 
BRANCH  15  16
ATOM     16  C   UNL     1     169.706 160.734 143.877  1.00  0.00     0.000 C 
BRANCH  16  17
ATOM     17  C   UNL     1     170.129 159.917 145.111  1.00  0.00     0.000 C 
BRANCH  17  18
ATOM     18  C   UNL     1     171.090 160.696 146.033  1.00  0.00    -0.000 C 
BRANCH  18  19
ATOM     19  C   UNL     1     170.558 160.889 147.466  1.00  0.00    -0.000 C 
BRANCH  19  20
ATOM     20  C   UNL     1     170.026 162.299 147.781  1.00  0.00    -0.000 C 
BRANCH  20  21
ATOM     21  C   UNL     1     168.646 162.621 147.177  1.00  0.00    -0.000 C 
BRANCH  21  22
ATOM     22  C   UNL     1     168.706 163.705 146.088  1.00  0.00    -0.000 C 
BRANCH  22  23
ATOM     23  C   UNL     1     169.576 164.904 146.497  1.00  0.00    -0.000 C 
BRANCH  23  24
ATOM     24  C   UNL     1     170.718 165.169 145.498  1.00  0.00    -0.000 C 
BRANCH  24  25
ATOM     25  C   UNL     1     172.107 165.002 146.135  1.00  0.00    -0.003 C 
ATOM     26  C   UNL     1     172.952 163.937 145.437  1.00  0.00     0.004 C 
ENDBRANCH  24  25
ENDBRANCH  23  24
ENDBRANCH  22  23
ENDBRANCH  21  22
ENDBRANCH  20  21
ENDBRANCH  19  20
ENDBRANCH  18  19
ENDBRANCH  17  18
ENDBRANCH  16  17
ENDBRANCH  15  16
ENDBRANCH   1  15
TORSDOF 22
ENDMDL
MODEL 7
REMARK VINA RESULT:    -2.669      1.987      4.361
REMARK INTER + INTRA:         -10.783
REMARK INTER:                  -6.449
REMARK INTRA:                  -4.334
REMARK UNBOUND:                -4.681
REMARK SMILES CCCCCCCCCCCCCCCCCCCCCCCC(=O)[O-]
REMARK SMILES IDX 13 1 14 2 15 3 16 4 17 5 18 6 19 7 20 8 21 9 22 10 23 11
REMARK SMILES IDX 24 12 25 13 26 14 12 15 11 16 10 17 9 18 8 19 7 20 6 21 5 22
REMARK SMILES IDX 4 23 3 24 2 25 1 26
REMARK H PARENT
REMARK Flexibility Score: inf
ROOT
ATOM      1  C   UNL     1     171.439 163.053 142.315  1.00  0.00     0.000 C 
ENDROOT
BRANCH   1   2
ATOM      2  C   UNL     1     172.901 162.953 142.782  1.00  0.00     0.000 C 
BRANCH   2   3
ATOM      3  C   UNL     1     173.111 163.548 144.184  1.00  0.00     0.000 C 
BRANCH   3   4
ATOM      4  C   UNL     1     171.949 164.457 144.628  1.00  0.00     0.000 C 
BRANCH   4   5
ATOM      5  C   UNL     1     171.446 164.219 146.067  1.00  0.00     0.000 C 
BRANCH   5   6
ATOM      6  C   UNL     1     170.111 163.454 146.178  1.00  0.00     0.000 C 
BRANCH   6   7
ATOM      7  C   UNL     1     170.143 162.007 145.656  1.00  0.00     0.000 C 
BRANCH   7   8
ATOM      8  C   UNL     1     170.924 161.057 146.580  1.00  0.00     0.000 C 
BRANCH   8   9
ATOM      9  C   UNL     1     172.049 160.311 145.842  1.00  0.00     0.000 C 
BRANCH   9  10
ATOM     10  C   UNL     1     171.515 159.244 144.871  1.00  0.00     0.006 C 
BRANCH  10  11
ATOM     11  C   UNL     1     171.956 159.505 143.424  1.00  0.00     0.053 C 
BRANCH  11  12
ATOM     12  C   UNL     1     172.214 158.226 142.685  1.00  0.00     0.041 C 
ATOM     13  O   UNL     1     172.261 157.133 143.307  1.00  0.00    -0.550 OA
ATOM     14  O   UNL     1     172.436 158.248 141.314  1.00  0.00    -0.550 OA
ENDBRANCH  11  12
ENDBRANCH  10  11
ENDBRANCH   9  10
ENDBRANCH   8   9
ENDBRANCH   7   8
ENDBRANCH   6   7
ENDBRANCH   5   6
ENDBRANCH   4   5
ENDBRANCH   3   4
ENDBRANCH   2   3
ENDBRANCH   1   2
BRANCH   1  15
ATOM     15  C   UNL     1     171.308 163.662 140.908  1.00  0.00     0.000 C 
BRANCH  15  16
ATOM     16  C   UNL     1     172.596 164.363 140.446  1.00  0.00     0.000 C 
BRANCH  16  17
ATOM     17  C   UNL     1     172.395 165.869 140.204  1.00  0.00     0.000 C 
BRANCH  17  18
ATOM     18  C   UNL     1     171.755 166.581 141.414  1.00  0.00    -0.000 C 
BRANCH  18  19
ATOM     19  C   UNL     1     170.530 167.443 141.053  1.00  0.00    -0.000 C 
BRANCH  19  20
ATOM     20  C   UNL     1     169.834 168.120 142.248  1.00  0.00    -0.000 C 
BRANCH  20  21
ATOM     21  C   UNL     1     170.004 167.394 143.595  1.00  0.00    -0.000 C 
BRANCH  21  22
ATOM     22  C   UNL     1     168.735 166.644 144.037  1.00  0.00    -0.000 C 
BRANCH  22  23
ATOM     23  C   UNL     1     168.557 165.305 143.305  1.00  0.00    -0.000 C 
BRANCH  23  24
ATOM     24  C   UNL     1     167.536 165.394 142.156  1.00  0.00    -0.000 C 
BRANCH  24  25
ATOM     25  C   UNL     1     167.878 164.453 140.990  1.00  0.00    -0.003 C 
ATOM     26  C   UNL     1     167.920 165.173 139.643  1.00  0.00     0.004 C 
ENDBRANCH  24  25
ENDBRANCH  23  24
ENDBRANCH  22  23
ENDBRANCH  21  22
ENDBRANCH  20  21
ENDBRANCH  19  20
ENDBRANCH  18  19
ENDBRANCH  17  18
ENDBRANCH  16  17
ENDBRANCH  15  16
ENDBRANCH   1  15
TORSDOF 22
ENDMDL
MODEL 8
REMARK VINA RESULT:    -2.663      3.470      6.230
REMARK INTER + INTRA:         -10.769
REMARK INTER:                  -6.698
REMARK INTRA:                  -4.071
REMARK UNBOUND:                -4.681
REMARK SMILES CCCCCCCCCCCCCCCCCCCCCCCC(=O)[O-]
REMARK SMILES IDX 13 1 14 2 15 3 16 4 17 5 18 6 19 7 20 8 21 9 22 10 23 11
REMARK SMILES IDX 24 12 25 13 26 14 12 15 11 16 10 17 9 18 8 19 7 20 6 21 5 22
REMARK SMILES IDX 4 23 3 24 2 25 1 26
REMARK H PARENT
REMARK Flexibility Score: inf
ROOT
ATOM      1  C   UNL     1     169.402 164.048 145.225  1.00  0.00     0.000 C 
ENDROOT
BRANCH   1   2
ATOM      2  C   UNL     1     168.281 163.821 146.252  1.00  0.00     0.000 C 
BRANCH   2   3
ATOM      3  C   UNL     1     166.942 163.458 145.587  1.00  0.00     0.000 C 
BRANCH   3   4
ATOM      4  C   UNL     1     165.938 164.626 145.587  1.00  0.00     0.000 C 
BRANCH   4   5
ATOM      5  C   UNL     1     166.024 165.564 146.807  1.00  0.00     0.000 C 
BRANCH   5   6
ATOM      6  C   UNL     1     166.363 167.034 146.484  1.00  0.00     0.000 C 
BRANCH   6   7
ATOM      7  C   UNL     1     167.198 167.245 145.208  1.00  0.00     0.000 C 
BRANCH   7   8
ATOM      8  C   UNL     1     168.505 168.012 145.472  1.00  0.00     0.000 C 
BRANCH   8   9
ATOM      9  C   UNL     1     169.006 167.840 146.915  1.00  0.00     0.000 C 
BRANCH   9  10
ATOM     10  C   UNL     1     169.783 169.067 147.424  1.00  0.00     0.006 C 
BRANCH  10  11
ATOM     11  C   UNL     1     170.505 168.787 148.749  1.00  0.00     0.053 C 
BRANCH  11  12
ATOM     12  C   UNL     1     169.665 169.174 149.929  1.00  0.00     0.041 C 
ATOM     13  O   UNL     1     169.858 168.634 151.049  1.00  0.00    -0.550 OA
ATOM     14  O   UNL     1     168.646 170.107 149.781  1.00  0.00    -0.550 OA
ENDBRANCH  11  12
ENDBRANCH  10  11
ENDBRANCH   9  10
ENDBRANCH   8   9
ENDBRANCH   7   8
ENDBRANCH   6   7
ENDBRANCH   5   6
ENDBRANCH   4   5
ENDBRANCH   3   4
ENDBRANCH   2   3
ENDBRANCH   1   2
BRANCH   1  15
ATOM     15  C   UNL     1     170.570 164.871 145.797  1.00  0.00     0.000 C 
BRANCH  15  16
ATOM     16  C   UNL     1     171.942 164.303 145.401  1.00  0.00     0.000 C 
BRANCH  16  17
ATOM     17  C   UNL     1     173.110 165.157 145.927  1.00  0.00     0.000 C 
BRANCH  17  18
ATOM     18  C   UNL     1     172.632 166.463 146.594  1.00  0.00    -0.000 C 
BRANCH  18  19
ATOM     19  C   UNL     1     173.065 167.739 145.846  1.00  0.00    -0.000 C 
BRANCH  19  20
ATOM     20  C   UNL     1     172.087 168.222 144.759  1.00  0.00    -0.000 C 
BRANCH  20  21
ATOM     21  C   UNL     1     172.389 167.708 143.339  1.00  0.00    -0.000 C 
BRANCH  21  22
ATOM     22  C   UNL     1     171.233 166.888 142.740  1.00  0.00    -0.000 C 
BRANCH  22  23
ATOM     23  C   UNL     1     170.623 167.552 141.494  1.00  0.00    -0.000 C 
BRANCH  23  24
ATOM     24  C   UNL     1     169.225 168.136 141.765  1.00  0.00    -0.000 C 
BRANCH  24  25
ATOM     25  C   UNL     1     168.125 167.064 141.748  1.00  0.00    -0.003 C 
ATOM     26  C   UNL     1     168.221 166.139 140.535  1.00  0.00     0.004 C 
ENDBRANCH  24  25
ENDBRANCH  23  24
ENDBRANCH  22  23
ENDBRANCH  21  22
ENDBRANCH  20  21
ENDBRANCH  19  20
ENDBRANCH  18  19
ENDBRANCH  17  18
ENDBRANCH  16  17
ENDBRANCH  15  16
ENDBRANCH   1  15
TORSDOF 22
ENDMDL
MODEL 9
REMARK VINA RESULT:    -2.622      1.747      3.617
REMARK INTER + INTRA:         -10.674
REMARK INTER:                  -6.078
REMARK INTRA:                  -4.596
REMARK UNBOUND:                -4.681
REMARK SMILES CCCCCCCCCCCCCCCCCCCCCCCC(=O)[O-]
REMARK SMILES IDX 13 1 14 2 15 3 16 4 17 5 18 6 19 7 20 8 21 9 22 10 23 11
REMARK SMILES IDX 24 12 25 13 26 14 12 15 11 16 10 17 9 18 8 19 7 20 6 21 5 22
REMARK SMILES IDX 4 23 3 24 2 25 1 26
REMARK H PARENT
REMARK Flexibility Score: inf
ROOT
ATOM      1  C   UNL     1     167.652 166.654 141.645  1.00  0.00     0.000 C 
ENDROOT
BRANCH   1   2
ATOM      2  C   UNL     1     168.669 167.750 141.285  1.00  0.00     0.000 C 
BRANCH   2   3
ATOM      3  C   UNL     1     170.068 167.179 141.000  1.00  0.00     0.000 C 
BRANCH   3   4
ATOM      4  C   UNL     1     171.148 167.744 141.941  1.00  0.00     0.000 C 
BRANCH   4   5
ATOM      5  C   UNL     1     170.654 168.124 143.351  1.00  0.00     0.000 C 
BRANCH   5   6
ATOM      6  C   UNL     1     171.620 167.775 144.502  1.00  0.00     0.000 C 
BRANCH   6   7
ATOM      7  C   UNL     1     172.354 166.430 144.353  1.00  0.00     0.000 C 
BRANCH   7   8
ATOM      8  C   UNL     1     173.060 165.990 145.647  1.00  0.00     0.000 C 
BRANCH   8   9
ATOM      9  C   UNL     1     172.120 165.235 146.601  1.00  0.00     0.000 C 
BRANCH   9  10
ATOM     10  C   UNL     1     171.019 164.458 145.859  1.00  0.00     0.006 C 
BRANCH  10  11
ATOM     11  C   UNL     1     170.878 163.019 146.374  1.00  0.00     0.053 C 
BRANCH  11  12
ATOM     12  C   UNL     1     171.466 162.029 145.414  1.00  0.00     0.041 C 
ATOM     13  O   UNL     1     172.597 162.236 144.902  1.00  0.00    -0.550 OA
ATOM     14  O   UNL     1     170.749 160.892 145.061  1.00  0.00    -0.550 OA
ENDBRANCH  11  12
ENDBRANCH  10  11
ENDBRANCH   9  10
ENDBRANCH   8   9
ENDBRANCH   7   8
ENDBRANCH   6   7
ENDBRANCH   5   6
ENDBRANCH   4   5
ENDBRANCH   3   4
ENDBRANCH   2   3
ENDBRANCH   1   2
BRANCH   1  15
ATOM     15  C   UNL     1     167.491 166.474 143.165  1.00  0.00     0.000 C 
BRANCH  15  16
ATOM     16  C   UNL     1     168.087 165.149 143.668  1.00  0.00     0.000 C 
BRANCH  16  17
ATOM     17  C   UNL     1     167.826 163.979 142.702  1.00  0.00     0.000 C 
BRANCH  17  18
ATOM     18  C   UNL     1     169.100 163.158 142.413  1.00  0.00    -0.000 C 
BRANCH  18  19
ATOM     19  C   UNL     1     170.399 163.983 142.470  1.00  0.00    -0.000 C 
BRANCH  19  20
ATOM     20  C   UNL     1     171.566 163.424 141.635  1.00  0.00    -0.000 C 
BRANCH  20  21
ATOM     21  C   UNL     1     172.718 164.415 141.384  1.00  0.00    -0.000 C 
BRANCH  21  22
ATOM     22  C   UNL     1     173.125 164.497 139.902  1.00  0.00    -0.000 C 
BRANCH  22  23
ATOM     23  C   UNL     1     172.044 163.941 138.962  1.00  0.00    -0.000 C 
BRANCH  23  24
ATOM     24  C   UNL     1     171.266 165.055 138.237  1.00  0.00    -0.000 C 
BRANCH  24  25
ATOM     25  C   UNL     1     169.871 164.599 137.784  1.00  0.00    -0.003 C 
ATOM     26  C   UNL     1     168.909 164.389 138.953  1.00  0.00     0.004 C 
ENDBRANCH  24  25
ENDBRANCH  23  24
ENDBRANCH  22  23
ENDBRANCH  21  22
ENDBRANCH  20  21
ENDBRANCH  19  20
ENDBRANCH  18  19
ENDBRANCH  17  18
ENDBRANCH  16  17
ENDBRANCH  15  16
ENDBRANCH   1  15
TORSDOF 22
ENDMDL
