MODEL 1
REMARK VINA RESULT:    -3.817      0.000      0.000
REMARK INTER + INTRA:         -15.644
REMARK INTER:                 -10.065
REMARK INTRA:                  -5.579
REMARK UNBOUND:                -5.579
REMARK SMILES CCCCCCCCCCCCCCCCCCCCCCCCCCCCCC(=O)[O-]
REMARK SMILES IDX 16 1 17 2 18 3 19 4 20 5 21 6 22 7 23 8 24 9 25 10 26 11
REMARK SMILES IDX 27 12 28 13 29 14 30 15 31 16 32 17 15 18 14 19 13 20 12 21
REMARK SMILES IDX 11 22 10 23 9 24 8 25 7 26 6 27 5 28 4 29 3 30 2 31 1 32
REMARK H PARENT
REMARK Flexibility Score: inf
ROOT
ATOM      1  C   UNL     1     -39.859 -48.568  34.275  1.00  0.00     0.000 C 
ENDROOT
BRANCH   1   2
ATOM      2  C   UNL     1     -39.260 -48.721  35.679  1.00  0.00     0.000 C 
BRANCH   2   3
ATOM      3  C   UNL     1     -38.902 -50.184  35.982  1.00  0.00     0.000 C 
BRANCH   3   4
ATOM      4  C   UNL     1     -40.138 -51.107  36.010  1.00  0.00     0.000 C 
BRANCH   4   5
ATOM      5  C   UNL     1     -40.990 -50.998  37.291  1.00  0.00     0.000 C 
BRANCH   5   6
ATOM      6  C   UNL     1     -42.302 -51.809  37.299  1.00  0.00     0.000 C 
BRANCH   6   7
ATOM      7  C   UNL     1     -42.600 -52.586  36.002  1.00  0.00     0.000 C 
BRANCH   7   8
ATOM      8  C   UNL     1     -43.680 -53.663  36.180  1.00  0.00     0.000 C 
BRANCH   8   9
ATOM      9  C   UNL     1     -43.537 -54.439  37.503  1.00  0.00     0.000 C 
BRANCH   9  10
ATOM     10  C   UNL     1     -44.797 -55.234  37.903  1.00  0.00     0.000 C 
BRANCH  10  11
ATOM     11  C   UNL     1     -45.973 -54.315  38.268  1.00  0.00     0.000 C 
BRANCH  11  12
ATOM     12  C   UNL     1     -47.247 -55.130  38.546  1.00  0.00     0.000 C 
BRANCH  12  13
ATOM     13  C   UNL     1     -47.651 -55.117  40.032  1.00  0.00     0.006 C 
BRANCH  13  14
ATOM     14  C   UNL     1     -47.054 -53.950  40.834  1.00  0.00     0.053 C 
BRANCH  14  15
ATOM     15  C   UNL     1     -48.113 -53.012  41.324  1.00  0.00     0.041 C 
ATOM     16  O   UNL     1     -49.201 -52.902  40.699  1.00  0.00    -0.550 OA
ATOM     17  O   UNL     1     -47.885 -52.230  42.449  1.00  0.00    -0.550 OA
ENDBRANCH  14  15
ENDBRANCH  13  14
ENDBRANCH  12  13
ENDBRANCH  11  12
ENDBRANCH  10  11
ENDBRANCH   9  10
ENDBRANCH   8   9
ENDBRANCH   7   8
ENDBRANCH   6   7
ENDBRANCH   5   6
ENDBRANCH   4   5
ENDBRANCH   3   4
ENDBRANCH   2   3
ENDBRANCH   1   2
BRANCH   1  18
ATOM     18  C   UNL     1     -41.068 -47.616  34.252  1.00  0.00     0.000 C 
BRANCH  18  19
ATOM     19  C   UNL     1     -42.233 -48.019  35.179  1.00  0.00     0.000 C 
BRANCH  19  20
ATOM     20  C   UNL     1     -43.086 -49.187  34.638  1.00  0.00     0.000 C 
BRANCH  20  21
ATOM     21  C   UNL     1     -44.310 -49.485  35.522  1.00  0.00     0.000 C 
BRANCH  21  22
ATOM     22  C   UNL     1     -44.421 -48.532  36.724  1.00  0.00     0.000 C 
BRANCH  22  23
ATOM     23  C   UNL     1     -45.847 -48.461  37.297  1.00  0.00     0.000 C 
BRANCH  23  24
ATOM     24  C   UNL     1     -46.719 -49.657  36.870  1.00  0.00    -0.000 C 
BRANCH  24  25
ATOM     25  C   UNL     1     -46.631 -50.890  37.790  1.00  0.00    -0.000 C 
BRANCH  25  26
ATOM     26  C   UNL     1     -46.253 -50.597  39.257  1.00  0.00    -0.000 C 
BRANCH  26  27
ATOM     27  C   UNL     1     -44.806 -50.958  39.640  1.00  0.00    -0.000 C 
BRANCH  27  28
ATOM     28  C   UNL     1     -44.221 -50.025  40.709  1.00  0.00    -0.000 C 
BRANCH  28  29
ATOM     29  C   UNL     1     -43.060 -49.200  40.138  1.00  0.00    -0.000 C 
BRANCH  29  30
ATOM     30  C   UNL     1     -43.390 -47.694  40.080  1.00  0.00    -0.000 C 
BRANCH  30  31
ATOM     31  C   UNL     1     -42.352 -46.870  39.300  1.00  0.00    -0.003 C 
ATOM     32  C   UNL     1     -41.218 -47.722  38.736  1.00  0.00     0.004 C 
ENDBRANCH  30  31
ENDBRANCH  29  30
ENDBRANCH  28  29
ENDBRANCH  27  28
ENDBRANCH  26  27
ENDBRANCH  25  26
ENDBRANCH  24  25
ENDBRANCH  23  24
ENDBRANCH  22  23
ENDBRANCH  21  22
ENDBRANCH  20  21
ENDBRANCH  19  20
ENDBRANCH  18  19
ENDBRANCH   1  18
TORSDOF 28
ENDMDL
MODEL 2
REMARK VINA RESULT:    -3.809      3.363      6.313
REMARK INTER + INTRA:         -15.623
REMARK INTER:                 -10.023
REMARK INTRA:                  -5.600
REMARK UNBOUND:                -5.579
REMARK SMILES CCCCCCCCCCCCCCCCCCCCCCCCCCCCCC(=O)[O-]
REMARK SMILES IDX 16 1 17 2 18 3 19 4 20 5 21 6 22 7 23 8 24 9 25 10 26 11
REMARK SMILES IDX 27 12 28 13 29 14 30 15 31 16 32 17 15 18 14 19 13 20 12 21
REMARK SMILES IDX 11 22 10 23 9 24 8 25 7 26 6 27 5 28 4 29 3 30 2 31 1 32
REMARK H PARENT
REMARK Flexibility Score: inf
ROOT
ATOM      1  C   UNL     1     -41.073 -47.538  34.255  1.00  0.00     0.000 C 
ENDROOT
BRANCH   1   2
ATOM      2  C   UNL     1     -40.170 -48.612  34.877  1.00  0.00     0.000 C 
BRANCH   2   3
ATOM      3  C   UNL     1     -39.550 -48.130  36.198  1.00  0.00     0.000 C 
BRANCH   3   4
ATOM      4  C   UNL     1     -39.616 -49.197  37.311  1.00  0.00     0.000 C 
BRANCH   4   5
ATOM      5  C   UNL     1     -41.015 -49.392  37.930  1.00  0.00     0.000 C 
BRANCH   5   6
ATOM      6  C   UNL     1     -41.425 -50.849  38.223  1.00  0.00     0.000 C 
BRANCH   6   7
ATOM      7  C   UNL     1     -42.878 -51.039  38.700  1.00  0.00     0.000 C 
BRANCH   7   8
ATOM      8  C   UNL     1     -43.088 -50.635  40.166  1.00  0.00     0.000 C 
BRANCH   8   9
ATOM      9  C   UNL     1     -43.974 -49.385  40.320  1.00  0.00     0.000 C 
BRANCH   9  10
ATOM     10  C   UNL     1     -43.197 -48.109  40.704  1.00  0.00     0.000 C 
BRANCH  10  11
ATOM     11  C   UNL     1     -43.356 -46.994  39.657  1.00  0.00     0.000 C 
BRANCH  11  12
ATOM     12  C   UNL     1     -43.605 -45.634  40.330  1.00  0.00     0.000 C 
BRANCH  12  13
ATOM     13  C   UNL     1     -42.474 -45.231  41.295  1.00  0.00     0.006 C 
BRANCH  13  14
ATOM     14  C   UNL     1     -41.076 -45.227  40.655  1.00  0.00     0.053 C 
BRANCH  14  15
ATOM     15  C   UNL     1     -40.202 -44.159  41.235  1.00  0.00     0.041 C 
ATOM     16  O   UNL     1     -39.619 -43.337  40.480  1.00  0.00    -0.550 OA
ATOM     17  O   UNL     1     -40.000 -44.093  42.608  1.00  0.00    -0.550 OA
ENDBRANCH  14  15
ENDBRANCH  13  14
ENDBRANCH  12  13
ENDBRANCH  11  12
ENDBRANCH  10  11
ENDBRANCH   9  10
ENDBRANCH   8   9
ENDBRANCH   7   8
ENDBRANCH   6   7
ENDBRANCH   5   6
ENDBRANCH   4   5
ENDBRANCH   3   4
ENDBRANCH   2   3
ENDBRANCH   1   2
BRANCH   1  18
ATOM     18  C   UNL     1     -42.541 -47.990  34.156  1.00  0.00     0.000 C 
BRANCH  18  19
ATOM     19  C   UNL     1     -42.786 -49.482  34.462  1.00  0.00     0.000 C 
BRANCH  19  20
ATOM     20  C   UNL     1     -43.939 -49.735  35.456  1.00  0.00     0.000 C 
BRANCH  20  21
ATOM     21  C   UNL     1     -44.167 -48.549  36.412  1.00  0.00     0.000 C 
BRANCH  21  22
ATOM     22  C   UNL     1     -45.513 -48.632  37.151  1.00  0.00     0.000 C 
BRANCH  22  23
ATOM     23  C   UNL     1     -46.253 -49.955  36.891  1.00  0.00     0.000 C 
BRANCH  23  24
ATOM     24  C   UNL     1     -46.811 -50.586  38.180  1.00  0.00    -0.000 C 
BRANCH  24  25
ATOM     25  C   UNL     1     -47.011 -52.113  38.126  1.00  0.00    -0.000 C 
BRANCH  25  26
ATOM     26  C   UNL     1     -45.851 -52.953  38.699  1.00  0.00    -0.000 C 
BRANCH  26  27
ATOM     27  C   UNL     1     -45.198 -53.927  37.702  1.00  0.00    -0.000 C 
BRANCH  27  28
ATOM     28  C   UNL     1     -44.720 -53.236  36.418  1.00  0.00    -0.000 C 
BRANCH  28  29
ATOM     29  C   UNL     1     -43.608 -54.050  35.741  1.00  0.00    -0.000 C 
BRANCH  29  30
ATOM     30  C   UNL     1     -42.718 -53.176  34.833  1.00  0.00    -0.000 C 
BRANCH  30  31
ATOM     31  C   UNL     1     -41.221 -53.514  34.933  1.00  0.00    -0.003 C 
ATOM     32  C   UNL     1     -40.334 -52.273  35.007  1.00  0.00     0.004 C 
ENDBRANCH  30  31
ENDBRANCH  29  30
ENDBRANCH  28  29
ENDBRANCH  27  28
ENDBRANCH  26  27
ENDBRANCH  25  26
ENDBRANCH  24  25
ENDBRANCH  23  24
ENDBRANCH  22  23
ENDBRANCH  21  22
ENDBRANCH  20  21
ENDBRANCH  19  20
ENDBRANCH  18  19
ENDBRANCH   1  18
TORSDOF 28
ENDMDL
MODEL 3
REMARK VINA RESULT:    -3.793      1.350      1.976
REMARK INTER + INTRA:         -15.581
REMARK INTER:                  -9.901
REMARK INTRA:                  -5.680
REMARK UNBOUND:                -5.579
REMARK SMILES CCCCCCCCCCCCCCCCCCCCCCCCCCCCCC(=O)[O-]
REMARK SMILES IDX 16 1 17 2 18 3 19 4 20 5 21 6 22 7 23 8 24 9 25 10 26 11
REMARK SMILES IDX 27 12 28 13 29 14 30 15 31 16 32 17 15 18 14 19 13 20 12 21
REMARK SMILES IDX 11 22 10 23 9 24 8 25 7 26 6 27 5 28 4 29 3 30 2 31 1 32
REMARK H PARENT
REMARK Flexibility Score: inf
ROOT
ATOM      1  C   UNL     1     -40.611 -48.006  34.525  1.00  0.00     0.000 C 
ENDROOT
BRANCH   1   2
ATOM      2  C   UNL     1     -40.272 -47.673  35.984  1.00  0.00     0.000 C 
BRANCH   2   3
ATOM      3  C   UNL     1     -39.955 -48.941  36.791  1.00  0.00     0.000 C 
BRANCH   3   4
ATOM      4  C   UNL     1     -39.933 -50.214  35.918  1.00  0.00     0.000 C 
BRANCH   4   5
ATOM      5  C   UNL     1     -40.304 -51.511  36.665  1.00  0.00     0.000 C 
BRANCH   5   6
ATOM      6  C   UNL     1     -41.580 -51.450  37.528  1.00  0.00     0.000 C 
BRANCH   6   7
ATOM      7  C   UNL     1     -41.723 -52.577  38.570  1.00  0.00     0.000 C 
BRANCH   7   8
ATOM      8  C   UNL     1     -42.562 -53.759  38.066  1.00  0.00     0.000 C 
BRANCH   8   9
ATOM      9  C   UNL     1     -43.995 -53.351  37.676  1.00  0.00     0.000 C 
BRANCH   9  10
ATOM     10  C   UNL     1     -45.095 -54.132  38.424  1.00  0.00     0.000 C 
BRANCH  10  11
ATOM     11  C   UNL     1     -46.504 -53.778  37.921  1.00  0.00     0.000 C 
BRANCH  11  12
ATOM     12  C   UNL     1     -47.580 -54.241  38.917  1.00  0.00     0.000 C 
BRANCH  12  13
ATOM     13  C   UNL     1     -48.031 -53.120  39.872  1.00  0.00     0.006 C 
BRANCH  13  14
ATOM     14  C   UNL     1     -48.080 -53.539  41.351  1.00  0.00     0.053 C 
BRANCH  14  15
ATOM     15  C   UNL     1     -46.766 -54.083  41.818  1.00  0.00     0.041 C 
ATOM     16  O   UNL     1     -45.767 -53.324  41.925  1.00  0.00    -0.550 OA
ATOM     17  O   UNL     1     -46.634 -55.437  42.101  1.00  0.00    -0.550 OA
ENDBRANCH  14  15
ENDBRANCH  13  14
ENDBRANCH  12  13
ENDBRANCH  11  12
ENDBRANCH  10  11
ENDBRANCH   9  10
ENDBRANCH   8   9
ENDBRANCH   7   8
ENDBRANCH   6   7
ENDBRANCH   5   6
ENDBRANCH   4   5
ENDBRANCH   3   4
ENDBRANCH   2   3
ENDBRANCH   1   2
BRANCH   1  18
ATOM     18  C   UNL     1     -42.104 -47.809  34.209  1.00  0.00     0.000 C 
BRANCH  18  19
ATOM     19  C   UNL     1     -42.901 -49.112  33.990  1.00  0.00     0.000 C 
BRANCH  19  20
ATOM     20  C   UNL     1     -43.761 -49.528  35.203  1.00  0.00     0.000 C 
BRANCH  20  21
ATOM     21  C   UNL     1     -43.901 -48.402  36.244  1.00  0.00     0.000 C 
BRANCH  21  22
ATOM     22  C   UNL     1     -45.120 -48.590  37.162  1.00  0.00     0.000 C 
BRANCH  22  23
ATOM     23  C   UNL     1     -45.323 -50.054  37.588  1.00  0.00     0.000 C 
BRANCH  23  24
ATOM     24  C   UNL     1     -46.274 -50.197  38.790  1.00  0.00    -0.000 C 
BRANCH  24  25
ATOM     25  C   UNL     1     -45.581 -50.400  40.151  1.00  0.00    -0.000 C 
BRANCH  25  26
ATOM     26  C   UNL     1     -44.039 -50.349  40.123  1.00  0.00    -0.000 C 
BRANCH  26  27
ATOM     27  C   UNL     1     -43.424 -49.026  40.616  1.00  0.00    -0.000 C 
BRANCH  27  28
ATOM     28  C   UNL     1     -42.181 -48.612  39.817  1.00  0.00    -0.000 C 
BRANCH  28  29
ATOM     29  C   UNL     1     -42.342 -47.194  39.251  1.00  0.00    -0.000 C 
BRANCH  29  30
ATOM     30  C   UNL     1     -43.525 -46.441  39.895  1.00  0.00    -0.000 C 
BRANCH  30  31
ATOM     31  C   UNL     1     -43.092 -45.238  40.749  1.00  0.00    -0.003 C 
ATOM     32  C   UNL     1     -41.589 -44.976  40.690  1.00  0.00     0.004 C 
ENDBRANCH  30  31
ENDBRANCH  29  30
ENDBRANCH  28  29
ENDBRANCH  27  28
ENDBRANCH  26  27
ENDBRANCH  25  26
ENDBRANCH  24  25
ENDBRANCH  23  24
ENDBRANCH  22  23
ENDBRANCH  21  22
ENDBRANCH  20  21
ENDBRANCH  19  20
ENDBRANCH  18  19
ENDBRANCH   1  18
TORSDOF 28
ENDMDL
MODEL 4
REMARK VINA RESULT:    -3.768      3.979      7.554
REMARK INTER + INTRA:         -15.513
REMARK INTER:                  -9.488
REMARK INTRA:                  -6.025
REMARK UNBOUND:                -5.579
REMARK SMILES CCCCCCCCCCCCCCCCCCCCCCCCCCCCCC(=O)[O-]
REMARK SMILES IDX 16 1 17 2 18 3 19 4 20 5 21 6 22 7 23 8 24 9 25 10 26 11
REMARK SMILES IDX 27 12 28 13 29 14 30 15 31 16 32 17 15 18 14 19 13 20 12 21
REMARK SMILES IDX 11 22 10 23 9 24 8 25 7 26 6 27 5 28 4 29 3 30 2 31 1 32
REMARK H PARENT
REMARK Flexibility Score: inf
ROOT
ATOM      1  C   UNL     1     -44.165 -51.176  40.262  1.00  0.00     0.000 C 
ENDROOT
BRANCH   1   2
ATOM      2  C   UNL     1     -43.247 -52.300  39.764  1.00  0.00     0.000 C 
BRANCH   2   3
ATOM      3  C   UNL     1     -42.063 -51.744  38.957  1.00  0.00     0.000 C 
BRANCH   3   4
ATOM      4  C   UNL     1     -42.020 -52.285  37.513  1.00  0.00     0.000 C 
BRANCH   4   5
ATOM      5  C   UNL     1     -41.879 -51.201  36.425  1.00  0.00     0.000 C 
BRANCH   5   6
ATOM      6  C   UNL     1     -42.317 -51.611  35.005  1.00  0.00     0.000 C 
BRANCH   6   7
ATOM      7  C   UNL     1     -42.130 -50.530  33.923  1.00  0.00     0.000 C 
BRANCH   7   8
ATOM      8  C   UNL     1     -43.194 -49.425  33.984  1.00  0.00     0.000 C 
BRANCH   8   9
ATOM      9  C   UNL     1     -42.589 -48.023  34.185  1.00  0.00     0.000 C 
BRANCH   9  10
ATOM     10  C   UNL     1     -41.062 -48.025  34.404  1.00  0.00     0.000 C 
BRANCH  10  11
ATOM     11  C   UNL     1     -40.682 -47.687  35.855  1.00  0.00     0.000 C 
BRANCH  11  12
ATOM     12  C   UNL     1     -39.318 -48.293  36.226  1.00  0.00     0.000 C 
BRANCH  12  13
ATOM     13  C   UNL     1     -38.833 -49.339  35.204  1.00  0.00     0.006 C 
BRANCH  13  14
ATOM     14  C   UNL     1     -37.304 -49.461  35.111  1.00  0.00     0.053 C 
BRANCH  14  15
ATOM     15  C   UNL     1     -36.775 -48.874  33.839  1.00  0.00     0.041 C 
ATOM     16  O   UNL     1     -36.799 -47.628  33.657  1.00  0.00    -0.550 OA
ATOM     17  O   UNL     1     -36.290 -49.705  32.837  1.00  0.00    -0.550 OA
ENDBRANCH  14  15
ENDBRANCH  13  14
ENDBRANCH  12  13
ENDBRANCH  11  12
ENDBRANCH  10  11
ENDBRANCH   9  10
ENDBRANCH   8   9
ENDBRANCH   7   8
ENDBRANCH   6   7
ENDBRANCH   5   6
ENDBRANCH   4   5
ENDBRANCH   3   4
ENDBRANCH   2   3
ENDBRANCH   1   2
BRANCH   1  18
ATOM     18  C   UNL     1     -43.386 -49.897  40.620  1.00  0.00     0.000 C 
BRANCH  18  19
ATOM     19  C   UNL     1     -43.931 -48.603  39.981  1.00  0.00     0.000 C 
BRANCH  19  20
ATOM     20  C   UNL     1     -43.293 -48.264  38.616  1.00  0.00     0.000 C 
BRANCH  20  21
ATOM     21  C   UNL     1     -44.155 -48.731  37.428  1.00  0.00     0.000 C 
BRANCH  21  22
ATOM     22  C   UNL     1     -45.477 -47.955  37.312  1.00  0.00     0.000 C 
BRANCH  22  23
ATOM     23  C   UNL     1     -46.689 -48.876  37.089  1.00  0.00     0.000 C 
BRANCH  23  24
ATOM     24  C   UNL     1     -46.663 -50.122  37.995  1.00  0.00    -0.000 C 
BRANCH  24  25
ATOM     25  C   UNL     1     -46.898 -51.461  37.271  1.00  0.00    -0.000 C 
BRANCH  25  26
ATOM     26  C   UNL     1     -45.622 -52.249  36.906  1.00  0.00    -0.000 C 
BRANCH  26  27
ATOM     27  C   UNL     1     -45.598 -53.709  37.393  1.00  0.00    -0.000 C 
BRANCH  27  28
ATOM     28  C   UNL     1     -46.777 -54.052  38.313  1.00  0.00    -0.000 C 
BRANCH  28  29
ATOM     29  C   UNL     1     -46.282 -54.636  39.643  1.00  0.00    -0.000 C 
BRANCH  29  30
ATOM     30  C   UNL     1     -46.795 -53.836  40.858  1.00  0.00    -0.000 C 
BRANCH  30  31
ATOM     31  C   UNL     1     -48.008 -52.947  40.537  1.00  0.00    -0.003 C 
ATOM     32  C   UNL     1     -47.914 -51.561  41.171  1.00  0.00     0.004 C 
ENDBRANCH  30  31
ENDBRANCH  29  30
ENDBRANCH  28  29
ENDBRANCH  27  28
ENDBRANCH  26  27
ENDBRANCH  25  26
ENDBRANCH  24  25
ENDBRANCH  23  24
ENDBRANCH  22  23
ENDBRANCH  21  22
ENDBRANCH  20  21
ENDBRANCH  19  20
ENDBRANCH  18  19
ENDBRANCH   1  18
TORSDOF 28
ENDMDL
MODEL 5
REMARK VINA RESULT:    -3.766      2.549      4.393
REMARK INTER + INTRA:         -15.510
REMARK INTER:                 -11.439
REMARK INTRA:                  -4.071
REMARK UNBOUND:                -5.579
REMARK SMILES CCCCCCCCCCCCCCCCCCCCCCCCCCCCCC(=O)[O-]
REMARK SMILES IDX 16 1 17 2 18 3 19 4 20 5 21 6 22 7 23 8 24 9 25 10 26 11
REMARK SMILES IDX 27 12 28 13 29 14 30 15 31 16 32 17 15 18 14 19 13 20 12 21
REMARK SMILES IDX 11 22 10 23 9 24 8 25 7 26 6 27 5 28 4 29 3 30 2 31 1 32
REMARK H PARENT
REMARK Flexibility Score: inf
ROOT
ATOM      1  C   UNL     1     -42.377 -47.943  34.600  1.00  0.00     0.000 C 
ENDROOT
BRANCH   1   2
ATOM      2  C   UNL     1     -43.126 -49.210  34.168  1.00  0.00     0.000 C 
BRANCH   2   3
ATOM      3  C   UNL     1     -43.883 -49.845  35.345  1.00  0.00     0.000 C 
BRANCH   3   4
ATOM      4  C   UNL     1     -44.341 -48.806  36.389  1.00  0.00     0.000 C 
BRANCH   4   5
ATOM      5  C   UNL     1     -45.765 -49.031  36.938  1.00  0.00     0.000 C 
BRANCH   5   6
ATOM      6  C   UNL     1     -46.086 -50.463  37.411  1.00  0.00     0.000 C 
BRANCH   6   7
ATOM      7  C   UNL     1     -46.265 -50.626  38.933  1.00  0.00     0.000 C 
BRANCH   7   8
ATOM      8  C   UNL     1     -46.706 -52.040  39.340  1.00  0.00     0.000 C 
BRANCH   8   9
ATOM      9  C   UNL     1     -47.626 -52.701  38.297  1.00  0.00     0.000 C 
BRANCH   9  10
ATOM     10  C   UNL     1     -47.396 -54.217  38.130  1.00  0.00     0.000 C 
BRANCH  10  11
ATOM     11  C   UNL     1     -45.902 -54.578  38.084  1.00  0.00     0.000 C 
BRANCH  11  12
ATOM     12  C   UNL     1     -45.680 -56.062  38.418  1.00  0.00     0.000 C 
BRANCH  12  13
ATOM     13  C   UNL     1     -46.968 -56.898  38.302  1.00  0.00     0.006 C 
BRANCH  13  14
ATOM     14  C   UNL     1     -47.444 -57.503  39.633  1.00  0.00     0.053 C 
BRANCH  14  15
ATOM     15  C   UNL     1     -46.688 -58.748  39.980  1.00  0.00     0.041 C 
ATOM     16  O   UNL     1     -46.922 -59.823  39.368  1.00  0.00    -0.550 OA
ATOM     17  O   UNL     1     -45.750 -58.730  41.005  1.00  0.00    -0.550 OA
ENDBRANCH  14  15
ENDBRANCH  13  14
ENDBRANCH  12  13
ENDBRANCH  11  12
ENDBRANCH  10  11
ENDBRANCH   9  10
ENDBRANCH   8   9
ENDBRANCH   7   8
ENDBRANCH   6   7
ENDBRANCH   5   6
ENDBRANCH   4   5
ENDBRANCH   3   4
ENDBRANCH   2   3
ENDBRANCH   1   2
BRANCH   1  18
ATOM     18  C   UNL     1     -40.850 -48.099  34.496  1.00  0.00     0.000 C 
BRANCH  18  19
ATOM     19  C   UNL     1     -40.071 -47.762  35.785  1.00  0.00     0.000 C 
BRANCH  19  20
ATOM     20  C   UNL     1     -40.839 -48.092  37.083  1.00  0.00     0.000 C 
BRANCH  20  21
ATOM     21  C   UNL     1     -40.302 -49.353  37.785  1.00  0.00     0.000 C 
BRANCH  21  22
ATOM     22  C   UNL     1     -41.304 -50.518  37.762  1.00  0.00     0.000 C 
BRANCH  22  23
ATOM     23  C   UNL     1     -42.287 -50.480  38.945  1.00  0.00     0.000 C 
BRANCH  23  24
ATOM     24  C   UNL     1     -41.636 -49.961  40.241  1.00  0.00    -0.000 C 
BRANCH  24  25
ATOM     25  C   UNL     1     -42.404 -48.828  40.949  1.00  0.00    -0.000 C 
BRANCH  25  26
ATOM     26  C   UNL     1     -43.697 -48.365  40.247  1.00  0.00    -0.000 C 
BRANCH  26  27
ATOM     27  C   UNL     1     -43.553 -47.092  39.393  1.00  0.00    -0.000 C 
BRANCH  27  28
ATOM     28  C   UNL     1     -42.380 -46.206  39.833  1.00  0.00    -0.000 C 
BRANCH  28  29
ATOM     29  C   UNL     1     -42.840 -45.155  40.852  1.00  0.00    -0.000 C 
BRANCH  29  30
ATOM     30  C   UNL     1     -41.662 -44.568  41.657  1.00  0.00    -0.000 C 
BRANCH  30  31
ATOM     31  C   UNL     1     -40.837 -43.536  40.871  1.00  0.00    -0.003 C 
ATOM     32  C   UNL     1     -39.346 -43.867  40.838  1.00  0.00     0.004 C 
ENDBRANCH  30  31
ENDBRANCH  29  30
ENDBRANCH  28  29
ENDBRANCH  27  28
ENDBRANCH  26  27
ENDBRANCH  25  26
ENDBRANCH  24  25
ENDBRANCH  23  24
ENDBRANCH  22  23
ENDBRANCH  21  22
ENDBRANCH  20  21
ENDBRANCH  19  20
ENDBRANCH  18  19
ENDBRANCH   1  18
TORSDOF 28
ENDMDL
MODEL 6
REMARK VINA RESULT:    -3.751      1.706      4.563
REMARK INTER + INTRA:         -15.468
REMARK INTER:                 -10.108
REMARK INTRA:                  -5.360
REMARK UNBOUND:                -5.579
REMARK SMILES CCCCCCCCCCCCCCCCCCCCCCCCCCCCCC(=O)[O-]
REMARK SMILES IDX 16 1 17 2 18 3 19 4 20 5 21 6 22 7 23 8 24 9 25 10 26 11
REMARK SMILES IDX 27 12 28 13 29 14 30 15 31 16 32 17 15 18 14 19 13 20 12 21
REMARK SMILES IDX 11 22 10 23 9 24 8 25 7 26 6 27 5 28 4 29 3 30 2 31 1 32
REMARK H PARENT
REMARK Flexibility Score: inf
ROOT
ATOM      1  C   UNL     1     -42.844 -50.879  38.703  1.00  0.00     0.000 C 
ENDROOT
BRANCH   1   2
ATOM      2  C   UNL     1     -43.691 -50.449  39.908  1.00  0.00     0.000 C 
BRANCH   2   3
ATOM      3  C   UNL     1     -44.259 -49.033  39.719  1.00  0.00     0.000 C 
BRANCH   3   4
ATOM      4  C   UNL     1     -43.791 -48.374  38.405  1.00  0.00     0.000 C 
BRANCH   4   5
ATOM      5  C   UNL     1     -44.929 -47.997  37.435  1.00  0.00     0.000 C 
BRANCH   5   6
ATOM      6  C   UNL     1     -45.490 -49.148  36.576  1.00  0.00     0.000 C 
BRANCH   6   7
ATOM      7  C   UNL     1     -46.912 -49.612  36.950  1.00  0.00     0.000 C 
BRANCH   7   8
ATOM      8  C   UNL     1     -46.921 -50.792  37.933  1.00  0.00     0.000 C 
BRANCH   8   9
ATOM      9  C   UNL     1     -46.929 -52.159  37.225  1.00  0.00     0.000 C 
BRANCH   9  10
ATOM     10  C   UNL     1     -47.833 -53.211  37.901  1.00  0.00     0.000 C 
BRANCH  10  11
ATOM     11  C   UNL     1     -47.882 -53.039  39.429  1.00  0.00     0.000 C 
BRANCH  11  12
ATOM     12  C   UNL     1     -46.555 -53.467  40.076  1.00  0.00     0.000 C 
BRANCH  12  13
ATOM     13  C   UNL     1     -46.431 -53.008  41.541  1.00  0.00     0.006 C 
BRANCH  13  14
ATOM     14  C   UNL     1     -47.704 -53.225  42.376  1.00  0.00     0.053 C 
BRANCH  14  15
ATOM     15  C   UNL     1     -47.394 -53.393  43.831  1.00  0.00     0.041 C 
ATOM     16  O   UNL     1     -47.788 -52.537  44.666  1.00  0.00    -0.550 OA
ATOM     17  O   UNL     1     -46.637 -54.475  44.261  1.00  0.00    -0.550 OA
ENDBRANCH  14  15
ENDBRANCH  13  14
ENDBRANCH  12  13
ENDBRANCH  11  12
ENDBRANCH  10  11
ENDBRANCH   9  10
ENDBRANCH   8   9
ENDBRANCH   7   8
ENDBRANCH   6   7
ENDBRANCH   5   6
ENDBRANCH   4   5
ENDBRANCH   3   4
ENDBRANCH   2   3
ENDBRANCH   1   2
BRANCH   1  18
ATOM     18  C   UNL     1     -43.408 -52.130  38.006  1.00  0.00     0.000 C 
BRANCH  18  19
ATOM     19  C   UNL     1     -43.266 -52.140  36.470  1.00  0.00     0.000 C 
BRANCH  19  20
ATOM     20  C   UNL     1     -42.058 -51.333  35.949  1.00  0.00     0.000 C 
BRANCH  20  21
ATOM     21  C   UNL     1     -42.199 -50.949  34.464  1.00  0.00     0.000 C 
BRANCH  21  22
ATOM     22  C   UNL     1     -43.250 -49.851  34.232  1.00  0.00     0.000 C 
BRANCH  22  23
ATOM     23  C   UNL     1     -42.620 -48.484  33.913  1.00  0.00     0.000 C 
BRANCH  23  24
ATOM     24  C   UNL     1     -41.859 -47.886  35.111  1.00  0.00    -0.000 C 
BRANCH  24  25
ATOM     25  C   UNL     1     -40.327 -47.833  34.951  1.00  0.00    -0.000 C 
BRANCH  25  26
ATOM     26  C   UNL     1     -39.519 -48.030  36.250  1.00  0.00    -0.000 C 
BRANCH  26  27
ATOM     27  C   UNL     1     -40.357 -48.393  37.489  1.00  0.00    -0.000 C 
BRANCH  27  28
ATOM     28  C   UNL     1     -40.056 -47.497  38.698  1.00  0.00    -0.000 C 
BRANCH  28  29
ATOM     29  C   UNL     1     -40.631 -48.104  39.985  1.00  0.00    -0.000 C 
BRANCH  29  30
ATOM     30  C   UNL     1     -41.263 -47.036  40.902  1.00  0.00    -0.000 C 
BRANCH  30  31
ATOM     31  C   UNL     1     -41.822 -45.825  40.136  1.00  0.00    -0.003 C 
ATOM     32  C   UNL     1     -43.227 -45.433  40.588  1.00  0.00     0.004 C 
ENDBRANCH  30  31
ENDBRANCH  29  30
ENDBRANCH  28  29
ENDBRANCH  27  28
ENDBRANCH  26  27
ENDBRANCH  25  26
ENDBRANCH  24  25
ENDBRANCH  23  24
ENDBRANCH  22  23
ENDBRANCH  21  22
ENDBRANCH  20  21
ENDBRANCH  19  20
ENDBRANCH  18  19
ENDBRANCH   1  18
TORSDOF 28
ENDMDL
MODEL 7
REMARK VINA RESULT:    -3.738      2.274      5.952
REMARK INTER + INTRA:         -15.436
REMARK INTER:                  -9.965
REMARK INTRA:                  -5.471
REMARK UNBOUND:                -5.579
REMARK SMILES CCCCCCCCCCCCCCCCCCCCCCCCCCCCCC(=O)[O-]
REMARK SMILES IDX 16 1 17 2 18 3 19 4 20 5 21 6 22 7 23 8 24 9 25 10 26 11
REMARK SMILES IDX 27 12 28 13 29 14 30 15 31 16 32 17 15 18 14 19 13 20 12 21
REMARK SMILES IDX 11 22 10 23 9 24 8 25 7 26 6 27 5 28 4 29 3 30 2 31 1 32
REMARK H PARENT
REMARK Flexibility Score: inf
ROOT
ATOM      1  C   UNL     1     -43.663 -52.968  40.370  1.00  0.00     0.000 C 
ENDROOT
BRANCH   1   2
ATOM      2  C   UNL     1     -44.000 -52.361  41.738  1.00  0.00     0.000 C 
BRANCH   2   3
ATOM      3  C   UNL     1     -44.740 -53.368  42.633  1.00  0.00     0.000 C 
BRANCH   3   4
ATOM      4  C   UNL     1     -45.666 -54.308  41.834  1.00  0.00     0.000 C 
BRANCH   4   5
ATOM      5  C   UNL     1     -47.142 -54.286  42.280  1.00  0.00     0.000 C 
BRANCH   5   6
ATOM      6  C   UNL     1     -47.724 -52.898  42.614  1.00  0.00     0.000 C 
BRANCH   6   7
ATOM      7  C   UNL     1     -48.349 -52.144  41.424  1.00  0.00     0.000 C 
BRANCH   7   8
ATOM      8  C   UNL     1     -47.386 -51.139  40.775  1.00  0.00     0.000 C 
BRANCH   8   9
ATOM      9  C   UNL     1     -47.030 -51.507  39.322  1.00  0.00     0.000 C 
BRANCH   9  10
ATOM     10  C   UNL     1     -47.470 -52.926  38.908  1.00  0.00     0.000 C 
BRANCH  10  11
ATOM     11  C   UNL     1     -46.502 -53.565  37.899  1.00  0.00     0.000 C 
BRANCH  11  12
ATOM     12  C   UNL     1     -46.333 -55.069  38.169  1.00  0.00     0.000 C 
BRANCH  12  13
ATOM     13  C   UNL     1     -47.525 -55.675  38.933  1.00  0.00     0.006 C 
BRANCH  13  14
ATOM     14  C   UNL     1     -47.952 -57.063  38.430  1.00  0.00     0.053 C 
BRANCH  14  15
ATOM     15  C   UNL     1     -46.975 -58.125  38.830  1.00  0.00     0.041 C 
ATOM     16  O   UNL     1     -46.442 -58.099  39.971  1.00  0.00    -0.550 OA
ATOM     17  O   UNL     1     -46.623 -59.123  37.930  1.00  0.00    -0.550 OA
ENDBRANCH  14  15
ENDBRANCH  13  14
ENDBRANCH  12  13
ENDBRANCH  11  12
ENDBRANCH  10  11
ENDBRANCH   9  10
ENDBRANCH   8   9
ENDBRANCH   7   8
ENDBRANCH   6   7
ENDBRANCH   5   6
ENDBRANCH   4   5
ENDBRANCH   3   4
ENDBRANCH   2   3
ENDBRANCH   1   2
BRANCH   1  18
ATOM     18  C   UNL     1     -43.597 -51.907  39.257  1.00  0.00     0.000 C 
BRANCH  18  19
ATOM     19  C   UNL     1     -42.368 -50.977  39.315  1.00  0.00     0.000 C 
BRANCH  19  20
ATOM     20  C   UNL     1     -42.672 -49.575  39.885  1.00  0.00     0.000 C 
BRANCH  20  21
ATOM     21  C   UNL     1     -44.127 -49.137  39.633  1.00  0.00     0.000 C 
BRANCH  21  22
ATOM     22  C   UNL     1     -44.280 -48.291  38.358  1.00  0.00     0.000 C 
BRANCH  22  23
ATOM     23  C   UNL     1     -45.499 -48.704  37.515  1.00  0.00     0.000 C 
BRANCH  23  24
ATOM     24  C   UNL     1     -45.162 -49.784  36.471  1.00  0.00    -0.000 C 
BRANCH  24  25
ATOM     25  C   UNL     1     -43.681 -49.846  36.050  1.00  0.00    -0.000 C 
BRANCH  25  26
ATOM     26  C   UNL     1     -43.360 -49.244  34.666  1.00  0.00    -0.000 C 
BRANCH  26  27
ATOM     27  C   UNL     1     -42.410 -48.033  34.687  1.00  0.00    -0.000 C 
BRANCH  27  28
ATOM     28  C   UNL     1     -41.620 -47.916  35.998  1.00  0.00    -0.000 C 
BRANCH  28  29
ATOM     29  C   UNL     1     -40.144 -48.276  35.781  1.00  0.00    -0.000 C 
BRANCH  29  30
ATOM     30  C   UNL     1     -39.799 -48.444  34.286  1.00  0.00    -0.000 C 
BRANCH  30  31
ATOM     31  C   UNL     1     -39.166 -49.805  33.953  1.00  0.00    -0.003 C 
ATOM     32  C   UNL     1     -39.940 -50.982  34.544  1.00  0.00     0.004 C 
ENDBRANCH  30  31
ENDBRANCH  29  30
ENDBRANCH  28  29
ENDBRANCH  27  28
ENDBRANCH  26  27
ENDBRANCH  25  26
ENDBRANCH  24  25
ENDBRANCH  23  24
ENDBRANCH  22  23
ENDBRANCH  21  22
ENDBRANCH  20  21
ENDBRANCH  19  20
ENDBRANCH  18  19
ENDBRANCH   1  18
TORSDOF 28
ENDMDL
MODEL 8
REMARK VINA RESULT:    -3.733      2.835      7.915
REMARK INTER + INTRA:         -15.421
REMARK INTER:                 -10.345
REMARK INTRA:                  -5.076
REMARK UNBOUND:                -5.579
REMARK SMILES CCCCCCCCCCCCCCCCCCCCCCCCCCCCCC(=O)[O-]
REMARK SMILES IDX 16 1 17 2 18 3 19 4 20 5 21 6 22 7 23 8 24 9 25 10 26 11
REMARK SMILES IDX 27 12 28 13 29 14 30 15 31 16 32 17 15 18 14 19 13 20 12 21
REMARK SMILES IDX 11 22 10 23 9 24 8 25 7 26 6 27 5 28 4 29 3 30 2 31 1 32
REMARK H PARENT
REMARK Flexibility Score: inf
ROOT
ATOM      1  C   UNL     1     -44.412 -51.199  40.761  1.00  0.00     0.000 C 
ENDROOT
BRANCH   1   2
ATOM      2  C   UNL     1     -44.491 -49.829  40.075  1.00  0.00     0.000 C 
BRANCH   2   3
ATOM      3  C   UNL     1     -44.018 -49.903  38.615  1.00  0.00     0.000 C 
BRANCH   3   4
ATOM      4  C   UNL     1     -44.542 -48.731  37.759  1.00  0.00     0.000 C 
BRANCH   4   5
ATOM      5  C   UNL     1     -44.621 -49.027  36.247  1.00  0.00     0.000 C 
BRANCH   5   6
ATOM      6  C   UNL     1     -43.610 -50.059  35.708  1.00  0.00     0.000 C 
BRANCH   6   7
ATOM      7  C   UNL     1     -42.902 -49.662  34.398  1.00  0.00     0.000 C 
BRANCH   7   8
ATOM      8  C   UNL     1     -42.767 -48.143  34.223  1.00  0.00     0.000 C 
BRANCH   8   9
ATOM      9  C   UNL     1     -41.308 -47.658  34.321  1.00  0.00     0.000 C 
BRANCH   9  10
ATOM     10  C   UNL     1     -40.272 -48.799  34.393  1.00  0.00     0.000 C 
BRANCH  10  11
ATOM     11  C   UNL     1     -39.521 -48.820  35.735  1.00  0.00     0.000 C 
BRANCH  11  12
ATOM     12  C   UNL     1     -40.046 -47.726  36.679  1.00  0.00     0.000 C 
BRANCH  12  13
ATOM     13  C   UNL     1     -40.798 -48.299  37.895  1.00  0.00     0.006 C 
BRANCH  13  14
ATOM     14  C   UNL     1     -41.454 -47.231  38.787  1.00  0.00     0.053 C 
BRANCH  14  15
ATOM     15  C   UNL     1     -40.966 -47.311  40.200  1.00  0.00     0.041 C 
ATOM     16  O   UNL     1     -41.156 -48.355  40.879  1.00  0.00    -0.550 OA
ATOM     17  O   UNL     1     -40.333 -46.219  40.782  1.00  0.00    -0.550 OA
ENDBRANCH  14  15
ENDBRANCH  13  14
ENDBRANCH  12  13
ENDBRANCH  11  12
ENDBRANCH  10  11
ENDBRANCH   9  10
ENDBRANCH   8   9
ENDBRANCH   7   8
ENDBRANCH   6   7
ENDBRANCH   5   6
ENDBRANCH   4   5
ENDBRANCH   3   4
ENDBRANCH   2   3
ENDBRANCH   1   2
BRANCH   1  18
ATOM     18  C   UNL     1     -45.801 -51.826  40.983  1.00  0.00     0.000 C 
BRANCH  18  19
ATOM     19  C   UNL     1     -46.921 -51.261  40.086  1.00  0.00     0.000 C 
BRANCH  19  20
ATOM     20  C   UNL     1     -47.378 -52.229  38.973  1.00  0.00     0.000 C 
BRANCH  20  21
ATOM     21  C   UNL     1     -46.914 -51.783  37.574  1.00  0.00     0.000 C 
BRANCH  21  22
ATOM     22  C   UNL     1     -46.112 -52.871  36.839  1.00  0.00     0.000 C 
BRANCH  22  23
ATOM     23  C   UNL     1     -44.891 -53.351  37.641  1.00  0.00     0.000 C 
BRANCH  23  24
ATOM     24  C   UNL     1     -44.881 -54.877  37.852  1.00  0.00    -0.000 C 
BRANCH  24  25
ATOM     25  C   UNL     1     -44.938 -55.334  39.322  1.00  0.00    -0.000 C 
BRANCH  25  26
ATOM     26  C   UNL     1     -46.342 -55.341  39.960  1.00  0.00    -0.000 C 
BRANCH  26  27
ATOM     27  C   UNL     1     -47.114 -56.666  39.818  1.00  0.00    -0.000 C 
BRANCH  27  28
ATOM     28  C   UNL     1     -47.910 -56.757  38.509  1.00  0.00    -0.000 C 
BRANCH  28  29
ATOM     29  C   UNL     1     -47.870 -58.183  37.943  1.00  0.00    -0.000 C 
BRANCH  29  30
ATOM     30  C   UNL     1     -46.806 -59.057  38.640  1.00  0.00    -0.000 C 
BRANCH  30  31
ATOM     31  C   UNL     1     -45.574 -59.338  37.764  1.00  0.00    -0.003 C 
ATOM     32  C   UNL     1     -44.275 -58.828  38.383  1.00  0.00     0.004 C 
ENDBRANCH  30  31
ENDBRANCH  29  30
ENDBRANCH  28  29
ENDBRANCH  27  28
ENDBRANCH  26  27
ENDBRANCH  25  26
ENDBRANCH  24  25
ENDBRANCH  23  24
ENDBRANCH  22  23
ENDBRANCH  21  22
ENDBRANCH  20  21
ENDBRANCH  19  20
ENDBRANCH  18  19
ENDBRANCH   1  18
TORSDOF 28
ENDMDL
MODEL 9
REMARK VINA RESULT:    -3.710      1.150      4.876
REMARK INTER + INTRA:         -15.361
REMARK INTER:                  -9.239
REMARK INTRA:                  -6.122
REMARK UNBOUND:                -5.579
REMARK SMILES CCCCCCCCCCCCCCCCCCCCCCCCCCCCCC(=O)[O-]
REMARK SMILES IDX 16 1 17 2 18 3 19 4 20 5 21 6 22 7 23 8 24 9 25 10 26 11
REMARK SMILES IDX 27 12 28 13 29 14 30 15 31 16 32 17 15 18 14 19 13 20 12 21
REMARK SMILES IDX 11 22 10 23 9 24 8 25 7 26 6 27 5 28 4 29 3 30 2 31 1 32
REMARK H PARENT
REMARK Flexibility Score: inf
ROOT
ATOM      1  C   UNL     1     -43.255 -49.115  40.298  1.00  0.00     0.000 C 
ENDROOT
BRANCH   1   2
ATOM      2  C   UNL     1     -43.085 -50.639  40.305  1.00  0.00     0.000 C 
BRANCH   2   3
ATOM      3  C   UNL     1     -44.409 -51.354  39.992  1.00  0.00     0.000 C 
BRANCH   3   4
ATOM      4  C   UNL     1     -45.624 -50.405  40.037  1.00  0.00     0.000 C 
BRANCH   4   5
ATOM      5  C   UNL     1     -46.787 -50.806  39.107  1.00  0.00     0.000 C 
BRANCH   5   6
ATOM      6  C   UNL     1     -46.419 -51.023  37.625  1.00  0.00     0.000 C 
BRANCH   6   7
ATOM      7  C   UNL     1     -46.797 -52.402  37.051  1.00  0.00     0.000 C 
BRANCH   7   8
ATOM      8  C   UNL     1     -47.518 -53.300  38.066  1.00  0.00     0.000 C 
BRANCH   8   9
ATOM      9  C   UNL     1     -46.785 -54.632  38.311  1.00  0.00     0.000 C 
BRANCH   9  10
ATOM     10  C   UNL     1     -45.985 -54.675  39.629  1.00  0.00     0.000 C 
BRANCH  10  11
ATOM     11  C   UNL     1     -46.557 -55.698  40.624  1.00  0.00     0.000 C 
BRANCH  11  12
ATOM     12  C   UNL     1     -46.626 -55.109  42.043  1.00  0.00     0.000 C 
BRANCH  12  13
ATOM     13  C   UNL     1     -46.502 -53.574  42.059  1.00  0.00     0.006 C 
BRANCH  13  14
ATOM     14  C   UNL     1     -47.681 -52.857  42.735  1.00  0.00     0.053 C 
BRANCH  14  15
ATOM     15  C   UNL     1     -48.670 -52.347  41.733  1.00  0.00     0.041 C 
ATOM     16  O   UNL     1     -49.238 -53.144  40.940  1.00  0.00    -0.550 OA
ATOM     17  O   UNL     1     -48.938 -50.986  41.649  1.00  0.00    -0.550 OA
ENDBRANCH  14  15
ENDBRANCH  13  14
ENDBRANCH  12  13
ENDBRANCH  11  12
ENDBRANCH  10  11
ENDBRANCH   9  10
ENDBRANCH   8   9
ENDBRANCH   7   8
ENDBRANCH   6   7
ENDBRANCH   5   6
ENDBRANCH   4   5
ENDBRANCH   3   4
ENDBRANCH   2   3
ENDBRANCH   1   2
BRANCH   1  18
ATOM     18  C   UNL     1     -42.059 -48.393  39.652  1.00  0.00     0.000 C 
BRANCH  18  19
ATOM     19  C   UNL     1     -42.309 -47.865  38.225  1.00  0.00     0.000 C 
BRANCH  19  20
ATOM     20  C   UNL     1     -43.606 -48.400  37.579  1.00  0.00     0.000 C 
BRANCH  20  21
ATOM     21  C   UNL     1     -43.364 -49.654  36.719  1.00  0.00     0.000 C 
BRANCH  21  22
ATOM     22  C   UNL     1     -43.976 -49.537  35.313  1.00  0.00     0.000 C 
BRANCH  22  23
ATOM     23  C   UNL     1     -42.914 -49.335  34.218  1.00  0.00     0.000 C 
BRANCH  23  24
ATOM     24  C   UNL     1     -42.405 -47.884  34.145  1.00  0.00    -0.000 C 
BRANCH  24  25
ATOM     25  C   UNL     1     -40.944 -47.680  34.590  1.00  0.00    -0.000 C 
BRANCH  25  26
ATOM     26  C   UNL     1     -40.068 -48.951  34.589  1.00  0.00    -0.000 C 
BRANCH  26  27
ATOM     27  C   UNL     1     -39.657 -49.458  35.983  1.00  0.00    -0.000 C 
BRANCH  27  28
ATOM     28  C   UNL     1     -40.072 -50.914  36.236  1.00  0.00    -0.000 C 
BRANCH  28  29
ATOM     29  C   UNL     1     -40.227 -51.186  37.738  1.00  0.00    -0.000 C 
BRANCH  29  30
ATOM     30  C   UNL     1     -40.993 -52.496  38.017  1.00  0.00    -0.000 C 
BRANCH  30  31
ATOM     31  C   UNL     1     -41.763 -53.026  36.797  1.00  0.00    -0.003 C 
ATOM     32  C   UNL     1     -43.218 -53.366  37.113  1.00  0.00     0.004 C 
ENDBRANCH  30  31
ENDBRANCH  29  30
ENDBRANCH  28  29
ENDBRANCH  27  28
ENDBRANCH  26  27
ENDBRANCH  25  26
ENDBRANCH  24  25
ENDBRANCH  23  24
ENDBRANCH  22  23
ENDBRANCH  21  22
ENDBRANCH  20  21
ENDBRANCH  19  20
ENDBRANCH  18  19
ENDBRANCH   1  18
TORSDOF 28
ENDMDL
