MODEL 1
REMARK VINA RESULT:    -4.954      0.000      0.000
REMARK INTER + INTRA:          -9.605
REMARK INTER:                  -9.009
REMARK INTRA:                  -0.596
REMARK UNBOUND:                -0.596
REMARK SMILES CCCCCCCCCCCCCCCC(=O)[O-]
REMARK SMILES IDX 9 1 10 2 11 3 12 4 13 5 14 6 15 7 16 8 17 9 18 10 8 11 7 12
REMARK SMILES IDX 6 13 5 14 4 15 3 16 2 17 1 18
REMARK H PARENT
REMARK Flexibility Score: inf
ROOT
ATOM      1  C   UNL     1       9.448   2.023  67.719  1.00  0.00     0.000 C 
ENDROOT
BRANCH   1   2
ATOM      2  C   UNL     1       8.210   2.863  68.075  1.00  0.00     0.000 C 
BRANCH   2   3
ATOM      3  C   UNL     1       7.035   2.009  68.583  1.00  0.00     0.000 C 
BRANCH   3   4
ATOM      4  C   UNL     1       5.640   2.463  68.108  1.00  0.00     0.000 C 
BRANCH   4   5
ATOM      5  C   UNL     1       4.457   1.659  68.682  1.00  0.00     0.000 C 
BRANCH   5   6
ATOM      6  C   UNL     1       4.138   0.351  67.936  1.00  0.00     0.006 C 
BRANCH   6   7
ATOM      7  C   UNL     1       3.359   0.584  66.635  1.00  0.00     0.053 C 
BRANCH   7   8
ATOM      8  C   UNL     1       2.657  -0.670  66.216  1.00  0.00     0.041 C 
ATOM      9  O   UNL     1       2.964  -1.236  65.134  1.00  0.00    -0.550 OA
ATOM     10  O   UNL     1       1.698  -1.239  67.044  1.00  0.00    -0.550 OA
ENDBRANCH   7   8
ENDBRANCH   6   7
ENDBRANCH   5   6
ENDBRANCH   4   5
ENDBRANCH   3   4
ENDBRANCH   2   3
ENDBRANCH   1   2
BRANCH   1  11
ATOM     11  C   UNL     1      10.452   2.784  66.833  1.00  0.00     0.000 C 
BRANCH  11  12
ATOM     12  C   UNL     1      10.589   2.253  65.393  1.00  0.00    -0.000 C 
BRANCH  12  13
ATOM     13  C   UNL     1      11.991   1.730  65.017  1.00  0.00    -0.000 C 
BRANCH  13  14
ATOM     14  C   UNL     1      12.337   0.341  65.581  1.00  0.00    -0.000 C 
BRANCH  14  15
ATOM     15  C   UNL     1      11.667  -0.803  64.804  1.00  0.00    -0.000 C 
BRANCH  15  16
ATOM     16  C   UNL     1      11.604  -2.080  65.655  1.00  0.00    -0.000 C 
BRANCH  16  17
ATOM     17  C   UNL     1      10.793  -3.199  64.984  1.00  0.00    -0.003 C 
ATOM     18  C   UNL     1      10.135  -2.750  63.679  1.00  0.00     0.004 C 
ENDBRANCH  16  17
ENDBRANCH  15  16
ENDBRANCH  14  15
ENDBRANCH  13  14
ENDBRANCH  12  13
ENDBRANCH  11  12
ENDBRANCH   1  11
TORSDOF 14
ENDMDL
MODEL 2
REMARK VINA RESULT:    -4.132      2.641      3.189
REMARK INTER + INTRA:          -8.110
REMARK INTER:                  -7.524
REMARK INTRA:                  -0.586
REMARK UNBOUND:                -0.596
REMARK SMILES CCCCCCCCCCCCCCCC(=O)[O-]
REMARK SMILES IDX 9 1 10 2 11 3 12 4 13 5 14 6 15 7 16 8 17 9 18 10 8 11 7 12
REMARK SMILES IDX 6 13 5 14 4 15 3 16 2 17 1 18
REMARK H PARENT
REMARK Flexibility Score: inf
ROOT
ATOM      1  C   UNL     1       9.374   2.103  67.764  1.00  0.00     0.000 C 
ENDROOT
BRANCH   1   2
ATOM      2  C   UNL     1       8.194   3.076  67.931  1.00  0.00     0.000 C 
BRANCH   2   3
ATOM      3  C   UNL     1       6.848   2.354  68.121  1.00  0.00     0.000 C 
BRANCH   3   4
ATOM      4  C   UNL     1       6.330   2.301  69.572  1.00  0.00     0.000 C 
BRANCH   4   5
ATOM      5  C   UNL     1       5.994   0.892  70.099  1.00  0.00     0.000 C 
BRANCH   5   6
ATOM      6  C   UNL     1       4.872   0.844  71.151  1.00  0.00     0.006 C 
BRANCH   6   7
ATOM      7  C   UNL     1       4.749  -0.527  71.828  1.00  0.00     0.053 C 
BRANCH   7   8
ATOM      8  C   UNL     1       3.385  -0.696  72.421  1.00  0.00     0.041 C 
ATOM      9  O   UNL     1       3.247  -0.818  73.666  1.00  0.00    -0.550 OA
ATOM     10  O   UNL     1       2.263  -0.668  71.603  1.00  0.00    -0.550 OA
ENDBRANCH   7   8
ENDBRANCH   6   7
ENDBRANCH   5   6
ENDBRANCH   4   5
ENDBRANCH   3   4
ENDBRANCH   2   3
ENDBRANCH   1   2
BRANCH   1  11
ATOM     11  C   UNL     1      10.538   2.709  66.959  1.00  0.00     0.000 C 
BRANCH  11  12
ATOM     12  C   UNL     1      10.594   2.296  65.475  1.00  0.00    -0.000 C 
BRANCH  12  13
ATOM     13  C   UNL     1      11.987   1.882  64.960  1.00  0.00    -0.000 C 
BRANCH  13  14
ATOM     14  C   UNL     1      12.462   0.492  65.420  1.00  0.00    -0.000 C 
BRANCH  14  15
ATOM     15  C   UNL     1      11.703  -0.654  64.734  1.00  0.00    -0.000 C 
BRANCH  15  16
ATOM     16  C   UNL     1      11.678  -1.904  65.626  1.00  0.00    -0.000 C 
BRANCH  16  17
ATOM     17  C   UNL     1      10.843  -3.045  65.022  1.00  0.00    -0.003 C 
ATOM     18  C   UNL     1      10.199  -2.664  63.688  1.00  0.00     0.004 C 
ENDBRANCH  16  17
ENDBRANCH  15  16
ENDBRANCH  14  15
ENDBRANCH  13  14
ENDBRANCH  12  13
ENDBRANCH  11  12
ENDBRANCH   1  11
TORSDOF 14
ENDMDL
MODEL 3
REMARK VINA RESULT:    -4.043     14.311     17.648
REMARK INTER + INTRA:          -7.948
REMARK INTER:                  -5.649
REMARK INTRA:                  -2.299
REMARK UNBOUND:                -0.596
REMARK SMILES CCCCCCCCCCCCCCCC(=O)[O-]
REMARK SMILES IDX 9 1 10 2 11 3 12 4 13 5 14 6 15 7 16 8 17 9 18 10 8 11 7 12
REMARK SMILES IDX 6 13 5 14 4 15 3 16 2 17 1 18
REMARK H PARENT
REMARK Flexibility Score: inf
ROOT
ATOM      1  C   UNL     1      -3.488 -10.764  66.346  1.00  0.00     0.000 C 
ENDROOT
BRANCH   1   2
ATOM      2  C   UNL     1      -3.644 -10.854  64.818  1.00  0.00     0.000 C 
BRANCH   2   3
ATOM      3  C   UNL     1      -5.079 -10.558  64.346  1.00  0.00     0.000 C 
BRANCH   3   4
ATOM      4  C   UNL     1      -6.011  -9.954  65.416  1.00  0.00     0.000 C 
BRANCH   4   5
ATOM      5  C   UNL     1      -6.634  -8.592  65.052  1.00  0.00     0.000 C 
BRANCH   5   6
ATOM      6  C   UNL     1      -5.898  -7.368  65.627  1.00  0.00     0.006 C 
BRANCH   6   7
ATOM      7  C   UNL     1      -5.016  -6.664  64.589  1.00  0.00     0.053 C 
BRANCH   7   8
ATOM      8  C   UNL     1      -3.586  -7.072  64.757  1.00  0.00     0.041 C 
ATOM      9  O   UNL     1      -2.852  -7.242  63.748  1.00  0.00    -0.550 OA
ATOM     10  O   UNL     1      -3.049  -7.218  66.031  1.00  0.00    -0.550 OA
ENDBRANCH   7   8
ENDBRANCH   6   7
ENDBRANCH   5   6
ENDBRANCH   4   5
ENDBRANCH   3   4
ENDBRANCH   2   3
ENDBRANCH   1   2
BRANCH   1  11
ATOM     11  C   UNL     1      -3.230 -12.133  67.001  1.00  0.00     0.000 C 
BRANCH  11  12
ATOM     12  C   UNL     1      -3.974 -12.375  68.329  1.00  0.00    -0.000 C 
BRANCH  12  13
ATOM     13  C   UNL     1      -4.632 -13.763  68.470  1.00  0.00    -0.000 C 
BRANCH  13  14
ATOM     14  C   UNL     1      -4.855 -14.512  67.144  1.00  0.00    -0.000 C 
BRANCH  14  15
ATOM     15  C   UNL     1      -6.245 -14.257  66.541  1.00  0.00    -0.000 C 
BRANCH  15  16
ATOM     16  C   UNL     1      -6.153 -14.056  65.021  1.00  0.00    -0.000 C 
BRANCH  16  17
ATOM     17  C   UNL     1      -4.756 -14.374  64.466  1.00  0.00    -0.003 C 
ATOM     18  C   UNL     1      -4.618 -14.034  62.982  1.00  0.00     0.004 C 
ENDBRANCH  16  17
ENDBRANCH  15  16
ENDBRANCH  14  15
ENDBRANCH  13  14
ENDBRANCH  12  13
ENDBRANCH  11  12
ENDBRANCH   1  11
TORSDOF 14
ENDMDL
MODEL 4
REMARK VINA RESULT:    -4.032     14.381     18.259
REMARK INTER + INTRA:          -7.928
REMARK INTER:                  -5.431
REMARK INTRA:                  -2.497
REMARK UNBOUND:                -0.596
REMARK SMILES CCCCCCCCCCCCCCCC(=O)[O-]
REMARK SMILES IDX 9 1 10 2 11 3 12 4 13 5 14 6 15 7 16 8 17 9 18 10 8 11 7 12
REMARK SMILES IDX 6 13 5 14 4 15 3 16 2 17 1 18
REMARK H PARENT
REMARK Flexibility Score: inf
ROOT
ATOM      1  C   UNL     1      -4.211 -14.474  65.744  1.00  0.00     0.000 C 
ENDROOT
BRANCH   1   2
ATOM      2  C   UNL     1      -4.521 -14.465  64.238  1.00  0.00     0.000 C 
BRANCH   2   3
ATOM      3  C   UNL     1      -4.117 -13.147  63.553  1.00  0.00     0.000 C 
BRANCH   3   4
ATOM      4  C   UNL     1      -4.049 -11.918  64.481  1.00  0.00     0.000 C 
BRANCH   4   5
ATOM      5  C   UNL     1      -5.147 -10.861  64.253  1.00  0.00     0.000 C 
BRANCH   5   6
ATOM      6  C   UNL     1      -4.918  -9.523  64.979  1.00  0.00     0.006 C 
BRANCH   6   7
ATOM      7  C   UNL     1      -3.478  -9.012  64.844  1.00  0.00     0.053 C 
BRANCH   7   8
ATOM      8  C   UNL     1      -3.449  -7.516  64.887  1.00  0.00     0.041 C 
ATOM      9  O   UNL     1      -2.481  -6.916  65.424  1.00  0.00    -0.550 OA
ATOM     10  O   UNL     1      -4.468  -6.783  64.291  1.00  0.00    -0.550 OA
ENDBRANCH   7   8
ENDBRANCH   6   7
ENDBRANCH   5   6
ENDBRANCH   4   5
ENDBRANCH   3   4
ENDBRANCH   2   3
ENDBRANCH   1   2
BRANCH   1  11
ATOM     11  C   UNL     1      -5.441 -14.815  66.605  1.00  0.00     0.000 C 
BRANCH  11  12
ATOM     12  C   UNL     1      -6.774 -14.221  66.108  1.00  0.00    -0.000 C 
BRANCH  12  13
ATOM     13  C   UNL     1      -7.102 -12.810  66.638  1.00  0.00    -0.000 C 
BRANCH  13  14
ATOM     14  C   UNL     1      -6.609 -12.524  68.067  1.00  0.00    -0.000 C 
BRANCH  14  15
ATOM     15  C   UNL     1      -5.694 -11.292  68.147  1.00  0.00    -0.000 C 
BRANCH  15  16
ATOM     16  C   UNL     1      -4.220 -11.711  68.258  1.00  0.00    -0.000 C 
BRANCH  16  17
ATOM     17  C   UNL     1      -3.268 -10.508  68.333  1.00  0.00    -0.003 C 
ATOM     18  C   UNL     1      -4.002  -9.184  68.544  1.00  0.00     0.004 C 
ENDBRANCH  16  17
ENDBRANCH  15  16
ENDBRANCH  14  15
ENDBRANCH  13  14
ENDBRANCH  12  13
ENDBRANCH  11  12
ENDBRANCH   1  11
TORSDOF 14
ENDMDL
MODEL 5
REMARK VINA RESULT:    -4.007      4.999      8.234
REMARK INTER + INTRA:          -7.883
REMARK INTER:                  -5.611
REMARK INTRA:                  -2.272
REMARK UNBOUND:                -0.596
REMARK SMILES CCCCCCCCCCCCCCCC(=O)[O-]
REMARK SMILES IDX 9 1 10 2 11 3 12 4 13 5 14 6 15 7 16 8 17 9 18 10 8 11 7 12
REMARK SMILES IDX 6 13 5 14 4 15 3 16 2 17 1 18
REMARK H PARENT
REMARK Flexibility Score: inf
ROOT
ATOM      1  C   UNL     1       3.525  -3.218  66.892  1.00  0.00     0.000 C 
ENDROOT
BRANCH   1   2
ATOM      2  C   UNL     1       4.646  -3.624  67.864  1.00  0.00     0.000 C 
BRANCH   2   3
ATOM      3  C   UNL     1       4.203  -3.582  69.337  1.00  0.00     0.000 C 
BRANCH   3   4
ATOM      4  C   UNL     1       3.143  -2.513  69.674  1.00  0.00     0.000 C 
BRANCH   4   5
ATOM      5  C   UNL     1       3.678  -1.261  70.396  1.00  0.00     0.000 C 
BRANCH   5   6
ATOM      6  C   UNL     1       3.873  -0.028  69.495  1.00  0.00     0.006 C 
BRANCH   6   7
ATOM      7  C   UNL     1       5.241  -0.007  68.803  1.00  0.00     0.053 C 
BRANCH   7   8
ATOM      8  C   UNL     1       5.614   1.392  68.425  1.00  0.00     0.041 C 
ATOM      9  O   UNL     1       4.732   2.195  68.020  1.00  0.00    -0.550 OA
ATOM     10  O   UNL     1       6.926   1.825  68.568  1.00  0.00    -0.550 OA
ENDBRANCH   7   8
ENDBRANCH   6   7
ENDBRANCH   5   6
ENDBRANCH   4   5
ENDBRANCH   3   4
ENDBRANCH   2   3
ENDBRANCH   1   2
BRANCH   1  11
ATOM     11  C   UNL     1       3.886  -1.982  66.048  1.00  0.00     0.000 C 
BRANCH  11  12
ATOM     12  C   UNL     1       2.686  -1.226  65.445  1.00  0.00    -0.000 C 
BRANCH  12  13
ATOM     13  C   UNL     1       2.177  -0.032  66.278  1.00  0.00    -0.000 C 
BRANCH  13  14
ATOM     14  C   UNL     1       0.687  -0.094  66.657  1.00  0.00    -0.000 C 
BRANCH  14  15
ATOM     15  C   UNL     1       0.426  -0.927  67.920  1.00  0.00    -0.000 C 
BRANCH  15  16
ATOM     16  C   UNL     1      -0.621  -2.018  67.651  1.00  0.00    -0.000 C 
BRANCH  16  17
ATOM     17  C   UNL     1      -0.050  -3.204  66.858  1.00  0.00    -0.003 C 
ATOM     18  C   UNL     1      -1.136  -4.136  66.323  1.00  0.00     0.004 C 
ENDBRANCH  16  17
ENDBRANCH  15  16
ENDBRANCH  14  15
ENDBRANCH  13  14
ENDBRANCH  12  13
ENDBRANCH  11  12
ENDBRANCH   1  11
TORSDOF 14
ENDMDL
MODEL 6
REMARK VINA RESULT:    -3.962     12.719     15.327
REMARK INTER + INTRA:          -7.801
REMARK INTER:                  -5.570
REMARK INTRA:                  -2.231
REMARK UNBOUND:                -0.596
REMARK SMILES CCCCCCCCCCCCCCCC(=O)[O-]
REMARK SMILES IDX 9 1 10 2 11 3 12 4 13 5 14 6 15 7 16 8 17 9 18 10 8 11 7 12
REMARK SMILES IDX 6 13 5 14 4 15 3 16 2 17 1 18
REMARK H PARENT
REMARK Flexibility Score: inf
ROOT
ATOM      1  C   UNL     1      -3.377  -3.087  63.414  1.00  0.00     0.000 C 
ENDROOT
BRANCH   1   2
ATOM      2  C   UNL     1      -3.023  -3.798  64.731  1.00  0.00     0.000 C 
BRANCH   2   3
ATOM      3  C   UNL     1      -2.156  -5.052  64.519  1.00  0.00     0.000 C 
BRANCH   3   4
ATOM      4  C   UNL     1      -2.662  -6.327  65.223  1.00  0.00     0.000 C 
BRANCH   4   5
ATOM      5  C   UNL     1      -3.018  -7.497  64.286  1.00  0.00     0.000 C 
BRANCH   5   6
ATOM      6  C   UNL     1      -3.641  -8.720  64.985  1.00  0.00     0.006 C 
BRANCH   6   7
ATOM      7  C   UNL     1      -3.239 -10.048  64.330  1.00  0.00     0.053 C 
BRANCH   7   8
ATOM      8  C   UNL     1      -4.319 -11.067  64.513  1.00  0.00     0.041 C 
ATOM      9  O   UNL     1      -5.438 -10.729  64.980  1.00  0.00    -0.550 OA
ATOM     10  O   UNL     1      -4.106 -12.383  64.121  1.00  0.00    -0.550 OA
ENDBRANCH   7   8
ENDBRANCH   6   7
ENDBRANCH   5   6
ENDBRANCH   4   5
ENDBRANCH   3   4
ENDBRANCH   2   3
ENDBRANCH   1   2
BRANCH   1  11
ATOM     11  C   UNL     1      -3.182  -3.986  62.179  1.00  0.00     0.000 C 
BRANCH  11  12
ATOM     12  C   UNL     1      -4.460  -4.675  61.661  1.00  0.00    -0.000 C 
BRANCH  12  13
ATOM     13  C   UNL     1      -5.770  -3.901  61.908  1.00  0.00    -0.000 C 
BRANCH  13  14
ATOM     14  C   UNL     1      -6.750  -4.577  62.882  1.00  0.00    -0.000 C 
BRANCH  14  15
ATOM     15  C   UNL     1      -6.183  -5.863  63.502  1.00  0.00    -0.000 C 
BRANCH  15  16
ATOM     16  C   UNL     1      -6.876  -6.180  64.836  1.00  0.00    -0.000 C 
BRANCH  16  17
ATOM     17  C   UNL     1      -6.160  -5.546  66.039  1.00  0.00    -0.003 C 
ATOM     18  C   UNL     1      -5.777  -6.571  67.107  1.00  0.00     0.004 C 
ENDBRANCH  16  17
ENDBRANCH  15  16
ENDBRANCH  14  15
ENDBRANCH  13  14
ENDBRANCH  12  13
ENDBRANCH  11  12
ENDBRANCH   1  11
TORSDOF 14
ENDMDL
MODEL 7
REMARK VINA RESULT:    -3.958     12.926     16.036
REMARK INTER + INTRA:          -7.793
REMARK INTER:                  -5.760
REMARK INTRA:                  -2.032
REMARK UNBOUND:                -0.596
REMARK SMILES CCCCCCCCCCCCCCCC(=O)[O-]
REMARK SMILES IDX 9 1 10 2 11 3 12 4 13 5 14 6 15 7 16 8 17 9 18 10 8 11 7 12
REMARK SMILES IDX 6 13 5 14 4 15 3 16 2 17 1 18
REMARK H PARENT
REMARK Flexibility Score: inf
ROOT
ATOM      1  C   UNL     1      -6.274  -7.948  64.757  1.00  0.00     0.000 C 
ENDROOT
BRANCH   1   2
ATOM      2  C   UNL     1      -5.543  -7.932  66.110  1.00  0.00     0.000 C 
BRANCH   2   3
ATOM      3  C   UNL     1      -4.378  -8.936  66.172  1.00  0.00     0.000 C 
BRANCH   3   4
ATOM      4  C   UNL     1      -3.510  -9.014  64.900  1.00  0.00     0.000 C 
BRANCH   4   5
ATOM      5  C   UNL     1      -3.365 -10.420  64.288  1.00  0.00     0.000 C 
BRANCH   5   6
ATOM      6  C   UNL     1      -4.642 -11.279  64.328  1.00  0.00     0.006 C 
BRANCH   6   7
ATOM      7  C   UNL     1      -4.387 -12.700  64.846  1.00  0.00     0.053 C 
BRANCH   7   8
ATOM      8  C   UNL     1      -4.726 -13.708  63.793  1.00  0.00     0.041 C 
ATOM      9  O   UNL     1      -4.268 -14.879  63.866  1.00  0.00    -0.550 OA
ATOM     10  O   UNL     1      -5.588 -13.369  62.758  1.00  0.00    -0.550 OA
ENDBRANCH   7   8
ENDBRANCH   6   7
ENDBRANCH   5   6
ENDBRANCH   4   5
ENDBRANCH   3   4
ENDBRANCH   2   3
ENDBRANCH   1   2
BRANCH   1  11
ATOM     11  C   UNL     1      -6.342  -6.558  64.099  1.00  0.00     0.000 C 
BRANCH  11  12
ATOM     12  C   UNL     1      -5.695  -5.417  64.908  1.00  0.00    -0.000 C 
BRANCH  12  13
ATOM     13  C   UNL     1      -4.503  -4.718  64.223  1.00  0.00    -0.000 C 
BRANCH  13  14
ATOM     14  C   UNL     1      -3.218  -5.561  64.141  1.00  0.00    -0.000 C 
BRANCH  14  15
ATOM     15  C   UNL     1      -2.084  -5.005  65.015  1.00  0.00    -0.000 C 
BRANCH  15  16
ATOM     16  C   UNL     1      -1.886  -5.867  66.270  1.00  0.00    -0.000 C 
BRANCH  16  17
ATOM     17  C   UNL     1      -2.757  -5.404  67.449  1.00  0.00    -0.003 C 
ATOM     18  C   UNL     1      -2.997  -6.509  68.477  1.00  0.00     0.004 C 
ENDBRANCH  16  17
ENDBRANCH  15  16
ENDBRANCH  14  15
ENDBRANCH  13  14
ENDBRANCH  12  13
ENDBRANCH  11  12
ENDBRANCH   1  11
TORSDOF 14
ENDMDL
MODEL 8
REMARK VINA RESULT:    -3.953     12.385     16.837
REMARK INTER + INTRA:          -7.785
REMARK INTER:                  -6.005
REMARK INTRA:                  -1.780
REMARK UNBOUND:                -0.596
REMARK SMILES CCCCCCCCCCCCCCCC(=O)[O-]
REMARK SMILES IDX 9 1 10 2 11 3 12 4 13 5 14 6 15 7 16 8 17 9 18 10 8 11 7 12
REMARK SMILES IDX 6 13 5 14 4 15 3 16 2 17 1 18
REMARK H PARENT
REMARK Flexibility Score: inf
ROOT
ATOM      1  C   UNL     1      -4.614 -10.525  64.409  1.00  0.00     0.000 C 
ENDROOT
BRANCH   1   2
ATOM      2  C   UNL     1      -5.857 -10.022  65.163  1.00  0.00     0.000 C 
BRANCH   2   3
ATOM      3  C   UNL     1      -6.266  -8.595  64.754  1.00  0.00     0.000 C 
BRANCH   3   4
ATOM      4  C   UNL     1      -5.232  -7.498  65.075  1.00  0.00     0.000 C 
BRANCH   4   5
ATOM      5  C   UNL     1      -4.649  -7.542  66.501  1.00  0.00     0.000 C 
BRANCH   5   6
ATOM      6  C   UNL     1      -4.185  -6.182  67.054  1.00  0.00     0.006 C 
BRANCH   6   7
ATOM      7  C   UNL     1      -3.747  -5.210  65.952  1.00  0.00     0.053 C 
BRANCH   7   8
ATOM      8  C   UNL     1      -2.302  -5.414  65.621  1.00  0.00     0.041 C 
ATOM      9  O   UNL     1      -1.489  -5.761  66.518  1.00  0.00    -0.550 OA
ATOM     10  O   UNL     1      -1.861  -5.268  64.311  1.00  0.00    -0.550 OA
ENDBRANCH   7   8
ENDBRANCH   6   7
ENDBRANCH   5   6
ENDBRANCH   4   5
ENDBRANCH   3   4
ENDBRANCH   2   3
ENDBRANCH   1   2
BRANCH   1  11
ATOM     11  C   UNL     1      -3.443 -10.864  65.348  1.00  0.00     0.000 C 
BRANCH  11  12
ATOM     12  C   UNL     1      -3.847 -11.443  66.718  1.00  0.00    -0.000 C 
BRANCH  12  13
ATOM     13  C   UNL     1      -3.232 -12.816  67.059  1.00  0.00    -0.000 C 
BRANCH  13  14
ATOM     14  C   UNL     1      -4.067 -14.029  66.614  1.00  0.00    -0.000 C 
BRANCH  14  15
ATOM     15  C   UNL     1      -5.537 -13.675  66.342  1.00  0.00    -0.000 C 
BRANCH  15  16
ATOM     16  C   UNL     1      -5.917 -13.994  64.889  1.00  0.00    -0.000 C 
BRANCH  16  17
ATOM     17  C   UNL     1      -4.706 -14.408  64.038  1.00  0.00    -0.003 C 
ATOM     18  C   UNL     1      -4.874 -14.058  62.560  1.00  0.00     0.004 C 
ENDBRANCH  16  17
ENDBRANCH  15  16
ENDBRANCH  14  15
ENDBRANCH  13  14
ENDBRANCH  12  13
ENDBRANCH  11  12
ENDBRANCH   1  11
TORSDOF 14
ENDMDL
MODEL 9
REMARK VINA RESULT:    -3.894     12.927     16.267
REMARK INTER + INTRA:          -7.677
REMARK INTER:                  -5.716
REMARK INTRA:                  -1.960
REMARK UNBOUND:                -0.596
REMARK SMILES CCCCCCCCCCCCCCCC(=O)[O-]
REMARK SMILES IDX 9 1 10 2 11 3 12 4 13 5 14 6 15 7 16 8 17 9 18 10 8 11 7 12
REMARK SMILES IDX 6 13 5 14 4 15 3 16 2 17 1 18
REMARK H PARENT
REMARK Flexibility Score: inf
ROOT
ATOM      1  C   UNL     1      -4.912  -7.217  66.345  1.00  0.00     0.000 C 
ENDROOT
BRANCH   1   2
ATOM      2  C   UNL     1      -3.593  -7.951  66.052  1.00  0.00     0.000 C 
BRANCH   2   3
ATOM      3  C   UNL     1      -3.499  -8.454  64.600  1.00  0.00     0.000 C 
BRANCH   3   4
ATOM      4  C   UNL     1      -3.392  -9.984  64.441  1.00  0.00     0.000 C 
BRANCH   4   5
ATOM      5  C   UNL     1      -4.736 -10.735  64.381  1.00  0.00     0.000 C 
BRANCH   5   6
ATOM      6  C   UNL     1      -4.791 -12.034  65.205  1.00  0.00     0.006 C 
BRANCH   6   7
ATOM      7  C   UNL     1      -5.613 -13.136  64.525  1.00  0.00     0.053 C 
BRANCH   7   8
ATOM      8  C   UNL     1      -4.724 -14.027  63.716  1.00  0.00     0.041 C 
ATOM      9  O   UNL     1      -4.880 -14.116  62.470  1.00  0.00    -0.550 OA
ATOM     10  O   UNL     1      -3.690 -14.721  64.331  1.00  0.00    -0.550 OA
ENDBRANCH   7   8
ENDBRANCH   6   7
ENDBRANCH   5   6
ENDBRANCH   4   5
ENDBRANCH   3   4
ENDBRANCH   2   3
ENDBRANCH   1   2
BRANCH   1  11
ATOM     11  C   UNL     1      -5.833  -7.129  65.115  1.00  0.00     0.000 C 
BRANCH  11  12
ATOM     12  C   UNL     1      -6.176  -5.699  64.653  1.00  0.00    -0.000 C 
BRANCH  12  13
ATOM     13  C   UNL     1      -6.192  -5.489  63.125  1.00  0.00    -0.000 C 
BRANCH  13  14
ATOM     14  C   UNL     1      -4.831  -5.127  62.506  1.00  0.00    -0.000 C 
BRANCH  14  15
ATOM     15  C   UNL     1      -3.991  -4.208  63.405  1.00  0.00    -0.000 C 
BRANCH  15  16
ATOM     16  C   UNL     1      -2.625  -4.841  63.711  1.00  0.00    -0.000 C 
BRANCH  16  17
ATOM     17  C   UNL     1      -2.249  -4.746  65.198  1.00  0.00    -0.003 C 
ATOM     18  C   UNL     1      -3.195  -3.843  65.991  1.00  0.00     0.004 C 
ENDBRANCH  16  17
ENDBRANCH  15  16
ENDBRANCH  14  15
ENDBRANCH  13  14
ENDBRANCH  12  13
ENDBRANCH  11  12
ENDBRANCH   1  11
TORSDOF 14
ENDMDL
