MODEL 1
REMARK VINA RESULT:    -6.696      0.000      0.000
REMARK INTER + INTRA:          -6.360
REMARK INTER:                  -7.283
REMARK INTRA:                   0.924
REMARK UNBOUND:                 0.924
REMARK SMILES CC1(C)CC[C@@]2(C(=O)[O-])CC[C@]3(C)C(=CC[C@@H]4[C@@]5(C)CC[C@@H](O)C(C)(C)[C@H]5CC[C@]43C)[C@@H]2C1
REMARK SMILES IDX 6 1 5 2 10 3 32 4 4 5 11 6 14 7 33 8 2 9 12 10 15 11 1 12
REMARK SMILES IDX 3 13 13 14 30 15 16 16 17 17 29 18 31 19 18 20 28 21 27 22
REMARK SMILES IDX 20 23 19 24 24 25 21 26 22 27 25 28 26 29 7 30 8 31 9 32
REMARK SMILES IDX 23 33
REMARK H PARENT 23 34
REMARK Flexibility Score: inf
ROOT
ATOM      1  C   UNL     1      13.302   1.958 140.885  1.00  0.00     0.017 C 
ATOM      2  C   UNL     1      12.854   3.246 140.137  1.00  0.00     0.014 C 
ATOM      3  C   UNL     1      13.133   0.737 139.912  1.00  0.00     0.014 C 
ATOM      4  C   UNL     1      14.801   2.119 141.299  1.00  0.00     0.028 C 
ATOM      5  C   UNL     1      13.052   4.516 140.977  1.00  0.00     0.007 C 
ATOM      6  C   UNL     1      14.317  -0.259 139.875  1.00  0.00     0.013 C 
ATOM      7  C   UNL     1      15.341   0.818 141.931  1.00  0.00    -0.064 C 
ATOM      8  C   UNL     1      15.055   3.422 142.113  1.00  0.00     0.015 C 
ATOM      9  C   UNL     1      14.520   4.711 141.430  1.00  0.00    -0.035 C 
ATOM     10  C   UNL     1      15.001  -0.522 141.259  1.00  0.00    -0.006 C 
ATOM     11  C   UNL     1      16.267   0.848 142.926  1.00  0.00    -0.027 C 
ATOM     12  C   UNL     1      14.565   5.867 142.453  1.00  0.00     0.011 C 
ATOM     13  C   UNL     1      15.414   5.110 140.231  1.00  0.00     0.011 C 
ATOM     14  C   UNL     1      13.947  -1.247 142.162  1.00  0.00     0.017 C 
ATOM     15  C   UNL     1      16.369  -1.353 141.088  1.00  0.00    -0.020 C 
ATOM     16  C   UNL     1      17.239  -0.273 143.236  1.00  0.00     0.032 C 
ATOM     17  C   UNL     1      16.966  -1.629 142.512  1.00  0.00     0.006 C 
ATOM     18  C   UNL     1      16.132  -2.736 140.430  1.00  0.00     0.008 C 
ATOM     19  C   UNL     1      17.379  -0.524 140.205  1.00  0.00     0.012 C 
ATOM     20  C   UNL     1      18.102  -2.788 142.609  1.00  0.00    -0.025 C 
ATOM     21  C   UNL     1      17.407  -3.566 140.226  1.00  0.00     0.005 C 
ATOM     22  C   UNL     1      18.609  -3.269 141.184  1.00  0.00     0.003 C 
ATOM     23  C   UNL     1      17.513  -4.040 143.367  1.00  0.00     0.010 C 
ATOM     24  C   UNL     1      19.298  -2.245 143.450  1.00  0.00     0.012 C 
ATOM     25  C   UNL     1      19.689  -4.462 141.203  1.00  0.00    -0.006 C 
ATOM     26  C   UNL     1      18.071  -5.423 142.959  1.00  0.00     0.033 C 
ATOM     27  C   UNL     1      19.520  -5.392 142.461  1.00  0.00     0.120 C 
ATOM     28  C   UNL     1      19.634  -5.322 139.899  1.00  0.00     0.014 C 
ATOM     29  C   UNL     1      21.130  -3.874 141.210  1.00  0.00     0.014 C 
ENDROOT
BRANCH   1  30
ATOM     30  C   UNL     1      12.379   1.765 142.089  1.00  0.00     0.048 C 
ATOM     31  O   UNL     1      11.759   0.685 142.280  1.00  0.00    -0.550 OA
ATOM     32  O   UNL     1      12.188   2.810 142.986  1.00  0.00    -0.550 OA
ENDBRANCH   1  30
BRANCH  27  33
ATOM     33  O   UNL     1      19.940  -6.707 142.177  1.00  0.00    -0.393 OA
ATOM     34  H   UNL     1      20.200  -7.128 143.038  1.00  0.00     0.210 HD
ENDBRANCH  27  33
TORSDOF 2
ENDMDL
MODEL 2
REMARK VINA RESULT:    -5.264      2.467      3.299
REMARK INTER + INTRA:          -4.802
REMARK INTER:                  -5.174
REMARK INTRA:                   0.372
REMARK UNBOUND:                 0.924
REMARK SMILES CC1(C)CC[C@@]2(C(=O)[O-])CC[C@]3(C)C(=CC[C@@H]4[C@@]5(C)CC[C@@H](O)C(C)(C)[C@H]5CC[C@]43C)[C@@H]2C1
REMARK SMILES IDX 6 1 5 2 10 3 32 4 4 5 11 6 14 7 33 8 2 9 12 10 15 11 1 12
REMARK SMILES IDX 3 13 13 14 30 15 16 16 17 17 29 18 31 19 18 20 28 21 27 22
REMARK SMILES IDX 20 23 19 24 24 25 21 26 22 27 25 28 26 29 7 30 8 31 9 32
REMARK SMILES IDX 23 33
REMARK H PARENT 23 34
REMARK Flexibility Score: inf
ROOT
ATOM      1  C   UNL     1      16.957   1.876 140.881  1.00  0.00     0.017 C 
ATOM      2  C   UNL     1      17.213   3.190 140.090  1.00  0.00     0.014 C 
ATOM      3  C   UNL     1      16.058   0.935 140.002  1.00  0.00     0.014 C 
ATOM      4  C   UNL     1      18.335   1.193 141.170  1.00  0.00     0.028 C 
ATOM      5  C   UNL     1      18.149   4.153 140.832  1.00  0.00     0.007 C 
ATOM      6  C   UNL     1      16.499  -0.547 139.937  1.00  0.00     0.013 C 
ATOM      7  C   UNL     1      18.139  -0.183 141.839  1.00  0.00    -0.064 C 
ATOM      8  C   UNL     1      19.335   2.154 141.881  1.00  0.00     0.015 C 
ATOM      9  C   UNL     1      19.523   3.518 141.161  1.00  0.00    -0.035 C 
ATOM     10  C   UNL     1      17.061  -1.126 141.279  1.00  0.00    -0.006 C 
ATOM     11  C   UNL     1      19.023  -0.654 142.758  1.00  0.00    -0.027 C 
ATOM     12  C   UNL     1      20.289   4.471 142.104  1.00  0.00     0.011 C 
ATOM     13  C   UNL     1      20.369   3.350 139.875  1.00  0.00     0.011 C 
ATOM     14  C   UNL     1      15.876  -1.146 142.302  1.00  0.00     0.017 C 
ATOM     15  C   UNL     1      17.733  -2.572 141.058  1.00  0.00    -0.020 C 
ATOM     16  C   UNL     1      19.253  -2.122 143.063  1.00  0.00     0.032 C 
ATOM     17  C   UNL     1      18.218  -3.114 142.448  1.00  0.00     0.006 C 
ATOM     18  C   UNL     1      16.719  -3.606 140.507  1.00  0.00     0.008 C 
ATOM     19  C   UNL     1      18.940  -2.441 140.052  1.00  0.00     0.012 C 
ATOM     20  C   UNL     1      18.544  -4.706 142.530  1.00  0.00    -0.025 C 
ATOM     21  C   UNL     1      17.310  -5.002 140.259  1.00  0.00     0.005 C 
ATOM     22  C   UNL     1      18.566  -5.400 141.104  1.00  0.00     0.003 C 
ATOM     23  C   UNL     1      17.446  -5.422 143.406  1.00  0.00     0.010 C 
ATOM     24  C   UNL     1      19.918  -4.896 143.243  1.00  0.00     0.012 C 
ATOM     25  C   UNL     1      18.820  -6.990 141.115  1.00  0.00    -0.006 C 
ATOM     26  C   UNL     1      17.119  -6.889 143.045  1.00  0.00     0.033 C 
ATOM     27  C   UNL     1      18.295  -7.662 142.438  1.00  0.00     0.120 C 
ATOM     28  C   UNL     1      18.180  -7.693 139.875  1.00  0.00     0.014 C 
ATOM     29  C   UNL     1      20.341  -7.287 140.977  1.00  0.00     0.014 C 
ENDROOT
BRANCH   1  30
ATOM     30  C   UNL     1      16.200   2.232 142.161  1.00  0.00     0.048 C 
ATOM     31  O   UNL     1      16.606   1.860 143.294  1.00  0.00    -0.550 OA
ATOM     32  O   UNL     1      15.017   2.958 142.082  1.00  0.00    -0.550 OA
ENDBRANCH   1  30
BRANCH  27  33
ATOM     33  O   UNL     1      17.902  -8.995 142.205  1.00  0.00    -0.393 OA
ATOM     34  H   UNL     1      17.323  -9.271 142.964  1.00  0.00     0.210 HD
ENDBRANCH  27  33
TORSDOF 2
ENDMDL
MODEL 3
REMARK VINA RESULT:    -5.166      2.954      3.776
REMARK INTER + INTRA:          -4.695
REMARK INTER:                  -5.278
REMARK INTRA:                   0.583
REMARK UNBOUND:                 0.924
REMARK SMILES CC1(C)CC[C@@]2(C(=O)[O-])CC[C@]3(C)C(=CC[C@@H]4[C@@]5(C)CC[C@@H](O)C(C)(C)[C@H]5CC[C@]43C)[C@@H]2C1
REMARK SMILES IDX 6 1 5 2 10 3 32 4 4 5 11 6 14 7 33 8 2 9 12 10 15 11 1 12
REMARK SMILES IDX 3 13 13 14 30 15 16 16 17 17 29 18 31 19 18 20 28 21 27 22
REMARK SMILES IDX 20 23 19 24 24 25 21 26 22 27 25 28 26 29 7 30 8 31 9 32
REMARK SMILES IDX 23 33
REMARK H PARENT 23 34
REMARK Flexibility Score: inf
ROOT
ATOM      1  C   UNL     1      10.591  -1.991 140.819  1.00  0.00     0.017 C 
ATOM      2  C   UNL     1       9.404  -1.371 140.028  1.00  0.00     0.014 C 
ATOM      3  C   UNL     1      11.256  -3.098 139.926  1.00  0.00     0.014 C 
ATOM      4  C   UNL     1      11.622  -0.859 141.138  1.00  0.00     0.028 C 
ATOM      5  C   UNL     1       8.728  -0.220 140.785  1.00  0.00     0.007 C 
ATOM      6  C   UNL     1      12.803  -3.079 139.876  1.00  0.00     0.013 C 
ATOM      7  C   UNL     1      12.886  -1.438 141.809  1.00  0.00    -0.064 C 
ATOM      8  C   UNL     1      10.966   0.353 141.865  1.00  0.00     0.015 C 
ATOM      9  C   UNL     1       9.712   0.921 141.143  1.00  0.00    -0.035 C 
ATOM     10  C   UNL     1      13.502  -2.722 141.231  1.00  0.00    -0.006 C 
ATOM     11  C   UNL     1      13.573  -0.733 142.747  1.00  0.00    -0.027 C 
ATOM     12  C   UNL     1       8.997   1.902 142.098  1.00  0.00     0.011 C 
ATOM     13  C   UNL     1      10.118   1.711 139.875  1.00  0.00     0.011 C 
ATOM     14  C   UNL     1      13.187  -3.886 142.231  1.00  0.00     0.017 C 
ATOM     15  C   UNL     1      15.079  -2.470 141.029  1.00  0.00    -0.020 C 
ATOM     16  C   UNL     1      15.044  -0.920 143.062  1.00  0.00     0.032 C 
ATOM     17  C   UNL     1      15.720  -2.176 142.430  1.00  0.00     0.006 C 
ATOM     18  C   UNL     1      15.800  -3.718 140.462  1.00  0.00     0.008 C 
ATOM     19  C   UNL     1      15.293  -1.255 140.046  1.00  0.00     0.012 C 
ATOM     20  C   UNL     1      17.339  -2.301 142.525  1.00  0.00    -0.025 C 
ATOM     21  C   UNL     1      17.307  -3.528 140.232  1.00  0.00     0.005 C 
ATOM     22  C   UNL     1      18.027  -2.444 141.102  1.00  0.00     0.003 C 
ATOM     23  C   UNL     1      17.719  -3.569 143.382  1.00  0.00     0.010 C 
ATOM     24  C   UNL     1      17.893  -1.045 143.266  1.00  0.00     0.012 C 
ATOM     25  C   UNL     1      19.625  -2.638 141.125  1.00  0.00    -0.006 C 
ATOM     26  C   UNL     1      19.043  -4.280 143.020  1.00  0.00     0.033 C 
ATOM     27  C   UNL     1      20.115  -3.350 142.440  1.00  0.00     0.120 C 
ATOM     28  C   UNL     1      20.137  -3.423 139.875  1.00  0.00     0.014 C 
ATOM     29  C   UNL     1      20.328  -1.253 141.018  1.00  0.00     0.014 C 
ENDROOT
BRANCH   1  30
ATOM     30  C   UNL     1      10.029  -2.645 142.083  1.00  0.00     0.048 C 
ATOM     31  O   UNL     1      10.628  -2.570 143.188  1.00  0.00    -0.550 OA
ATOM     32  O   UNL     1       8.842  -3.367 142.016  1.00  0.00    -0.550 OA
ENDBRANCH   1  30
BRANCH  27  33
ATOM     33  O   UNL     1      21.291  -4.089 142.205  1.00  0.00    -0.393 OA
ATOM     34  H   UNL     1      21.661  -4.348 143.090  1.00  0.00     0.210 HD
ENDBRANCH  27  33
TORSDOF 2
ENDMDL
MODEL 4
REMARK VINA RESULT:    -4.294      4.524      8.942
REMARK INTER + INTRA:          -3.746
REMARK INTER:                  -4.144
REMARK INTRA:                   0.397
REMARK UNBOUND:                 0.924
REMARK SMILES CC1(C)CC[C@@]2(C(=O)[O-])CC[C@]3(C)C(=CC[C@@H]4[C@@]5(C)CC[C@@H](O)C(C)(C)[C@H]5CC[C@]43C)[C@@H]2C1
REMARK SMILES IDX 6 1 5 2 10 3 32 4 4 5 11 6 14 7 33 8 2 9 12 10 15 11 1 12
REMARK SMILES IDX 3 13 13 14 30 15 16 16 17 17 29 18 31 19 18 20 28 21 27 22
REMARK SMILES IDX 20 23 19 24 24 25 21 26 22 27 25 28 26 29 7 30 8 31 9 32
REMARK SMILES IDX 23 33
REMARK H PARENT 23 34
REMARK Flexibility Score: inf
ROOT
ATOM      1  C   UNL     1      14.805  -0.475 140.836  1.00  0.00     0.017 C 
ATOM      2  C   UNL     1      16.111  -0.781 140.051  1.00  0.00     0.014 C 
ATOM      3  C   UNL     1      13.881   0.418 139.933  1.00  0.00     0.014 C 
ATOM      4  C   UNL     1      14.094  -1.829 141.166  1.00  0.00     0.028 C 
ATOM      5  C   UNL     1      17.057  -1.715 140.818  1.00  0.00     0.007 C 
ATOM      6  C   UNL     1      12.390   0.006 139.884  1.00  0.00     0.013 C 
ATOM      7  C   UNL     1      12.724  -1.585 141.832  1.00  0.00    -0.064 C 
ATOM      8  C   UNL     1      15.035  -2.828 141.904  1.00  0.00     0.015 C 
ATOM      9  C   UNL     1      16.394  -3.066 141.187  1.00  0.00    -0.035 C 
ATOM     10  C   UNL     1      11.803  -0.504 141.243  1.00  0.00    -0.006 C 
ATOM     11  C   UNL     1      12.236  -2.432 142.777  1.00  0.00    -0.027 C 
ATOM     12  C   UNL     1      17.333  -3.824 142.151  1.00  0.00     0.011 C 
ATOM     13  C   UNL     1      16.205  -3.945 139.927  1.00  0.00     0.011 C 
ATOM     14  C   UNL     1      11.809   0.710 142.231  1.00  0.00     0.017 C 
ATOM     15  C   UNL     1      10.342  -1.151 141.043  1.00  0.00    -0.020 C 
ATOM     16  C   UNL     1      10.765  -2.622 143.091  1.00  0.00     0.032 C 
ATOM     17  C   UNL     1       9.793  -1.585 142.447  1.00  0.00     0.006 C 
ATOM     18  C   UNL     1       9.328  -0.132 140.464  1.00  0.00     0.008 C 
ATOM     19  C   UNL     1      10.446  -2.390 140.072  1.00  0.00     0.012 C 
ATOM     20  C   UNL     1       8.196  -1.875 142.542  1.00  0.00    -0.025 C 
ATOM     21  C   UNL     1       7.920  -0.701 140.237  1.00  0.00     0.005 C 
ATOM     22  C   UNL     1       7.497  -1.924 141.118  1.00  0.00     0.003 C 
ATOM     23  C   UNL     1       7.504  -0.737 143.387  1.00  0.00     0.010 C 
ATOM     24  C   UNL     1       7.978  -3.223 143.295  1.00  0.00     0.012 C 
ATOM     25  C   UNL     1       5.902  -2.143 141.140  1.00  0.00    -0.006 C 
ATOM     26  C   UNL     1       6.044  -0.389 143.018  1.00  0.00     0.033 C 
ATOM     27  C   UNL     1       5.245  -1.566 142.447  1.00  0.00     0.120 C 
ATOM     28  C   UNL     1       5.210  -1.525 139.882  1.00  0.00     0.014 C 
ATOM     29  C   UNL     1       5.574  -3.662 141.046  1.00  0.00     0.014 C 
ENDROOT
BRANCH   1  30
ATOM     30  C   UNL     1      15.180   0.311 142.093  1.00  0.00     0.048 C 
ATOM     31  O   UNL     1      15.110   1.569 142.131  1.00  0.00    -0.550 OA
ATOM     32  O   UNL     1      15.639  -0.365 143.218  1.00  0.00    -0.550 OA
ENDBRANCH   1  30
BRANCH  27  33
ATOM     33  O   UNL     1       3.920  -1.152 142.206  1.00  0.00    -0.393 OA
ATOM     34  H   UNL     1       3.339  -1.612 142.868  1.00  0.00     0.210 HD
ENDBRANCH  27  33
TORSDOF 2
ENDMDL
MODEL 5
REMARK VINA RESULT:    -3.906      1.671      3.463
REMARK INTER + INTRA:          -3.325
REMARK INTER:                  -4.635
REMARK INTRA:                   1.310
REMARK UNBOUND:                 0.924
REMARK SMILES CC1(C)CC[C@@]2(C(=O)[O-])CC[C@]3(C)C(=CC[C@@H]4[C@@]5(C)CC[C@@H](O)C(C)(C)[C@H]5CC[C@]43C)[C@@H]2C1
REMARK SMILES IDX 6 1 5 2 10 3 32 4 4 5 11 6 14 7 33 8 2 9 12 10 15 11 1 12
REMARK SMILES IDX 3 13 13 14 30 15 16 16 17 17 29 18 31 19 18 20 28 21 27 22
REMARK SMILES IDX 20 23 19 24 24 25 21 26 22 27 25 28 26 29 7 30 8 31 9 32
REMARK SMILES IDX 23 33
REMARK H PARENT 23 34
REMARK Flexibility Score: inf
ROOT
ATOM      1  C   UNL     1      14.645   3.445 141.847  1.00  0.00     0.017 C 
ATOM      2  C   UNL     1      13.643   4.424 142.522  1.00  0.00     0.014 C 
ATOM      3  C   UNL     1      15.841   3.202 142.835  1.00  0.00     0.014 C 
ATOM      4  C   UNL     1      13.903   2.100 141.552  1.00  0.00     0.028 C 
ATOM      5  C   UNL     1      12.392   4.671 141.667  1.00  0.00     0.007 C 
ATOM      6  C   UNL     1      16.290   1.729 142.994  1.00  0.00     0.013 C 
ATOM      7  C   UNL     1      14.881   1.040 141.001  1.00  0.00    -0.064 C 
ATOM      8  C   UNL     1      12.599   2.310 140.726  1.00  0.00     0.015 C 
ATOM      9  C   UNL     1      11.630   3.366 141.330  1.00  0.00    -0.035 C 
ATOM     10  C   UNL     1      16.251   0.882 141.678  1.00  0.00    -0.006 C 
ATOM     11  C   UNL     1      14.481   0.120 140.083  1.00  0.00    -0.027 C 
ATOM     12  C   UNL     1      10.543   3.691 140.283  1.00  0.00     0.011 C 
ATOM     13  C   UNL     1      10.921   2.806 142.586  1.00  0.00     0.011 C 
ATOM     14  C   UNL     1      17.326   1.484 140.712  1.00  0.00     0.017 C 
ATOM     15  C   UNL     1      16.478  -0.683 141.981  1.00  0.00    -0.020 C 
ATOM     16  C   UNL     1      15.126  -1.237 139.883  1.00  0.00     0.032 C 
ATOM     17  C   UNL     1      16.485  -1.459 140.618  1.00  0.00     0.006 C 
ATOM     18  C   UNL     1      17.847  -0.953 142.654  1.00  0.00     0.008 C 
ATOM     19  C   UNL     1      15.324  -1.206 142.921  1.00  0.00     0.012 C 
ATOM     20  C   UNL     1      17.102  -2.963 140.645  1.00  0.00    -0.025 C 
ATOM     21  C   UNL     1      18.109  -2.431 142.983  1.00  0.00     0.005 C 
ATOM     22  C   UNL     1      17.355  -3.495 142.118  1.00  0.00     0.003 C 
ATOM     23  C   UNL     1      18.479  -2.981 139.875  1.00  0.00     0.010 C 
ATOM     24  C   UNL     1      16.125  -3.916 139.889  1.00  0.00     0.012 C 
ATOM     25  C   UNL     1      18.026  -4.955 142.218  1.00  0.00    -0.006 C 
ATOM     26  C   UNL     1      19.533  -4.000 140.363  1.00  0.00     0.033 C 
ATOM     27  C   UNL     1      18.938  -5.273 140.976  1.00  0.00     0.120 C 
ATOM     28  C   UNL     1      18.847  -5.132 143.536  1.00  0.00     0.014 C 
ATOM     29  C   UNL     1      16.917  -6.043 142.313  1.00  0.00     0.014 C 
ENDROOT
BRANCH   1  30
ATOM     30  C   UNL     1      15.177   4.111 140.577  1.00  0.00     0.048 C 
ATOM     31  O   UNL     1      16.346   3.897 140.159  1.00  0.00    -0.550 OA
ATOM     32  O   UNL     1      14.370   5.000 139.875  1.00  0.00    -0.550 OA
ENDBRANCH   1  30
BRANCH  27  33
ATOM     33  O   UNL     1      19.982  -6.150 141.328  1.00  0.00    -0.393 OA
ATOM     34  H   UNL     1      20.307  -5.881 142.228  1.00  0.00     0.210 HD
ENDBRANCH  27  33
TORSDOF 2
ENDMDL
MODEL 6
REMARK VINA RESULT:    -3.882      2.814      5.113
REMARK INTER + INTRA:          -3.299
REMARK INTER:                  -4.770
REMARK INTRA:                   1.471
REMARK UNBOUND:                 0.924
REMARK SMILES CC1(C)CC[C@@]2(C(=O)[O-])CC[C@]3(C)C(=CC[C@@H]4[C@@]5(C)CC[C@@H](O)C(C)(C)[C@H]5CC[C@]43C)[C@@H]2C1
REMARK SMILES IDX 6 1 5 2 10 3 32 4 4 5 11 6 14 7 33 8 2 9 12 10 15 11 1 12
REMARK SMILES IDX 3 13 13 14 30 15 16 16 17 17 29 18 31 19 18 20 28 21 27 22
REMARK SMILES IDX 20 23 19 24 24 25 21 26 22 27 25 28 26 29 7 30 8 31 9 32
REMARK SMILES IDX 23 33
REMARK H PARENT 23 34
REMARK Flexibility Score: inf
ROOT
ATOM      1  C   UNL     1       9.906   2.041 141.751  1.00  0.00     0.017 C 
ATOM      2  C   UNL     1       8.524   2.280 142.424  1.00  0.00     0.014 C 
ATOM      3  C   UNL     1      11.024   2.585 142.711  1.00  0.00     0.014 C 
ATOM      4  C   UNL     1      10.089   0.505 141.521  1.00  0.00     0.028 C 
ATOM      5  C   UNL     1       7.360   1.713 141.598  1.00  0.00     0.007 C 
ATOM      6  C   UNL     1      12.249   1.660 142.905  1.00  0.00     0.013 C 
ATOM      7  C   UNL     1      11.498   0.193 140.976  1.00  0.00    -0.064 C 
ATOM      8  C   UNL     1       8.903  -0.121 140.728  1.00  0.00     0.015 C 
ATOM      9  C   UNL     1       7.503   0.195 141.325  1.00  0.00    -0.035 C 
ATOM     10  C   UNL     1      12.706   0.893 141.618  1.00  0.00    -0.006 C 
ATOM     11  C   UNL     1      11.707  -0.826 140.101  1.00  0.00    -0.027 C 
ATOM     12  C   UNL     1       6.425  -0.221 140.301  1.00  0.00     0.011 C 
ATOM     13  C   UNL     1       7.261  -0.618 142.620  1.00  0.00     0.011 C 
ATOM     14  C   UNL     1      13.222   1.968 140.602  1.00  0.00     0.017 C 
ATOM     15  C   UNL     1      13.806  -0.231 141.965  1.00  0.00    -0.020 C 
ATOM     16  C   UNL     1      13.023  -1.559 139.925  1.00  0.00     0.032 C 
ATOM     17  C   UNL     1      14.258  -0.914 140.627  1.00  0.00     0.006 C 
ATOM     18  C   UNL     1      15.079   0.378 142.606  1.00  0.00     0.008 C 
ATOM     19  C   UNL     1      13.181  -1.288 142.953  1.00  0.00     0.012 C 
ATOM     20  C   UNL     1      15.639  -1.773 140.684  1.00  0.00    -0.025 C 
ATOM     21  C   UNL     1      16.156  -0.652 142.974  1.00  0.00     0.005 C 
ATOM     22  C   UNL     1      16.162  -1.993 142.166  1.00  0.00     0.003 C 
ATOM     23  C   UNL     1      16.762  -1.017 139.875  1.00  0.00     0.010 C 
ATOM     24  C   UNL     1      15.399  -3.148 139.988  1.00  0.00     0.012 C 
ATOM     25  C   UNL     1      17.560  -2.781 142.293  1.00  0.00    -0.006 C 
ATOM     26  C   UNL     1      18.216  -1.207 140.365  1.00  0.00     0.033 C 
ATOM     27  C   UNL     1      18.479  -2.560 141.036  1.00  0.00     0.120 C 
ATOM     28  C   UNL     1      18.336  -2.388 143.591  1.00  0.00     0.014 C 
ATOM     29  C   UNL     1      17.297  -4.306 142.455  1.00  0.00     0.014 C 
ENDROOT
BRANCH   1  30
ATOM     30  C   UNL     1       9.942   2.837 140.446  1.00  0.00     0.048 C 
ATOM     31  O   UNL     1      11.029   3.127 139.879  1.00  0.00    -0.550 OA
ATOM     32  O   UNL     1       8.754   3.283 139.878  1.00  0.00    -0.550 OA
ENDBRANCH   1  30
BRANCH  27  33
ATOM     33  O   UNL     1      19.841  -2.646 141.384  1.00  0.00    -0.393 OA
ATOM     34  H   UNL     1      19.977  -3.517 141.841  1.00  0.00     0.210 HD
ENDBRANCH  27  33
TORSDOF 2
ENDMDL
