MODEL 1
REMARK VINA RESULT:    -7.201      0.000      0.000
REMARK INTER + INTRA:          -8.667
REMARK INTER:                  -8.463
REMARK INTRA:                  -0.204
REMARK UNBOUND:                -0.204
REMARK SMILES O=c1c(O)c(-c2ccc(O)cc2)oc2cc(O)cc(O)c12
REMARK SMILES IDX 5 1 3 2 2 3 1 4 21 5 19 6 18 7 16 8 15 9 14 10 13 11 6 12
REMARK SMILES IDX 7 13 8 14 9 15 12 16 11 17 10 18 4 20 20 22 17 24
REMARK H PARENT 10 19 4 21 20 23 17 25
REMARK Flexibility Score: inf
ROOT
ATOM      1  C   UNL     1      28.169  43.730  15.572  1.00  0.00     0.180 A 
ATOM      2  C   UNL     1      29.146  44.740  15.581  1.00  0.00     0.208 A 
ATOM      3  C   UNL     1      28.866  45.964  14.952  1.00  0.00     0.238 A 
ATOM      4  O   UNL     1      29.723  46.884  15.010  1.00  0.00    -0.285 OA
ATOM      5  C   UNL     1      27.619  46.156  14.309  1.00  0.00     0.111 A 
ATOM      6  C   UNL     1      27.243  47.341  13.606  1.00  0.00     0.134 A 
ATOM      7  C   UNL     1      25.937  47.471  13.121  1.00  0.00     0.093 A 
ATOM      8  C   UNL     1      25.012  46.433  13.256  1.00  0.00     0.123 A 
ATOM      9  C   UNL     1      25.387  45.249  13.888  1.00  0.00     0.094 A 
ATOM     10  C   UNL     1      26.672  45.104  14.415  1.00  0.00     0.146 A 
ATOM     11  O   UNL     1      26.985  43.964  15.018  1.00  0.00    -0.452 OA
ENDROOT
BRANCH   1  12
ATOM     12  C   UNL     1      28.400  42.405  16.192  1.00  0.00     0.021 A 
ATOM     13  C   UNL     1      29.314  41.488  15.642  1.00  0.00     0.016 A 
ATOM     14  C   UNL     1      29.499  40.233  16.231  1.00  0.00     0.047 A 
ATOM     15  C   UNL     1      28.762  39.874  17.368  1.00  0.00     0.115 A 
ATOM     16  C   UNL     1      27.652  42.028  17.321  1.00  0.00     0.016 A 
ATOM     17  C   UNL     1      27.839  40.774  17.908  1.00  0.00     0.047 A 
BRANCH  15  18
ATOM     18  O   UNL     1      28.938  38.628  17.963  1.00  0.00    -0.508 OA
ATOM     19  H   UNL     1      28.969  38.521  18.971  1.00  0.00     0.293 HD
ENDBRANCH  15  18
ENDBRANCH   1  12
BRANCH   2  20
ATOM     20  O   UNL     1      30.361  44.538  16.241  1.00  0.00    -0.502 OA
ATOM     21  H   UNL     1      30.839  45.279  16.741  1.00  0.00     0.293 HD
ENDBRANCH   2  20
BRANCH   6  22
ATOM     22  O   UNL     1      28.117  48.398  13.336  1.00  0.00    -0.507 OA
ATOM     23  H   UNL     1      29.121  48.353  13.433  1.00  0.00     0.293 HD
ENDBRANCH   6  22
BRANCH   8  24
ATOM     24  O   UNL     1      23.718  46.564  12.756  1.00  0.00    -0.508 OA
ATOM     25  H   UNL     1      22.912  46.598  13.371  1.00  0.00     0.293 HD
ENDBRANCH   8  24
TORSDOF 5
ENDMDL
MODEL 2
REMARK VINA RESULT:    -6.794      3.348      6.081
REMARK INTER + INTRA:          -8.189
REMARK INTER:                  -8.200
REMARK INTRA:                   0.011
REMARK UNBOUND:                -0.204
REMARK SMILES O=c1c(O)c(-c2ccc(O)cc2)oc2cc(O)cc(O)c12
REMARK SMILES IDX 5 1 3 2 2 3 1 4 21 5 19 6 18 7 16 8 15 9 14 10 13 11 6 12
REMARK SMILES IDX 7 13 8 14 9 15 12 16 11 17 10 18 4 20 20 22 17 24
REMARK H PARENT 10 19 4 21 20 23 17 25
REMARK Flexibility Score: inf
ROOT
ATOM      1  C   UNL     1      25.743  45.113  14.571  1.00  0.00     0.180 A 
ATOM      2  C   UNL     1      24.795  45.487  13.604  1.00  0.00     0.208 A 
ATOM      3  C   UNL     1      23.550  44.837  13.584  1.00  0.00     0.238 A 
ATOM      4  O   UNL     1      22.685  45.213  12.751  1.00  0.00    -0.285 OA
ATOM      5  C   UNL     1      23.276  43.811  14.520  1.00  0.00     0.111 A 
ATOM      6  C   UNL     1      22.064  43.058  14.566  1.00  0.00     0.134 A 
ATOM      7  C   UNL     1      21.850  42.157  15.617  1.00  0.00     0.093 A 
ATOM      8  C   UNL     1      22.831  41.935  16.586  1.00  0.00     0.123 A 
ATOM      9  C   UNL     1      24.041  42.622  16.517  1.00  0.00     0.094 A 
ATOM     10  C   UNL     1      24.269  43.554  15.501  1.00  0.00     0.146 A 
ATOM     11  O   UNL     1      25.432  44.194  15.477  1.00  0.00    -0.452 OA
ENDROOT
BRANCH   1  12
ATOM     12  C   UNL     1      27.085  45.735  14.639  1.00  0.00     0.021 A 
ATOM     13  C   UNL     1      27.900  45.849  13.498  1.00  0.00     0.016 A 
ATOM     14  C   UNL     1      29.173  46.418  13.591  1.00  0.00     0.047 A 
ATOM     15  C   UNL     1      29.655  46.867  14.829  1.00  0.00     0.115 A 
ATOM     16  C   UNL     1      27.585  46.169  15.880  1.00  0.00     0.016 A 
ATOM     17  C   UNL     1      28.859  46.738  15.970  1.00  0.00     0.047 A 
BRANCH  15  18
ATOM     18  O   UNL     1      30.922  47.436  14.933  1.00  0.00    -0.508 OA
ATOM     19  H   UNL     1      31.163  48.287  14.438  1.00  0.00     0.293 HD
ENDBRANCH  15  18
ENDBRANCH   1  12
BRANCH   2  20
ATOM     20  O   UNL     1      25.077  46.517  12.704  1.00  0.00    -0.502 OA
ATOM     21  H   UNL     1      25.254  47.469  13.003  1.00  0.00     0.293 HD
ENDBRANCH   2  20
BRANCH   6  22
ATOM     22  O   UNL     1      21.060  43.136  13.597  1.00  0.00    -0.507 OA
ATOM     23  H   UNL     1      20.580  43.984  13.333  1.00  0.00     0.293 HD
ENDBRANCH   6  22
BRANCH   8  24
ATOM     24  O   UNL     1      22.616  41.026  17.620  1.00  0.00    -0.508 OA
ATOM     25  H   UNL     1      21.703  40.914  18.047  1.00  0.00     0.293 HD
ENDBRANCH   8  24
TORSDOF 5
ENDMDL
MODEL 3
REMARK VINA RESULT:    -6.644      9.462     10.920
REMARK INTER + INTRA:          -8.013
REMARK INTER:                  -7.855
REMARK INTRA:                  -0.158
REMARK UNBOUND:                -0.204
REMARK SMILES O=c1c(O)c(-c2ccc(O)cc2)oc2cc(O)cc(O)c12
REMARK SMILES IDX 5 1 3 2 2 3 1 4 21 5 19 6 18 7 16 8 15 9 14 10 13 11 6 12
REMARK SMILES IDX 7 13 8 14 9 15 12 16 11 17 10 18 4 20 20 22 17 24
REMARK H PARENT 10 19 4 21 20 23 17 25
REMARK Flexibility Score: inf
ROOT
ATOM      1  C   UNL     1      17.912  42.079  17.960  1.00  0.00     0.180 A 
ATOM      2  C   UNL     1      18.679  43.227  17.698  1.00  0.00     0.208 A 
ATOM      3  C   UNL     1      18.029  44.397  17.272  1.00  0.00     0.238 A 
ATOM      4  O   UNL     1      18.714  45.437  17.092  1.00  0.00    -0.285 OA
ATOM      5  C   UNL     1      16.624  44.399  17.097  1.00  0.00     0.111 A 
ATOM      6  C   UNL     1      15.867  45.516  16.631  1.00  0.00     0.134 A 
ATOM      7  C   UNL     1      14.469  45.446  16.622  1.00  0.00     0.093 A 
ATOM      8  C   UNL     1      13.803  44.278  17.000  1.00  0.00     0.123 A 
ATOM      9  C   UNL     1      14.535  43.163  17.400  1.00  0.00     0.094 A 
ATOM     10  C   UNL     1      15.930  43.213  17.454  1.00  0.00     0.146 A 
ATOM     11  O   UNL     1      16.589  42.132  17.850  1.00  0.00    -0.452 OA
ENDROOT
BRANCH   1  12
ATOM     12  C   UNL     1      18.527  40.801  18.388  1.00  0.00     0.021 A 
ATOM     13  C   UNL     1      19.400  40.089  17.546  1.00  0.00     0.016 A 
ATOM     14  C   UNL     1      19.950  38.874  17.962  1.00  0.00     0.047 A 
ATOM     15  C   UNL     1      19.623  38.346  19.219  1.00  0.00     0.115 A 
ATOM     16  C   UNL     1      18.189  40.255  19.638  1.00  0.00     0.016 A 
ATOM     17  C   UNL     1      18.741  39.039  20.053  1.00  0.00     0.047 A 
BRANCH  15  18
ATOM     18  O   UNL     1      20.166  37.137  19.645  1.00  0.00    -0.508 OA
ATOM     19  H   UNL     1      19.650  36.268  19.565  1.00  0.00     0.293 HD
ENDBRANCH  15  18
ENDBRANCH   1  12
BRANCH   2  20
ATOM     20  O   UNL     1      20.061  43.210  17.898  1.00  0.00    -0.502 OA
ATOM     21  H   UNL     1      20.483  43.384  18.803  1.00  0.00     0.293 HD
ENDBRANCH   2  20
BRANCH   6  22
ATOM     22  O   UNL     1      16.436  46.696  16.145  1.00  0.00    -0.507 OA
ATOM     23  H   UNL     1      15.918  47.529  15.907  1.00  0.00     0.293 HD
ENDBRANCH   6  22
BRANCH   8  24
ATOM     24  O   UNL     1      12.411  44.212  16.973  1.00  0.00    -0.508 OA
ATOM     25  H   UNL     1      11.868  44.118  17.823  1.00  0.00     0.293 HD
ENDBRANCH   8  24
TORSDOF 5
ENDMDL
MODEL 4
REMARK VINA RESULT:    -6.557      2.500      5.756
REMARK INTER + INTRA:          -7.910
REMARK INTER:                  -7.614
REMARK INTRA:                  -0.296
REMARK UNBOUND:                -0.204
REMARK SMILES O=c1c(O)c(-c2ccc(O)cc2)oc2cc(O)cc(O)c12
REMARK SMILES IDX 5 1 3 2 2 3 1 4 21 5 19 6 18 7 16 8 15 9 14 10 13 11 6 12
REMARK SMILES IDX 7 13 8 14 9 15 12 16 11 17 10 18 4 20 20 22 17 24
REMARK H PARENT 10 19 4 21 20 23 17 25
REMARK Flexibility Score: inf
ROOT
ATOM      1  C   UNL     1      25.223  45.087  13.799  1.00  0.00     0.180 A 
ATOM      2  C   UNL     1      25.421  46.380  13.288  1.00  0.00     0.208 A 
ATOM      3  C   UNL     1      26.613  47.057  13.593  1.00  0.00     0.238 A 
ATOM      4  O   UNL     1      26.810  48.193  13.088  1.00  0.00    -0.285 OA
ATOM      5  C   UNL     1      27.583  46.439  14.419  1.00  0.00     0.111 A 
ATOM      6  C   UNL     1      28.808  47.048  14.827  1.00  0.00     0.134 A 
ATOM      7  C   UNL     1      29.751  46.295  15.536  1.00  0.00     0.093 A 
ATOM      8  C   UNL     1      29.485  44.975  15.910  1.00  0.00     0.123 A 
ATOM      9  C   UNL     1      28.268  44.391  15.568  1.00  0.00     0.094 A 
ATOM     10  C   UNL     1      27.322  45.105  14.829  1.00  0.00     0.146 A 
ATOM     11  O   UNL     1      26.179  44.508  14.515  1.00  0.00    -0.452 OA
ENDROOT
BRANCH   1  12
ATOM     12  C   UNL     1      23.982  44.320  13.541  1.00  0.00     0.021 A 
ATOM     13  C   UNL     1      22.844  44.470  14.354  1.00  0.00     0.016 A 
ATOM     14  C   UNL     1      21.693  43.718  14.106  1.00  0.00     0.047 A 
ATOM     15  C   UNL     1      21.667  42.796  13.051  1.00  0.00     0.115 A 
ATOM     16  C   UNL     1      23.955  43.378  12.497  1.00  0.00     0.016 A 
ATOM     17  C   UNL     1      22.801  42.628  12.251  1.00  0.00     0.047 A 
BRANCH  15  18
ATOM     18  O   UNL     1      20.525  42.042  12.794  1.00  0.00    -0.508 OA
ATOM     19  H   UNL     1      20.398  41.556  11.913  1.00  0.00     0.293 HD
ENDBRANCH  15  18
ENDBRANCH   1  12
BRANCH   2  20
ATOM     20  O   UNL     1      24.462  46.963  12.456  1.00  0.00    -0.502 OA
ATOM     21  H   UNL     1      23.467  46.856  12.613  1.00  0.00     0.293 HD
ENDBRANCH   2  20
BRANCH   6  22
ATOM     22  O   UNL     1      29.132  48.386  14.585  1.00  0.00    -0.507 OA
ATOM     23  H   UNL     1      29.650  48.717  13.785  1.00  0.00     0.293 HD
ENDBRANCH   6  22
BRANCH   8  24
ATOM     24  O   UNL     1      30.423  44.238  16.629  1.00  0.00    -0.508 OA
ATOM     25  H   UNL     1      30.841  44.597  17.481  1.00  0.00     0.293 HD
ENDBRANCH   8  24
TORSDOF 5
ENDMDL
MODEL 5
REMARK VINA RESULT:    -6.552     10.104     13.258
REMARK INTER + INTRA:          -7.905
REMARK INTER:                  -7.707
REMARK INTRA:                  -0.198
REMARK UNBOUND:                -0.204
REMARK SMILES O=c1c(O)c(-c2ccc(O)cc2)oc2cc(O)cc(O)c12
REMARK SMILES IDX 5 1 3 2 2 3 1 4 21 5 19 6 18 7 16 8 15 9 14 10 13 11 6 12
REMARK SMILES IDX 7 13 8 14 9 15 12 16 11 17 10 18 4 20 20 22 17 24
REMARK H PARENT 10 19 4 21 20 23 17 25
REMARK Flexibility Score: inf
ROOT
ATOM      1  C   UNL     1      15.569  44.524  17.224  1.00  0.00     0.180 A 
ATOM      2  C   UNL     1      15.576  43.147  17.506  1.00  0.00     0.208 A 
ATOM      3  C   UNL     1      16.761  42.419  17.311  1.00  0.00     0.238 A 
ATOM      4  O   UNL     1      16.777  41.198  17.618  1.00  0.00    -0.285 OA
ATOM      5  C   UNL     1      17.917  43.072  16.821  1.00  0.00     0.111 A 
ATOM      6  C   UNL     1      19.160  42.424  16.548  1.00  0.00     0.134 A 
ATOM      7  C   UNL     1      20.275  43.192  16.190  1.00  0.00     0.093 A 
ATOM      8  C   UNL     1      20.175  44.576  16.032  1.00  0.00     0.123 A 
ATOM      9  C   UNL     1      18.953  45.210  16.239  1.00  0.00     0.094 A 
ATOM     10  C   UNL     1      17.831  44.476  16.632  1.00  0.00     0.146 A 
ATOM     11  O   UNL     1      16.688  45.120  16.828  1.00  0.00    -0.452 OA
ENDROOT
BRANCH   1  12
ATOM     12  C   UNL     1      14.353  45.354  17.380  1.00  0.00     0.021 A 
ATOM     13  C   UNL     1      13.242  45.194  16.532  1.00  0.00     0.016 A 
ATOM     14  C   UNL     1      12.113  46.005  16.684  1.00  0.00     0.047 A 
ATOM     15  C   UNL     1      12.086  46.996  17.675  1.00  0.00     0.115 A 
ATOM     16  C   UNL     1      14.324  46.363  18.358  1.00  0.00     0.016 A 
ATOM     17  C   UNL     1      13.194  47.173  18.508  1.00  0.00     0.047 A 
BRANCH  15  18
ATOM     18  O   UNL     1      10.967  47.809  17.835  1.00  0.00    -0.508 OA
ATOM     19  H   UNL     1      10.604  48.367  17.071  1.00  0.00     0.293 HD
ENDBRANCH  15  18
ENDBRANCH   1  12
BRANCH   2  20
ATOM     20  O   UNL     1      14.431  42.527  18.011  1.00  0.00    -0.502 OA
ATOM     21  H   UNL     1      14.353  42.230  18.976  1.00  0.00     0.293 HD
ENDBRANCH   2  20
BRANCH   6  22
ATOM     22  O   UNL     1      19.342  41.039  16.587  1.00  0.00    -0.507 OA
ATOM     23  H   UNL     1      19.069  40.444  17.355  1.00  0.00     0.293 HD
ENDBRANCH   6  22
BRANCH   8  24
ATOM     24  O   UNL     1      21.286  45.331  15.661  1.00  0.00    -0.508 OA
ATOM     25  H   UNL     1      21.876  45.059  14.883  1.00  0.00     0.293 HD
ENDBRANCH   8  24
TORSDOF 5
ENDMDL
MODEL 6
REMARK VINA RESULT:    -6.425      8.746     11.893
REMARK INTER + INTRA:          -7.755
REMARK INTER:                  -7.537
REMARK INTRA:                  -0.218
REMARK UNBOUND:                -0.204
REMARK SMILES O=c1c(O)c(-c2ccc(O)cc2)oc2cc(O)cc(O)c12
REMARK SMILES IDX 5 1 3 2 2 3 1 4 21 5 19 6 18 7 16 8 15 9 14 10 13 11 6 12
REMARK SMILES IDX 7 13 8 14 9 15 12 16 11 17 10 18 4 20 20 22 17 24
REMARK H PARENT 10 19 4 21 20 23 17 25
REMARK Flexibility Score: inf
ROOT
ATOM      1  C   UNL     1      18.731  40.852  16.944  1.00  0.00     0.180 A 
ATOM      2  C   UNL     1      17.638  41.259  17.728  1.00  0.00     0.208 A 
ATOM      3  C   UNL     1      17.477  40.710  19.010  1.00  0.00     0.238 A 
ATOM      4  O   UNL     1      16.528  41.119  19.728  1.00  0.00    -0.285 OA
ATOM      5  C   UNL     1      18.400  39.748  19.485  1.00  0.00     0.111 A 
ATOM      6  C   UNL     1      18.312  39.096  20.752  1.00  0.00     0.134 A 
ATOM      7  C   UNL     1      19.353  38.259  21.172  1.00  0.00     0.093 A 
ATOM      8  C   UNL     1      20.447  38.000  20.344  1.00  0.00     0.123 A 
ATOM      9  C   UNL     1      20.514  38.585  19.082  1.00  0.00     0.094 A 
ATOM     10  C   UNL     1      19.509  39.453  18.649  1.00  0.00     0.146 A 
ATOM     11  O   UNL     1      19.617  39.998  17.444  1.00  0.00    -0.452 OA
ENDROOT
BRANCH   1  12
ATOM     12  C   UNL     1      18.954  41.367  15.574  1.00  0.00     0.021 A 
ATOM     13  C   UNL     1      18.725  40.564  14.442  1.00  0.00     0.016 A 
ATOM     14  C   UNL     1      18.965  41.064  13.159  1.00  0.00     0.047 A 
ATOM     15  C   UNL     1      19.450  42.368  12.991  1.00  0.00     0.115 A 
ATOM     16  C   UNL     1      19.460  42.667  15.396  1.00  0.00     0.016 A 
ATOM     17  C   UNL     1      19.698  43.165  14.112  1.00  0.00     0.047 A 
BRANCH  15  18
ATOM     18  O   UNL     1      19.692  42.877  11.717  1.00  0.00    -0.508 OA
ATOM     19  H   UNL     1      20.295  43.679  11.573  1.00  0.00     0.293 HD
ENDBRANCH  15  18
ENDBRANCH   1  12
BRANCH   2  20
ATOM     20  O   UNL     1      16.751  42.226  17.248  1.00  0.00    -0.502 OA
ATOM     21  H   UNL     1      15.756  42.197  17.440  1.00  0.00     0.293 HD
ENDBRANCH   2  20
BRANCH   6  22
ATOM     22  O   UNL     1      17.219  39.213  21.615  1.00  0.00    -0.507 OA
ATOM     23  H   UNL     1      16.817  40.088  21.918  1.00  0.00     0.293 HD
ENDBRANCH   6  22
BRANCH   8  24
ATOM     24  O   UNL     1      21.472  37.154  20.764  1.00  0.00    -0.508 OA
ATOM     25  H   UNL     1      21.432  36.674  21.657  1.00  0.00     0.293 HD
ENDBRANCH   8  24
TORSDOF 5
ENDMDL
MODEL 7
REMARK VINA RESULT:    -6.423      1.966      3.791
REMARK INTER + INTRA:          -7.753
REMARK INTER:                  -7.507
REMARK INTRA:                  -0.246
REMARK UNBOUND:                -0.204
REMARK SMILES O=c1c(O)c(-c2ccc(O)cc2)oc2cc(O)cc(O)c12
REMARK SMILES IDX 5 1 3 2 2 3 1 4 21 5 19 6 18 7 16 8 15 9 14 10 13 11 6 12
REMARK SMILES IDX 7 13 8 14 9 15 12 16 11 17 10 18 4 20 20 22 17 24
REMARK H PARENT 10 19 4 21 20 23 17 25
REMARK Flexibility Score: inf
ROOT
ATOM      1  C   UNL     1      26.188  43.369  15.402  1.00  0.00     0.180 A 
ATOM      2  C   UNL     1      25.244  44.004  14.577  1.00  0.00     0.208 A 
ATOM      3  C   UNL     1      25.572  45.237  13.990  1.00  0.00     0.238 A 
ATOM      4  O   UNL     1      24.744  45.774  13.209  1.00  0.00    -0.285 OA
ATOM      5  C   UNL     1      26.832  45.827  14.249  1.00  0.00     0.111 A 
ATOM      6  C   UNL     1      27.255  47.093  13.741  1.00  0.00     0.134 A 
ATOM      7  C   UNL     1      28.572  47.518  13.954  1.00  0.00     0.093 A 
ATOM      8  C   UNL     1      29.461  46.754  14.713  1.00  0.00     0.123 A 
ATOM      9  C   UNL     1      29.040  45.545  15.264  1.00  0.00     0.094 A 
ATOM     10  C   UNL     1      27.744  45.077  15.038  1.00  0.00     0.146 A 
ATOM     11  O   UNL     1      27.386  43.916  15.572  1.00  0.00    -0.452 OA
ENDROOT
BRANCH   1  12
ATOM     12  C   UNL     1      25.907  42.081  16.075  1.00  0.00     0.021 A 
ATOM     13  C   UNL     1      25.066  42.010  17.201  1.00  0.00     0.016 A 
ATOM     14  C   UNL     1      24.834  40.786  17.834  1.00  0.00     0.047 A 
ATOM     15  C   UNL     1      25.449  39.619  17.360  1.00  0.00     0.115 A 
ATOM     16  C   UNL     1      26.535  40.909  15.619  1.00  0.00     0.016 A 
ATOM     17  C   UNL     1      26.301  39.686  16.254  1.00  0.00     0.047 A 
BRANCH  15  18
ATOM     18  O   UNL     1      25.224  38.394  17.983  1.00  0.00    -0.508 OA
ATOM     19  H   UNL     1      25.688  37.548  17.671  1.00  0.00     0.293 HD
ENDBRANCH  15  18
ENDBRANCH   1  12
BRANCH   2  20
ATOM     20  O   UNL     1      24.015  43.393  14.316  1.00  0.00    -0.502 OA
ATOM     21  H   UNL     1      23.880  42.747  13.547  1.00  0.00     0.293 HD
ENDBRANCH   2  20
BRANCH   6  22
ATOM     22  O   UNL     1      26.419  47.974  13.049  1.00  0.00    -0.507 OA
ATOM     23  H   UNL     1      26.657  48.431  12.181  1.00  0.00     0.293 HD
ENDBRANCH   6  22
BRANCH   8  24
ATOM     24  O   UNL     1      30.765  47.192  14.934  1.00  0.00    -0.508 OA
ATOM     25  H   UNL     1      31.361  46.755  15.628  1.00  0.00     0.293 HD
ENDBRANCH   8  24
TORSDOF 5
ENDMDL
MODEL 8
REMARK VINA RESULT:    -6.299      9.461     12.277
REMARK INTER + INTRA:          -7.607
REMARK INTER:                  -7.470
REMARK INTRA:                  -0.137
REMARK UNBOUND:                -0.204
REMARK SMILES O=c1c(O)c(-c2ccc(O)cc2)oc2cc(O)cc(O)c12
REMARK SMILES IDX 5 1 3 2 2 3 1 4 21 5 19 6 18 7 16 8 15 9 14 10 13 11 6 12
REMARK SMILES IDX 7 13 8 14 9 15 12 16 11 17 10 18 4 20 20 22 17 24
REMARK H PARENT 10 19 4 21 20 23 17 25
REMARK Flexibility Score: inf
ROOT
ATOM      1  C   UNL     1      18.149  42.089  17.639  1.00  0.00     0.180 A 
ATOM      2  C   UNL     1      18.971  41.388  16.740  1.00  0.00     0.208 A 
ATOM      3  C   UNL     1      19.463  40.126  17.110  1.00  0.00     0.238 A 
ATOM      4  O   UNL     1      20.153  39.480  16.279  1.00  0.00    -0.285 OA
ATOM      5  C   UNL     1      19.141  39.588  18.379  1.00  0.00     0.111 A 
ATOM      6  C   UNL     1      19.617  38.336  18.874  1.00  0.00     0.134 A 
ATOM      7  C   UNL     1      19.128  37.844  20.090  1.00  0.00     0.093 A 
ATOM      8  C   UNL     1      18.231  38.587  20.860  1.00  0.00     0.123 A 
ATOM      9  C   UNL     1      17.806  39.837  20.414  1.00  0.00     0.094 A 
ATOM     10  C   UNL     1      18.247  40.339  19.188  1.00  0.00     0.146 A 
ATOM     11  O   UNL     1      17.811  41.529  18.795  1.00  0.00    -0.452 OA
ENDROOT
BRANCH   1  12
ATOM     12  C   UNL     1      17.613  43.435  17.332  1.00  0.00     0.021 A 
ATOM     13  C   UNL     1      18.466  44.534  17.126  1.00  0.00     0.016 A 
ATOM     14  C   UNL     1      17.936  45.800  16.861  1.00  0.00     0.047 A 
ATOM     15  C   UNL     1      16.547  45.987  16.811  1.00  0.00     0.115 A 
ATOM     16  C   UNL     1      16.222  43.635  17.300  1.00  0.00     0.016 A 
ATOM     17  C   UNL     1      15.695  44.902  17.034  1.00  0.00     0.047 A 
BRANCH  15  18
ATOM     18  O   UNL     1      16.009  47.244  16.547  1.00  0.00    -0.508 OA
ATOM     19  H   UNL     1      15.276  47.372  15.858  1.00  0.00     0.293 HD
ENDBRANCH  15  18
ENDBRANCH   1  12
BRANCH   2  20
ATOM     20  O   UNL     1      19.258  41.927  15.484  1.00  0.00    -0.502 OA
ATOM     21  H   UNL     1      18.721  41.697  14.656  1.00  0.00     0.293 HD
ENDBRANCH   2  20
BRANCH   6  22
ATOM     22  O   UNL     1      20.581  37.558  18.228  1.00  0.00    -0.507 OA
ATOM     23  H   UNL     1      21.259  36.976  18.696  1.00  0.00     0.293 HD
ENDBRANCH   6  22
BRANCH   8  24
ATOM     24  O   UNL     1      17.762  38.096  22.076  1.00  0.00    -0.508 OA
ATOM     25  H   UNL     1      17.123  37.310  22.121  1.00  0.00     0.293 HD
ENDBRANCH   8  24
TORSDOF 5
ENDMDL
MODEL 9
REMARK VINA RESULT:    -6.239      9.652     12.019
REMARK INTER + INTRA:          -7.537
REMARK INTER:                  -7.257
REMARK INTRA:                  -0.280
REMARK UNBOUND:                -0.204
REMARK SMILES O=c1c(O)c(-c2ccc(O)cc2)oc2cc(O)cc(O)c12
REMARK SMILES IDX 5 1 3 2 2 3 1 4 21 5 19 6 18 7 16 8 15 9 14 10 13 11 6 12
REMARK SMILES IDX 7 13 8 14 9 15 12 16 11 17 10 18 4 20 20 22 17 24
REMARK H PARENT 10 19 4 21 20 23 17 25
REMARK Flexibility Score: inf
ROOT
ATOM      1  C   UNL     1      18.446  40.642  17.183  1.00  0.00     0.180 A 
ATOM      2  C   UNL     1      18.852  40.106  15.949  1.00  0.00     0.208 A 
ATOM      3  C   UNL     1      19.777  39.049  15.938  1.00  0.00     0.238 A 
ATOM      4  O   UNL     1      20.095  38.537  14.833  1.00  0.00    -0.285 OA
ATOM      5  C   UNL     1      20.296  38.554  17.158  1.00  0.00     0.111 A 
ATOM      6  C   UNL     1      21.269  37.514  17.263  1.00  0.00     0.134 A 
ATOM      7  C   UNL     1      21.612  37.015  18.525  1.00  0.00     0.093 A 
ATOM      8  C   UNL     1      21.068  37.563  19.689  1.00  0.00     0.123 A 
ATOM      9  C   UNL     1      20.163  38.618  19.600  1.00  0.00     0.094 A 
ATOM     10  C   UNL     1      19.773  39.114  18.353  1.00  0.00     0.146 A 
ATOM     11  O   UNL     1      18.901  40.113  18.312  1.00  0.00    -0.452 OA
ENDROOT
BRANCH   1  12
ATOM     12  C   UNL     1      17.494  41.773  17.275  1.00  0.00     0.021 A 
ATOM     13  C   UNL     1      17.914  43.103  17.088  1.00  0.00     0.016 A 
ATOM     14  C   UNL     1      17.002  44.156  17.204  1.00  0.00     0.047 A 
ATOM     15  C   UNL     1      15.662  43.895  17.521  1.00  0.00     0.115 A 
ATOM     16  C   UNL     1      16.153  41.523  17.613  1.00  0.00     0.016 A 
ATOM     17  C   UNL     1      15.243  42.578  17.727  1.00  0.00     0.047 A 
BRANCH  15  18
ATOM     18  O   UNL     1      14.745  44.936  17.638  1.00  0.00    -0.508 OA
ATOM     19  H   UNL     1      14.294  45.339  16.824  1.00  0.00     0.293 HD
ENDBRANCH  15  18
ENDBRANCH   1  12
BRANCH   2  20
ATOM     20  O   UNL     1      18.311  40.594  14.758  1.00  0.00    -0.502 OA
ATOM     21  H   UNL     1      18.662  40.321  13.847  1.00  0.00     0.293 HD
ENDBRANCH   2  20
BRANCH   6  22
ATOM     22  O   UNL     1      21.940  36.961  16.169  1.00  0.00    -0.507 OA
ATOM     23  H   UNL     1      22.842  36.511  16.216  1.00  0.00     0.293 HD
ENDBRANCH   6  22
BRANCH   8  24
ATOM     24  O   UNL     1      21.428  37.071  20.942  1.00  0.00    -0.508 OA
ATOM     25  H   UNL     1      22.375  36.770  21.142  1.00  0.00     0.293 HD
ENDBRANCH   8  24
TORSDOF 5
ENDMDL
