MODEL 1
REMARK VINA RESULT:    -7.158      0.000      0.000
REMARK INTER + INTRA:          -8.549
REMARK INTER:                  -8.414
REMARK INTRA:                  -0.135
REMARK UNBOUND:                -0.135
REMARK SMILES O=C([O-])C=Cc1ccc(O)c(O)c1
REMARK SMILES IDX 6 1 13 2 7 3 11 4 8 5 9 6 5 7 4 8 2 9 1 10 3 11 12 12 10 14
REMARK H PARENT 12 13 10 15
REMARK Flexibility Score: inf
ROOT
ATOM      1  C   UNL     1      11.775 -46.256  37.367  1.00  0.00    -0.022 A 
ATOM      2  C   UNL     1      11.867 -46.785  38.665  1.00  0.00     0.058 A 
ATOM      3  C   UNL     1      12.957 -46.078  36.621  1.00  0.00     0.012 A 
ATOM      4  C   UNL     1      13.110 -47.106  39.224  1.00  0.00     0.157 A 
ATOM      5  C   UNL     1      14.199 -46.398  37.176  1.00  0.00     0.051 A 
ATOM      6  C   UNL     1      14.282 -46.910  38.477  1.00  0.00     0.157 A 
ENDROOT
BRANCH   1   7
ATOM      7  C   UNL     1      10.431 -45.943  36.821  1.00  0.00     0.010 C 
ATOM      8  C   UNL     1      10.094 -46.104  35.534  1.00  0.00     0.025 C 
BRANCH   8   9
ATOM      9  C   UNL     1       8.752 -45.772  35.024  1.00  0.00     0.064 C 
ATOM     10  O   UNL     1       7.753 -46.485  35.307  1.00  0.00    -0.545 OA
ATOM     11  O   UNL     1       8.586 -44.655  34.218  1.00  0.00    -0.545 OA
ENDBRANCH   8   9
ENDBRANCH   1   7
BRANCH   4  12
ATOM     12  O   UNL     1      13.158 -47.618  40.520  1.00  0.00    -0.504 OA
ATOM     13  H   UNL     1      12.894 -47.066  41.327  1.00  0.00     0.293 HD
ENDBRANCH   4  12
BRANCH   6  14
ATOM     14  O   UNL     1      15.524 -47.227  39.027  1.00  0.00    -0.504 OA
ATOM     15  H   UNL     1      15.805 -46.884  39.938  1.00  0.00     0.293 HD
ENDBRANCH   6  14
TORSDOF 4
ENDMDL
MODEL 2
REMARK VINA RESULT:    -6.838      1.012      2.154
REMARK INTER + INTRA:          -8.173
REMARK INTER:                  -8.037
REMARK INTRA:                  -0.135
REMARK UNBOUND:                -0.135
REMARK SMILES O=C([O-])C=Cc1ccc(O)c(O)c1
REMARK SMILES IDX 6 1 13 2 7 3 11 4 8 5 9 6 5 7 4 8 2 9 1 10 3 11 12 12 10 14
REMARK H PARENT 12 13 10 15
REMARK Flexibility Score: inf
ROOT
ATOM      1  C   UNL     1      11.593 -46.281  37.137  1.00  0.00    -0.022 A 
ATOM      2  C   UNL     1      12.983 -46.341  37.339  1.00  0.00     0.058 A 
ATOM      3  C   UNL     1      10.738 -46.650  38.193  1.00  0.00     0.012 A 
ATOM      4  C   UNL     1      13.513 -46.783  38.556  1.00  0.00     0.157 A 
ATOM      5  C   UNL     1      11.265 -47.092  39.409  1.00  0.00     0.051 A 
ATOM      6  C   UNL     1      12.651 -47.163  39.597  1.00  0.00     0.157 A 
ENDROOT
BRANCH   1   7
ATOM      7  C   UNL     1      11.086 -45.795  35.830  1.00  0.00     0.010 C 
ATOM      8  C   UNL     1       9.903 -46.153  35.311  1.00  0.00     0.025 C 
BRANCH   8   9
ATOM      9  C   UNL     1       9.436 -45.660  34.004  1.00  0.00     0.064 C 
ATOM     10  O   UNL     1      10.100 -45.871  32.953  1.00  0.00    -0.545 OA
ATOM     11  O   UNL     1       8.247 -44.949  33.927  1.00  0.00    -0.545 OA
ENDBRANCH   8   9
ENDBRANCH   1   7
BRANCH   4  12
ATOM     12  O   UNL     1      14.898 -46.837  38.712  1.00  0.00    -0.504 OA
ATOM     13  H   UNL     1      15.332 -47.182  39.559  1.00  0.00     0.293 HD
ENDBRANCH   4  12
BRANCH   6  14
ATOM     14  O   UNL     1      13.172 -47.604  40.812  1.00  0.00    -0.504 OA
ATOM     15  H   UNL     1      14.162 -47.538  41.021  1.00  0.00     0.293 HD
ENDBRANCH   6  14
TORSDOF 4
ENDMDL
MODEL 3
REMARK VINA RESULT:    -6.649      1.951      2.894
REMARK INTER + INTRA:          -7.951
REMARK INTER:                  -7.810
REMARK INTRA:                  -0.140
REMARK UNBOUND:                -0.135
REMARK SMILES O=C([O-])C=Cc1ccc(O)c(O)c1
REMARK SMILES IDX 6 1 13 2 7 3 11 4 8 5 9 6 5 7 4 8 2 9 1 10 3 11 12 12 10 14
REMARK H PARENT 12 13 10 15
REMARK Flexibility Score: inf
ROOT
ATOM      1  C   UNL     1      11.802 -46.372  38.019  1.00  0.00    -0.022 A 
ATOM      2  C   UNL     1      12.743 -45.987  37.049  1.00  0.00     0.058 A 
ATOM      3  C   UNL     1      12.240 -47.110  39.135  1.00  0.00     0.012 A 
ATOM      4  C   UNL     1      14.090 -46.350  37.172  1.00  0.00     0.157 A 
ATOM      5  C   UNL     1      13.583 -47.475  39.260  1.00  0.00     0.051 A 
ATOM      6  C   UNL     1      14.512 -47.100  38.281  1.00  0.00     0.157 A 
ENDROOT
BRANCH   1   7
ATOM      7  C   UNL     1      10.390 -45.951  37.844  1.00  0.00     0.010 C 
ATOM      8  C   UNL     1       9.369 -46.453  38.552  1.00  0.00     0.025 C 
BRANCH   8   9
ATOM      9  C   UNL     1       7.977 -46.020  38.343  1.00  0.00     0.064 C 
ATOM     10  O   UNL     1       7.692 -45.129  37.498  1.00  0.00    -0.545 OA
ATOM     11  O   UNL     1       6.962 -46.599  39.091  1.00  0.00    -0.545 OA
ENDBRANCH   8   9
ENDBRANCH   1   7
BRANCH   4  12
ATOM     12  O   UNL     1      14.990 -45.957  36.182  1.00  0.00    -0.504 OA
ATOM     13  H   UNL     1      15.967 -45.781  36.382  1.00  0.00     0.293 HD
ENDBRANCH   4  12
BRANCH   6  14
ATOM     14  O   UNL     1      15.852 -47.466  38.410  1.00  0.00    -0.504 OA
ATOM     15  H   UNL     1      16.123 -48.361  38.800  1.00  0.00     0.293 HD
ENDBRANCH   6  14
TORSDOF 4
ENDMDL
MODEL 4
REMARK VINA RESULT:    -6.590      0.996      1.459
REMARK INTER + INTRA:          -7.881
REMARK INTER:                  -7.755
REMARK INTRA:                  -0.126
REMARK UNBOUND:                -0.135
REMARK SMILES O=C([O-])C=Cc1ccc(O)c(O)c1
REMARK SMILES IDX 6 1 13 2 7 3 11 4 8 5 9 6 5 7 4 8 2 9 1 10 3 11 12 12 10 14
REMARK H PARENT 12 13 10 15
REMARK Flexibility Score: inf
ROOT
ATOM      1  C   UNL     1      11.420 -46.444  37.541  1.00  0.00    -0.022 A 
ATOM      2  C   UNL     1      11.689 -47.000  38.804  1.00  0.00     0.058 A 
ATOM      3  C   UNL     1      12.500 -46.043  36.732  1.00  0.00     0.012 A 
ATOM      4  C   UNL     1      13.004 -47.132  39.265  1.00  0.00     0.157 A 
ATOM      5  C   UNL     1      13.814 -46.173  37.190  1.00  0.00     0.051 A 
ATOM      6  C   UNL     1      14.072 -46.714  38.456  1.00  0.00     0.157 A 
ENDROOT
BRANCH   1   7
ATOM      7  C   UNL     1      10.007 -46.338  37.099  1.00  0.00     0.010 C 
ATOM      8  C   UNL     1       9.337 -47.333  36.501  1.00  0.00     0.025 C 
BRANCH   8   9
ATOM      9  C   UNL     1       7.938 -47.189  36.064  1.00  0.00     0.064 C 
ATOM     10  O   UNL     1       7.633 -46.448  35.091  1.00  0.00    -0.545 OA
ATOM     11  O   UNL     1       6.938 -47.877  36.736  1.00  0.00    -0.545 OA
ENDBRANCH   8   9
ENDBRANCH   1   7
BRANCH   4  12
ATOM     12  O   UNL     1      13.227 -47.679  40.528  1.00  0.00    -0.504 OA
ATOM     13  H   UNL     1      12.942 -47.206  41.377  1.00  0.00     0.293 HD
ENDBRANCH   4  12
BRANCH   6  14
ATOM     14  O   UNL     1      15.385 -46.841  38.909  1.00  0.00    -0.504 OA
ATOM     15  H   UNL     1      16.040 -47.475  38.466  1.00  0.00     0.293 HD
ENDBRANCH   6  14
TORSDOF 4
ENDMDL
MODEL 5
REMARK VINA RESULT:    -6.385      3.191      7.364
REMARK INTER + INTRA:          -7.640
REMARK INTER:                  -7.512
REMARK INTRA:                  -0.128
REMARK UNBOUND:                -0.135
REMARK SMILES O=C([O-])C=Cc1ccc(O)c(O)c1
REMARK SMILES IDX 6 1 13 2 7 3 11 4 8 5 9 6 5 7 4 8 2 9 1 10 3 11 12 12 10 14
REMARK H PARENT 12 13 10 15
REMARK Flexibility Score: inf
ROOT
ATOM      1  C   UNL     1       9.366 -45.184  33.333  1.00  0.00    -0.022 A 
ATOM      2  C   UNL     1       8.904 -46.369  32.734  1.00  0.00     0.058 A 
ATOM      3  C   UNL     1       8.809 -43.956  32.926  1.00  0.00     0.012 A 
ATOM      4  C   UNL     1       7.926 -46.333  31.734  1.00  0.00     0.157 A 
ATOM      5  C   UNL     1       7.833 -43.918  31.928  1.00  0.00     0.051 A 
ATOM      6  C   UNL     1       7.389 -45.102  31.325  1.00  0.00     0.157 A 
ENDROOT
BRANCH   1   7
ATOM      7  C   UNL     1      10.397 -45.282  34.396  1.00  0.00     0.010 C 
ATOM      8  C   UNL     1      10.236 -45.983  35.527  1.00  0.00     0.025 C 
BRANCH   8   9
ATOM      9  C   UNL     1      11.277 -46.048  36.567  1.00  0.00     0.064 C 
ATOM     10  O   UNL     1      12.496 -46.150  36.263  1.00  0.00    -0.545 OA
ATOM     11  O   UNL     1      10.910 -46.000  37.904  1.00  0.00    -0.545 OA
ENDBRANCH   8   9
ENDBRANCH   1   7
BRANCH   4  12
ATOM     12  O   UNL     1       7.502 -47.530  31.157  1.00  0.00    -0.504 OA
ATOM     13  H   UNL     1       8.095 -48.069  30.538  1.00  0.00     0.293 HD
ENDBRANCH   4  12
BRANCH   6  14
ATOM     14  O   UNL     1       6.415 -45.058  30.329  1.00  0.00    -0.504 OA
ATOM     15  H   UNL     1       6.502 -44.445  29.527  1.00  0.00     0.293 HD
ENDBRANCH   6  14
TORSDOF 4
ENDMDL
MODEL 6
REMARK VINA RESULT:    -6.177      2.085      6.229
REMARK INTER + INTRA:          -7.396
REMARK INTER:                  -7.260
REMARK INTRA:                  -0.136
REMARK UNBOUND:                -0.135
REMARK SMILES O=C([O-])C=Cc1ccc(O)c(O)c1
REMARK SMILES IDX 6 1 13 2 7 3 11 4 8 5 9 6 5 7 4 8 2 9 1 10 3 11 12 12 10 14
REMARK H PARENT 12 13 10 15
REMARK Flexibility Score: inf
ROOT
ATOM      1  C   UNL     1       9.801 -46.318  35.172  1.00  0.00    -0.022 A 
ATOM      2  C   UNL     1       8.895 -47.231  34.607  1.00  0.00     0.058 A 
ATOM      3  C   UNL     1      10.305 -45.276  34.368  1.00  0.00     0.012 A 
ATOM      4  C   UNL     1       8.517 -47.130  33.263  1.00  0.00     0.157 A 
ATOM      5  C   UNL     1       9.929 -45.173  33.027  1.00  0.00     0.051 A 
ATOM      6  C   UNL     1       9.038 -46.097  32.467  1.00  0.00     0.157 A 
ENDROOT
BRANCH   1   7
ATOM      7  C   UNL     1      10.159 -46.467  36.604  1.00  0.00     0.010 C 
ATOM      8  C   UNL     1      11.323 -46.057  37.127  1.00  0.00     0.025 C 
BRANCH   8   9
ATOM      9  C   UNL     1      11.651 -46.232  38.553  1.00  0.00     0.064 C 
ATOM     10  O   UNL     1      10.818 -45.940  39.453  1.00  0.00    -0.545 OA
ATOM     11  O   UNL     1      12.897 -46.724  38.912  1.00  0.00    -0.545 OA
ENDBRANCH   8   9
ENDBRANCH   1   7
BRANCH   4  12
ATOM     12  O   UNL     1       7.624 -48.064  32.738  1.00  0.00    -0.504 OA
ATOM     13  H   UNL     1       7.875 -48.679  31.974  1.00  0.00     0.293 HD
ENDBRANCH   4  12
BRANCH   6  14
ATOM     14  O   UNL     1       8.666 -45.990  31.128  1.00  0.00    -0.504 OA
ATOM     15  H   UNL     1       7.694 -45.908  30.851  1.00  0.00     0.293 HD
ENDBRANCH   6  14
TORSDOF 4
ENDMDL
MODEL 7
REMARK VINA RESULT:    -6.075      2.810      7.080
REMARK INTER + INTRA:          -7.275
REMARK INTER:                  -7.136
REMARK INTRA:                  -0.140
REMARK UNBOUND:                -0.135
REMARK SMILES O=C([O-])C=Cc1ccc(O)c(O)c1
REMARK SMILES IDX 6 1 13 2 7 3 11 4 8 5 9 6 5 7 4 8 2 9 1 10 3 11 12 12 10 14
REMARK H PARENT 12 13 10 15
REMARK Flexibility Score: inf
ROOT
ATOM      1  C   UNL     1       9.381 -46.159  34.021  1.00  0.00    -0.022 A 
ATOM      2  C   UNL     1       9.348 -45.432  32.819  1.00  0.00     0.058 A 
ATOM      3  C   UNL     1       8.530 -47.273  34.164  1.00  0.00     0.012 A 
ATOM      4  C   UNL     1       8.469 -45.787  31.789  1.00  0.00     0.157 A 
ATOM      5  C   UNL     1       7.652 -47.629  33.138  1.00  0.00     0.051 A 
ATOM      6  C   UNL     1       7.614 -46.889  31.949  1.00  0.00     0.157 A 
ENDROOT
BRANCH   1   7
ATOM      7  C   UNL     1      10.339 -45.745  35.075  1.00  0.00     0.010 C 
ATOM      8  C   UNL     1      10.458 -46.363  36.258  1.00  0.00     0.025 C 
BRANCH   8   9
ATOM      9  C   UNL     1      11.413 -45.917  37.287  1.00  0.00     0.064 C 
ATOM     10  O   UNL     1      12.623 -45.702  37.004  1.00  0.00    -0.545 OA
ATOM     11  O   UNL     1      10.976 -45.732  38.591  1.00  0.00    -0.545 OA
ENDBRANCH   8   9
ENDBRANCH   1   7
BRANCH   4  12
ATOM     12  O   UNL     1       8.460 -45.032  30.616  1.00  0.00    -0.504 OA
ATOM     13  H   UNL     1       9.229 -45.051  29.958  1.00  0.00     0.293 HD
ENDBRANCH   4  12
BRANCH   6  14
ATOM     14  O   UNL     1       6.736 -47.248  30.927  1.00  0.00    -0.504 OA
ATOM     15  H   UNL     1       6.705 -48.193  30.561  1.00  0.00     0.293 HD
ENDBRANCH   6  14
TORSDOF 4
ENDMDL
MODEL 8
REMARK VINA RESULT:    -6.074      8.967      9.211
REMARK INTER + INTRA:          -7.274
REMARK INTER:                  -7.141
REMARK INTRA:                  -0.133
REMARK UNBOUND:                -0.135
REMARK SMILES O=C([O-])C=Cc1ccc(O)c(O)c1
REMARK SMILES IDX 6 1 13 2 7 3 11 4 8 5 9 6 5 7 4 8 2 9 1 10 3 11 12 12 10 14
REMARK H PARENT 12 13 10 15
REMARK Flexibility Score: inf
ROOT
ATOM      1  C   UNL     1      12.124 -46.260  46.130  1.00  0.00    -0.022 A 
ATOM      2  C   UNL     1      13.487 -46.433  46.423  1.00  0.00     0.058 A 
ATOM      3  C   UNL     1      11.376 -47.374  45.701  1.00  0.00     0.012 A 
ATOM      4  C   UNL     1      14.102 -47.680  46.268  1.00  0.00     0.157 A 
ATOM      5  C   UNL     1      11.988 -48.620  45.545  1.00  0.00     0.051 A 
ATOM      6  C   UNL     1      13.351 -48.780  45.825  1.00  0.00     0.157 A 
ENDROOT
BRANCH   1   7
ATOM      7  C   UNL     1      11.521 -44.918  46.321  1.00  0.00     0.010 C 
ATOM      8  C   UNL     1      10.543 -44.424  45.549  1.00  0.00     0.025 C 
BRANCH   8   9
ATOM      9  C   UNL     1       9.975 -43.081  45.762  1.00  0.00     0.064 C 
ATOM     10  O   UNL     1       8.782 -42.930  46.137  1.00  0.00    -0.545 OA
ATOM     11  O   UNL     1      10.767 -41.963  45.542  1.00  0.00    -0.545 OA
ENDBRANCH   8   9
ENDBRANCH   1   7
BRANCH   4  12
ATOM     12  O   UNL     1      15.461 -47.807  46.560  1.00  0.00    -0.504 OA
ATOM     13  H   UNL     1      15.942 -48.696  46.509  1.00  0.00     0.293 HD
ENDBRANCH   4  12
BRANCH   6  14
ATOM     14  O   UNL     1      13.957 -50.025  45.668  1.00  0.00    -0.504 OA
ATOM     15  H   UNL     1      13.411 -50.871  45.549  1.00  0.00     0.293 HD
ENDBRANCH   6  14
TORSDOF 4
ENDMDL
MODEL 9
REMARK VINA RESULT:    -5.954      7.599      8.683
REMARK INTER + INTRA:          -7.134
REMARK INTER:                  -6.995
REMARK INTRA:                  -0.139
REMARK UNBOUND:                -0.135
REMARK SMILES O=C([O-])C=Cc1ccc(O)c(O)c1
REMARK SMILES IDX 6 1 13 2 7 3 11 4 8 5 9 6 5 7 4 8 2 9 1 10 3 11 12 12 10 14
REMARK H PARENT 12 13 10 15
REMARK Flexibility Score: inf
ROOT
ATOM      1  C   UNL     1      12.140 -44.878  45.306  1.00  0.00    -0.022 A 
ATOM      2  C   UNL     1      13.061 -45.726  44.667  1.00  0.00     0.058 A 
ATOM      3  C   UNL     1      11.962 -44.996  46.699  1.00  0.00     0.012 A 
ATOM      4  C   UNL     1      13.772 -46.690  45.391  1.00  0.00     0.157 A 
ATOM      5  C   UNL     1      12.670 -45.958  47.423  1.00  0.00     0.051 A 
ATOM      6  C   UNL     1      13.575 -46.809  46.776  1.00  0.00     0.157 A 
ENDROOT
BRANCH   1   7
ATOM      7  C   UNL     1      11.421 -43.868  44.492  1.00  0.00     0.010 C 
ATOM      8  C   UNL     1      10.511 -43.020  44.991  1.00  0.00     0.025 C 
BRANCH   8   9
ATOM      9  C   UNL     1       9.807 -42.036  44.149  1.00  0.00     0.064 C 
ATOM     10  O   UNL     1       9.739 -40.823  44.484  1.00  0.00    -0.545 OA
ATOM     11  O   UNL     1       9.207 -42.452  42.969  1.00  0.00    -0.545 OA
ENDBRANCH   8   9
ENDBRANCH   1   7
BRANCH   4  12
ATOM     12  O   UNL     1      14.668 -47.519  44.717  1.00  0.00    -0.504 OA
ATOM     13  H   UNL     1      14.429 -47.973  43.844  1.00  0.00     0.293 HD
ENDBRANCH   4  12
BRANCH   6  14
ATOM     14  O   UNL     1      14.279 -47.768  47.504  1.00  0.00    -0.504 OA
ATOM     15  H   UNL     1      15.187 -47.567  47.906  1.00  0.00     0.293 HD
ENDBRANCH   6  14
TORSDOF 4
ENDMDL
