MODEL 1
REMARK VINA RESULT:    -4.538      0.000      0.000
REMARK INTER + INTRA:         -10.506
REMARK INTER:                  -8.252
REMARK INTRA:                  -2.254
REMARK UNBOUND:                -2.254
REMARK SMILES CCCCCCCCCCCCCCCC(=O)[O-]
REMARK SMILES IDX 9 1 10 2 11 3 12 4 13 5 14 6 15 7 16 8 17 9 18 10 8 11 7 12
REMARK SMILES IDX 6 13 5 14 4 15 3 16 2 17 1 18
REMARK H PARENT
REMARK Flexibility Score: inf
ROOT
ATOM      1  C   UNL     1      16.630 -34.225  24.678  1.00  0.00     0.000 C 
ENDROOT
BRANCH   1   2
ATOM      2  C   UNL     1      15.373 -33.415  24.325  1.00  0.00     0.000 C 
BRANCH   2   3
ATOM      3  C   UNL     1      15.081 -33.405  22.814  1.00  0.00     0.000 C 
BRANCH   3   4
ATOM      4  C   UNL     1      15.252 -32.009  22.192  1.00  0.00     0.000 C 
BRANCH   4   5
ATOM      5  C   UNL     1      15.532 -30.925  23.249  1.00  0.00     0.000 C 
BRANCH   5   6
ATOM      6  C   UNL     1      14.571 -29.731  23.140  1.00  0.00     0.006 C 
BRANCH   6   7
ATOM      7  C   UNL     1      13.203 -30.010  23.778  1.00  0.00     0.053 C 
BRANCH   7   8
ATOM      8  C   UNL     1      12.110 -29.827  22.771  1.00  0.00     0.041 C 
ATOM      9  O   UNL     1      12.031 -30.593  21.776  1.00  0.00    -0.550 OA
ATOM     10  O   UNL     1      11.153 -28.837  22.957  1.00  0.00    -0.550 OA
ENDBRANCH   7   8
ENDBRANCH   6   7
ENDBRANCH   5   6
ENDBRANCH   4   5
ENDBRANCH   3   4
ENDBRANCH   2   3
ENDBRANCH   1   2
BRANCH   1  11
ATOM     11  C   UNL     1      17.247 -34.930  23.460  1.00  0.00     0.000 C 
BRANCH  11  12
ATOM     12  C   UNL     1      18.741 -34.596  23.331  1.00  0.00    -0.000 C 
BRANCH  12  13
ATOM     13  C   UNL     1      19.139 -34.216  21.897  1.00  0.00    -0.000 C 
BRANCH  13  14
ATOM     14  C   UNL     1      18.808 -32.752  21.560  1.00  0.00    -0.000 C 
BRANCH  14  15
ATOM     15  C   UNL     1      18.065 -32.601  20.221  1.00  0.00    -0.000 C 
BRANCH  15  16
ATOM     16  C   UNL     1      17.905 -33.906  19.414  1.00  0.00    -0.000 C 
BRANCH  16  17
ATOM     17  C   UNL     1      16.468 -34.449  19.337  1.00  0.00    -0.003 C 
ATOM     18  C   UNL     1      16.330 -35.855  19.923  1.00  0.00     0.004 C 
ENDBRANCH  16  17
ENDBRANCH  15  16
ENDBRANCH  14  15
ENDBRANCH  13  14
ENDBRANCH  12  13
ENDBRANCH  11  12
ENDBRANCH   1  11
TORSDOF 14
ENDMDL
MODEL 2
REMARK VINA RESULT:    -4.528      1.391      3.208
REMARK INTER + INTRA:         -10.489
REMARK INTER:                  -8.096
REMARK INTRA:                  -2.393
REMARK UNBOUND:                -2.254
REMARK SMILES CCCCCCCCCCCCCCCC(=O)[O-]
REMARK SMILES IDX 9 1 10 2 11 3 12 4 13 5 14 6 15 7 16 8 17 9 18 10 8 11 7 12
REMARK SMILES IDX 6 13 5 14 4 15 3 16 2 17 1 18
REMARK H PARENT
REMARK Flexibility Score: inf
ROOT
ATOM      1  C   UNL     1      17.758 -35.334  19.585  1.00  0.00     0.000 C 
ENDROOT
BRANCH   1   2
ATOM      2  C   UNL     1      16.525 -34.458  19.311  1.00  0.00     0.000 C 
BRANCH   2   3
ATOM      3  C   UNL     1      15.342 -34.795  20.235  1.00  0.00     0.000 C 
BRANCH   3   4
ATOM      4  C   UNL     1      14.777 -33.551  20.941  1.00  0.00     0.000 C 
BRANCH   4   5
ATOM      5  C   UNL     1      15.036 -33.568  22.458  1.00  0.00     0.000 C 
BRANCH   5   6
ATOM      6  C   UNL     1      15.055 -32.158  23.070  1.00  0.00     0.006 C 
BRANCH   6   7
ATOM      7  C   UNL     1      13.770 -31.828  23.841  1.00  0.00     0.053 C 
BRANCH   7   8
ATOM      8  C   UNL     1      13.059 -30.676  23.203  1.00  0.00     0.041 C 
ATOM      9  O   UNL     1      12.730 -30.728  21.989  1.00  0.00    -0.550 OA
ATOM     10  O   UNL     1      12.721 -29.562  23.961  1.00  0.00    -0.550 OA
ENDBRANCH   7   8
ENDBRANCH   6   7
ENDBRANCH   5   6
ENDBRANCH   4   5
ENDBRANCH   3   4
ENDBRANCH   2   3
ENDBRANCH   1   2
BRANCH   1  11
ATOM     11  C   UNL     1      17.427 -36.586  20.412  1.00  0.00     0.000 C 
BRANCH  11  12
ATOM     12  C   UNL     1      18.358 -36.700  21.630  1.00  0.00    -0.000 C 
BRANCH  12  13
ATOM     13  C   UNL     1      18.006 -35.697  22.738  1.00  0.00    -0.000 C 
BRANCH  13  14
ATOM     14  C   UNL     1      19.243 -34.966  23.287  1.00  0.00    -0.000 C 
BRANCH  14  15
ATOM     15  C   UNL     1      19.682 -33.788  22.398  1.00  0.00    -0.000 C 
BRANCH  15  16
ATOM     16  C   UNL     1      18.591 -32.732  22.130  1.00  0.00    -0.000 C 
BRANCH  16  17
ATOM     17  C   UNL     1      18.758 -31.943  20.819  1.00  0.00    -0.003 C 
ATOM     18  C   UNL     1      17.812 -30.746  20.719  1.00  0.00     0.004 C 
ENDBRANCH  16  17
ENDBRANCH  15  16
ENDBRANCH  14  15
ENDBRANCH  13  14
ENDBRANCH  12  13
ENDBRANCH  11  12
ENDBRANCH   1  11
TORSDOF 14
ENDMDL
MODEL 3
REMARK VINA RESULT:    -4.437      1.393      2.813
REMARK INTER + INTRA:         -10.323
REMARK INTER:                  -8.544
REMARK INTRA:                  -1.779
REMARK UNBOUND:                -2.254
REMARK SMILES CCCCCCCCCCCCCCCC(=O)[O-]
REMARK SMILES IDX 9 1 10 2 11 3 12 4 13 5 14 6 15 7 16 8 17 9 18 10 8 11 7 12
REMARK SMILES IDX 6 13 5 14 4 15 3 16 2 17 1 18
REMARK H PARENT
REMARK Flexibility Score: inf
ROOT
ATOM      1  C   UNL     1      17.637 -31.591  22.185  1.00  0.00     0.000 C 
ENDROOT
BRANCH   1   2
ATOM      2  C   UNL     1      16.776 -32.237  23.281  1.00  0.00     0.000 C 
BRANCH   2   3
ATOM      3  C   UNL     1      15.583 -33.024  22.710  1.00  0.00     0.000 C 
BRANCH   3   4
ATOM      4  C   UNL     1      14.551 -33.392  23.789  1.00  0.00     0.000 C 
BRANCH   4   5
ATOM      5  C   UNL     1      13.842 -32.156  24.369  1.00  0.00     0.000 C 
BRANCH   5   6
ATOM      6  C   UNL     1      13.269 -31.236  23.278  1.00  0.00     0.006 C 
BRANCH   6   7
ATOM      7  C   UNL     1      13.616 -29.758  23.506  1.00  0.00     0.053 C 
BRANCH   7   8
ATOM      8  C   UNL     1      12.371 -28.960  23.739  1.00  0.00     0.041 C 
ATOM      9  O   UNL     1      12.307 -28.155  24.704  1.00  0.00    -0.550 OA
ATOM     10  O   UNL     1      11.299 -29.072  22.863  1.00  0.00    -0.550 OA
ENDBRANCH   7   8
ENDBRANCH   6   7
ENDBRANCH   5   6
ENDBRANCH   4   5
ENDBRANCH   3   4
ENDBRANCH   2   3
ENDBRANCH   1   2
BRANCH   1  11
ATOM     11  C   UNL     1      17.233 -32.036  20.771  1.00  0.00     0.000 C 
BRANCH  11  12
ATOM     12  C   UNL     1      18.306 -32.948  20.155  1.00  0.00    -0.000 C 
BRANCH  12  13
ATOM     13  C   UNL     1      17.742 -33.865  19.059  1.00  0.00    -0.000 C 
BRANCH  13  14
ATOM     14  C   UNL     1      16.254 -34.191  19.270  1.00  0.00    -0.000 C 
BRANCH  14  15
ATOM     15  C   UNL     1      16.034 -35.531  19.996  1.00  0.00    -0.000 C 
BRANCH  15  16
ATOM     16  C   UNL     1      17.092 -36.613  19.701  1.00  0.00    -0.000 C 
BRANCH  16  17
ATOM     17  C   UNL     1      17.891 -37.090  20.926  1.00  0.00    -0.003 C 
ATOM     18  C   UNL     1      17.958 -36.044  22.039  1.00  0.00     0.004 C 
ENDBRANCH  16  17
ENDBRANCH  15  16
ENDBRANCH  14  15
ENDBRANCH  13  14
ENDBRANCH  12  13
ENDBRANCH  11  12
ENDBRANCH   1  11
TORSDOF 14
ENDMDL
MODEL 4
REMARK VINA RESULT:    -4.374      3.552      5.553
REMARK INTER + INTRA:         -10.209
REMARK INTER:                  -8.789
REMARK INTRA:                  -1.420
REMARK UNBOUND:                -2.254
REMARK SMILES CCCCCCCCCCCCCCCC(=O)[O-]
REMARK SMILES IDX 9 1 10 2 11 3 12 4 13 5 14 6 15 7 16 8 17 9 18 10 8 11 7 12
REMARK SMILES IDX 6 13 5 14 4 15 3 16 2 17 1 18
REMARK H PARENT
REMARK Flexibility Score: inf
ROOT
ATOM      1  C   UNL     1      15.430 -29.593  22.902  1.00  0.00     0.000 C 
ENDROOT
BRANCH   1   2
ATOM      2  C   UNL     1      14.108 -29.941  23.603  1.00  0.00     0.000 C 
BRANCH   2   3
ATOM      3  C   UNL     1      13.451 -31.209  23.032  1.00  0.00     0.000 C 
BRANCH   3   4
ATOM      4  C   UNL     1      12.767 -30.957  21.678  1.00  0.00     0.000 C 
BRANCH   4   5
ATOM      5  C   UNL     1      13.411 -31.763  20.535  1.00  0.00     0.000 C 
BRANCH   5   6
ATOM      6  C   UNL     1      14.216 -32.970  21.043  1.00  0.00     0.006 C 
BRANCH   6   7
ATOM      7  C   UNL     1      14.743 -33.853  19.904  1.00  0.00     0.053 C 
BRANCH   7   8
ATOM      8  C   UNL     1      15.766 -34.816  20.421  1.00  0.00     0.041 C 
ATOM      9  O   UNL     1      16.148 -34.753  21.617  1.00  0.00    -0.550 OA
ATOM     10  O   UNL     1      16.263 -35.813  19.590  1.00  0.00    -0.550 OA
ENDBRANCH   7   8
ENDBRANCH   6   7
ENDBRANCH   5   6
ENDBRANCH   4   5
ENDBRANCH   3   4
ENDBRANCH   2   3
ENDBRANCH   1   2
BRANCH   1  11
ATOM     11  C   UNL     1      16.415 -30.771  22.870  1.00  0.00     0.000 C 
BRANCH  11  12
ATOM     12  C   UNL     1      17.013 -30.947  21.465  1.00  0.00    -0.000 C 
BRANCH  12  13
ATOM     13  C   UNL     1      18.329 -31.740  21.480  1.00  0.00    -0.000 C 
BRANCH  13  14
ATOM     14  C   UNL     1      19.511 -30.933  20.914  1.00  0.00    -0.000 C 
BRANCH  14  15
ATOM     15  C   UNL     1      19.775 -29.634  21.698  1.00  0.00    -0.000 C 
BRANCH  15  16
ATOM     16  C   UNL     1      20.465 -28.516  20.892  1.00  0.00    -0.000 C 
BRANCH  16  17
ATOM     17  C   UNL     1      19.567 -27.315  20.546  1.00  0.00    -0.003 C 
ATOM     18  C   UNL     1      20.357 -26.027  20.315  1.00  0.00     0.004 C 
ENDBRANCH  16  17
ENDBRANCH  15  16
ENDBRANCH  14  15
ENDBRANCH  13  14
ENDBRANCH  12  13
ENDBRANCH  11  12
ENDBRANCH   1  11
TORSDOF 14
ENDMDL
MODEL 5
REMARK VINA RESULT:    -4.359      2.871      4.947
REMARK INTER + INTRA:         -10.181
REMARK INTER:                  -7.828
REMARK INTRA:                  -2.353
REMARK UNBOUND:                -2.254
REMARK SMILES CCCCCCCCCCCCCCCC(=O)[O-]
REMARK SMILES IDX 9 1 10 2 11 3 12 4 13 5 14 6 15 7 16 8 17 9 18 10 8 11 7 12
REMARK SMILES IDX 6 13 5 14 4 15 3 16 2 17 1 18
REMARK H PARENT
REMARK Flexibility Score: inf
ROOT
ATOM      1  C   UNL     1      15.835 -30.776  23.492  1.00  0.00     0.000 C 
ENDROOT
BRANCH   1   2
ATOM      2  C   UNL     1      16.013 -29.625  22.489  1.00  0.00     0.000 C 
BRANCH   2   3
ATOM      3  C   UNL     1      17.330 -29.726  21.700  1.00  0.00     0.000 C 
BRANCH   3   4
ATOM      4  C   UNL     1      17.429 -31.028  20.888  1.00  0.00     0.000 C 
BRANCH   4   5
ATOM      5  C   UNL     1      18.715 -31.815  21.194  1.00  0.00     0.000 C 
BRANCH   5   6
ATOM      6  C   UNL     1      18.432 -33.260  21.637  1.00  0.00     0.006 C 
BRANCH   6   7
ATOM      7  C   UNL     1      18.772 -33.506  23.113  1.00  0.00     0.053 C 
BRANCH   7   8
ATOM      8  C   UNL     1      17.597 -34.096  23.828  1.00  0.00     0.041 C 
ATOM      9  O   UNL     1      16.949 -35.041  23.308  1.00  0.00    -0.550 OA
ATOM     10  O   UNL     1      17.246 -33.632  25.089  1.00  0.00    -0.550 OA
ENDBRANCH   7   8
ENDBRANCH   6   7
ENDBRANCH   5   6
ENDBRANCH   4   5
ENDBRANCH   3   4
ENDBRANCH   2   3
ENDBRANCH   1   2
BRANCH   1  11
ATOM     11  C   UNL     1      14.557 -31.591  23.242  1.00  0.00     0.000 C 
BRANCH  11  12
ATOM     12  C   UNL     1      13.814 -31.079  21.997  1.00  0.00    -0.000 C 
BRANCH  12  13
ATOM     13  C   UNL     1      13.806 -32.103  20.853  1.00  0.00    -0.000 C 
BRANCH  13  14
ATOM     14  C   UNL     1      14.670 -33.338  21.159  1.00  0.00    -0.000 C 
BRANCH  14  15
ATOM     15  C   UNL     1      15.241 -33.996  19.889  1.00  0.00    -0.000 C 
BRANCH  15  16
ATOM     16  C   UNL     1      15.575 -35.495  20.026  1.00  0.00    -0.000 C 
BRANCH  16  17
ATOM     17  C   UNL     1      16.965 -35.901  19.506  1.00  0.00    -0.003 C 
ATOM     18  C   UNL     1      17.632 -36.977  20.364  1.00  0.00     0.004 C 
ENDBRANCH  16  17
ENDBRANCH  15  16
ENDBRANCH  14  15
ENDBRANCH  13  14
ENDBRANCH  12  13
ENDBRANCH  11  12
ENDBRANCH   1  11
TORSDOF 14
ENDMDL
MODEL 6
REMARK VINA RESULT:    -4.304      3.527      6.160
REMARK INTER + INTRA:         -10.081
REMARK INTER:                  -8.058
REMARK INTRA:                  -2.023
REMARK UNBOUND:                -2.254
REMARK SMILES CCCCCCCCCCCCCCCC(=O)[O-]
REMARK SMILES IDX 9 1 10 2 11 3 12 4 13 5 14 6 15 7 16 8 17 9 18 10 8 11 7 12
REMARK SMILES IDX 6 13 5 14 4 15 3 16 2 17 1 18
REMARK H PARENT
REMARK Flexibility Score: inf
ROOT
ATOM      1  C   UNL     1      15.747 -32.998  23.778  1.00  0.00     0.000 C 
ENDROOT
BRANCH   1   2
ATOM      2  C   UNL     1      16.153 -34.031  22.714  1.00  0.00     0.000 C 
BRANCH   2   3
ATOM      3  C   UNL     1      15.219 -34.019  21.492  1.00  0.00     0.000 C 
BRANCH   3   4
ATOM      4  C   UNL     1      15.991 -34.078  20.163  1.00  0.00     0.000 C 
BRANCH   4   5
ATOM      5  C   UNL     1      16.148 -35.516  19.637  1.00  0.00     0.000 C 
BRANCH   5   6
ATOM      6  C   UNL     1      17.591 -36.033  19.752  1.00  0.00     0.006 C 
BRANCH   6   7
ATOM      7  C   UNL     1      17.754 -37.097  20.847  1.00  0.00     0.053 C 
BRANCH   7   8
ATOM      8  C   UNL     1      18.714 -36.624  21.894  1.00  0.00     0.041 C 
ATOM      9  O   UNL     1      19.104 -37.410  22.797  1.00  0.00    -0.550 OA
ATOM     10  O   UNL     1      19.213 -35.329  21.846  1.00  0.00    -0.550 OA
ENDBRANCH   7   8
ENDBRANCH   6   7
ENDBRANCH   5   6
ENDBRANCH   4   5
ENDBRANCH   3   4
ENDBRANCH   2   3
ENDBRANCH   1   2
BRANCH   1  11
ATOM     11  C   UNL     1      14.262 -33.090  24.161  1.00  0.00     0.000 C 
BRANCH  11  12
ATOM     12  C   UNL     1      13.607 -31.700  24.151  1.00  0.00    -0.000 C 
BRANCH  12  13
ATOM     13  C   UNL     1      13.672 -31.027  22.772  1.00  0.00    -0.000 C 
BRANCH  13  14
ATOM     14  C   UNL     1      14.602 -29.802  22.755  1.00  0.00    -0.000 C 
BRANCH  14  15
ATOM     15  C   UNL     1      15.552 -29.791  21.543  1.00  0.00    -0.000 C 
BRANCH  15  16
ATOM     16  C   UNL     1      17.010 -30.185  21.854  1.00  0.00    -0.000 C 
BRANCH  16  17
ATOM     17  C   UNL     1      17.723 -30.970  20.739  1.00  0.00    -0.003 C 
ATOM     18  C   UNL     1      18.932 -31.757  21.244  1.00  0.00     0.004 C 
ENDBRANCH  16  17
ENDBRANCH  15  16
ENDBRANCH  14  15
ENDBRANCH  13  14
ENDBRANCH  12  13
ENDBRANCH  11  12
ENDBRANCH   1  11
TORSDOF 14
ENDMDL
MODEL 7
REMARK VINA RESULT:    -4.301      2.943      5.652
REMARK INTER + INTRA:         -10.075
REMARK INTER:                  -7.798
REMARK INTRA:                  -2.278
REMARK UNBOUND:                -2.254
REMARK SMILES CCCCCCCCCCCCCCCC(=O)[O-]
REMARK SMILES IDX 9 1 10 2 11 3 12 4 13 5 14 6 15 7 16 8 17 9 18 10 8 11 7 12
REMARK SMILES IDX 6 13 5 14 4 15 3 16 2 17 1 18
REMARK H PARENT
REMARK Flexibility Score: inf
ROOT
ATOM      1  C   UNL     1      14.837 -33.566  20.817  1.00  0.00     0.000 C 
ENDROOT
BRANCH   1   2
ATOM      2  C   UNL     1      15.673 -34.164  19.675  1.00  0.00     0.000 C 
BRANCH   2   3
ATOM      3  C   UNL     1      16.158 -35.592  19.981  1.00  0.00     0.000 C 
BRANCH   3   4
ATOM      4  C   UNL     1      17.666 -35.649  20.275  1.00  0.00     0.000 C 
BRANCH   4   5
ATOM      5  C   UNL     1      17.966 -36.052  21.730  1.00  0.00     0.000 C 
BRANCH   5   6
ATOM      6  C   UNL     1      18.124 -34.838  22.660  1.00  0.00     0.006 C 
BRANCH   6   7
ATOM      7  C   UNL     1      16.858 -34.548  23.477  1.00  0.00     0.053 C 
BRANCH   7   8
ATOM      8  C   UNL     1      17.120 -34.755  24.936  1.00  0.00     0.041 C 
ATOM      9  O   UNL     1      17.305 -35.914  25.389  1.00  0.00    -0.550 OA
ATOM     10  O   UNL     1      17.204 -33.660  25.788  1.00  0.00    -0.550 OA
ENDBRANCH   7   8
ENDBRANCH   6   7
ENDBRANCH   5   6
ENDBRANCH   4   5
ENDBRANCH   3   4
ENDBRANCH   2   3
ENDBRANCH   1   2
BRANCH   1  11
ATOM     11  C   UNL     1      13.834 -32.509  20.331  1.00  0.00     0.000 C 
BRANCH  11  12
ATOM     12  C   UNL     1      13.457 -31.546  21.467  1.00  0.00    -0.000 C 
BRANCH  12  13
ATOM     13  C   UNL     1      14.090 -31.941  22.810  1.00  0.00    -0.000 C 
BRANCH  13  14
ATOM     14  C   UNL     1      14.682 -30.737  23.561  1.00  0.00    -0.000 C 
BRANCH  14  15
ATOM     15  C   UNL     1      15.793 -30.026  22.766  1.00  0.00    -0.000 C 
BRANCH  15  16
ATOM     16  C   UNL     1      17.021 -30.899  22.439  1.00  0.00    -0.000 C 
BRANCH  16  17
ATOM     17  C   UNL     1      17.444 -30.896  20.960  1.00  0.00    -0.003 C 
ATOM     18  C   UNL     1      18.534 -31.923  20.650  1.00  0.00     0.004 C 
ENDBRANCH  16  17
ENDBRANCH  15  16
ENDBRANCH  14  15
ENDBRANCH  13  14
ENDBRANCH  12  13
ENDBRANCH  11  12
ENDBRANCH   1  11
TORSDOF 14
ENDMDL
MODEL 8
REMARK VINA RESULT:    -4.296      3.196      5.626
REMARK INTER + INTRA:         -10.067
REMARK INTER:                  -7.967
REMARK INTRA:                  -2.100
REMARK UNBOUND:                -2.254
REMARK SMILES CCCCCCCCCCCCCCCC(=O)[O-]
REMARK SMILES IDX 9 1 10 2 11 3 12 4 13 5 14 6 15 7 16 8 17 9 18 10 8 11 7 12
REMARK SMILES IDX 6 13 5 14 4 15 3 16 2 17 1 18
REMARK H PARENT
REMARK Flexibility Score: inf
ROOT
ATOM      1  C   UNL     1      18.248 -33.297  20.662  1.00  0.00     0.000 C 
ENDROOT
BRANCH   1   2
ATOM      2  C   UNL     1      18.623 -31.807  20.626  1.00  0.00     0.000 C 
BRANCH   2   3
ATOM      3  C   UNL     1      17.607 -30.922  21.368  1.00  0.00     0.000 C 
BRANCH   3   4
ATOM      4  C   UNL     1      17.810 -30.947  22.892  1.00  0.00     0.000 C 
BRANCH   4   5
ATOM      5  C   UNL     1      16.594 -31.527  23.637  1.00  0.00     0.000 C 
BRANCH   5   6
ATOM      6  C   UNL     1      16.964 -32.717  24.537  1.00  0.00     0.006 C 
BRANCH   6   7
ATOM      7  C   UNL     1      16.495 -34.062  23.964  1.00  0.00     0.053 C 
BRANCH   7   8
ATOM      8  C   UNL     1      17.574 -35.091  24.099  1.00  0.00     0.041 C 
ATOM      9  O   UNL     1      17.959 -35.740  23.092  1.00  0.00    -0.550 OA
ATOM     10  O   UNL     1      18.184 -35.301  25.329  1.00  0.00    -0.550 OA
ENDBRANCH   7   8
ENDBRANCH   6   7
ENDBRANCH   5   6
ENDBRANCH   4   5
ENDBRANCH   3   4
ENDBRANCH   2   3
ENDBRANCH   1   2
BRANCH   1  11
ATOM     11  C   UNL     1      17.169 -33.664  19.631  1.00  0.00     0.000 C 
BRANCH  11  12
ATOM     12  C   UNL     1      16.087 -34.553  20.263  1.00  0.00    -0.000 C 
BRANCH  12  13
ATOM     13  C   UNL     1      14.679 -33.951  20.133  1.00  0.00    -0.000 C 
BRANCH  13  14
ATOM     14  C   UNL     1      14.431 -32.810  21.134  1.00  0.00    -0.000 C 
BRANCH  14  15
ATOM     15  C   UNL     1      13.509 -31.713  20.570  1.00  0.00    -0.000 C 
BRANCH  15  16
ATOM     16  C   UNL     1      12.689 -30.945  21.626  1.00  0.00    -0.000 C 
BRANCH  16  17
ATOM     17  C   UNL     1      13.163 -31.132  23.078  1.00  0.00    -0.003 C 
ATOM     18  C   UNL     1      13.176 -29.826  23.874  1.00  0.00     0.004 C 
ENDBRANCH  16  17
ENDBRANCH  15  16
ENDBRANCH  14  15
ENDBRANCH  13  14
ENDBRANCH  12  13
ENDBRANCH  11  12
ENDBRANCH   1  11
TORSDOF 14
ENDMDL
MODEL 9
REMARK VINA RESULT:    -4.276      3.354      5.551
REMARK INTER + INTRA:         -10.031
REMARK INTER:                  -7.380
REMARK INTRA:                  -2.650
REMARK UNBOUND:                -2.254
REMARK SMILES CCCCCCCCCCCCCCCC(=O)[O-]
REMARK SMILES IDX 9 1 10 2 11 3 12 4 13 5 14 6 15 7 16 8 17 9 18 10 8 11 7 12
REMARK SMILES IDX 6 13 5 14 4 15 3 16 2 17 1 18
REMARK H PARENT
REMARK Flexibility Score: inf
ROOT
ATOM      1  C   UNL     1      14.932 -29.914  23.154  1.00  0.00     0.000 C 
ENDROOT
BRANCH   1   2
ATOM      2  C   UNL     1      14.005 -31.133  23.024  1.00  0.00     0.000 C 
BRANCH   2   3
ATOM      3  C   UNL     1      14.602 -32.401  23.658  1.00  0.00     0.000 C 
BRANCH   3   4
ATOM      4  C   UNL     1      15.276 -33.314  22.620  1.00  0.00     0.000 C 
BRANCH   4   5
ATOM      5  C   UNL     1      14.599 -33.236  21.240  1.00  0.00     0.000 C 
BRANCH   5   6
ATOM      6  C   UNL     1      15.446 -33.875  20.128  1.00  0.00     0.006 C 
BRANCH   6   7
ATOM      7  C   UNL     1      16.257 -35.082  20.619  1.00  0.00     0.053 C 
BRANCH   7   8
ATOM      8  C   UNL     1      17.180 -35.563  19.544  1.00  0.00     0.041 C 
ATOM      9  O   UNL     1      17.056 -36.724  19.075  1.00  0.00    -0.550 OA
ATOM     10  O   UNL     1      18.149 -34.712  19.028  1.00  0.00    -0.550 OA
ENDBRANCH   7   8
ENDBRANCH   6   7
ENDBRANCH   5   6
ENDBRANCH   4   5
ENDBRANCH   3   4
ENDBRANCH   2   3
ENDBRANCH   1   2
BRANCH   1  11
ATOM     11  C   UNL     1      15.715 -29.621  21.866  1.00  0.00     0.000 C 
BRANCH  11  12
ATOM     12  C   UNL     1      17.179 -30.068  22.000  1.00  0.00    -0.000 C 
BRANCH  12  13
ATOM     13  C   UNL     1      17.618 -31.000  20.861  1.00  0.00    -0.000 C 
BRANCH  13  14
ATOM     14  C   UNL     1      18.589 -32.095  21.334  1.00  0.00    -0.000 C 
BRANCH  14  15
ATOM     15  C   UNL     1      19.131 -31.838  22.752  1.00  0.00    -0.000 C 
BRANCH  15  16
ATOM     16  C   UNL     1      18.781 -32.923  23.790  1.00  0.00    -0.000 C 
BRANCH  16  17
ATOM     17  C   UNL     1      18.019 -32.416  25.027  1.00  0.00    -0.003 C 
ATOM     18  C   UNL     1      18.360 -30.969  25.386  1.00  0.00     0.004 C 
ENDBRANCH  16  17
ENDBRANCH  15  16
ENDBRANCH  14  15
ENDBRANCH  13  14
ENDBRANCH  12  13
ENDBRANCH  11  12
ENDBRANCH   1  11
TORSDOF 14
ENDMDL
