MODEL 1
REMARK VINA RESULT:    -7.533      0.000      0.000
REMARK INTER + INTRA:         -11.008
REMARK INTER:                  -9.955
REMARK INTRA:                  -1.053
REMARK UNBOUND:                -1.053
REMARK SMILES CC[C@H](C=C[C@@H](C)[C@@H]1CC[C@H]2[C@@H]3CC=C4C[C@H](O)CC[C@@]4(C)[C@@H]3CC[C@]21C)C(C)C
REMARK SMILES IDX 6 1 7 2 5 3 4 4 3 5 2 6 1 7 28 8 29 9 30 10 8 11 9 12 26 13
REMARK SMILES IDX 10 14 11 15 25 16 27 17 12 18 24 19 23 20 13 21 21 22 14 23
REMARK SMILES IDX 15 24 20 25 22 26 16 27 19 28 17 29 18 30
REMARK H PARENT 18 31
REMARK Flexibility Score: inf
ROOT
ATOM      1  C   UNL     1     141.422 139.235 144.994  1.00  0.00     0.012 C 
ATOM      2  C   UNL     1     142.689 140.013 145.400  1.00  0.00     0.012 C 
ENDROOT
BRANCH   1   3
ATOM      3  C   UNL     1     140.238 139.857 145.708  1.00  0.00    -0.028 C 
ATOM      4  C   UNL     1     140.282 140.146 147.019  1.00  0.00    -0.027 C 
BRANCH   4   5
ATOM      5  C   UNL     1     139.103 140.780 147.731  1.00  0.00     0.014 C 
BRANCH   5   6
ATOM      6  C   UNL     1     137.865 140.705 146.797  1.00  0.00     0.004 C 
ATOM      7  C   UNL     1     136.953 139.506 147.054  1.00  0.00     0.004 C 
ENDBRANCH   5   6
BRANCH   5   8
ATOM      8  C   UNL     1     138.935 140.128 149.145  1.00  0.00    -0.011 C 
ATOM      9  C   UNL     1     139.100 141.124 150.304  1.00  0.00     0.008 C 
ATOM     10  C   UNL     1     139.824 138.893 149.351  1.00  0.00     0.008 C 
ENDBRANCH   5   8
ENDBRANCH   4   5
ENDBRANCH   1   3
BRANCH   1  11
ATOM     11  C   UNL     1     141.473 137.689 145.263  1.00  0.00     0.002 C 
ATOM     12  C   UNL     1     142.457 136.900 144.405  1.00  0.00     0.005 C 
ATOM     13  C   UNL     1     140.130 136.865 145.251  1.00  0.00    -0.026 C 
ATOM     14  C   UNL     1     142.080 135.454 144.659  1.00  0.00     0.005 C 
ATOM     15  C   UNL     1     140.549 135.454 144.715  1.00  0.00    -0.001 C 
ATOM     16  C   UNL     1     139.535 136.798 146.689  1.00  0.00     0.007 C 
ATOM     17  C   UNL     1     139.051 137.456 144.306  1.00  0.00     0.012 C 
ATOM     18  C   UNL     1     139.981 134.213 145.472  1.00  0.00     0.000 C 
ATOM     19  C   UNL     1     140.228 135.746 147.566  1.00  0.00     0.005 C 
ATOM     20  C   UNL     1     140.019 134.303 147.040  1.00  0.00     0.003 C 
ATOM     21  C   UNL     1     138.591 133.826 144.952  1.00  0.00     0.031 C 
ATOM     22  C   UNL     1     138.875 133.479 147.801  1.00  0.00    -0.008 C 
ATOM     23  C   UNL     1     138.160 132.545 145.601  1.00  0.00    -0.027 C 
ATOM     24  C   UNL     1     138.355 132.333 146.918  1.00  0.00    -0.065 C 
ATOM     25  C   UNL     1     139.486 132.908 149.123  1.00  0.00     0.014 C 
ATOM     26  C   UNL     1     137.634 134.345 148.166  1.00  0.00     0.016 C 
ATOM     27  C   UNL     1     137.741 131.091 147.535  1.00  0.00     0.063 C 
ATOM     28  C   UNL     1     138.648 131.801 149.771  1.00  0.00     0.033 C 
ATOM     29  C   UNL     1     138.479 130.634 148.799  1.00  0.00     0.118 C 
BRANCH  29  30
ATOM     30  O   UNL     1     137.755 129.613 149.433  1.00  0.00    -0.393 OA
ATOM     31  H   UNL     1     136.881 130.004 149.701  1.00  0.00     0.210 HD
ENDBRANCH  29  30
ENDBRANCH   1  11
TORSDOF 6
ENDMDL
MODEL 2
REMARK VINA RESULT:    -6.611     10.711     13.561
REMARK INTER + INTRA:          -9.789
REMARK INTER:                  -8.161
REMARK INTRA:                  -1.628
REMARK UNBOUND:                -1.053
REMARK SMILES CC[C@H](C=C[C@@H](C)[C@@H]1CC[C@H]2[C@@H]3CC=C4C[C@H](O)CC[C@@]4(C)[C@@H]3CC[C@]21C)C(C)C
REMARK SMILES IDX 6 1 7 2 5 3 4 4 3 5 2 6 1 7 28 8 29 9 30 10 8 11 9 12 26 13
REMARK SMILES IDX 10 14 11 15 25 16 27 17 12 18 24 19 23 20 13 21 21 22 14 23
REMARK SMILES IDX 15 24 20 25 22 26 16 27 19 28 17 29 18 30
REMARK H PARENT 18 31
REMARK Flexibility Score: inf
ROOT
ATOM      1  C   UNL     1     129.477 139.752 158.507  1.00  0.00     0.012 C 
ATOM      2  C   UNL     1     129.496 139.975 160.031  1.00  0.00     0.012 C 
ENDROOT
BRANCH   1   3
ATOM      3  C   UNL     1     128.043 139.497 158.086  1.00  0.00    -0.028 C 
ATOM      4  C   UNL     1     127.751 138.752 157.007  1.00  0.00    -0.027 C 
BRANCH   4   5
ATOM      5  C   UNL     1     126.318 138.486 156.592  1.00  0.00     0.014 C 
BRANCH   5   6
ATOM      6  C   UNL     1     126.093 139.090 155.180  1.00  0.00     0.004 C 
ATOM      7  C   UNL     1     125.462 138.126 154.176  1.00  0.00     0.004 C 
ENDBRANCH   5   6
BRANCH   5   8
ATOM      8  C   UNL     1     126.005 136.959 156.742  1.00  0.00    -0.011 C 
ATOM      9  C   UNL     1     125.139 136.625 157.967  1.00  0.00     0.008 C 
ATOM     10  C   UNL     1     127.263 136.078 156.702  1.00  0.00     0.008 C 
ENDBRANCH   5   8
ENDBRANCH   4   5
ENDBRANCH   1   3
BRANCH   1  11
ATOM     11  C   UNL     1     130.412 138.601 157.990  1.00  0.00     0.002 C 
ATOM     12  C   UNL     1     131.045 137.727 159.069  1.00  0.00     0.005 C 
ATOM     13  C   UNL     1     131.569 138.951 156.980  1.00  0.00    -0.026 C 
ATOM     14  C   UNL     1     132.095 136.931 158.319  1.00  0.00     0.005 C 
ATOM     15  C   UNL     1     132.704 137.926 157.326  1.00  0.00    -0.001 C 
ATOM     16  C   UNL     1     131.062 138.796 155.516  1.00  0.00     0.007 C 
ATOM     17  C   UNL     1     132.127 140.387 157.153  1.00  0.00     0.012 C 
ATOM     18  C   UNL     1     133.406 137.217 156.126  1.00  0.00     0.000 C 
ATOM     19  C   UNL     1     131.034 137.333 155.052  1.00  0.00     0.005 C 
ATOM     20  C   UNL     1     132.448 136.702 154.993  1.00  0.00     0.003 C 
ATOM     21  C   UNL     1     134.555 138.065 155.567  1.00  0.00     0.031 C 
ATOM     22  C   UNL     1     133.090 136.648 153.526  1.00  0.00    -0.008 C 
ATOM     23  C   UNL     1     135.288 137.275 154.524  1.00  0.00    -0.027 C 
ATOM     24  C   UNL     1     134.622 136.544 153.609  1.00  0.00    -0.065 C 
ATOM     25  C   UNL     1     132.503 135.402 152.784  1.00  0.00     0.014 C 
ATOM     26  C   UNL     1     132.785 137.916 152.675  1.00  0.00     0.016 C 
ATOM     27  C   UNL     1     135.422 135.913 152.485  1.00  0.00     0.063 C 
ATOM     28  C   UNL     1     133.283 134.998 151.529  1.00  0.00     0.033 C 
ATOM     29  C   UNL     1     134.733 134.679 151.892  1.00  0.00     0.118 C 
BRANCH  29  30
ATOM     30  O   UNL     1     135.412 134.261 150.737  1.00  0.00    -0.393 OA
ATOM     31  H   UNL     1     136.323 134.654 150.782  1.00  0.00     0.210 HD
ENDBRANCH  29  30
ENDBRANCH   1  11
TORSDOF 6
ENDMDL
MODEL 3
REMARK VINA RESULT:    -6.429      2.977      6.037
REMARK INTER + INTRA:          -9.549
REMARK INTER:                  -8.028
REMARK INTRA:                  -1.521
REMARK UNBOUND:                -1.053
REMARK SMILES CC[C@H](C=C[C@@H](C)[C@@H]1CC[C@H]2[C@@H]3CC=C4C[C@H](O)CC[C@@]4(C)[C@@H]3CC[C@]21C)C(C)C
REMARK SMILES IDX 6 1 7 2 5 3 4 4 3 5 2 6 1 7 28 8 29 9 30 10 8 11 9 12 26 13
REMARK SMILES IDX 10 14 11 15 25 16 27 17 12 18 24 19 23 20 13 21 21 22 14 23
REMARK SMILES IDX 15 24 20 25 22 26 16 27 19 28 17 29 18 30
REMARK H PARENT 18 31
REMARK Flexibility Score: inf
ROOT
ATOM      1  C   UNL     1     138.504 133.438 145.067  1.00  0.00     0.012 C 
ATOM      2  C   UNL     1     138.090 132.555 143.875  1.00  0.00     0.012 C 
ENDROOT
BRANCH   1   3
ATOM      3  C   UNL     1     139.969 133.794 144.904  1.00  0.00    -0.028 C 
ATOM      4  C   UNL     1     140.371 135.070 144.780  1.00  0.00    -0.027 C 
BRANCH   4   5
ATOM      5  C   UNL     1     141.837 135.427 144.630  1.00  0.00     0.014 C 
BRANCH   5   6
ATOM      6  C   UNL     1     141.962 136.973 144.560  1.00  0.00     0.004 C 
ATOM      7  C   UNL     1     140.669 137.725 144.873  1.00  0.00     0.004 C 
ENDBRANCH   5   6
BRANCH   5   8
ATOM      8  C   UNL     1     142.665 134.722 145.757  1.00  0.00    -0.011 C 
ATOM      9  C   UNL     1     142.785 135.552 147.044  1.00  0.00     0.008 C 
ATOM     10  C   UNL     1     144.045 134.243 145.282  1.00  0.00     0.008 C 
ENDBRANCH   5   8
ENDBRANCH   4   5
ENDBRANCH   1   3
BRANCH   1  11
ATOM     11  C   UNL     1     138.249 132.811 146.484  1.00  0.00     0.002 C 
ATOM     12  C   UNL     1     136.989 131.959 146.613  1.00  0.00     0.005 C 
ATOM     13  C   UNL     1     138.272 133.746 147.752  1.00  0.00    -0.026 C 
ATOM     14  C   UNL     1     136.846 131.749 148.107  1.00  0.00     0.005 C 
ATOM     15  C   UNL     1     137.236 133.093 148.730  1.00  0.00    -0.001 C 
ATOM     16  C   UNL     1     139.708 133.787 148.355  1.00  0.00     0.007 C 
ATOM     17  C   UNL     1     137.827 135.201 147.454  1.00  0.00     0.012 C 
ATOM     18  C   UNL     1     137.665 132.957 150.224  1.00  0.00     0.000 C 
ATOM     19  C   UNL     1     140.028 132.549 149.203  1.00  0.00     0.005 C 
ATOM     20  C   UNL     1     139.130 132.444 150.462  1.00  0.00     0.003 C 
ATOM     21  C   UNL     1     137.369 134.239 151.013  1.00  0.00     0.031 C 
ATOM     22  C   UNL     1     139.822 132.951 151.815  1.00  0.00    -0.008 C 
ATOM     23  C   UNL     1     137.655 134.000 152.466  1.00  0.00    -0.027 C 
ATOM     24  C   UNL     1     138.758 133.333 152.857  1.00  0.00    -0.065 C 
ATOM     25  C   UNL     1     140.724 131.796 152.362  1.00  0.00     0.014 C 
ATOM     26  C   UNL     1     140.709 134.215 151.615  1.00  0.00     0.016 C 
ATOM     27  C   UNL     1     139.067 133.281 154.341  1.00  0.00     0.063 C 
ATOM     28  C   UNL     1     141.154 131.977 153.821  1.00  0.00     0.033 C 
ATOM     29  C   UNL     1     139.924 132.069 154.723  1.00  0.00     0.118 C 
BRANCH  29  30
ATOM     30  O   UNL     1     140.343 132.180 156.057  1.00  0.00    -0.393 OA
ATOM     31  H   UNL     1     140.993 131.446 156.216  1.00  0.00     0.210 HD
ENDBRANCH  29  30
ENDBRANCH   1  11
TORSDOF 6
ENDMDL
MODEL 4
REMARK VINA RESULT:    -6.369     10.661     13.240
REMARK INTER + INTRA:          -9.470
REMARK INTER:                  -8.265
REMARK INTRA:                  -1.205
REMARK UNBOUND:                -1.053
REMARK SMILES CC[C@H](C=C[C@@H](C)[C@@H]1CC[C@H]2[C@@H]3CC=C4C[C@H](O)CC[C@@]4(C)[C@@H]3CC[C@]21C)C(C)C
REMARK SMILES IDX 6 1 7 2 5 3 4 4 3 5 2 6 1 7 28 8 29 9 30 10 8 11 9 12 26 13
REMARK SMILES IDX 10 14 11 15 25 16 27 17 12 18 24 19 23 20 13 21 21 22 14 23
REMARK SMILES IDX 15 24 20 25 22 26 16 27 19 28 17 29 18 30
REMARK H PARENT 18 31
REMARK Flexibility Score: inf
ROOT
ATOM      1  C   UNL     1     128.482 138.383 156.620  1.00  0.00     0.012 C 
ATOM      2  C   UNL     1     127.840 138.585 158.006  1.00  0.00     0.012 C 
ENDROOT
BRANCH   1   3
ATOM      3  C   UNL     1     127.368 138.241 155.601  1.00  0.00    -0.028 C 
ATOM      4  C   UNL     1     126.255 138.989 155.670  1.00  0.00    -0.027 C 
BRANCH   4   5
ATOM      5  C   UNL     1     125.147 138.858 154.644  1.00  0.00     0.014 C 
BRANCH   5   6
ATOM      6  C   UNL     1     125.767 138.367 153.309  1.00  0.00     0.004 C 
ATOM      7  C   UNL     1     125.406 139.222 152.094  1.00  0.00     0.004 C 
ENDBRANCH   5   6
BRANCH   5   8
ATOM      8  C   UNL     1     123.994 137.974 155.230  1.00  0.00    -0.011 C 
ATOM      9  C   UNL     1     123.876 138.052 156.760  1.00  0.00     0.008 C 
ATOM     10  C   UNL     1     124.052 136.514 154.757  1.00  0.00     0.008 C 
ENDBRANCH   5   8
ENDBRANCH   4   5
ENDBRANCH   1   3
BRANCH   1  11
ATOM     11  C   UNL     1     129.477 137.173 156.515  1.00  0.00     0.002 C 
ATOM     12  C   UNL     1     129.852 136.507 157.836  1.00  0.00     0.005 C 
ATOM     13  C   UNL     1     130.827 137.359 155.724  1.00  0.00    -0.026 C 
ATOM     14  C   UNL     1     131.016 135.608 157.470  1.00  0.00     0.005 C 
ATOM     15  C   UNL     1     131.841 136.425 156.470  1.00  0.00    -0.001 C 
ATOM     16  C   UNL     1     130.631 136.946 154.235  1.00  0.00     0.007 C 
ATOM     17  C   UNL     1     131.369 138.811 155.760  1.00  0.00     0.012 C 
ATOM     18  C   UNL     1     132.760 135.529 155.584  1.00  0.00     0.000 C 
ATOM     19  C   UNL     1     130.667 135.425 154.034  1.00  0.00     0.005 C 
ATOM     20  C   UNL     1     132.048 134.812 154.381  1.00  0.00     0.003 C 
ATOM     21  C   UNL     1     134.020 136.283 155.139  1.00  0.00     0.031 C 
ATOM     22  C   UNL     1     132.979 134.515 153.112  1.00  0.00    -0.008 C 
ATOM     23  C   UNL     1     134.936 135.334 154.425  1.00  0.00    -0.027 C 
ATOM     24  C   UNL     1     134.458 134.447 153.530  1.00  0.00    -0.065 C 
ATOM     25  C   UNL     1     132.531 133.151 152.490  1.00  0.00     0.014 C 
ATOM     26  C   UNL     1     132.887 135.612 152.012  1.00  0.00     0.016 C 
ATOM     27  C   UNL     1     135.460 133.643 152.723  1.00  0.00     0.063 C 
ATOM     28  C   UNL     1     133.546 132.547 151.514  1.00  0.00     0.033 C 
ATOM     29  C   UNL     1     134.881 132.315 152.221  1.00  0.00     0.118 C 
BRANCH  29  30
ATOM     30  O   UNL     1     135.775 131.714 151.322  1.00  0.00    -0.393 OA
ATOM     31  H   UNL     1     136.268 132.449 150.871  1.00  0.00     0.210 HD
ENDBRANCH  29  30
ENDBRANCH   1  11
TORSDOF 6
ENDMDL
MODEL 5
REMARK VINA RESULT:    -6.151      2.405      4.138
REMARK INTER + INTRA:          -9.182
REMARK INTER:                  -7.646
REMARK INTRA:                  -1.535
REMARK UNBOUND:                -1.053
REMARK SMILES CC[C@H](C=C[C@@H](C)[C@@H]1CC[C@H]2[C@@H]3CC=C4C[C@H](O)CC[C@@]4(C)[C@@H]3CC[C@]21C)C(C)C
REMARK SMILES IDX 6 1 7 2 5 3 4 4 3 5 2 6 1 7 28 8 29 9 30 10 8 11 9 12 26 13
REMARK SMILES IDX 10 14 11 15 25 16 27 17 12 18 24 19 23 20 13 21 21 22 14 23
REMARK SMILES IDX 15 24 20 25 22 26 16 27 19 28 17 29 18 30
REMARK H PARENT 18 31
REMARK Flexibility Score: inf
ROOT
ATOM      1  C   UNL     1     139.576 135.628 144.881  1.00  0.00     0.012 C 
ATOM      2  C   UNL     1     140.600 135.061 143.880  1.00  0.00     0.012 C 
ENDROOT
BRANCH   1   3
ATOM      3  C   UNL     1     139.613 137.141 144.788  1.00  0.00    -0.028 C 
ATOM      4  C   UNL     1     139.712 137.909 145.886  1.00  0.00    -0.027 C 
BRANCH   4   5
ATOM      5  C   UNL     1     139.763 139.421 145.794  1.00  0.00     0.014 C 
BRANCH   5   6
ATOM      6  C   UNL     1     138.505 140.001 146.494  1.00  0.00     0.004 C 
ATOM      7  C   UNL     1     137.679 138.968 147.261  1.00  0.00     0.004 C 
ENDBRANCH   5   6
BRANCH   5   8
ATOM      8  C   UNL     1     141.143 139.931 146.330  1.00  0.00    -0.011 C 
ATOM      9  C   UNL     1     141.850 140.910 145.380  1.00  0.00     0.008 C 
ATOM     10  C   UNL     1     142.087 138.793 146.748  1.00  0.00     0.008 C 
ENDBRANCH   5   8
ENDBRANCH   4   5
ENDBRANCH   1   3
BRANCH   1  11
ATOM     11  C   UNL     1     139.769 135.167 146.369  1.00  0.00     0.002 C 
ATOM     12  C   UNL     1     141.179 134.720 146.746  1.00  0.00     0.005 C 
ATOM     13  C   UNL     1     138.796 134.081 146.966  1.00  0.00    -0.026 C 
ATOM     14  C   UNL     1     141.001 134.065 148.101  1.00  0.00     0.005 C 
ATOM     15  C   UNL     1     139.683 133.293 147.991  1.00  0.00    -0.001 C 
ATOM     16  C   UNL     1     137.581 134.775 147.650  1.00  0.00     0.007 C 
ATOM     17  C   UNL     1     138.256 133.085 145.907  1.00  0.00     0.012 C 
ATOM     18  C   UNL     1     139.051 132.990 149.385  1.00  0.00     0.000 C 
ATOM     19  C   UNL     1     137.917 135.312 149.048  1.00  0.00     0.005 C 
ATOM     20  C   UNL     1     138.274 134.183 150.048  1.00  0.00     0.003 C 
ATOM     21  C   UNL     1     138.214 131.704 149.356  1.00  0.00     0.031 C 
ATOM     22  C   UNL     1     137.078 133.762 151.027  1.00  0.00    -0.008 C 
ATOM     23  C   UNL     1     137.761 131.379 150.748  1.00  0.00    -0.027 C 
ATOM     24  C   UNL     1     137.299 132.340 151.571  1.00  0.00    -0.065 C 
ATOM     25  C   UNL     1     137.030 134.790 152.205  1.00  0.00     0.014 C 
ATOM     26  C   UNL     1     135.687 133.749 150.328  1.00  0.00     0.016 C 
ATOM     27  C   UNL     1     136.700 131.912 152.897  1.00  0.00     0.063 C 
ATOM     28  C   UNL     1     136.203 134.324 153.407  1.00  0.00     0.033 C 
ATOM     29  C   UNL     1     136.768 133.016 153.958  1.00  0.00     0.118 C 
BRANCH  29  30
ATOM     30  O   UNL     1     136.026 132.638 155.089  1.00  0.00    -0.393 OA
ATOM     31  H   UNL     1     135.791 133.475 155.570  1.00  0.00     0.210 HD
ENDBRANCH  29  30
ENDBRANCH   1  11
TORSDOF 6
ENDMDL
MODEL 6
REMARK VINA RESULT:    -6.133      3.924      7.099
REMARK INTER + INTRA:          -9.158
REMARK INTER:                  -7.512
REMARK INTRA:                  -1.646
REMARK UNBOUND:                -1.053
REMARK SMILES CC[C@H](C=C[C@@H](C)[C@@H]1CC[C@H]2[C@@H]3CC=C4C[C@H](O)CC[C@@]4(C)[C@@H]3CC[C@]21C)C(C)C
REMARK SMILES IDX 6 1 7 2 5 3 4 4 3 5 2 6 1 7 28 8 29 9 30 10 8 11 9 12 26 13
REMARK SMILES IDX 10 14 11 15 25 16 27 17 12 18 24 19 23 20 13 21 21 22 14 23
REMARK SMILES IDX 15 24 20 25 22 26 16 27 19 28 17 29 18 30
REMARK H PARENT 18 31
REMARK Flexibility Score: inf
ROOT
ATOM      1  C   UNL     1     135.349 132.684 151.361  1.00  0.00     0.012 C 
ATOM      2  C   UNL     1     133.917 132.123 151.445  1.00  0.00     0.012 C 
ENDROOT
BRANCH   1   3
ATOM      3  C   UNL     1     135.523 133.703 152.470  1.00  0.00    -0.028 C 
ATOM      4  C   UNL     1     135.357 135.017 152.247  1.00  0.00    -0.027 C 
BRANCH   4   5
ATOM      5  C   UNL     1     135.517 136.036 153.358  1.00  0.00     0.014 C 
BRANCH   5   6
ATOM      6  C   UNL     1     136.971 136.578 153.323  1.00  0.00     0.004 C 
ATOM      7  C   UNL     1     137.372 137.220 151.995  1.00  0.00     0.004 C 
ENDBRANCH   5   6
BRANCH   5   8
ATOM      8  C   UNL     1     134.382 137.109 153.251  1.00  0.00    -0.011 C 
ATOM      9  C   UNL     1     133.993 137.731 154.601  1.00  0.00     0.008 C 
ATOM     10  C   UNL     1     133.140 136.603 152.502  1.00  0.00     0.008 C 
ENDBRANCH   5   8
ENDBRANCH   4   5
ENDBRANCH   1   3
BRANCH   1  11
ATOM     11  C   UNL     1     135.740 133.311 149.975  1.00  0.00     0.002 C 
ATOM     12  C   UNL     1     134.668 133.244 148.891  1.00  0.00     0.005 C 
ATOM     13  C   UNL     1     137.084 132.864 149.284  1.00  0.00    -0.026 C 
ATOM     14  C   UNL     1     135.408 133.632 147.627  1.00  0.00     0.005 C 
ATOM     15  C   UNL     1     136.775 132.953 147.750  1.00  0.00    -0.001 C 
ATOM     16  C   UNL     1     138.242 133.815 149.709  1.00  0.00     0.007 C 
ATOM     17  C   UNL     1     137.499 131.409 149.624  1.00  0.00     0.012 C 
ATOM     18  C   UNL     1     137.858 133.625 146.849  1.00  0.00     0.000 C 
ATOM     19  C   UNL     1     138.230 135.141 148.936  1.00  0.00     0.005 C 
ATOM     20  C   UNL     1     138.485 134.947 147.420  1.00  0.00     0.003 C 
ATOM     21  C   UNL     1     138.932 132.619 146.418  1.00  0.00     0.031 C 
ATOM     22  C   UNL     1     139.987 135.249 146.955  1.00  0.00    -0.008 C 
ATOM     23  C   UNL     1     139.856 133.276 145.435  1.00  0.00    -0.027 C 
ATOM     24  C   UNL     1     140.298 134.533 145.630  1.00  0.00    -0.065 C 
ATOM     25  C   UNL     1     140.142 136.796 146.783  1.00  0.00     0.014 C 
ATOM     26  C   UNL     1     141.056 134.759 147.976  1.00  0.00     0.016 C 
ATOM     27  C   UNL     1     141.361 135.066 144.687  1.00  0.00     0.063 C 
ATOM     28  C   UNL     1     141.385 137.215 145.993  1.00  0.00     0.033 C 
ATOM     29  C   UNL     1     141.355 136.596 144.597  1.00  0.00     0.118 C 
BRANCH  29  30
ATOM     30  O   UNL     1     142.475 137.037 143.876  1.00  0.00    -0.393 OA
ATOM     31  H   UNL     1     143.247 136.493 144.185  1.00  0.00     0.210 HD
ENDBRANCH  29  30
ENDBRANCH   1  11
TORSDOF 6
ENDMDL
MODEL 7
REMARK VINA RESULT:    -6.118     11.986     14.550
REMARK INTER + INTRA:          -9.138
REMARK INTER:                  -7.274
REMARK INTRA:                  -1.864
REMARK UNBOUND:                -1.053
REMARK SMILES CC[C@H](C=C[C@@H](C)[C@@H]1CC[C@H]2[C@@H]3CC=C4C[C@H](O)CC[C@@]4(C)[C@@H]3CC[C@]21C)C(C)C
REMARK SMILES IDX 6 1 7 2 5 3 4 4 3 5 2 6 1 7 28 8 29 9 30 10 8 11 9 12 26 13
REMARK SMILES IDX 10 14 11 15 25 16 27 17 12 18 24 19 23 20 13 21 21 22 14 23
REMARK SMILES IDX 15 24 20 25 22 26 16 27 19 28 17 29 18 30
REMARK H PARENT 18 31
REMARK Flexibility Score: inf
ROOT
ATOM      1  C   UNL     1     134.137 139.696 156.424  1.00  0.00     0.012 C 
ATOM      2  C   UNL     1     135.069 139.862 155.208  1.00  0.00     0.012 C 
ENDROOT
BRANCH   1   3
ATOM      3  C   UNL     1     134.972 139.223 157.597  1.00  0.00    -0.028 C 
ATOM      4  C   UNL     1     135.105 137.917 157.882  1.00  0.00    -0.027 C 
BRANCH   4   5
ATOM      5  C   UNL     1     135.950 137.442 159.047  1.00  0.00     0.014 C 
BRANCH   5   6
ATOM      6  C   UNL     1     136.325 138.671 159.917  1.00  0.00     0.004 C 
ATOM      7  C   UNL     1     137.714 138.595 160.551  1.00  0.00     0.004 C 
ENDBRANCH   5   6
BRANCH   5   8
ATOM      8  C   UNL     1     135.212 136.276 159.788  1.00  0.00    -0.011 C 
ATOM      9  C   UNL     1     134.629 135.217 158.841  1.00  0.00     0.008 C 
ATOM     10  C   UNL     1     134.149 136.770 160.781  1.00  0.00     0.008 C 
ENDBRANCH   5   8
ENDBRANCH   4   5
ENDBRANCH   1   3
BRANCH   1  11
ATOM     11  C   UNL     1     132.914 138.737 156.200  1.00  0.00     0.002 C 
ATOM     12  C   UNL     1     132.478 138.546 154.750  1.00  0.00     0.005 C 
ATOM     13  C   UNL     1     131.591 138.978 157.022  1.00  0.00    -0.026 C 
ATOM     14  C   UNL     1     131.140 137.844 154.864  1.00  0.00     0.005 C 
ATOM     15  C   UNL     1     130.448 138.513 156.057  1.00  0.00    -0.001 C 
ATOM     16  C   UNL     1     131.626 138.147 158.339  1.00  0.00     0.007 C 
ATOM     17  C   UNL     1     131.356 140.465 157.391  1.00  0.00     0.012 C 
ATOM     18  C   UNL     1     129.324 137.622 156.670  1.00  0.00     0.000 C 
ATOM     19  C   UNL     1     131.274 136.670 158.115  1.00  0.00     0.005 C 
ATOM     20  C   UNL     1     129.816 136.475 157.624  1.00  0.00     0.003 C 
ATOM     21  C   UNL     1     128.222 138.472 157.315  1.00  0.00     0.031 C 
ATOM     22  C   UNL     1     128.782 136.045 158.770  1.00  0.00    -0.008 C 
ATOM     23  C   UNL     1     127.099 137.577 157.749  1.00  0.00    -0.027 C 
ATOM     24  C   UNL     1     127.343 136.402 158.362  1.00  0.00    -0.065 C 
ATOM     25  C   UNL     1     128.915 134.502 158.990  1.00  0.00     0.014 C 
ATOM     26  C   UNL     1     129.040 136.760 160.129  1.00  0.00     0.016 C 
ATOM     27  C   UNL     1     126.161 135.636 158.924  1.00  0.00     0.063 C 
ATOM     28  C   UNL     1     127.752 133.881 159.770  1.00  0.00     0.033 C 
ATOM     29  C   UNL     1     126.434 134.132 159.038  1.00  0.00     0.118 C 
BRANCH  29  30
ATOM     30  O   UNL     1     125.394 133.509 159.744  1.00  0.00    -0.393 OA
ATOM     31  H   UNL     1     124.965 132.868 159.117  1.00  0.00     0.210 HD
ENDBRANCH  29  30
ENDBRANCH   1  11
TORSDOF 6
ENDMDL
MODEL 8
REMARK VINA RESULT:    -6.087      3.678      6.055
REMARK INTER + INTRA:          -9.097
REMARK INTER:                  -7.514
REMARK INTRA:                  -1.584
REMARK UNBOUND:                -1.053
REMARK SMILES CC[C@H](C=C[C@@H](C)[C@@H]1CC[C@H]2[C@@H]3CC=C4C[C@H](O)CC[C@@]4(C)[C@@H]3CC[C@]21C)C(C)C
REMARK SMILES IDX 6 1 7 2 5 3 4 4 3 5 2 6 1 7 28 8 29 9 30 10 8 11 9 12 26 13
REMARK SMILES IDX 10 14 11 15 25 16 27 17 12 18 24 19 23 20 13 21 21 22 14 23
REMARK SMILES IDX 15 24 20 25 22 26 16 27 19 28 17 29 18 30
REMARK H PARENT 18 31
REMARK Flexibility Score: inf
ROOT
ATOM      1  C   UNL     1     142.628 134.981 146.727  1.00  0.00     0.012 C 
ATOM      2  C   UNL     1     144.056 134.744 146.200  1.00  0.00     0.012 C 
ENDROOT
BRANCH   1   3
ATOM      3  C   UNL     1     141.945 135.975 145.809  1.00  0.00    -0.028 C 
ATOM      4  C   UNL     1     141.812 137.268 146.150  1.00  0.00    -0.027 C 
BRANCH   4   5
ATOM      5  C   UNL     1     141.141 138.265 145.226  1.00  0.00     0.014 C 
BRANCH   5   6
ATOM      6  C   UNL     1     139.605 138.156 145.414  1.00  0.00     0.004 C 
ATOM      7  C   UNL     1     138.878 137.460 144.263  1.00  0.00     0.004 C 
ENDBRANCH   5   6
BRANCH   5   8
ATOM      8  C   UNL     1     141.760 139.686 145.454  1.00  0.00    -0.011 C 
ATOM      9  C   UNL     1     142.884 139.707 146.501  1.00  0.00     0.008 C 
ATOM     10  C   UNL     1     140.706 140.762 145.758  1.00  0.00     0.008 C 
ENDBRANCH   5   8
ENDBRANCH   4   5
ENDBRANCH   1   3
BRANCH   1  11
ATOM     11  C   UNL     1     142.538 135.463 148.219  1.00  0.00     0.002 C 
ATOM     12  C   UNL     1     143.786 135.231 149.066  1.00  0.00     0.005 C 
ATOM     13  C   UNL     1     141.321 134.995 149.103  1.00  0.00    -0.026 C 
ATOM     14  C   UNL     1     143.318 135.503 150.481  1.00  0.00     0.005 C 
ATOM     15  C   UNL     1     141.912 134.898 150.551  1.00  0.00    -0.001 C 
ATOM     16  C   UNL     1     140.164 136.034 149.007  1.00  0.00     0.007 C 
ATOM     17  C   UNL     1     140.762 133.606 148.700  1.00  0.00     0.012 C 
ATOM     18  C   UNL     1     141.057 135.508 151.706  1.00  0.00     0.000 C 
ATOM     19  C   UNL     1     140.399 137.263 149.895  1.00  0.00     0.005 C 
ATOM     20  C   UNL     1     140.418 136.910 151.404  1.00  0.00     0.003 C 
ATOM     21  C   UNL     1     140.022 134.504 152.228  1.00  0.00     0.031 C 
ATOM     22  C   UNL     1     139.048 137.218 152.175  1.00  0.00    -0.008 C 
ATOM     23  C   UNL     1     139.338 135.082 153.431  1.00  0.00    -0.027 C 
ATOM     24  C   UNL     1     138.944 136.370 153.454  1.00  0.00    -0.065 C 
ATOM     25  C   UNL     1     139.022 138.741 152.532  1.00  0.00     0.014 C 
ATOM     26  C   UNL     1     137.781 136.889 151.331  1.00  0.00     0.016 C 
ATOM     27  C   UNL     1     138.108 136.836 154.631  1.00  0.00     0.063 C 
ATOM     28  C   UNL     1     137.973 139.118 153.583  1.00  0.00     0.033 C 
ATOM     29  C   UNL     1     138.224 138.345 154.876  1.00  0.00     0.118 C 
BRANCH  29  30
ATOM     30  O   UNL     1     137.285 138.746 155.838  1.00  0.00    -0.393 OA
ATOM     31  H   UNL     1     137.783 138.884 156.687  1.00  0.00     0.210 HD
ENDBRANCH  29  30
ENDBRANCH   1  11
TORSDOF 6
ENDMDL
MODEL 9
REMARK VINA RESULT:    -6.019      6.380      9.191
REMARK INTER + INTRA:          -9.008
REMARK INTER:                  -7.959
REMARK INTRA:                  -1.049
REMARK UNBOUND:                -1.053
REMARK SMILES CC[C@H](C=C[C@@H](C)[C@@H]1CC[C@H]2[C@@H]3CC=C4C[C@H](O)CC[C@@]4(C)[C@@H]3CC[C@]21C)C(C)C
REMARK SMILES IDX 6 1 7 2 5 3 4 4 3 5 2 6 1 7 28 8 29 9 30 10 8 11 9 12 26 13
REMARK SMILES IDX 10 14 11 15 25 16 27 17 12 18 24 19 23 20 13 21 21 22 14 23
REMARK SMILES IDX 15 24 20 25 22 26 16 27 19 28 17 29 18 30
REMARK H PARENT 18 31
REMARK Flexibility Score: inf
ROOT
ATOM      1  C   UNL     1     138.661 139.437 151.873  1.00  0.00     0.012 C 
ATOM      2  C   UNL     1     139.562 140.673 152.062  1.00  0.00     0.012 C 
ENDROOT
BRANCH   1   3
ATOM      3  C   UNL     1     138.837 138.939 150.452  1.00  0.00    -0.028 C 
ATOM      4  C   UNL     1     139.236 139.758 149.465  1.00  0.00    -0.027 C 
BRANCH   4   5
ATOM      5  C   UNL     1     139.425 139.258 148.047  1.00  0.00     0.014 C 
BRANCH   5   6
ATOM      6  C   UNL     1     138.101 138.597 147.577  1.00  0.00     0.004 C 
ATOM      7  C   UNL     1     138.252 137.150 147.106  1.00  0.00     0.004 C 
ENDBRANCH   5   6
BRANCH   5   8
ATOM      8  C   UNL     1     139.966 140.422 147.150  1.00  0.00    -0.011 C 
ATOM      9  C   UNL     1     138.875 141.125 146.328  1.00  0.00     0.008 C 
ATOM     10  C   UNL     1     141.140 139.998 146.254  1.00  0.00     0.008 C 
ENDBRANCH   5   8
ENDBRANCH   4   5
ENDBRANCH   1   3
BRANCH   1  11
ATOM     11  C   UNL     1     137.140 139.665 152.188  1.00  0.00     0.002 C 
ATOM     12  C   UNL     1     136.668 141.116 152.162  1.00  0.00     0.005 C 
ATOM     13  C   UNL     1     136.526 139.033 153.494  1.00  0.00    -0.026 C 
ATOM     14  C   UNL     1     135.286 141.059 152.781  1.00  0.00     0.005 C 
ATOM     15  C   UNL     1     135.413 140.049 153.926  1.00  0.00    -0.001 C 
ATOM     16  C   UNL     1     135.946 137.622 153.179  1.00  0.00     0.007 C 
ATOM     17  C   UNL     1     137.547 138.892 154.652  1.00  0.00     0.012 C 
ATOM     18  C   UNL     1     134.035 139.451 154.349  1.00  0.00     0.000 C 
ATOM     19  C   UNL     1     134.568 137.687 152.505  1.00  0.00     0.005 C 
ATOM     20  C   UNL     1     133.485 138.305 153.426  1.00  0.00     0.003 C 
ATOM     21  C   UNL     1     134.027 139.050 155.829  1.00  0.00     0.031 C 
ATOM     22  C   UNL     1     132.542 137.234 154.152  1.00  0.00    -0.008 C 
ATOM     23  C   UNL     1     132.642 138.628 156.218  1.00  0.00    -0.027 C 
ATOM     24  C   UNL     1     131.902 137.842 155.411  1.00  0.00    -0.065 C 
ATOM     25  C   UNL     1     131.432 136.798 153.139  1.00  0.00     0.014 C 
ATOM     26  C   UNL     1     133.305 135.961 154.622  1.00  0.00     0.016 C 
ATOM     27  C   UNL     1     130.583 137.317 155.946  1.00  0.00     0.063 C 
ATOM     28  C   UNL     1     130.246 136.075 153.785  1.00  0.00     0.033 C 
ATOM     29  C   UNL     1     129.589 136.975 154.831  1.00  0.00     0.118 C 
BRANCH  29  30
ATOM     30  O   UNL     1     128.475 136.313 155.369  1.00  0.00    -0.393 OA
ATOM     31  H   UNL     1     128.505 136.454 156.353  1.00  0.00     0.210 HD
ENDBRANCH  29  30
ENDBRANCH   1  11
TORSDOF 6
ENDMDL
