MODEL 1
REMARK VINA RESULT:     2.031      0.000      0.000
REMARK INTER + INTRA:           3.422
REMARK INTER:                   5.117
REMARK INTRA:                  -1.695
REMARK UNBOUND:                -1.695
REMARK SMILES CCCCCCCCCCCCCCCCCCCCCCCCCCCC(=O)[O-]
REMARK SMILES IDX 15 1 16 2 17 3 18 4 19 5 20 6 21 7 22 8 23 9 24 10 25 11
REMARK SMILES IDX 26 12 27 13 28 14 29 15 30 16 14 17 13 18 12 19 11 20 10 21
REMARK SMILES IDX 9 22 8 23 7 24 6 25 5 26 4 27 3 28 2 29 1 30
REMARK H PARENT
REMARK Flexibility Score: inf
ROOT
ATOM      1  C   UNL     1       5.192   4.928   1.884  1.00  0.00     0.000 C 
ENDROOT
BRANCH   1   2
ATOM      2  C   UNL     1       6.243   5.926   1.362  1.00  0.00     0.000 C 
BRANCH   2   3
ATOM      3  C   UNL     1       7.570   5.294   0.906  1.00  0.00     0.000 C 
BRANCH   3   4
ATOM      4  C   UNL     1       8.761   6.261   1.024  1.00  0.00     0.000 C 
BRANCH   4   5
ATOM      5  C   UNL     1      10.108   5.539   1.216  1.00  0.00     0.000 C 
BRANCH   5   6
ATOM      6  C   UNL     1      10.014   4.061   1.644  1.00  0.00     0.000 C 
BRANCH   6   7
ATOM      7  C   UNL     1      10.065   3.871   3.170  1.00  0.00     0.000 C 
BRANCH   7   8
ATOM      8  C   UNL     1      10.099   5.205   3.940  1.00  0.00     0.000 C 
BRANCH   8   9
ATOM      9  C   UNL     1       8.742   5.678   4.492  1.00  0.00     0.000 C 
BRANCH   9  10
ATOM     10  C   UNL     1       8.871   6.830   5.504  1.00  0.00     0.000 C 
BRANCH  10  11
ATOM     11  C   UNL     1       9.451   8.111   4.864  1.00  0.00     0.000 C 
BRANCH  11  12
ATOM     12  C   UNL     1       8.378   9.046   4.274  1.00  0.00     0.006 C 
BRANCH  12  13
ATOM     13  C   UNL     1       7.208   9.337   5.225  1.00  0.00     0.053 C 
BRANCH  13  14
ATOM     14  C   UNL     1       5.890   8.953   4.626  1.00  0.00     0.041 C 
ATOM     15  O   UNL     1       4.946   9.785   4.580  1.00  0.00    -0.550 OA
ATOM     16  O   UNL     1       5.704   7.675   4.116  1.00  0.00    -0.550 OA
ENDBRANCH  13  14
ENDBRANCH  12  13
ENDBRANCH  11  12
ENDBRANCH  10  11
ENDBRANCH   9  10
ENDBRANCH   8   9
ENDBRANCH   7   8
ENDBRANCH   6   7
ENDBRANCH   5   6
ENDBRANCH   4   5
ENDBRANCH   3   4
ENDBRANCH   2   3
ENDBRANCH   1   2
BRANCH   1  17
ATOM     17  C   UNL     1       4.333   4.290   0.771  1.00  0.00     0.000 C 
BRANCH  17  18
ATOM     18  C   UNL     1       3.291   3.305   1.329  1.00  0.00     0.000 C 
BRANCH  18  19
ATOM     19  C   UNL     1       3.358   1.927   0.636  1.00  0.00     0.000 C 
BRANCH  19  20
ATOM     20  C   UNL     1       2.339   1.757  -0.506  1.00  0.00     0.000 C 
BRANCH  20  21
ATOM     21  C   UNL     1       2.333   0.369  -1.177  1.00  0.00     0.000 C 
BRANCH  21  22
ATOM     22  C   UNL     1       1.241  -0.593  -0.670  1.00  0.00    -0.000 C 
BRANCH  22  23
ATOM     23  C   UNL     1       1.484  -1.057   0.776  1.00  0.00    -0.000 C 
BRANCH  23  24
ATOM     24  C   UNL     1       1.356  -2.581   0.940  1.00  0.00    -0.000 C 
BRANCH  24  25
ATOM     25  C   UNL     1      -0.051  -3.019   1.378  1.00  0.00    -0.000 C 
BRANCH  25  26
ATOM     26  C   UNL     1      -0.286  -2.706   2.860  1.00  0.00    -0.000 C 
BRANCH  26  27
ATOM     27  C   UNL     1      -1.782  -2.768   3.207  1.00  0.00    -0.000 C 
BRANCH  27  28
ATOM     28  C   UNL     1      -2.221  -1.632   4.143  1.00  0.00    -0.000 C 
BRANCH  28  29
ATOM     29  C   UNL     1      -2.634  -2.136   5.533  1.00  0.00    -0.003 C 
ATOM     30  C   UNL     1      -4.152  -2.245   5.648  1.00  0.00     0.004 C 
ENDBRANCH  28  29
ENDBRANCH  27  28
ENDBRANCH  26  27
ENDBRANCH  25  26
ENDBRANCH  24  25
ENDBRANCH  23  24
ENDBRANCH  22  23
ENDBRANCH  21  22
ENDBRANCH  20  21
ENDBRANCH  19  20
ENDBRANCH  18  19
ENDBRANCH  17  18
ENDBRANCH   1  17
TORSDOF 26
ENDMDL
MODEL 2
REMARK VINA RESULT:     2.125      3.784     11.709
REMARK INTER + INTRA:           3.661
REMARK INTER:                   5.053
REMARK INTRA:                  -1.392
REMARK UNBOUND:                -1.695
REMARK SMILES CCCCCCCCCCCCCCCCCCCCCCCCCCCC(=O)[O-]
REMARK SMILES IDX 15 1 16 2 17 3 18 4 19 5 20 6 21 7 22 8 23 9 24 10 25 11
REMARK SMILES IDX 26 12 27 13 28 14 29 15 30 16 14 17 13 18 12 19 11 20 10 21
REMARK SMILES IDX 9 22 8 23 7 24 6 25 5 26 4 27 3 28 2 29 1 30
REMARK H PARENT
REMARK Flexibility Score: inf
ROOT
ATOM      1  C   UNL     1       4.086   3.865   1.841  1.00  0.00     0.000 C 
ENDROOT
BRANCH   1   2
ATOM      2  C   UNL     1       3.130   3.407   0.722  1.00  0.00     0.000 C 
BRANCH   2   3
ATOM      3  C   UNL     1       3.022   1.883   0.543  1.00  0.00     0.000 C 
BRANCH   3   4
ATOM      4  C   UNL     1       2.822   1.469  -0.925  1.00  0.00     0.000 C 
BRANCH   4   5
ATOM      5  C   UNL     1       1.546   0.637  -1.149  1.00  0.00     0.000 C 
BRANCH   5   6
ATOM      6  C   UNL     1       1.686  -0.877  -0.895  1.00  0.00     0.000 C 
BRANCH   6   7
ATOM      7  C   UNL     1       1.486  -1.260   0.581  1.00  0.00     0.000 C 
BRANCH   7   8
ATOM      8  C   UNL     1       0.728  -2.590   0.760  1.00  0.00     0.000 C 
BRANCH   8   9
ATOM      9  C   UNL     1       0.719  -3.152   2.193  1.00  0.00     0.000 C 
BRANCH   9  10
ATOM     10  C   UNL     1      -0.541  -3.976   2.509  1.00  0.00     0.000 C 
BRANCH  10  11
ATOM     11  C   UNL     1      -1.748  -3.084   2.877  1.00  0.00     0.000 C 
BRANCH  11  12
ATOM     12  C   UNL     1      -1.364  -1.830   3.686  1.00  0.00     0.006 C 
BRANCH  12  13
ATOM     13  C   UNL     1      -2.479  -1.312   4.606  1.00  0.00     0.053 C 
BRANCH  13  14
ATOM     14  C   UNL     1      -2.960  -2.369   5.553  1.00  0.00     0.041 C 
ATOM     15  O   UNL     1      -2.173  -3.264   5.960  1.00  0.00    -0.550 OA
ATOM     16  O   UNL     1      -4.279  -2.364   5.988  1.00  0.00    -0.550 OA
ENDBRANCH  13  14
ENDBRANCH  12  13
ENDBRANCH  11  12
ENDBRANCH  10  11
ENDBRANCH   9  10
ENDBRANCH   8   9
ENDBRANCH   7   8
ENDBRANCH   6   7
ENDBRANCH   5   6
ENDBRANCH   4   5
ENDBRANCH   3   4
ENDBRANCH   2   3
ENDBRANCH   1   2
BRANCH   1  17
ATOM     17  C   UNL     1       5.098   4.941   1.393  1.00  0.00     0.000 C 
BRANCH  17  18
ATOM     18  C   UNL     1       5.681   5.725   2.581  1.00  0.00     0.000 C 
BRANCH  18  19
ATOM     19  C   UNL     1       7.176   6.061   2.384  1.00  0.00     0.000 C 
BRANCH  19  20
ATOM     20  C   UNL     1       7.706   5.727   0.977  1.00  0.00     0.000 C 
BRANCH  20  21
ATOM     21  C   UNL     1       8.956   4.826   0.945  1.00  0.00     0.000 C 
BRANCH  21  22
ATOM     22  C   UNL     1       9.593   4.549   2.320  1.00  0.00    -0.000 C 
BRANCH  22  23
ATOM     23  C   UNL     1      10.026   5.836   3.043  1.00  0.00    -0.000 C 
BRANCH  23  24
ATOM     24  C   UNL     1       9.957   5.708   4.574  1.00  0.00    -0.000 C 
BRANCH  24  25
ATOM     25  C   UNL     1       9.668   7.047   5.273  1.00  0.00    -0.000 C 
BRANCH  25  26
ATOM     26  C   UNL     1       9.727   8.210   4.276  1.00  0.00    -0.000 C 
BRANCH  26  27
ATOM     27  C   UNL     1       8.500   9.124   4.419  1.00  0.00    -0.000 C 
BRANCH  27  28
ATOM     28  C   UNL     1       7.351   8.457   5.190  1.00  0.00    -0.000 C 
BRANCH  28  29
ATOM     29  C   UNL     1       6.085   9.324   5.231  1.00  0.00    -0.003 C 
ATOM     30  C   UNL     1       5.339   9.269   3.901  1.00  0.00     0.004 C 
ENDBRANCH  28  29
ENDBRANCH  27  28
ENDBRANCH  26  27
ENDBRANCH  25  26
ENDBRANCH  24  25
ENDBRANCH  23  24
ENDBRANCH  22  23
ENDBRANCH  21  22
ENDBRANCH  20  21
ENDBRANCH  19  20
ENDBRANCH  18  19
ENDBRANCH  17  18
ENDBRANCH   1  17
TORSDOF 26
ENDMDL
MODEL 3
REMARK VINA RESULT:     2.427      3.678     11.530
REMARK INTER + INTRA:           4.419
REMARK INTER:                   5.829
REMARK INTRA:                  -1.410
REMARK UNBOUND:                -1.695
REMARK SMILES CCCCCCCCCCCCCCCCCCCCCCCCCCCC(=O)[O-]
REMARK SMILES IDX 15 1 16 2 17 3 18 4 19 5 20 6 21 7 22 8 23 9 24 10 25 11
REMARK SMILES IDX 26 12 27 13 28 14 29 15 30 16 14 17 13 18 12 19 11 20 10 21
REMARK SMILES IDX 9 22 8 23 7 24 6 25 5 26 4 27 3 28 2 29 1 30
REMARK H PARENT
REMARK Flexibility Score: inf
ROOT
ATOM      1  C   UNL     1       4.968   5.067   2.476  1.00  0.00     0.000 C 
ENDROOT
BRANCH   1   2
ATOM      2  C   UNL     1       4.475   4.331   1.216  1.00  0.00     0.000 C 
BRANCH   2   3
ATOM      3  C   UNL     1       3.273   3.397   1.437  1.00  0.00     0.000 C 
BRANCH   3   4
ATOM      4  C   UNL     1       2.550   3.037   0.128  1.00  0.00     0.000 C 
BRANCH   4   5
ATOM      5  C   UNL     1       2.896   1.626  -0.385  1.00  0.00     0.000 C 
BRANCH   5   6
ATOM      6  C   UNL     1       2.258   0.460   0.396  1.00  0.00     0.000 C 
BRANCH   6   7
ATOM      7  C   UNL     1       1.759  -0.673  -0.517  1.00  0.00     0.000 C 
BRANCH   7   8
ATOM      8  C   UNL     1       0.711  -1.575   0.163  1.00  0.00     0.000 C 
BRANCH   8   9
ATOM      9  C   UNL     1       1.146  -2.187   1.507  1.00  0.00     0.000 C 
BRANCH   9  10
ATOM     10  C   UNL     1       0.740  -3.663   1.657  1.00  0.00     0.000 C 
BRANCH  10  11
ATOM     11  C   UNL     1      -0.281  -3.878   2.797  1.00  0.00     0.000 C 
BRANCH  11  12
ATOM     12  C   UNL     1      -1.544  -3.005   2.667  1.00  0.00     0.006 C 
BRANCH  12  13
ATOM     13  C   UNL     1      -1.702  -1.962   3.783  1.00  0.00     0.053 C 
BRANCH  13  14
ATOM     14  C   UNL     1      -1.982  -2.599   5.110  1.00  0.00     0.041 C 
ATOM     15  O   UNL     1      -1.136  -3.368   5.637  1.00  0.00    -0.550 OA
ATOM     16  O   UNL     1      -3.179  -2.340   5.766  1.00  0.00    -0.550 OA
ENDBRANCH  13  14
ENDBRANCH  12  13
ENDBRANCH  11  12
ENDBRANCH  10  11
ENDBRANCH   9  10
ENDBRANCH   8   9
ENDBRANCH   7   8
ENDBRANCH   6   7
ENDBRANCH   5   6
ENDBRANCH   4   5
ENDBRANCH   3   4
ENDBRANCH   2   3
ENDBRANCH   1   2
BRANCH   1  17
ATOM     17  C   UNL     1       6.027   6.152   2.188  1.00  0.00     0.000 C 
BRANCH  17  18
ATOM     18  C   UNL     1       6.579   6.065   0.754  1.00  0.00     0.000 C 
BRANCH  18  19
ATOM     19  C   UNL     1       8.012   5.489   0.713  1.00  0.00     0.000 C 
BRANCH  19  20
ATOM     20  C   UNL     1       9.104   6.517   1.061  1.00  0.00     0.000 C 
BRANCH  20  21
ATOM     21  C   UNL     1      10.125   6.056   2.120  1.00  0.00     0.000 C 
BRANCH  21  22
ATOM     22  C   UNL     1       9.762   4.746   2.845  1.00  0.00    -0.000 C 
BRANCH  22  23
ATOM     23  C   UNL     1       9.871   4.864   4.375  1.00  0.00    -0.000 C 
BRANCH  23  24
ATOM     24  C   UNL     1       8.831   5.825   4.972  1.00  0.00    -0.000 C 
BRANCH  24  25
ATOM     25  C   UNL     1       9.467   7.066   5.620  1.00  0.00    -0.000 C 
BRANCH  25  26
ATOM     26  C   UNL     1       9.671   8.181   4.587  1.00  0.00    -0.000 C 
BRANCH  26  27
ATOM     27  C   UNL     1       8.358   8.933   4.321  1.00  0.00    -0.000 C 
BRANCH  27  28
ATOM     28  C   UNL     1       7.145   8.263   4.983  1.00  0.00    -0.000 C 
BRANCH  28  29
ATOM     29  C   UNL     1       6.055   9.269   5.380  1.00  0.00    -0.003 C 
ATOM     30  C   UNL     1       5.236   9.697   4.165  1.00  0.00     0.004 C 
ENDBRANCH  28  29
ENDBRANCH  27  28
ENDBRANCH  26  27
ENDBRANCH  25  26
ENDBRANCH  24  25
ENDBRANCH  23  24
ENDBRANCH  22  23
ENDBRANCH  21  22
ENDBRANCH  20  21
ENDBRANCH  19  20
ENDBRANCH  18  19
ENDBRANCH  17  18
ENDBRANCH   1  17
TORSDOF 26
ENDMDL
MODEL 4
REMARK VINA RESULT:     2.688      2.501      4.252
REMARK INTER + INTRA:           5.078
REMARK INTER:                   6.349
REMARK INTRA:                  -1.272
REMARK UNBOUND:                -1.695
REMARK SMILES CCCCCCCCCCCCCCCCCCCCCCCCCCCC(=O)[O-]
REMARK SMILES IDX 15 1 16 2 17 3 18 4 19 5 20 6 21 7 22 8 23 9 24 10 25 11
REMARK SMILES IDX 26 12 27 13 28 14 29 15 30 16 14 17 13 18 12 19 11 20 10 21
REMARK SMILES IDX 9 22 8 23 7 24 6 25 5 26 4 27 3 28 2 29 1 30
REMARK H PARENT
REMARK Flexibility Score: inf
ROOT
ATOM      1  C   UNL     1       5.286   5.329   3.048  1.00  0.00     0.000 C 
ENDROOT
BRANCH   1   2
ATOM      2  C   UNL     1       6.710   5.917   3.039  1.00  0.00     0.000 C 
BRANCH   2   3
ATOM      3  C   UNL     1       7.290   6.238   4.428  1.00  0.00     0.000 C 
BRANCH   3   4
ATOM      4  C   UNL     1       6.962   7.668   4.893  1.00  0.00     0.000 C 
BRANCH   4   5
ATOM      5  C   UNL     1       7.639   8.752   4.034  1.00  0.00     0.000 C 
BRANCH   5   6
ATOM      6  C   UNL     1       9.135   8.990   4.322  1.00  0.00     0.000 C 
BRANCH   6   7
ATOM      7  C   UNL     1      10.055   8.445   3.216  1.00  0.00     0.000 C 
BRANCH   7   8
ATOM      8  C   UNL     1       9.287   7.701   2.108  1.00  0.00     0.000 C 
BRANCH   8   9
ATOM      9  C   UNL     1       9.862   6.327   1.720  1.00  0.00     0.000 C 
BRANCH   9  10
ATOM     10  C   UNL     1      10.123   5.418   2.933  1.00  0.00     0.000 C 
BRANCH  10  11
ATOM     11  C   UNL     1       9.647   3.967   2.693  1.00  0.00     0.000 C 
BRANCH  11  12
ATOM     12  C   UNL     1      10.047   2.993   3.818  1.00  0.00     0.006 C 
BRANCH  12  13
ATOM     13  C   UNL     1       9.713   1.524   3.523  1.00  0.00     0.053 C 
BRANCH  13  14
ATOM     14  C   UNL     1       9.140   0.829   4.720  1.00  0.00     0.041 C 
ATOM     15  O   UNL     1       8.472  -0.230   4.581  1.00  0.00    -0.550 OA
ATOM     16  O   UNL     1       9.344   1.350   5.991  1.00  0.00    -0.550 OA
ENDBRANCH  13  14
ENDBRANCH  12  13
ENDBRANCH  11  12
ENDBRANCH  10  11
ENDBRANCH   9  10
ENDBRANCH   8   9
ENDBRANCH   7   8
ENDBRANCH   6   7
ENDBRANCH   5   6
ENDBRANCH   4   5
ENDBRANCH   3   4
ENDBRANCH   2   3
ENDBRANCH   1   2
BRANCH   1  17
ATOM     17  C   UNL     1       4.836   4.768   1.683  1.00  0.00     0.000 C 
BRANCH  17  18
ATOM     18  C   UNL     1       3.705   3.734   1.820  1.00  0.00     0.000 C 
BRANCH  18  19
ATOM     19  C   UNL     1       3.199   3.234   0.448  1.00  0.00     0.000 C 
BRANCH  19  20
ATOM     20  C   UNL     1       3.344   1.714   0.249  1.00  0.00     0.000 C 
BRANCH  20  21
ATOM     21  C   UNL     1       2.848   1.181  -1.109  1.00  0.00     0.000 C 
BRANCH  21  22
ATOM     22  C   UNL     1       1.636   0.233  -1.031  1.00  0.00    -0.000 C 
BRANCH  22  23
ATOM     23  C   UNL     1       1.519  -0.472   0.330  1.00  0.00    -0.000 C 
BRANCH  23  24
ATOM     24  C   UNL     1       1.068  -1.937   0.203  1.00  0.00    -0.000 C 
BRANCH  24  25
ATOM     25  C   UNL     1       1.033  -2.670   1.554  1.00  0.00    -0.000 C 
BRANCH  25  26
ATOM     26  C   UNL     1      -0.371  -3.208   1.851  1.00  0.00    -0.000 C 
BRANCH  26  27
ATOM     27  C   UNL     1      -0.770  -2.937   3.310  1.00  0.00    -0.000 C 
BRANCH  27  28
ATOM     28  C   UNL     1      -2.115  -2.205   3.430  1.00  0.00    -0.000 C 
BRANCH  28  29
ATOM     29  C   UNL     1      -2.635  -2.154   4.874  1.00  0.00    -0.003 C 
ATOM     30  C   UNL     1      -2.070  -3.306   5.701  1.00  0.00     0.004 C 
ENDBRANCH  28  29
ENDBRANCH  27  28
ENDBRANCH  26  27
ENDBRANCH  25  26
ENDBRANCH  24  25
ENDBRANCH  23  24
ENDBRANCH  22  23
ENDBRANCH  21  22
ENDBRANCH  20  21
ENDBRANCH  19  20
ENDBRANCH  18  19
ENDBRANCH  17  18
ENDBRANCH   1  17
TORSDOF 26
ENDMDL
MODEL 5
REMARK VINA RESULT:     3.295      4.017     11.250
REMARK INTER + INTRA:           6.608
REMARK INTER:                   6.682
REMARK INTRA:                  -0.074
REMARK UNBOUND:                -1.695
REMARK SMILES CCCCCCCCCCCCCCCCCCCCCCCCCCCC(=O)[O-]
REMARK SMILES IDX 15 1 16 2 17 3 18 4 19 5 20 6 21 7 22 8 23 9 24 10 25 11
REMARK SMILES IDX 26 12 27 13 28 14 29 15 30 16 14 17 13 18 12 19 11 20 10 21
REMARK SMILES IDX 9 22 8 23 7 24 6 25 5 26 4 27 3 28 2 29 1 30
REMARK H PARENT
REMARK Flexibility Score: inf
ROOT
ATOM      1  C   UNL     1       5.271   4.808   1.757  1.00  0.00     0.000 C 
ENDROOT
BRANCH   1   2
ATOM      2  C   UNL     1       3.801   4.461   1.455  1.00  0.00     0.000 C 
BRANCH   2   3
ATOM      3  C   UNL     1       3.482   2.956   1.420  1.00  0.00     0.000 C 
BRANCH   3   4
ATOM      4  C   UNL     1       2.640   2.555   0.197  1.00  0.00     0.000 C 
BRANCH   4   5
ATOM      5  C   UNL     1       2.938   1.128  -0.299  1.00  0.00     0.000 C 
BRANCH   5   6
ATOM      6  C   UNL     1       1.898   0.530  -1.267  1.00  0.00     0.000 C 
BRANCH   6   7
ATOM      7  C   UNL     1       1.317  -0.807  -0.776  1.00  0.00     0.000 C 
BRANCH   7   8
ATOM      8  C   UNL     1       1.627  -1.089   0.706  1.00  0.00     0.000 C 
BRANCH   8   9
ATOM      9  C   UNL     1       1.216  -2.485   1.209  1.00  0.00     0.000 C 
BRANCH   9  10
ATOM     10  C   UNL     1      -0.283  -2.588   1.540  1.00  0.00     0.000 C 
BRANCH  10  11
ATOM     11  C   UNL     1      -0.537  -3.263   2.907  1.00  0.00     0.000 C 
BRANCH  11  12
ATOM     12  C   UNL     1      -1.526  -2.490   3.801  1.00  0.00     0.006 C 
BRANCH  12  13
ATOM     13  C   UNL     1      -1.578  -2.987   5.253  1.00  0.00     0.053 C 
BRANCH  13  14
ATOM     14  C   UNL     1      -2.961  -2.905   5.823  1.00  0.00     0.041 C 
ATOM     15  O   UNL     1      -3.330  -3.713   6.716  1.00  0.00    -0.550 OA
ATOM     16  O   UNL     1      -3.843  -1.933   5.369  1.00  0.00    -0.550 OA
ENDBRANCH  13  14
ENDBRANCH  12  13
ENDBRANCH  11  12
ENDBRANCH  10  11
ENDBRANCH   9  10
ENDBRANCH   8   9
ENDBRANCH   7   8
ENDBRANCH   6   7
ENDBRANCH   5   6
ENDBRANCH   4   5
ENDBRANCH   3   4
ENDBRANCH   2   3
ENDBRANCH   1   2
BRANCH   1  17
ATOM     17  C   UNL     1       5.524   6.316   1.969  1.00  0.00     0.000 C 
BRANCH  17  18
ATOM     18  C   UNL     1       6.831   6.588   2.733  1.00  0.00     0.000 C 
BRANCH  18  19
ATOM     19  C   UNL     1       6.575   7.149   4.149  1.00  0.00     0.000 C 
BRANCH  19  20
ATOM     20  C   UNL     1       7.821   7.141   5.055  1.00  0.00     0.000 C 
BRANCH  20  21
ATOM     21  C   UNL     1       9.021   7.951   4.525  1.00  0.00     0.000 C 
BRANCH  21  22
ATOM     22  C   UNL     1       9.579   7.475   3.170  1.00  0.00    -0.000 C 
BRANCH  22  23
ATOM     23  C   UNL     1      10.124   6.038   3.224  1.00  0.00    -0.000 C 
BRANCH  23  24
ATOM     24  C   UNL     1       9.894   5.365   4.587  1.00  0.00    -0.000 C 
BRANCH  24  25
ATOM     25  C   UNL     1      10.121   3.845   4.550  1.00  0.00    -0.000 C 
BRANCH  25  26
ATOM     26  C   UNL     1      10.088   3.321   3.110  1.00  0.00    -0.000 C 
BRANCH  26  27
ATOM     27  C   UNL     1       9.837   1.805   3.080  1.00  0.00    -0.000 C 
BRANCH  27  28
ATOM     28  C   UNL     1       9.839   1.176   4.481  1.00  0.00    -0.000 C 
BRANCH  28  29
ATOM     29  C   UNL     1       8.838   0.019   4.612  1.00  0.00    -0.003 C 
ATOM     30  C   UNL     1       8.046   0.124   5.912  1.00  0.00     0.004 C 
ENDBRANCH  28  29
ENDBRANCH  27  28
ENDBRANCH  26  27
ENDBRANCH  25  26
ENDBRANCH  24  25
ENDBRANCH  23  24
ENDBRANCH  22  23
ENDBRANCH  21  22
ENDBRANCH  20  21
ENDBRANCH  19  20
ENDBRANCH  18  19
ENDBRANCH  17  18
ENDBRANCH   1  17
TORSDOF 26
ENDMDL
MODEL 6
REMARK VINA RESULT:     3.353      1.023      2.672
REMARK INTER + INTRA:           6.753
REMARK INTER:                   9.019
REMARK INTRA:                  -2.266
REMARK UNBOUND:                -1.695
REMARK SMILES CCCCCCCCCCCCCCCCCCCCCCCCCCCC(=O)[O-]
REMARK SMILES IDX 15 1 16 2 17 3 18 4 19 5 20 6 21 7 22 8 23 9 24 10 25 11
REMARK SMILES IDX 26 12 27 13 28 14 29 15 30 16 14 17 13 18 12 19 11 20 10 21
REMARK SMILES IDX 9 22 8 23 7 24 6 25 5 26 4 27 3 28 2 29 1 30
REMARK H PARENT
REMARK Flexibility Score: inf
ROOT
ATOM      1  C   UNL     1       2.829   3.056   0.463  1.00  0.00     0.000 C 
ENDROOT
BRANCH   1   2
ATOM      2  C   UNL     1       3.684   3.627   1.611  1.00  0.00     0.000 C 
BRANCH   2   3
ATOM      3  C   UNL     1       4.730   4.671   1.185  1.00  0.00     0.000 C 
BRANCH   3   4
ATOM      4  C   UNL     1       5.498   5.264   2.379  1.00  0.00     0.000 C 
BRANCH   4   5
ATOM      5  C   UNL     1       6.578   6.279   1.957  1.00  0.00     0.000 C 
BRANCH   5   6
ATOM      6  C   UNL     1       7.490   5.836   0.796  1.00  0.00     0.000 C 
BRANCH   6   7
ATOM      7  C   UNL     1       8.563   4.821   1.227  1.00  0.00     0.000 C 
BRANCH   7   8
ATOM      8  C   UNL     1       9.298   5.235   2.516  1.00  0.00     0.000 C 
BRANCH   8   9
ATOM      9  C   UNL     1       9.957   6.626   2.477  1.00  0.00     0.000 C 
BRANCH   9  10
ATOM     10  C   UNL     1       9.625   7.485   3.709  1.00  0.00     0.000 C 
BRANCH  10  11
ATOM     11  C   UNL     1       8.874   6.685   4.797  1.00  0.00     0.000 C 
BRANCH  11  12
ATOM     12  C   UNL     1       7.609   7.392   5.319  1.00  0.00     0.006 C 
BRANCH  12  13
ATOM     13  C   UNL     1       7.270   8.696   4.583  1.00  0.00     0.053 C 
BRANCH  13  14
ATOM     14  C   UNL     1       5.830   9.074   4.746  1.00  0.00     0.041 C 
ATOM     15  O   UNL     1       4.959   8.616   3.960  1.00  0.00    -0.550 OA
ATOM     16  O   UNL     1       5.448   9.933   5.769  1.00  0.00    -0.550 OA
ENDBRANCH  13  14
ENDBRANCH  12  13
ENDBRANCH  11  12
ENDBRANCH  10  11
ENDBRANCH   9  10
ENDBRANCH   8   9
ENDBRANCH   7   8
ENDBRANCH   6   7
ENDBRANCH   5   6
ENDBRANCH   4   5
ENDBRANCH   3   4
ENDBRANCH   2   3
ENDBRANCH   1   2
BRANCH   1  17
ATOM     17  C   UNL     1       3.316   1.686  -0.054  1.00  0.00     0.000 C 
BRANCH  17  18
ATOM     18  C   UNL     1       2.236   0.950  -0.866  1.00  0.00     0.000 C 
BRANCH  18  19
ATOM     19  C   UNL     1       1.735  -0.326  -0.154  1.00  0.00     0.000 C 
BRANCH  19  20
ATOM     20  C   UNL     1       2.265  -0.482   1.284  1.00  0.00     0.000 C 
BRANCH  20  21
ATOM     21  C   UNL     1       1.829  -1.773   2.006  1.00  0.00     0.000 C 
BRANCH  21  22
ATOM     22  C   UNL     1       1.008  -2.752   1.146  1.00  0.00    -0.000 C 
BRANCH  22  23
ATOM     23  C   UNL     1      -0.488  -2.747   1.504  1.00  0.00    -0.000 C 
BRANCH  23  24
ATOM     24  C   UNL     1      -0.794  -3.534   2.789  1.00  0.00    -0.000 C 
BRANCH  24  25
ATOM     25  C   UNL     1      -2.090  -3.076   3.476  1.00  0.00    -0.000 C 
BRANCH  25  26
ATOM     26  C   UNL     1      -2.204  -1.547   3.469  1.00  0.00    -0.000 C 
BRANCH  26  27
ATOM     27  C   UNL     1      -2.850  -1.034   4.766  1.00  0.00    -0.000 C 
BRANCH  27  28
ATOM     28  C   UNL     1      -4.082  -1.853   5.178  1.00  0.00    -0.000 C 
BRANCH  28  29
ATOM     29  C   UNL     1      -4.018  -2.326   6.637  1.00  0.00    -0.003 C 
ATOM     30  C   UNL     1      -3.616  -3.796   6.720  1.00  0.00     0.004 C 
ENDBRANCH  28  29
ENDBRANCH  27  28
ENDBRANCH  26  27
ENDBRANCH  25  26
ENDBRANCH  24  25
ENDBRANCH  23  24
ENDBRANCH  22  23
ENDBRANCH  21  22
ENDBRANCH  20  21
ENDBRANCH  19  20
ENDBRANCH  18  19
ENDBRANCH  17  18
ENDBRANCH   1  17
TORSDOF 26
ENDMDL
MODEL 7
REMARK VINA RESULT:     3.621      2.142      3.643
REMARK INTER + INTRA:           7.430
REMARK INTER:                   9.258
REMARK INTRA:                  -1.828
REMARK UNBOUND:                -1.695
REMARK SMILES CCCCCCCCCCCCCCCCCCCCCCCCCCCC(=O)[O-]
REMARK SMILES IDX 15 1 16 2 17 3 18 4 19 5 20 6 21 7 22 8 23 9 24 10 25 11
REMARK SMILES IDX 26 12 27 13 28 14 29 15 30 16 14 17 13 18 12 19 11 20 10 21
REMARK SMILES IDX 9 22 8 23 7 24 6 25 5 26 4 27 3 28 2 29 1 30
REMARK H PARENT
REMARK Flexibility Score: inf
ROOT
ATOM      1  C   UNL     1       4.663   5.163   0.978  1.00  0.00     0.000 C 
ENDROOT
BRANCH   1   2
ATOM      2  C   UNL     1       5.926   5.675   1.697  1.00  0.00     0.000 C 
BRANCH   2   3
ATOM      3  C   UNL     1       5.984   5.370   3.205  1.00  0.00     0.000 C 
BRANCH   3   4
ATOM      4  C   UNL     1       6.482   6.566   4.034  1.00  0.00     0.000 C 
BRANCH   4   5
ATOM      5  C   UNL     1       5.708   7.866   3.744  1.00  0.00     0.000 C 
BRANCH   5   6
ATOM      6  C   UNL     1       6.368   9.161   4.256  1.00  0.00     0.000 C 
BRANCH   6   7
ATOM      7  C   UNL     1       7.551   8.900   5.204  1.00  0.00     0.000 C 
BRANCH   7   8
ATOM      8  C   UNL     1       8.866   9.537   4.715  1.00  0.00     0.000 C 
BRANCH   8   9
ATOM      9  C   UNL     1       9.777   8.609   3.891  1.00  0.00     0.000 C 
BRANCH   9  10
ATOM     10  C   UNL     1      10.100   7.288   4.610  1.00  0.00     0.000 C 
BRANCH  10  11
ATOM     11  C   UNL     1      10.108   6.081   3.645  1.00  0.00     0.000 C 
BRANCH  11  12
ATOM     12  C   UNL     1      10.123   6.480   2.158  1.00  0.00     0.006 C 
BRANCH  12  13
ATOM     13  C   UNL     1       9.094   5.733   1.297  1.00  0.00     0.053 C 
BRANCH  13  14
ATOM     14  C   UNL     1       9.523   4.329   1.003  1.00  0.00     0.041 C 
ATOM     15  O   UNL     1       9.826   3.546   1.942  1.00  0.00    -0.550 OA
ATOM     16  O   UNL     1       9.589   3.883  -0.311  1.00  0.00    -0.550 OA
ENDBRANCH  13  14
ENDBRANCH  12  13
ENDBRANCH  11  12
ENDBRANCH  10  11
ENDBRANCH   9  10
ENDBRANCH   8   9
ENDBRANCH   7   8
ENDBRANCH   6   7
ENDBRANCH   5   6
ENDBRANCH   4   5
ENDBRANCH   3   4
ENDBRANCH   2   3
ENDBRANCH   1   2
BRANCH   1  17
ATOM     17  C   UNL     1       4.088   3.863   1.580  1.00  0.00     0.000 C 
BRANCH  17  18
ATOM     18  C   UNL     1       2.917   3.304   0.752  1.00  0.00     0.000 C 
BRANCH  18  19
ATOM     19  C   UNL     1       3.046   1.784   0.509  1.00  0.00     0.000 C 
BRANCH  19  20
ATOM     20  C   UNL     1       2.613   1.343  -0.902  1.00  0.00     0.000 C 
BRANCH  20  21
ATOM     21  C   UNL     1       2.325  -0.163  -1.058  1.00  0.00     0.000 C 
BRANCH  21  22
ATOM     22  C   UNL     1       1.132  -0.685  -0.235  1.00  0.00    -0.000 C 
BRANCH  22  23
ATOM     23  C   UNL     1       1.569  -1.454   1.023  1.00  0.00    -0.000 C 
BRANCH  23  24
ATOM     24  C   UNL     1       0.832  -2.794   1.187  1.00  0.00    -0.000 C 
BRANCH  24  25
ATOM     25  C   UNL     1      -0.514  -2.650   1.915  1.00  0.00    -0.000 C 
BRANCH  25  26
ATOM     26  C   UNL     1      -0.305  -2.261   3.383  1.00  0.00    -0.000 C 
BRANCH  26  27
ATOM     27  C   UNL     1      -1.393  -1.285   3.856  1.00  0.00    -0.000 C 
BRANCH  27  28
ATOM     28  C   UNL     1      -2.649  -2.002   4.373  1.00  0.00    -0.000 C 
BRANCH  28  29
ATOM     29  C   UNL     1      -2.379  -2.832   5.636  1.00  0.00    -0.003 C 
ATOM     30  C   UNL     1      -3.677  -3.145   6.375  1.00  0.00     0.004 C 
ENDBRANCH  28  29
ENDBRANCH  27  28
ENDBRANCH  26  27
ENDBRANCH  25  26
ENDBRANCH  24  25
ENDBRANCH  23  24
ENDBRANCH  22  23
ENDBRANCH  21  22
ENDBRANCH  20  21
ENDBRANCH  19  20
ENDBRANCH  18  19
ENDBRANCH  17  18
ENDBRANCH   1  17
TORSDOF 26
ENDMDL
MODEL 8
REMARK VINA RESULT:     3.821      3.735     11.880
REMARK INTER + INTRA:           7.932
REMARK INTER:                   9.554
REMARK INTRA:                  -1.622
REMARK UNBOUND:                -1.695
REMARK SMILES CCCCCCCCCCCCCCCCCCCCCCCCCCCC(=O)[O-]
REMARK SMILES IDX 15 1 16 2 17 3 18 4 19 5 20 6 21 7 22 8 23 9 24 10 25 11
REMARK SMILES IDX 26 12 27 13 28 14 29 15 30 16 14 17 13 18 12 19 11 20 10 21
REMARK SMILES IDX 9 22 8 23 7 24 6 25 5 26 4 27 3 28 2 29 1 30
REMARK H PARENT
REMARK Flexibility Score: inf
ROOT
ATOM      1  C   UNL     1       3.793   4.191   0.838  1.00  0.00     0.000 C 
ENDROOT
BRANCH   1   2
ATOM      2  C   UNL     1       2.968   2.928   1.154  1.00  0.00     0.000 C 
BRANCH   2   3
ATOM      3  C   UNL     1       3.341   1.684   0.328  1.00  0.00     0.000 C 
BRANCH   3   4
ATOM      4  C   UNL     1       2.407   1.468  -0.875  1.00  0.00     0.000 C 
BRANCH   4   5
ATOM      5  C   UNL     1       1.744   0.078  -0.882  1.00  0.00     0.000 C 
BRANCH   5   6
ATOM      6  C   UNL     1       1.588  -0.591   0.498  1.00  0.00     0.000 C 
BRANCH   6   7
ATOM      7  C   UNL     1       1.043  -2.027   0.412  1.00  0.00     0.000 C 
BRANCH   7   8
ATOM      8  C   UNL     1       1.335  -2.857   1.677  1.00  0.00     0.000 C 
BRANCH   8   9
ATOM      9  C   UNL     1       0.111  -3.547   2.306  1.00  0.00     0.000 C 
BRANCH   9  10
ATOM     10  C   UNL     1      -1.222  -2.899   1.897  1.00  0.00     0.000 C 
BRANCH  10  11
ATOM     11  C   UNL     1      -2.198  -2.763   3.087  1.00  0.00     0.000 C 
BRANCH  11  12
ATOM     12  C   UNL     1      -2.134  -1.390   3.784  1.00  0.00     0.006 C 
BRANCH  12  13
ATOM     13  C   UNL     1      -2.267  -1.454   5.312  1.00  0.00     0.053 C 
BRANCH  13  14
ATOM     14  C   UNL     1      -2.217  -2.863   5.820  1.00  0.00     0.041 C 
ATOM     15  O   UNL     1      -1.176  -3.556   5.670  1.00  0.00    -0.550 OA
ATOM     16  O   UNL     1      -3.320  -3.410   6.461  1.00  0.00    -0.550 OA
ENDBRANCH  13  14
ENDBRANCH  12  13
ENDBRANCH  11  12
ENDBRANCH  10  11
ENDBRANCH   9  10
ENDBRANCH   8   9
ENDBRANCH   7   8
ENDBRANCH   6   7
ENDBRANCH   5   6
ENDBRANCH   4   5
ENDBRANCH   3   4
ENDBRANCH   2   3
ENDBRANCH   1   2
BRANCH   1  17
ATOM     17  C   UNL     1       4.975   4.420   1.802  1.00  0.00     0.000 C 
BRANCH  17  18
ATOM     18  C   UNL     1       5.650   5.786   1.587  1.00  0.00     0.000 C 
BRANCH  18  19
ATOM     19  C   UNL     1       6.305   6.325   2.877  1.00  0.00     0.000 C 
BRANCH  19  20
ATOM     20  C   UNL     1       5.331   7.085   3.797  1.00  0.00     0.000 C 
BRANCH  20  21
ATOM     21  C   UNL     1       5.763   8.517   4.168  1.00  0.00     0.000 C 
BRANCH  21  22
ATOM     22  C   UNL     1       7.257   8.823   3.951  1.00  0.00    -0.000 C 
BRANCH  22  23
ATOM     23  C   UNL     1       8.079   8.723   5.247  1.00  0.00    -0.000 C 
BRANCH  23  24
ATOM     24  C   UNL     1       9.426   8.010   5.042  1.00  0.00    -0.000 C 
BRANCH  24  25
ATOM     25  C   UNL     1       9.468   6.616   5.690  1.00  0.00    -0.000 C 
BRANCH  25  26
ATOM     26  C   UNL     1       9.456   5.515   4.623  1.00  0.00    -0.000 C 
BRANCH  26  27
ATOM     27  C   UNL     1       9.496   6.115   3.209  1.00  0.00    -0.000 C 
BRANCH  27  28
ATOM     28  C   UNL     1      10.121   5.162   2.179  1.00  0.00    -0.000 C 
BRANCH  28  29
ATOM     29  C   UNL     1       9.357   5.147   0.847  1.00  0.00    -0.003 C 
ATOM     30  C   UNL     1       9.421   3.770   0.193  1.00  0.00     0.004 C 
ENDBRANCH  28  29
ENDBRANCH  27  28
ENDBRANCH  26  27
ENDBRANCH  25  26
ENDBRANCH  24  25
ENDBRANCH  23  24
ENDBRANCH  22  23
ENDBRANCH  21  22
ENDBRANCH  20  21
ENDBRANCH  19  20
ENDBRANCH  18  19
ENDBRANCH  17  18
ENDBRANCH   1  17
TORSDOF 26
ENDMDL
