MODEL 1
REMARK VINA RESULT:    -7.459      0.000      0.000
REMARK INTER + INTRA:          -9.081
REMARK INTER:                  -8.768
REMARK INTRA:                  -0.314
REMARK UNBOUND:                -0.314
REMARK SMILES O=c1cc(-c2ccc(O)c(O)c2)oc2cc(O)cc(O)c12
REMARK SMILES IDX 4 1 3 2 2 3 1 4 21 5 19 6 18 7 16 8 15 9 14 10 13 11 5 12
REMARK SMILES IDX 6 13 7 14 8 15 12 16 10 17 9 18 11 20 20 22 17 24
REMARK H PARENT 9 19 11 21 20 23 17 25
REMARK Flexibility Score: inf
ROOT
ATOM      1  C   UNL     1      -5.937  -5.781   5.056  1.00  0.00     0.138 A 
ATOM      2  C   UNL     1      -7.065  -5.746   4.226  1.00  0.00     0.100 A 
ATOM      3  C   UNL     1      -7.945  -4.665   4.300  1.00  0.00     0.197 A 
ATOM      4  O   UNL     1      -8.977  -4.691   3.581  1.00  0.00    -0.289 OA
ATOM      5  C   UNL     1      -7.673  -3.596   5.186  1.00  0.00     0.107 A 
ATOM      6  C   UNL     1      -8.480  -2.427   5.324  1.00  0.00     0.134 A 
ATOM      7  C   UNL     1      -8.162  -1.481   6.307  1.00  0.00     0.093 A 
ATOM      8  C   UNL     1      -7.038  -1.632   7.117  1.00  0.00     0.123 A 
ATOM      9  C   UNL     1      -6.213  -2.747   6.958  1.00  0.00     0.094 A 
ATOM     10  C   UNL     1      -6.522  -3.725   6.010  1.00  0.00     0.146 A 
ATOM     11  O   UNL     1      -5.721  -4.779   5.903  1.00  0.00    -0.456 OA
ENDROOT
BRANCH   1  12
ATOM     12  C   UNL     1      -4.967  -6.904   5.015  1.00  0.00     0.021 A 
ATOM     13  C   UNL     1      -5.330  -8.107   4.386  1.00  0.00     0.016 A 
ATOM     14  C   UNL     1      -4.434  -9.178   4.327  1.00  0.00     0.051 A 
ATOM     15  C   UNL     1      -3.156  -9.059   4.886  1.00  0.00     0.157 A 
ATOM     16  C   UNL     1      -3.674  -6.788   5.564  1.00  0.00     0.062 A 
ATOM     17  C   UNL     1      -2.774  -7.862   5.503  1.00  0.00     0.158 A 
BRANCH  15  18
ATOM     18  O   UNL     1      -2.259 -10.125   4.830  1.00  0.00    -0.504 OA
ATOM     19  H   UNL     1      -2.564 -11.062   4.594  1.00  0.00     0.293 HD
ENDBRANCH  15  18
BRANCH  17  20
ATOM     20  O   UNL     1      -1.497  -7.744   6.048  1.00  0.00    -0.504 OA
ATOM     21  H   UNL     1      -1.239  -8.221   6.904  1.00  0.00     0.293 HD
ENDBRANCH  17  20
ENDBRANCH   1  12
BRANCH   6  22
ATOM     22  O   UNL     1      -9.581  -2.135   4.515  1.00  0.00    -0.507 OA
ATOM     23  H   UNL     1     -10.482  -1.829   4.850  1.00  0.00     0.293 HD
ENDBRANCH   6  22
BRANCH   8  24
ATOM     24  O   UNL     1      -6.744  -0.663   8.074  1.00  0.00    -0.508 OA
ATOM     25  H   UNL     1      -5.869  -0.670   8.586  1.00  0.00     0.293 HD
ENDBRANCH   8  24
TORSDOF 5
ENDMDL
MODEL 2
REMARK VINA RESULT:    -7.292      1.256      2.774
REMARK INTER + INTRA:          -8.884
REMARK INTER:                  -8.600
REMARK INTRA:                  -0.285
REMARK UNBOUND:                -0.314
REMARK SMILES O=c1cc(-c2ccc(O)c(O)c2)oc2cc(O)cc(O)c12
REMARK SMILES IDX 4 1 3 2 2 3 1 4 21 5 19 6 18 7 16 8 15 9 14 10 13 11 5 12
REMARK SMILES IDX 6 13 7 14 8 15 12 16 10 17 9 18 11 20 20 22 17 24
REMARK H PARENT 9 19 11 21 20 23 17 25
REMARK Flexibility Score: inf
ROOT
ATOM      1  C   UNL     1      -5.621  -4.789   6.151  1.00  0.00     0.138 A 
ATOM      2  C   UNL     1      -5.363  -4.243   7.416  1.00  0.00     0.100 A 
ATOM      3  C   UNL     1      -6.001  -3.064   7.804  1.00  0.00     0.197 A 
ATOM      4  O   UNL     1      -5.706  -2.570   8.923  1.00  0.00    -0.289 OA
ATOM      5  C   UNL     1      -6.930  -2.447   6.932  1.00  0.00     0.107 A 
ATOM      6  C   UNL     1      -7.666  -1.262   7.232  1.00  0.00     0.134 A 
ATOM      7  C   UNL     1      -8.484  -0.690   6.249  1.00  0.00     0.093 A 
ATOM      8  C   UNL     1      -8.638  -1.289   5.000  1.00  0.00     0.123 A 
ATOM      9  C   UNL     1      -7.962  -2.476   4.713  1.00  0.00     0.094 A 
ATOM     10  C   UNL     1      -7.112  -3.053   5.659  1.00  0.00     0.146 A 
ATOM     11  O   UNL     1      -6.474  -4.173   5.339  1.00  0.00    -0.456 OA
ENDROOT
BRANCH   1  12
ATOM     12  C   UNL     1      -4.973  -6.043   5.690  1.00  0.00     0.021 A 
ATOM     13  C   UNL     1      -5.687  -6.923   4.860  1.00  0.00     0.016 A 
ATOM     14  C   UNL     1      -5.099  -8.106   4.405  1.00  0.00     0.051 A 
ATOM     15  C   UNL     1      -3.784  -8.424   4.764  1.00  0.00     0.157 A 
ATOM     16  C   UNL     1      -3.645  -6.362   6.036  1.00  0.00     0.062 A 
ATOM     17  C   UNL     1      -3.055  -7.550   5.578  1.00  0.00     0.158 A 
BRANCH  15  18
ATOM     18  O   UNL     1      -3.194  -9.603   4.314  1.00  0.00    -0.504 OA
ATOM     19  H   UNL     1      -3.577 -10.123   3.533  1.00  0.00     0.293 HD
ENDBRANCH  15  18
BRANCH  17  20
ATOM     20  O   UNL     1      -1.742  -7.863   5.925  1.00  0.00    -0.504 OA
ATOM     21  H   UNL     1      -1.504  -8.744   6.364  1.00  0.00     0.293 HD
ENDBRANCH  17  20
ENDBRANCH   1  12
BRANCH   6  22
ATOM     22  O   UNL     1      -7.648  -0.622   8.474  1.00  0.00    -0.507 OA
ATOM     23  H   UNL     1      -7.358  -1.048   9.342  1.00  0.00     0.293 HD
ENDBRANCH   6  22
BRANCH   8  24
ATOM     24  O   UNL     1      -9.472  -0.700   4.053  1.00  0.00    -0.508 OA
ATOM     25  H   UNL     1      -9.139  -0.465   3.125  1.00  0.00     0.293 HD
ENDBRANCH   8  24
TORSDOF 5
ENDMDL
MODEL 3
REMARK VINA RESULT:    -7.219      2.479      6.878
REMARK INTER + INTRA:          -8.798
REMARK INTER:                  -8.536
REMARK INTRA:                  -0.263
REMARK UNBOUND:                -0.314
REMARK SMILES O=c1cc(-c2ccc(O)c(O)c2)oc2cc(O)cc(O)c12
REMARK SMILES IDX 4 1 3 2 2 3 1 4 21 5 19 6 18 7 16 8 15 9 14 10 13 11 5 12
REMARK SMILES IDX 6 13 7 14 8 15 12 16 10 17 9 18 11 20 20 22 17 24
REMARK H PARENT 9 19 11 21 20 23 17 25
REMARK Flexibility Score: inf
ROOT
ATOM      1  C   UNL     1      -5.195  -6.278   6.613  1.00  0.00     0.138 A 
ATOM      2  C   UNL     1      -6.245  -6.908   5.931  1.00  0.00     0.100 A 
ATOM      3  C   UNL     1      -5.961  -7.887   4.977  1.00  0.00     0.197 A 
ATOM      4  O   UNL     1      -6.923  -8.393   4.344  1.00  0.00    -0.289 OA
ATOM      5  C   UNL     1      -4.619  -8.262   4.732  1.00  0.00     0.107 A 
ATOM      6  C   UNL     1      -4.210  -9.271   3.808  1.00  0.00     0.134 A 
ATOM      7  C   UNL     1      -2.845  -9.485   3.579  1.00  0.00     0.093 A 
ATOM      8  C   UNL     1      -1.875  -8.770   4.279  1.00  0.00     0.123 A 
ATOM      9  C   UNL     1      -2.262  -7.816   5.222  1.00  0.00     0.094 A 
ATOM     10  C   UNL     1      -3.615  -7.554   5.448  1.00  0.00     0.146 A 
ATOM     11  O   UNL     1      -3.941  -6.626   6.341  1.00  0.00    -0.456 OA
ENDROOT
BRANCH   1  12
ATOM     12  C   UNL     1      -5.440  -5.233   7.638  1.00  0.00     0.021 A 
ATOM     13  C   UNL     1      -5.457  -5.591   8.997  1.00  0.00     0.016 A 
ATOM     14  C   UNL     1      -5.678  -4.627   9.984  1.00  0.00     0.051 A 
ATOM     15  C   UNL     1      -5.875  -3.287   9.629  1.00  0.00     0.157 A 
ATOM     16  C   UNL     1      -5.625  -3.880   7.290  1.00  0.00     0.062 A 
ATOM     17  C   UNL     1      -5.845  -2.912   8.281  1.00  0.00     0.158 A 
BRANCH  15  18
ATOM     18  O   UNL     1      -6.096  -2.322  10.610  1.00  0.00    -0.504 OA
ATOM     19  H   UNL     1      -6.719  -1.538  10.452  1.00  0.00     0.293 HD
ENDBRANCH  15  18
BRANCH  17  20
ATOM     20  O   UNL     1      -6.030  -1.576   7.932  1.00  0.00    -0.504 OA
ATOM     21  H   UNL     1      -6.132  -0.852   8.634  1.00  0.00     0.293 HD
ENDBRANCH  17  20
ENDBRANCH   1  12
BRANCH   6  22
ATOM     22  O   UNL     1      -5.094 -10.100   3.112  1.00  0.00    -0.507 OA
ATOM     23  H   UNL     1      -4.857 -10.646   2.298  1.00  0.00     0.293 HD
ENDBRANCH   6  22
BRANCH   8  24
ATOM     24  O   UNL     1      -0.527  -9.021   4.036  1.00  0.00    -0.508 OA
ATOM     25  H   UNL     1      -0.203  -9.358   3.136  1.00  0.00     0.293 HD
ENDBRANCH   8  24
TORSDOF 5
ENDMDL
MODEL 4
REMARK VINA RESULT:    -7.164      1.738      2.481
REMARK INTER + INTRA:          -8.734
REMARK INTER:                  -8.452
REMARK INTRA:                  -0.282
REMARK UNBOUND:                -0.314
REMARK SMILES O=c1cc(-c2ccc(O)c(O)c2)oc2cc(O)cc(O)c12
REMARK SMILES IDX 4 1 3 2 2 3 1 4 21 5 19 6 18 7 16 8 15 9 14 10 13 11 5 12
REMARK SMILES IDX 6 13 7 14 8 15 12 16 10 17 9 18 11 20 20 22 17 24
REMARK H PARENT 9 19 11 21 20 23 17 25
REMARK Flexibility Score: inf
ROOT
ATOM      1  C   UNL     1      -5.121  -5.698   5.963  1.00  0.00     0.138 A 
ATOM      2  C   UNL     1      -5.984  -4.973   5.131  1.00  0.00     0.100 A 
ATOM      3  C   UNL     1      -6.699  -3.892   5.649  1.00  0.00     0.197 A 
ATOM      4  O   UNL     1      -7.507  -3.297   4.890  1.00  0.00    -0.289 OA
ATOM      5  C   UNL     1      -6.520  -3.514   7.001  1.00  0.00     0.107 A 
ATOM      6  C   UNL     1      -7.168  -2.409   7.630  1.00  0.00     0.134 A 
ATOM      7  C   UNL     1      -6.987  -2.192   9.003  1.00  0.00     0.093 A 
ATOM      8  C   UNL     1      -6.138  -3.003   9.755  1.00  0.00     0.123 A 
ATOM      9  C   UNL     1      -5.459  -4.056   9.139  1.00  0.00     0.094 A 
ATOM     10  C   UNL     1      -5.646  -4.319   7.780  1.00  0.00     0.146 A 
ATOM     11  O   UNL     1      -4.994  -5.342   7.237  1.00  0.00    -0.456 OA
ENDROOT
BRANCH   1  12
ATOM     12  C   UNL     1      -4.334  -6.854   5.463  1.00  0.00     0.021 A 
ATOM     13  C   UNL     1      -3.017  -7.039   5.916  1.00  0.00     0.016 A 
ATOM     14  C   UNL     1      -2.256  -8.123   5.467  1.00  0.00     0.051 A 
ATOM     15  C   UNL     1      -2.804  -9.044   4.567  1.00  0.00     0.157 A 
ATOM     16  C   UNL     1      -4.883  -7.793   4.567  1.00  0.00     0.062 A 
ATOM     17  C   UNL     1      -4.120  -8.881   4.119  1.00  0.00     0.158 A 
BRANCH  15  18
ATOM     18  O   UNL     1      -2.049 -10.125   4.116  1.00  0.00    -0.504 OA
ATOM     19  H   UNL     1      -2.348 -10.690   3.329  1.00  0.00     0.293 HD
ENDBRANCH  15  18
BRANCH  17  20
ATOM     20  O   UNL     1      -4.666  -9.806   3.231  1.00  0.00    -0.504 OA
ATOM     21  H   UNL     1      -4.565  -9.705   2.228  1.00  0.00     0.293 HD
ENDBRANCH  17  20
ENDBRANCH   1  12
BRANCH   6  22
ATOM     22  O   UNL     1      -7.977  -1.488   6.958  1.00  0.00    -0.507 OA
ATOM     23  H   UNL     1      -8.867  -1.699   6.534  1.00  0.00     0.293 HD
ENDBRANCH   6  22
BRANCH   8  24
ATOM     24  O   UNL     1      -5.970  -2.747  11.114  1.00  0.00    -0.508 OA
ATOM     25  H   UNL     1      -5.664  -1.841  11.449  1.00  0.00     0.293 HD
ENDBRANCH   8  24
TORSDOF 5
ENDMDL
MODEL 5
REMARK VINA RESULT:    -7.097      2.212      7.672
REMARK INTER + INTRA:          -8.655
REMARK INTER:                  -8.342
REMARK INTRA:                  -0.313
REMARK UNBOUND:                -0.314
REMARK SMILES O=c1cc(-c2ccc(O)c(O)c2)oc2cc(O)cc(O)c12
REMARK SMILES IDX 4 1 3 2 2 3 1 4 21 5 19 6 18 7 16 8 15 9 14 10 13 11 5 12
REMARK SMILES IDX 6 13 7 14 8 15 12 16 10 17 9 18 11 20 20 22 17 24
REMARK H PARENT 9 19 11 21 20 23 17 25
REMARK Flexibility Score: inf
ROOT
ATOM      1  C   UNL     1      -7.030  -2.686   6.732  1.00  0.00     0.138 A 
ATOM      2  C   UNL     1      -6.609  -2.837   8.060  1.00  0.00     0.100 A 
ATOM      3  C   UNL     1      -5.837  -3.943   8.420  1.00  0.00     0.197 A 
ATOM      4  O   UNL     1      -5.522  -4.077   9.630  1.00  0.00    -0.289 OA
ATOM      5  C   UNL     1      -5.454  -4.884   7.434  1.00  0.00     0.107 A 
ATOM      6  C   UNL     1      -4.641  -6.031   7.676  1.00  0.00     0.134 A 
ATOM      7  C   UNL     1      -4.411  -6.946   6.640  1.00  0.00     0.093 A 
ATOM      8  C   UNL     1      -4.915  -6.726   5.359  1.00  0.00     0.123 A 
ATOM      9  C   UNL     1      -5.670  -5.581   5.098  1.00  0.00     0.094 A 
ATOM     10  C   UNL     1      -5.947  -4.669   6.119  1.00  0.00     0.146 A 
ATOM     11  O   UNL     1      -6.684  -3.601   5.832  1.00  0.00    -0.456 OA
ENDROOT
BRANCH   1  12
ATOM     12  C   UNL     1      -7.850  -1.528   6.295  1.00  0.00     0.021 A 
ATOM     13  C   UNL     1      -7.903  -0.377   7.100  1.00  0.00     0.016 A 
ATOM     14  C   UNL     1      -8.660   0.730   6.709  1.00  0.00     0.051 A 
ATOM     15  C   UNL     1      -9.368   0.709   5.501  1.00  0.00     0.157 A 
ATOM     16  C   UNL     1      -8.554  -1.536   5.075  1.00  0.00     0.062 A 
ATOM     17  C   UNL     1      -9.312  -0.424   4.681  1.00  0.00     0.158 A 
BRANCH  15  18
ATOM     18  O   UNL     1     -10.125   1.811   5.108  1.00  0.00    -0.504 OA
ATOM     19  H   UNL     1     -10.345   1.983   4.133  1.00  0.00     0.293 HD
ENDBRANCH  15  18
BRANCH  17  20
ATOM     20  O   UNL     1     -10.009  -0.437   3.474  1.00  0.00    -0.504 OA
ATOM     21  H   UNL     1      -9.861  -1.163   2.783  1.00  0.00     0.293 HD
ENDBRANCH  17  20
ENDBRANCH   1  12
BRANCH   6  22
ATOM     22  O   UNL     1      -4.020  -6.309   8.898  1.00  0.00    -0.507 OA
ATOM     23  H   UNL     1      -3.350  -5.711   9.357  1.00  0.00     0.293 HD
ENDBRANCH   6  22
BRANCH   8  24
ATOM     24  O   UNL     1      -4.652  -7.649   4.349  1.00  0.00    -0.508 OA
ATOM     25  H   UNL     1      -4.666  -8.647   4.526  1.00  0.00     0.293 HD
ENDBRANCH   8  24
TORSDOF 5
ENDMDL
MODEL 6
REMARK VINA RESULT:    -7.069      1.447      6.939
REMARK INTER + INTRA:          -8.622
REMARK INTER:                  -8.345
REMARK INTRA:                  -0.277
REMARK UNBOUND:                -0.314
REMARK SMILES O=c1cc(-c2ccc(O)c(O)c2)oc2cc(O)cc(O)c12
REMARK SMILES IDX 4 1 3 2 2 3 1 4 21 5 19 6 18 7 16 8 15 9 14 10 13 11 5 12
REMARK SMILES IDX 6 13 7 14 8 15 12 16 10 17 9 18 11 20 20 22 17 24
REMARK H PARENT 9 19 11 21 20 23 17 25
REMARK Flexibility Score: inf
ROOT
ATOM      1  C   UNL     1      -6.617  -4.730   5.519  1.00  0.00     0.138 A 
ATOM      2  C   UNL     1      -7.475  -5.733   5.048  1.00  0.00     0.100 A 
ATOM      3  C   UNL     1      -6.981  -7.020   4.829  1.00  0.00     0.197 A 
ATOM      4  O   UNL     1      -7.764  -7.883   4.354  1.00  0.00    -0.289 OA
ATOM      5  C   UNL     1      -5.626  -7.312   5.118  1.00  0.00     0.107 A 
ATOM      6  C   UNL     1      -5.019  -8.594   4.966  1.00  0.00     0.134 A 
ATOM      7  C   UNL     1      -3.643  -8.738   5.190  1.00  0.00     0.093 A 
ATOM      8  C   UNL     1      -2.865  -7.662   5.614  1.00  0.00     0.123 A 
ATOM      9  C   UNL     1      -3.459  -6.414   5.814  1.00  0.00     0.094 A 
ATOM     10  C   UNL     1      -4.821  -6.230   5.566  1.00  0.00     0.146 A 
ATOM     11  O   UNL     1      -5.341  -5.023   5.752  1.00  0.00    -0.456 OA
ENDROOT
BRANCH   1  12
ATOM     12  C   UNL     1      -7.091  -3.347   5.773  1.00  0.00     0.021 A 
ATOM     13  C   UNL     1      -6.708  -2.693   6.957  1.00  0.00     0.016 A 
ATOM     14  C   UNL     1      -7.134  -1.387   7.218  1.00  0.00     0.051 A 
ATOM     15  C   UNL     1      -7.940  -0.711   6.294  1.00  0.00     0.157 A 
ATOM     16  C   UNL     1      -7.891  -2.654   4.843  1.00  0.00     0.062 A 
ATOM     17  C   UNL     1      -8.317  -1.343   5.104  1.00  0.00     0.158 A 
BRANCH  15  18
ATOM     18  O   UNL     1      -8.368   0.591   6.551  1.00  0.00    -0.504 OA
ATOM     19  H   UNL     1      -8.386   0.967   7.492  1.00  0.00     0.293 HD
ENDBRANCH  15  18
BRANCH  17  20
ATOM     20  O   UNL     1      -9.110  -0.663   4.182  1.00  0.00    -0.504 OA
ATOM     21  H   UNL     1      -9.305  -1.046   3.264  1.00  0.00     0.293 HD
ENDBRANCH  17  20
ENDBRANCH   1  12
BRANCH   6  22
ATOM     22  O   UNL     1      -5.717  -9.756   4.622  1.00  0.00    -0.507 OA
ATOM     23  H   UNL     1      -6.109  -9.949   3.713  1.00  0.00     0.293 HD
ENDBRANCH   6  22
BRANCH   8  24
ATOM     24  O   UNL     1      -1.504  -7.846   5.842  1.00  0.00    -0.508 OA
ATOM     25  H   UNL     1      -0.959  -7.174   6.369  1.00  0.00     0.293 HD
ENDBRANCH   8  24
TORSDOF 5
ENDMDL
MODEL 7
REMARK VINA RESULT:    -7.044      1.388      6.774
REMARK INTER + INTRA:          -8.594
REMARK INTER:                  -8.291
REMARK INTRA:                  -0.302
REMARK UNBOUND:                -0.314
REMARK SMILES O=c1cc(-c2ccc(O)c(O)c2)oc2cc(O)cc(O)c12
REMARK SMILES IDX 4 1 3 2 2 3 1 4 21 5 19 6 18 7 16 8 15 9 14 10 13 11 5 12
REMARK SMILES IDX 6 13 7 14 8 15 12 16 10 17 9 18 11 20 20 22 17 24
REMARK H PARENT 9 19 11 21 20 23 17 25
REMARK Flexibility Score: inf
ROOT
ATOM      1  C   UNL     1      -6.632  -4.822   5.406  1.00  0.00     0.138 A 
ATOM      2  C   UNL     1      -7.450  -5.817   4.853  1.00  0.00     0.100 A 
ATOM      3  C   UNL     1      -6.922  -7.084   4.600  1.00  0.00     0.197 A 
ATOM      4  O   UNL     1      -7.667  -7.937   4.053  1.00  0.00    -0.289 OA
ATOM      5  C   UNL     1      -5.576  -7.366   4.936  1.00  0.00     0.107 A 
ATOM      6  C   UNL     1      -4.939  -8.630   4.755  1.00  0.00     0.134 A 
ATOM      7  C   UNL     1      -3.573  -8.761   5.034  1.00  0.00     0.093 A 
ATOM      8  C   UNL     1      -2.834  -7.692   5.540  1.00  0.00     0.123 A 
ATOM      9  C   UNL     1      -3.459  -6.465   5.768  1.00  0.00     0.094 A 
ATOM     10  C   UNL     1      -4.811  -6.293   5.467  1.00  0.00     0.146 A 
ATOM     11  O   UNL     1      -5.363  -5.103   5.683  1.00  0.00    -0.456 OA
ENDROOT
BRANCH   1  12
ATOM     12  C   UNL     1      -7.142  -3.459   5.699  1.00  0.00     0.021 A 
ATOM     13  C   UNL     1      -8.131  -2.900   4.870  1.00  0.00     0.016 A 
ATOM     14  C   UNL     1      -8.634  -1.622   5.127  1.00  0.00     0.051 A 
ATOM     15  C   UNL     1      -8.166  -0.887   6.223  1.00  0.00     0.157 A 
ATOM     16  C   UNL     1      -6.686  -2.718   6.807  1.00  0.00     0.062 A 
ATOM     17  C   UNL     1      -7.194  -1.436   7.066  1.00  0.00     0.158 A 
BRANCH  15  18
ATOM     18  O   UNL     1      -8.665   0.388   6.482  1.00  0.00    -0.504 OA
ATOM     19  H   UNL     1      -9.089   0.951   5.753  1.00  0.00     0.293 HD
ENDBRANCH  15  18
BRANCH  17  20
ATOM     20  O   UNL     1      -6.738  -0.707   8.162  1.00  0.00    -0.504 OA
ATOM     21  H   UNL     1      -6.572  -1.145   9.060  1.00  0.00     0.293 HD
ENDBRANCH  17  20
ENDBRANCH   1  12
BRANCH   6  22
ATOM     22  O   UNL     1      -5.599  -9.787   4.330  1.00  0.00    -0.507 OA
ATOM     23  H   UNL     1      -5.145 -10.637   4.033  1.00  0.00     0.293 HD
ENDBRANCH   6  22
BRANCH   8  24
ATOM     24  O   UNL     1      -1.481  -7.864   5.821  1.00  0.00    -0.508 OA
ATOM     25  H   UNL     1      -0.837  -7.081   5.826  1.00  0.00     0.293 HD
ENDBRANCH   8  24
TORSDOF 5
ENDMDL
MODEL 8
REMARK VINA RESULT:    -6.938      2.497      7.927
REMARK INTER + INTRA:          -8.468
REMARK INTER:                  -8.172
REMARK INTRA:                  -0.296
REMARK UNBOUND:                -0.314
REMARK SMILES O=c1cc(-c2ccc(O)c(O)c2)oc2cc(O)cc(O)c12
REMARK SMILES IDX 4 1 3 2 2 3 1 4 21 5 19 6 18 7 16 8 15 9 14 10 13 11 5 12
REMARK SMILES IDX 6 13 7 14 8 15 12 16 10 17 9 18 11 20 20 22 17 24
REMARK H PARENT 9 19 11 21 20 23 17 25
REMARK Flexibility Score: inf
ROOT
ATOM      1  C   UNL     1      -6.781  -2.041   7.194  1.00  0.00     0.138 A 
ATOM      2  C   UNL     1      -6.250  -2.395   8.442  1.00  0.00     0.100 A 
ATOM      3  C   UNL     1      -5.614  -3.628   8.599  1.00  0.00     0.197 A 
ATOM      4  O   UNL     1      -5.198  -3.938   9.745  1.00  0.00    -0.289 OA
ATOM      5  C   UNL     1      -5.479  -4.496   7.490  1.00  0.00     0.107 A 
ATOM      6  C   UNL     1      -4.822  -5.762   7.522  1.00  0.00     0.134 A 
ATOM      7  C   UNL     1      -4.838  -6.578   6.382  1.00  0.00     0.093 A 
ATOM      8  C   UNL     1      -5.436  -6.151   5.198  1.00  0.00     0.123 A 
ATOM      9  C   UNL     1      -6.039  -4.893   5.140  1.00  0.00     0.094 A 
ATOM     10  C   UNL     1      -6.070  -4.070   6.269  1.00  0.00     0.146 A 
ATOM     11  O   UNL     1      -6.668  -2.888   6.176  1.00  0.00    -0.456 OA
ENDROOT
BRANCH   1  12
ATOM     12  C   UNL     1      -7.463  -0.742   6.971  1.00  0.00     0.021 A 
ATOM     13  C   UNL     1      -8.085  -0.493   5.735  1.00  0.00     0.016 A 
ATOM     14  C   UNL     1      -8.741   0.719   5.501  1.00  0.00     0.051 A 
ATOM     15  C   UNL     1      -8.794   1.697   6.501  1.00  0.00     0.157 A 
ATOM     16  C   UNL     1      -7.533   0.242   7.977  1.00  0.00     0.062 A 
ATOM     17  C   UNL     1      -8.193   1.457   7.742  1.00  0.00     0.158 A 
BRANCH  15  18
ATOM     18  O   UNL     1      -9.446   2.907   6.271  1.00  0.00    -0.504 OA
ATOM     19  H   UNL     1      -9.432   3.656   6.955  1.00  0.00     0.293 HD
ENDBRANCH  15  18
BRANCH  17  20
ATOM     20  O   UNL     1      -8.258   2.428   8.739  1.00  0.00    -0.504 OA
ATOM     21  H   UNL     1      -9.067   3.029   8.844  1.00  0.00     0.293 HD
ENDBRANCH  17  20
ENDBRANCH   1  12
BRANCH   6  22
ATOM     22  O   UNL     1      -4.124  -6.256   8.628  1.00  0.00    -0.507 OA
ATOM     23  H   UNL     1      -3.129  -6.171   8.770  1.00  0.00     0.293 HD
ENDBRANCH   6  22
BRANCH   8  24
ATOM     24  O   UNL     1      -5.419  -6.982   4.081  1.00  0.00    -0.508 OA
ATOM     25  H   UNL     1      -6.236  -7.094   3.491  1.00  0.00     0.293 HD
ENDBRANCH   8  24
TORSDOF 5
ENDMDL
MODEL 9
REMARK VINA RESULT:    -6.825      2.069      3.832
REMARK INTER + INTRA:          -8.336
REMARK INTER:                  -8.064
REMARK INTRA:                  -0.272
REMARK UNBOUND:                -0.314
REMARK SMILES O=c1cc(-c2ccc(O)c(O)c2)oc2cc(O)cc(O)c12
REMARK SMILES IDX 4 1 3 2 2 3 1 4 21 5 19 6 18 7 16 8 15 9 14 10 13 11 5 12
REMARK SMILES IDX 6 13 7 14 8 15 12 16 10 17 9 18 11 20 20 22 17 24
REMARK H PARENT 9 19 11 21 20 23 17 25
REMARK Flexibility Score: inf
ROOT
ATOM      1  C   UNL     1      -6.738  -3.366   6.564  1.00  0.00     0.138 A 
ATOM      2  C   UNL     1      -6.697  -3.245   7.959  1.00  0.00     0.100 A 
ATOM      3  C   UNL     1      -7.117  -2.058   8.563  1.00  0.00     0.197 A 
ATOM      4  O   UNL     1      -7.016  -1.961   9.813  1.00  0.00    -0.289 OA
ATOM      5  C   UNL     1      -7.614  -1.001   7.765  1.00  0.00     0.107 A 
ATOM      6  C   UNL     1      -8.101   0.242   8.270  1.00  0.00     0.134 A 
ATOM      7  C   UNL     1      -8.476   1.253   7.375  1.00  0.00     0.093 A 
ATOM      8  C   UNL     1      -8.436   1.047   5.997  1.00  0.00     0.123 A 
ATOM      9  C   UNL     1      -8.009  -0.183   5.492  1.00  0.00     0.094 A 
ATOM     10  C   UNL     1      -7.596  -1.198   6.357  1.00  0.00     0.146 A 
ATOM     11  O   UNL     1      -7.180  -2.346   5.835  1.00  0.00    -0.456 OA
ENDROOT
BRANCH   1  12
ATOM     12  C   UNL     1      -6.308  -4.607   5.871  1.00  0.00     0.021 A 
ATOM     13  C   UNL     1      -7.180  -5.225   4.959  1.00  0.00     0.016 A 
ATOM     14  C   UNL     1      -6.797  -6.389   4.287  1.00  0.00     0.051 A 
ATOM     15  C   UNL     1      -5.533  -6.948   4.507  1.00  0.00     0.157 A 
ATOM     16  C   UNL     1      -5.032  -5.167   6.077  1.00  0.00     0.062 A 
ATOM     17  C   UNL     1      -4.648  -6.335   5.401  1.00  0.00     0.158 A 
BRANCH  15  18
ATOM     18  O   UNL     1      -5.148  -8.109   3.840  1.00  0.00    -0.504 OA
ATOM     19  H   UNL     1      -4.351  -8.657   4.145  1.00  0.00     0.293 HD
ENDBRANCH  15  18
BRANCH  17  20
ATOM     20  O   UNL     1      -3.385  -6.886   5.610  1.00  0.00    -0.504 OA
ATOM     21  H   UNL     1      -3.250  -7.692   6.209  1.00  0.00     0.293 HD
ENDBRANCH  17  20
ENDBRANCH   1  12
BRANCH   6  22
ATOM     22  O   UNL     1      -8.257   0.528   9.630  1.00  0.00    -0.507 OA
ATOM     23  H   UNL     1      -8.712   1.348  10.001  1.00  0.00     0.293 HD
ENDBRANCH   6  22
BRANCH   8  24
ATOM     24  O   UNL     1      -8.832   2.069   5.138  1.00  0.00    -0.508 OA
ATOM     25  H   UNL     1      -8.523   2.099   4.172  1.00  0.00     0.293 HD
ENDBRANCH   8  24
TORSDOF 5
ENDMDL
