MODEL 1
REMARK VINA RESULT:    -6.571      0.000      0.000
REMARK INTER + INTRA:          -8.016
REMARK INTER:                  -7.724
REMARK INTRA:                  -0.292
REMARK UNBOUND:                -0.292
REMARK SMILES O=c1c(O)c(-c2ccc(O)cc2)oc2cc(O)cc(O)c12
REMARK SMILES IDX 5 1 3 2 2 3 1 4 21 5 19 6 18 7 16 8 15 9 14 10 13 11 6 12
REMARK SMILES IDX 7 13 8 14 9 15 12 16 11 17 10 18 4 20 20 22 17 24
REMARK H PARENT 10 19 4 21 20 23 17 25
REMARK Flexibility Score: inf
ROOT
ATOM      1  C   UNL     1      14.293  56.220  32.751  1.00  0.00     0.180 A 
ATOM      2  C   UNL     1      14.018  56.098  31.378  1.00  0.00     0.208 A 
ATOM      3  C   UNL     1      14.491  57.086  30.500  1.00  0.00     0.238 A 
ATOM      4  O   UNL     1      14.195  57.000  29.279  1.00  0.00    -0.285 OA
ATOM      5  C   UNL     1      15.244  58.174  31.002  1.00  0.00     0.111 A 
ATOM      6  C   UNL     1      15.806  59.211  30.197  1.00  0.00     0.134 A 
ATOM      7  C   UNL     1      16.422  60.307  30.814  1.00  0.00     0.093 A 
ATOM      8  C   UNL     1      16.554  60.371  32.203  1.00  0.00     0.123 A 
ATOM      9  C   UNL     1      16.061  59.335  32.993  1.00  0.00     0.094 A 
ATOM     10  C   UNL     1      15.410  58.246  32.409  1.00  0.00     0.146 A 
ATOM     11  O   UNL     1      14.945  57.286  33.200  1.00  0.00    -0.452 OA
ENDROOT
BRANCH   1  12
ATOM     12  C   UNL     1      13.851  55.206  33.737  1.00  0.00     0.021 A 
ATOM     13  C   UNL     1      12.595  55.342  34.353  1.00  0.00     0.016 A 
ATOM     14  C   UNL     1      12.168  54.408  35.302  1.00  0.00     0.047 A 
ATOM     15  C   UNL     1      12.996  53.336  35.658  1.00  0.00     0.115 A 
ATOM     16  C   UNL     1      14.686  54.138  34.114  1.00  0.00     0.016 A 
ATOM     17  C   UNL     1      14.255  53.207  35.064  1.00  0.00     0.047 A 
BRANCH  15  18
ATOM     18  O   UNL     1      12.581  52.400  36.603  1.00  0.00    -0.508 OA
ATOM     19  H   UNL     1      12.875  51.432  36.553  1.00  0.00     0.293 HD
ENDBRANCH  15  18
ENDBRANCH   1  12
BRANCH   2  20
ATOM     20  O   UNL     1      13.253  55.027  30.906  1.00  0.00    -0.502 OA
ATOM     21  H   UNL     1      13.310  54.699  29.950  1.00  0.00     0.293 HD
ENDBRANCH   2  20
BRANCH   6  22
ATOM     22  O   UNL     1      15.810  59.198  28.800  1.00  0.00    -0.507 OA
ATOM     23  H   UNL     1      15.365  59.889  28.216  1.00  0.00     0.293 HD
ENDBRANCH   6  22
BRANCH   8  24
ATOM     24  O   UNL     1      17.182  61.457  32.808  1.00  0.00    -0.508 OA
ATOM     25  H   UNL     1      17.722  61.352  33.659  1.00  0.00     0.293 HD
ENDBRANCH   8  24
TORSDOF 5
ENDMDL
MODEL 2
REMARK VINA RESULT:    -5.774      2.166      6.488
REMARK INTER + INTRA:          -7.079
REMARK INTER:                  -6.783
REMARK INTRA:                  -0.296
REMARK UNBOUND:                -0.292
REMARK SMILES O=c1c(O)c(-c2ccc(O)cc2)oc2cc(O)cc(O)c12
REMARK SMILES IDX 5 1 3 2 2 3 1 4 21 5 19 6 18 7 16 8 15 9 14 10 13 11 6 12
REMARK SMILES IDX 7 13 8 14 9 15 12 16 11 17 10 18 4 20 20 22 17 24
REMARK H PARENT 10 19 4 21 20 23 17 25
REMARK Flexibility Score: inf
ROOT
ATOM      1  C   UNL     1      15.677  56.169  31.850  1.00  0.00     0.180 A 
ATOM      2  C   UNL     1      15.400  55.702  30.554  1.00  0.00     0.208 A 
ATOM      3  C   UNL     1      15.081  54.347  30.373  1.00  0.00     0.238 A 
ATOM      4  O   UNL     1      14.887  53.924  29.204  1.00  0.00    -0.285 OA
ATOM      5  C   UNL     1      15.028  53.480  31.490  1.00  0.00     0.111 A 
ATOM      6  C   UNL     1      14.676  52.098  31.427  1.00  0.00     0.134 A 
ATOM      7  C   UNL     1      14.783  51.305  32.577  1.00  0.00     0.093 A 
ATOM      8  C   UNL     1      15.166  51.860  33.801  1.00  0.00     0.123 A 
ATOM      9  C   UNL     1      15.454  53.219  33.885  1.00  0.00     0.094 A 
ATOM     10  C   UNL     1      15.391  54.029  32.747  1.00  0.00     0.146 A 
ATOM     11  O   UNL     1      15.684  55.318  32.869  1.00  0.00    -0.452 OA
ENDROOT
BRANCH   1  12
ATOM     12  C   UNL     1      15.997  57.589  32.125  1.00  0.00     0.021 A 
ATOM     13  C   UNL     1      17.338  58.008  32.134  1.00  0.00     0.016 A 
ATOM     14  C   UNL     1      17.663  59.339  32.413  1.00  0.00     0.047 A 
ATOM     15  C   UNL     1      16.652  60.265  32.702  1.00  0.00     0.115 A 
ATOM     16  C   UNL     1      14.989  58.521  32.436  1.00  0.00     0.016 A 
ATOM     17  C   UNL     1      15.317  59.850  32.715  1.00  0.00     0.047 A 
BRANCH  15  18
ATOM     18  O   UNL     1      16.964  61.593  32.981  1.00  0.00    -0.508 OA
ATOM     19  H   UNL     1      17.113  61.914  33.931  1.00  0.00     0.293 HD
ENDBRANCH  15  18
ENDBRANCH   1  12
BRANCH   2  20
ATOM     20  O   UNL     1      15.480  56.571  29.462  1.00  0.00    -0.502 OA
ATOM     21  H   UNL     1      14.854  56.505  28.668  1.00  0.00     0.293 HD
ENDBRANCH   2  20
BRANCH   6  22
ATOM     22  O   UNL     1      14.193  51.467  30.277  1.00  0.00    -0.507 OA
ATOM     23  H   UNL     1      13.349  51.727  29.790  1.00  0.00     0.293 HD
ENDBRANCH   6  22
BRANCH   8  24
ATOM     24  O   UNL     1      15.254  51.067  34.943  1.00  0.00    -0.508 OA
ATOM     25  H   UNL     1      15.142  50.060  34.900  1.00  0.00     0.293 HD
ENDBRANCH   8  24
TORSDOF 5
ENDMDL
MODEL 3
REMARK VINA RESULT:    -5.757      1.889      6.728
REMARK INTER + INTRA:          -7.059
REMARK INTER:                  -6.813
REMARK INTRA:                  -0.247
REMARK UNBOUND:                -0.292
REMARK SMILES O=c1c(O)c(-c2ccc(O)cc2)oc2cc(O)cc(O)c12
REMARK SMILES IDX 5 1 3 2 2 3 1 4 21 5 19 6 18 7 16 8 15 9 14 10 13 11 6 12
REMARK SMILES IDX 7 13 8 14 9 15 12 16 11 17 10 18 4 20 20 22 17 24
REMARK H PARENT 10 19 4 21 20 23 17 25
REMARK Flexibility Score: inf
ROOT
ATOM      1  C   UNL     1      14.798  57.342  32.776  1.00  0.00     0.180 A 
ATOM      2  C   UNL     1      13.421  57.310  33.050  1.00  0.00     0.208 A 
ATOM      3  C   UNL     1      12.844  56.112  33.502  1.00  0.00     0.238 A 
ATOM      4  O   UNL     1      11.601  56.075  33.694  1.00  0.00    -0.285 OA
ATOM      5  C   UNL     1      13.655  54.967  33.689  1.00  0.00     0.111 A 
ATOM      6  C   UNL     1      13.183  53.712  34.181  1.00  0.00     0.134 A 
ATOM      7  C   UNL     1      14.047  52.610  34.202  1.00  0.00     0.093 A 
ATOM      8  C   UNL     1      15.383  52.735  33.811  1.00  0.00     0.123 A 
ATOM      9  C   UNL     1      15.867  53.969  33.386  1.00  0.00     0.094 A 
ATOM     10  C   UNL     1      15.020  55.079  33.319  1.00  0.00     0.146 A 
ATOM     11  O   UNL     1      15.520  56.234  32.898  1.00  0.00    -0.452 OA
ENDROOT
BRANCH   1  12
ATOM     12  C   UNL     1      15.484  58.574  32.321  1.00  0.00     0.021 A 
ATOM     13  C   UNL     1      16.205  59.347  33.247  1.00  0.00     0.016 A 
ATOM     14  C   UNL     1      16.841  60.525  32.842  1.00  0.00     0.047 A 
ATOM     15  C   UNL     1      16.751  60.953  31.512  1.00  0.00     0.115 A 
ATOM     16  C   UNL     1      15.381  59.021  30.990  1.00  0.00     0.016 A 
ATOM     17  C   UNL     1      16.018  60.199  30.590  1.00  0.00     0.047 A 
BRANCH  15  18
ATOM     18  O   UNL     1      17.380  62.125  31.098  1.00  0.00    -0.508 OA
ATOM     19  H   UNL     1      17.496  62.913  31.725  1.00  0.00     0.293 HD
ENDBRANCH  15  18
ENDBRANCH   1  12
BRANCH   2  20
ATOM     20  O   UNL     1      12.635  58.447  32.837  1.00  0.00    -0.502 OA
ATOM     21  H   UNL     1      12.391  59.087  33.584  1.00  0.00     0.293 HD
ENDBRANCH   2  20
BRANCH   6  22
ATOM     22  O   UNL     1      11.895  53.505  34.682  1.00  0.00    -0.507 OA
ATOM     23  H   UNL     1      11.661  53.446  35.661  1.00  0.00     0.293 HD
ENDBRANCH   6  22
BRANCH   8  24
ATOM     24  O   UNL     1      16.239  51.637  33.851  1.00  0.00    -0.508 OA
ATOM     25  H   UNL     1      15.885  50.687  33.844  1.00  0.00     0.293 HD
ENDBRANCH   8  24
TORSDOF 5
ENDMDL
MODEL 4
REMARK VINA RESULT:    -5.584      1.570      1.988
REMARK INTER + INTRA:          -6.856
REMARK INTER:                  -6.599
REMARK INTRA:                  -0.257
REMARK UNBOUND:                -0.292
REMARK SMILES O=c1c(O)c(-c2ccc(O)cc2)oc2cc(O)cc(O)c12
REMARK SMILES IDX 5 1 3 2 2 3 1 4 21 5 19 6 18 7 16 8 15 9 14 10 13 11 6 12
REMARK SMILES IDX 7 13 8 14 9 15 12 16 11 17 10 18 4 20 20 22 17 24
REMARK H PARENT 10 19 4 21 20 23 17 25
REMARK Flexibility Score: inf
ROOT
ATOM      1  C   UNL     1      14.497  56.133  32.860  1.00  0.00     0.180 A 
ATOM      2  C   UNL     1      13.402  56.459  32.042  1.00  0.00     0.208 A 
ATOM      3  C   UNL     1      13.317  57.754  31.504  1.00  0.00     0.238 A 
ATOM      4  O   UNL     1      12.307  58.057  30.817  1.00  0.00    -0.285 OA
ATOM      5  C   UNL     1      14.335  58.699  31.778  1.00  0.00     0.111 A 
ATOM      6  C   UNL     1      14.370  60.026  31.253  1.00  0.00     0.134 A 
ATOM      7  C   UNL     1      15.356  60.917  31.695  1.00  0.00     0.093 A 
ATOM      8  C   UNL     1      16.346  60.509  32.593  1.00  0.00     0.123 A 
ATOM      9  C   UNL     1      16.354  59.199  33.065  1.00  0.00     0.094 A 
ATOM     10  C   UNL     1      15.362  58.297  32.670  1.00  0.00     0.146 A 
ATOM     11  O   UNL     1      15.401  57.060  33.152  1.00  0.00    -0.452 OA
ENDROOT
BRANCH   1  12
ATOM     12  C   UNL     1      14.670  54.782  33.443  1.00  0.00     0.021 A 
ATOM     13  C   UNL     1      15.525  53.861  32.814  1.00  0.00     0.016 A 
ATOM     14  C   UNL     1      15.686  52.574  33.335  1.00  0.00     0.047 A 
ATOM     15  C   UNL     1      14.982  52.185  34.482  1.00  0.00     0.115 A 
ATOM     16  C   UNL     1      13.951  54.378  34.583  1.00  0.00     0.016 A 
ATOM     17  C   UNL     1      14.114  53.089  35.101  1.00  0.00     0.047 A 
BRANCH  15  18
ATOM     18  O   UNL     1      15.135  50.905  35.010  1.00  0.00    -0.508 OA
ATOM     19  H   UNL     1      15.828  50.262  34.646  1.00  0.00     0.293 HD
ENDBRANCH  15  18
ENDBRANCH   1  12
BRANCH   2  20
ATOM     20  O   UNL     1      12.397  55.518  31.803  1.00  0.00    -0.502 OA
ATOM     21  H   UNL     1      11.515  55.763  31.370  1.00  0.00     0.293 HD
ENDBRANCH   2  20
BRANCH   6  22
ATOM     22  O   UNL     1      13.486  60.506  30.284  1.00  0.00    -0.507 OA
ATOM     23  H   UNL     1      12.507  60.266  30.229  1.00  0.00     0.293 HD
ENDBRANCH   6  22
BRANCH   8  24
ATOM     24  O   UNL     1      17.332  61.397  33.016  1.00  0.00    -0.508 OA
ATOM     25  H   UNL     1      17.167  62.397  33.047  1.00  0.00     0.293 HD
ENDBRANCH   8  24
TORSDOF 5
ENDMDL
MODEL 5
REMARK VINA RESULT:    -5.427      3.125      3.952
REMARK INTER + INTRA:          -6.671
REMARK INTER:                  -6.470
REMARK INTRA:                  -0.201
REMARK UNBOUND:                -0.292
REMARK SMILES O=c1c(O)c(-c2ccc(O)cc2)oc2cc(O)cc(O)c12
REMARK SMILES IDX 5 1 3 2 2 3 1 4 21 5 19 6 18 7 16 8 15 9 14 10 13 11 6 12
REMARK SMILES IDX 7 13 8 14 9 15 12 16 11 17 10 18 4 20 20 22 17 24
REMARK H PARENT 10 19 4 21 20 23 17 25
REMARK Flexibility Score: inf
ROOT
ATOM      1  C   UNL     1      14.267  53.902  32.134  1.00  0.00     0.180 A 
ATOM      2  C   UNL     1      13.226  54.607  32.761  1.00  0.00     0.208 A 
ATOM      3  C   UNL     1      13.345  55.997  32.922  1.00  0.00     0.238 A 
ATOM      4  O   UNL     1      12.434  56.615  33.532  1.00  0.00    -0.285 OA
ATOM      5  C   UNL     1      14.495  56.666  32.440  1.00  0.00     0.111 A 
ATOM      6  C   UNL     1      14.703  58.076  32.513  1.00  0.00     0.134 A 
ATOM      7  C   UNL     1      15.935  58.614  32.122  1.00  0.00     0.093 A 
ATOM      8  C   UNL     1      16.943  57.800  31.600  1.00  0.00     0.123 A 
ATOM      9  C   UNL     1      16.728  56.431  31.469  1.00  0.00     0.094 A 
ATOM     10  C   UNL     1      15.522  55.859  31.884  1.00  0.00     0.146 A 
ATOM     11  O   UNL     1      15.362  54.548  31.752  1.00  0.00    -0.452 OA
ENDROOT
BRANCH   1  12
ATOM     12  C   UNL     1      14.203  52.440  31.905  1.00  0.00     0.021 A 
ATOM     13  C   UNL     1      15.100  51.594  32.580  1.00  0.00     0.016 A 
ATOM     14  C   UNL     1      15.071  50.214  32.363  1.00  0.00     0.047 A 
ATOM     15  C   UNL     1      14.157  49.662  31.456  1.00  0.00     0.115 A 
ATOM     16  C   UNL     1      13.301  51.881  30.981  1.00  0.00     0.016 A 
ATOM     17  C   UNL     1      13.276  50.500  30.765  1.00  0.00     0.047 A 
BRANCH  15  18
ATOM     18  O   UNL     1      14.120  48.288  31.231  1.00  0.00    -0.508 OA
ATOM     19  H   UNL     1      14.340  47.626  31.965  1.00  0.00     0.293 HD
ENDBRANCH  15  18
ENDBRANCH   1  12
BRANCH   2  20
ATOM     20  O   UNL     1      12.108  53.924  33.250  1.00  0.00    -0.502 OA
ATOM     21  H   UNL     1      11.576  54.251  34.047  1.00  0.00     0.293 HD
ENDBRANCH   2  20
BRANCH   6  22
ATOM     22  O   UNL     1      13.729  58.987  32.932  1.00  0.00    -0.507 OA
ATOM     23  H   UNL     1      13.705  59.427  33.840  1.00  0.00     0.293 HD
ENDBRANCH   6  22
BRANCH   8  24
ATOM     24  O   UNL     1      18.161  58.346  31.199  1.00  0.00    -0.508 OA
ATOM     25  H   UNL     1      18.666  57.984  30.399  1.00  0.00     0.293 HD
ENDBRANCH   8  24
TORSDOF 5
ENDMDL
MODEL 6
REMARK VINA RESULT:    -5.242      6.595     10.251
REMARK INTER + INTRA:          -6.454
REMARK INTER:                  -6.179
REMARK INTRA:                  -0.275
REMARK UNBOUND:                -0.292
REMARK SMILES O=c1c(O)c(-c2ccc(O)cc2)oc2cc(O)cc(O)c12
REMARK SMILES IDX 5 1 3 2 2 3 1 4 21 5 19 6 18 7 16 8 15 9 14 10 13 11 6 12
REMARK SMILES IDX 7 13 8 14 9 15 12 16 11 17 10 18 4 20 20 22 17 24
REMARK H PARENT 10 19 4 21 20 23 17 25
REMARK Flexibility Score: inf
ROOT
ATOM      1  C   UNL     1      15.070  49.389  31.660  1.00  0.00     0.180 A 
ATOM      2  C   UNL     1      15.786  48.882  30.563  1.00  0.00     0.208 A 
ATOM      3  C   UNL     1      15.737  47.503  30.298  1.00  0.00     0.238 A 
ATOM      4  O   UNL     1      16.423  47.047  29.347  1.00  0.00    -0.285 OA
ATOM      5  C   UNL     1      14.963  46.654  31.124  1.00  0.00     0.111 A 
ATOM      6  C   UNL     1      14.811  45.248  30.924  1.00  0.00     0.134 A 
ATOM      7  C   UNL     1      14.126  44.486  31.878  1.00  0.00     0.093 A 
ATOM      8  C   UNL     1      13.532  45.088  32.991  1.00  0.00     0.123 A 
ATOM      9  C   UNL     1      13.625  46.466  33.163  1.00  0.00     0.094 A 
ATOM     10  C   UNL     1      14.333  47.250  32.247  1.00  0.00     0.146 A 
ATOM     11  O   UNL     1      14.406  48.559  32.455  1.00  0.00    -0.452 OA
ENDROOT
BRANCH   1  12
ATOM     12  C   UNL     1      15.050  50.834  31.988  1.00  0.00     0.021 A 
ATOM     13  C   UNL     1      15.834  51.313  33.052  1.00  0.00     0.016 A 
ATOM     14  C   UNL     1      15.814  52.669  33.392  1.00  0.00     0.047 A 
ATOM     15  C   UNL     1      14.998  53.560  32.684  1.00  0.00     0.115 A 
ATOM     16  C   UNL     1      14.218  51.732  31.295  1.00  0.00     0.016 A 
ATOM     17  C   UNL     1      14.200  53.087  31.638  1.00  0.00     0.047 A 
BRANCH  15  18
ATOM     18  O   UNL     1      14.970  54.913  33.015  1.00  0.00    -0.508 OA
ATOM     19  H   UNL     1      15.042  55.633  32.305  1.00  0.00     0.293 HD
ENDBRANCH  15  18
ENDBRANCH   1  12
BRANCH   2  20
ATOM     20  O   UNL     1      16.562  49.735  29.773  1.00  0.00    -0.502 OA
ATOM     21  H   UNL     1      17.312  49.396  29.183  1.00  0.00     0.293 HD
ENDBRANCH   2  20
BRANCH   6  22
ATOM     22  O   UNL     1      15.284  44.564  29.801  1.00  0.00    -0.507 OA
ATOM     23  H   UNL     1      14.705  44.052  29.153  1.00  0.00     0.293 HD
ENDBRANCH   6  22
BRANCH   8  24
ATOM     24  O   UNL     1      12.840  44.323  33.927  1.00  0.00    -0.508 OA
ATOM     25  H   UNL     1      13.239  44.104  34.832  1.00  0.00     0.293 HD
ENDBRANCH   8  24
TORSDOF 5
ENDMDL
MODEL 7
REMARK VINA RESULT:    -5.220      2.589      3.391
REMARK INTER + INTRA:          -6.428
REMARK INTER:                  -6.138
REMARK INTRA:                  -0.290
REMARK UNBOUND:                -0.292
REMARK SMILES O=c1c(O)c(-c2ccc(O)cc2)oc2cc(O)cc(O)c12
REMARK SMILES IDX 5 1 3 2 2 3 1 4 21 5 19 6 18 7 16 8 15 9 14 10 13 11 6 12
REMARK SMILES IDX 7 13 8 14 9 15 12 16 11 17 10 18 4 20 20 22 17 24
REMARK H PARENT 10 19 4 21 20 23 17 25
REMARK Flexibility Score: inf
ROOT
ATOM      1  C   UNL     1      15.119  56.356  32.245  1.00  0.00     0.180 A 
ATOM      2  C   UNL     1      16.191  57.085  31.703  1.00  0.00     0.208 A 
ATOM      3  C   UNL     1      16.115  58.487  31.675  1.00  0.00     0.238 A 
ATOM      4  O   UNL     1      17.054  59.132  31.139  1.00  0.00    -0.285 OA
ATOM      5  C   UNL     1      14.976  59.141  32.202  1.00  0.00     0.111 A 
ATOM      6  C   UNL     1      14.811  60.558  32.260  1.00  0.00     0.134 A 
ATOM      7  C   UNL     1      13.588  61.094  32.682  1.00  0.00     0.093 A 
ATOM      8  C   UNL     1      12.548  60.265  33.111  1.00  0.00     0.123 A 
ATOM      9  C   UNL     1      12.721  58.883  33.113  1.00  0.00     0.094 A 
ATOM     10  C   UNL     1      13.917  58.317  32.663  1.00  0.00     0.146 A 
ATOM     11  O   UNL     1      14.036  56.995  32.671  1.00  0.00    -0.452 OA
ENDROOT
BRANCH   1  12
ATOM     12  C   UNL     1      15.136  54.877  32.334  1.00  0.00     0.021 A 
ATOM     13  C   UNL     1      14.649  54.113  31.260  1.00  0.00     0.016 A 
ATOM     14  C   UNL     1      14.636  52.717  31.332  1.00  0.00     0.047 A 
ATOM     15  C   UNL     1      15.095  52.067  32.485  1.00  0.00     0.115 A 
ATOM     16  C   UNL     1      15.577  54.218  33.497  1.00  0.00     0.016 A 
ATOM     17  C   UNL     1      15.562  52.822  33.565  1.00  0.00     0.047 A 
BRANCH  15  18
ATOM     18  O   UNL     1      15.087  50.677  32.568  1.00  0.00    -0.508 OA
ATOM     19  H   UNL     1      15.205  50.199  33.453  1.00  0.00     0.293 HD
ENDBRANCH  15  18
ENDBRANCH   1  12
BRANCH   2  20
ATOM     20  O   UNL     1      17.297  56.417  31.168  1.00  0.00    -0.502 OA
ATOM     21  H   UNL     1      17.367  56.183  30.185  1.00  0.00     0.293 HD
ENDBRANCH   2  20
BRANCH   6  22
ATOM     22  O   UNL     1      15.817  61.475  31.944  1.00  0.00    -0.507 OA
ATOM     23  H   UNL     1      15.659  62.437  31.687  1.00  0.00     0.293 HD
ENDBRANCH   6  22
BRANCH   8  24
ATOM     24  O   UNL     1      11.340  60.807  33.544  1.00  0.00    -0.508 OA
ATOM     25  H   UNL     1      10.766  61.379  32.935  1.00  0.00     0.293 HD
ENDBRANCH   8  24
TORSDOF 5
ENDMDL
MODEL 8
REMARK VINA RESULT:    -5.106      2.740      6.598
REMARK INTER + INTRA:          -6.294
REMARK INTER:                  -5.999
REMARK INTRA:                  -0.295
REMARK UNBOUND:                -0.292
REMARK SMILES O=c1c(O)c(-c2ccc(O)cc2)oc2cc(O)cc(O)c12
REMARK SMILES IDX 5 1 3 2 2 3 1 4 21 5 19 6 18 7 16 8 15 9 14 10 13 11 6 12
REMARK SMILES IDX 7 13 8 14 9 15 12 16 11 17 10 18 4 20 20 22 17 24
REMARK H PARENT 10 19 4 21 20 23 17 25
REMARK Flexibility Score: inf
ROOT
ATOM      1  C   UNL     1      15.163  55.760  32.353  1.00  0.00     0.180 A 
ATOM      2  C   UNL     1      15.101  54.872  33.439  1.00  0.00     0.208 A 
ATOM      3  C   UNL     1      14.954  53.498  33.187  1.00  0.00     0.238 A 
ATOM      4  O   UNL     1      14.845  52.713  34.165  1.00  0.00    -0.285 OA
ATOM      5  C   UNL     1      14.887  53.030  31.853  1.00  0.00     0.111 A 
ATOM      6  C   UNL     1      14.778  51.656  31.481  1.00  0.00     0.134 A 
ATOM      7  C   UNL     1      14.588  51.317  30.135  1.00  0.00     0.093 A 
ATOM      8  C   UNL     1      14.568  52.300  29.142  1.00  0.00     0.123 A 
ATOM      9  C   UNL     1      14.733  53.638  29.489  1.00  0.00     0.094 A 
ATOM     10  C   UNL     1      14.888  54.010  30.827  1.00  0.00     0.146 A 
ATOM     11  O   UNL     1      15.031  55.298  31.115  1.00  0.00    -0.452 OA
ENDROOT
BRANCH   1  12
ATOM     12  C   UNL     1      15.342  57.219  32.537  1.00  0.00     0.021 A 
ATOM     13  C   UNL     1      14.219  58.064  32.511  1.00  0.00     0.016 A 
ATOM     14  C   UNL     1      14.369  59.446  32.661  1.00  0.00     0.047 A 
ATOM     15  C   UNL     1      15.644  60.003  32.823  1.00  0.00     0.115 A 
ATOM     16  C   UNL     1      16.622  57.788  32.680  1.00  0.00     0.016 A 
ATOM     17  C   UNL     1      16.767  59.170  32.829  1.00  0.00     0.047 A 
BRANCH  15  18
ATOM     18  O   UNL     1      15.805  61.378  32.973  1.00  0.00    -0.508 OA
ATOM     19  H   UNL     1      16.014  61.976  32.183  1.00  0.00     0.293 HD
ENDBRANCH  15  18
ENDBRANCH   1  12
BRANCH   2  20
ATOM     20  O   UNL     1      15.147  55.358  34.749  1.00  0.00    -0.502 OA
ATOM     21  H   UNL     1      15.614  54.860  35.498  1.00  0.00     0.293 HD
ENDBRANCH   2  20
BRANCH   6  22
ATOM     22  O   UNL     1      14.878  50.593  32.383  1.00  0.00    -0.507 OA
ATOM     23  H   UNL     1      15.248  49.682  32.160  1.00  0.00     0.293 HD
ENDBRANCH   6  22
BRANCH   8  24
ATOM     24  O   UNL     1      14.394  51.953  27.804  1.00  0.00    -0.508 OA
ATOM     25  H   UNL     1      14.148  51.009  27.528  1.00  0.00     0.293 HD
ENDBRANCH   8  24
TORSDOF 5
ENDMDL
MODEL 9
REMARK VINA RESULT:    -5.059      5.448      7.340
REMARK INTER + INTRA:          -6.239
REMARK INTER:                  -5.950
REMARK INTRA:                  -0.289
REMARK UNBOUND:                -0.292
REMARK SMILES O=c1c(O)c(-c2ccc(O)cc2)oc2cc(O)cc(O)c12
REMARK SMILES IDX 5 1 3 2 2 3 1 4 21 5 19 6 18 7 16 8 15 9 14 10 13 11 6 12
REMARK SMILES IDX 7 13 8 14 9 15 12 16 11 17 10 18 4 20 20 22 17 24
REMARK H PARENT 10 19 4 21 20 23 17 25
REMARK Flexibility Score: inf
ROOT
ATOM      1  C   UNL     1      14.856  50.200  31.155  1.00  0.00     0.180 A 
ATOM      2  C   UNL     1      13.602  50.534  30.616  1.00  0.00     0.208 A 
ATOM      3  C   UNL     1      12.959  51.701  31.060  1.00  0.00     0.238 A 
ATOM      4  O   UNL     1      11.813  51.966  30.614  1.00  0.00    -0.285 OA
ATOM      5  C   UNL     1      13.585  52.526  32.025  1.00  0.00     0.111 A 
ATOM      6  C   UNL     1      13.043  53.752  32.517  1.00  0.00     0.134 A 
ATOM      7  C   UNL     1      13.687  54.420  33.566  1.00  0.00     0.093 A 
ATOM      8  C   UNL     1      14.888  53.941  34.095  1.00  0.00     0.123 A 
ATOM      9  C   UNL     1      15.455  52.778  33.581  1.00  0.00     0.094 A 
ATOM     10  C   UNL     1      14.817  52.069  32.559  1.00  0.00     0.146 A 
ATOM     11  O   UNL     1      15.387  50.959  32.106  1.00  0.00    -0.452 OA
ENDROOT
BRANCH   1  12
ATOM     12  C   UNL     1      15.607  49.000  30.718  1.00  0.00     0.021 A 
ATOM     13  C   UNL     1      16.495  49.096  29.633  1.00  0.00     0.016 A 
ATOM     14  C   UNL     1      17.198  47.971  29.192  1.00  0.00     0.047 A 
ATOM     15  C   UNL     1      17.010  46.733  29.819  1.00  0.00     0.115 A 
ATOM     16  C   UNL     1      15.408  47.749  31.330  1.00  0.00     0.016 A 
ATOM     17  C   UNL     1      16.112  46.626  30.885  1.00  0.00     0.047 A 
BRANCH  15  18
ATOM     18  O   UNL     1      17.704  45.605  29.386  1.00  0.00    -0.508 OA
ATOM     19  H   UNL     1      18.325  45.097  30.005  1.00  0.00     0.293 HD
ENDBRANCH  15  18
ENDBRANCH   1  12
BRANCH   2  20
ATOM     20  O   UNL     1      12.992  49.693  29.680  1.00  0.00    -0.502 OA
ATOM     21  H   UNL     1      13.358  49.565  28.745  1.00  0.00     0.293 HD
ENDBRANCH   2  20
BRANCH   6  22
ATOM     22  O   UNL     1      11.900  54.365  31.995  1.00  0.00    -0.507 OA
ATOM     23  H   UNL     1      11.631  54.346  31.023  1.00  0.00     0.293 HD
ENDBRANCH   6  22
BRANCH   8  24
ATOM     24  O   UNL     1      15.530  54.620  35.128  1.00  0.00    -0.508 OA
ATOM     25  H   UNL     1      15.810  55.589  35.032  1.00  0.00     0.293 HD
ENDBRANCH   8  24
TORSDOF 5
ENDMDL
