MODEL 1
REMARK VINA RESULT:    -3.080      0.000      0.000
REMARK INTER + INTRA:         -10.375
REMARK INTER:                  -6.681
REMARK INTRA:                  -3.694
REMARK UNBOUND:                -3.694
REMARK SMILES CCCCCCCCCCCCCCCCCCCCCC(=O)[O-]
REMARK SMILES IDX 12 1 11 2 10 3 9 4 8 5 7 6 6 7 5 8 4 9 3 10 2 11 1 12 13 13
REMARK SMILES IDX 14 14 15 15 16 16 17 17 18 18 19 19 20 20 21 21 22 22 23 23
REMARK SMILES IDX 24 24
REMARK H PARENT
REMARK Flexibility Score: inf
ROOT
ATOM      1  C   UNL     1     -27.476  65.603  85.759  1.00  0.00     0.000 C 
ENDROOT
BRANCH   1   2
ATOM      2  C   UNL     1     -27.099  66.619  84.662  1.00  0.00     0.000 C 
BRANCH   2   3
ATOM      3  C   UNL     1     -28.248  67.543  84.210  1.00  0.00     0.000 C 
BRANCH   3   4
ATOM      4  C   UNL     1     -28.847  67.211  82.830  1.00  0.00    -0.000 C 
BRANCH   4   5
ATOM      5  C   UNL     1     -27.874  66.541  81.844  1.00  0.00    -0.000 C 
BRANCH   5   6
ATOM      6  C   UNL     1     -28.356  65.160  81.378  1.00  0.00    -0.000 C 
BRANCH   6   7
ATOM      7  C   UNL     1     -29.735  64.832  81.965  1.00  0.00    -0.000 C 
BRANCH   7   8
ATOM      8  C   UNL     1     -29.734  63.549  82.815  1.00  0.00    -0.000 C 
BRANCH   8   9
ATOM      9  C   UNL     1     -28.373  63.242  83.471  1.00  0.00    -0.000 C 
BRANCH   9  10
ATOM     10  C   UNL     1     -28.459  62.071  84.462  1.00  0.00    -0.000 C 
BRANCH  10  11
ATOM     11  C   UNL     1     -27.265  61.125  84.301  1.00  0.00    -0.003 C 
ATOM     12  C   UNL     1     -27.521  60.102  83.200  1.00  0.00     0.004 C 
ENDBRANCH  10  11
ENDBRANCH   9  10
ENDBRANCH   8   9
ENDBRANCH   7   8
ENDBRANCH   6   7
ENDBRANCH   5   6
ENDBRANCH   4   5
ENDBRANCH   3   4
ENDBRANCH   2   3
ENDBRANCH   1   2
BRANCH   1  13
ATOM     13  C   UNL     1     -28.725  65.975  86.584  1.00  0.00     0.000 C 
BRANCH  13  14
ATOM     14  C   UNL     1     -29.816  64.887  86.640  1.00  0.00     0.000 C 
BRANCH  14  15
ATOM     15  C   UNL     1     -30.877  64.967  85.525  1.00  0.00     0.000 C 
BRANCH  15  16
ATOM     16  C   UNL     1     -31.443  66.375  85.266  1.00  0.00     0.000 C 
BRANCH  16  17
ATOM     17  C   UNL     1     -32.275  66.910  86.443  1.00  0.00     0.000 C 
BRANCH  17  18
ATOM     18  C   UNL     1     -31.618  68.157  87.053  1.00  0.00     0.000 C 
BRANCH  18  19
ATOM     19  C   UNL     1     -30.880  69.008  86.006  1.00  0.00     0.000 C 
BRANCH  19  20
ATOM     20  C   UNL     1     -29.612  69.666  86.574  1.00  0.00     0.006 C 
BRANCH  20  21
ATOM     21  C   UNL     1     -29.341  69.244  88.025  1.00  0.00     0.053 C 
BRANCH  21  22
ATOM     22  C   UNL     1     -27.893  68.947  88.266  1.00  0.00     0.041 C 
ATOM     23  O   UNL     1     -27.070  68.984  87.313  1.00  0.00    -0.550 OA
ATOM     24  O   UNL     1     -27.449  68.635  89.543  1.00  0.00    -0.550 OA
ENDBRANCH  21  22
ENDBRANCH  20  21
ENDBRANCH  19  20
ENDBRANCH  18  19
ENDBRANCH  17  18
ENDBRANCH  16  17
ENDBRANCH  15  16
ENDBRANCH  14  15
ENDBRANCH  13  14
ENDBRANCH   1  13
TORSDOF 20
ENDMDL
MODEL 2
REMARK VINA RESULT:    -2.964      2.665      6.724
REMARK INTER + INTRA:         -10.125
REMARK INTER:                  -7.229
REMARK INTRA:                  -2.895
REMARK UNBOUND:                -3.694
REMARK SMILES CCCCCCCCCCCCCCCCCCCCCC(=O)[O-]
REMARK SMILES IDX 12 1 11 2 10 3 9 4 8 5 7 6 6 7 5 8 4 9 3 10 2 11 1 12 13 13
REMARK SMILES IDX 14 14 15 15 16 16 17 17 18 18 19 19 20 20 21 21 22 22 23 23
REMARK SMILES IDX 24 24
REMARK H PARENT
REMARK Flexibility Score: inf
ROOT
ATOM      1  C   UNL     1     -28.681  65.777  86.693  1.00  0.00     0.000 C 
ENDROOT
BRANCH   1   2
ATOM      2  C   UNL     1     -29.704  64.634  86.854  1.00  0.00     0.000 C 
BRANCH   2   3
ATOM      3  C   UNL     1     -30.854  64.643  85.828  1.00  0.00     0.000 C 
BRANCH   3   4
ATOM      4  C   UNL     1     -31.242  66.036  85.295  1.00  0.00    -0.000 C 
BRANCH   4   5
ATOM      5  C   UNL     1     -32.396  66.720  86.047  1.00  0.00    -0.000 C 
BRANCH   5   6
ATOM      6  C   UNL     1     -31.908  67.729  87.096  1.00  0.00    -0.000 C 
BRANCH   6   7
ATOM      7  C   UNL     1     -32.254  69.165  86.680  1.00  0.00    -0.000 C 
BRANCH   7   8
ATOM      8  C   UNL     1     -31.008  70.036  86.442  1.00  0.00    -0.000 C 
BRANCH   8   9
ATOM      9  C   UNL     1     -29.679  69.263  86.564  1.00  0.00    -0.000 C 
BRANCH   9  10
ATOM     10  C   UNL     1     -28.877  69.685  87.804  1.00  0.00    -0.000 C 
BRANCH  10  11
ATOM     11  C   UNL     1     -27.745  68.692  88.091  1.00  0.00    -0.003 C 
ATOM     12  C   UNL     1     -27.491  68.569  89.589  1.00  0.00     0.004 C 
ENDBRANCH  10  11
ENDBRANCH   9  10
ENDBRANCH   8   9
ENDBRANCH   7   8
ENDBRANCH   6   7
ENDBRANCH   5   6
ENDBRANCH   4   5
ENDBRANCH   3   4
ENDBRANCH   2   3
ENDBRANCH   1   2
BRANCH   1  13
ATOM     13  C   UNL     1     -27.624  65.551  85.593  1.00  0.00     0.000 C 
BRANCH  13  14
ATOM     14  C   UNL     1     -27.054  66.837  84.964  1.00  0.00     0.000 C 
BRANCH  14  15
ATOM     15  C   UNL     1     -28.099  67.767  84.316  1.00  0.00     0.000 C 
BRANCH  15  16
ATOM     16  C   UNL     1     -28.883  67.149  83.145  1.00  0.00     0.000 C 
BRANCH  16  17
ATOM     17  C   UNL     1     -27.968  66.608  82.034  1.00  0.00     0.000 C 
BRANCH  17  18
ATOM     18  C   UNL     1     -28.278  65.133  81.742  1.00  0.00     0.000 C 
BRANCH  18  19
ATOM     19  C   UNL     1     -29.233  64.514  82.776  1.00  0.00     0.000 C 
BRANCH  19  20
ATOM     20  C   UNL     1     -29.120  62.982  82.835  1.00  0.00     0.006 C 
BRANCH  20  21
ATOM     21  C   UNL     1     -28.520  62.495  84.162  1.00  0.00     0.053 C 
BRANCH  21  22
ATOM     22  C   UNL     1     -27.601  61.327  83.972  1.00  0.00     0.041 C 
ATOM     23  O   UNL     1     -26.575  61.203  84.693  1.00  0.00    -0.550 OA
ATOM     24  O   UNL     1     -27.879  60.373  83.004  1.00  0.00    -0.550 OA
ENDBRANCH  21  22
ENDBRANCH  20  21
ENDBRANCH  19  20
ENDBRANCH  18  19
ENDBRANCH  17  18
ENDBRANCH  16  17
ENDBRANCH  15  16
ENDBRANCH  14  15
ENDBRANCH  13  14
ENDBRANCH   1  13
TORSDOF 20
ENDMDL
MODEL 3
REMARK VINA RESULT:    -2.918      0.399      1.259
REMARK INTER + INTRA:         -10.025
REMARK INTER:                  -6.929
REMARK INTRA:                  -3.096
REMARK UNBOUND:                -3.694
REMARK SMILES CCCCCCCCCCCCCCCCCCCCCC(=O)[O-]
REMARK SMILES IDX 12 1 11 2 10 3 9 4 8 5 7 6 6 7 5 8 4 9 3 10 2 11 1 12 13 13
REMARK SMILES IDX 14 14 15 15 16 16 17 17 18 18 19 19 20 20 21 21 22 22 23 23
REMARK SMILES IDX 24 24
REMARK H PARENT
REMARK Flexibility Score: inf
ROOT
ATOM      1  C   UNL     1     -28.717  65.886  86.595  1.00  0.00     0.000 C 
ENDROOT
BRANCH   1   2
ATOM      2  C   UNL     1     -27.468  65.595  85.739  1.00  0.00     0.000 C 
BRANCH   2   3
ATOM      3  C   UNL     1     -27.078  66.717  84.757  1.00  0.00     0.000 C 
BRANCH   3   4
ATOM      4  C   UNL     1     -28.246  67.603  84.281  1.00  0.00    -0.000 C 
BRANCH   4   5
ATOM      5  C   UNL     1     -28.879  67.179  82.945  1.00  0.00    -0.000 C 
BRANCH   5   6
ATOM      6  C   UNL     1     -27.859  66.585  81.965  1.00  0.00    -0.000 C 
BRANCH   6   7
ATOM      7  C   UNL     1     -28.260  65.164  81.548  1.00  0.00    -0.000 C 
BRANCH   7   8
ATOM      8  C   UNL     1     -29.649  64.755  82.071  1.00  0.00    -0.000 C 
BRANCH   8   9
ATOM      9  C   UNL     1     -29.621  63.533  83.010  1.00  0.00    -0.000 C 
BRANCH   9  10
ATOM     10  C   UNL     1     -28.199  63.201  83.486  1.00  0.00    -0.000 C 
BRANCH  10  11
ATOM     11  C   UNL     1     -28.210  62.037  84.483  1.00  0.00    -0.003 C 
ATOM     12  C   UNL     1     -27.395  60.859  83.960  1.00  0.00     0.004 C 
ENDBRANCH  10  11
ENDBRANCH   9  10
ENDBRANCH   8   9
ENDBRANCH   7   8
ENDBRANCH   6   7
ENDBRANCH   5   6
ENDBRANCH   4   5
ENDBRANCH   3   4
ENDBRANCH   2   3
ENDBRANCH   1   2
BRANCH   1  13
ATOM     13  C   UNL     1     -29.696  64.702  86.735  1.00  0.00     0.000 C 
BRANCH  13  14
ATOM     14  C   UNL     1     -30.869  64.706  85.734  1.00  0.00     0.000 C 
BRANCH  14  15
ATOM     15  C   UNL     1     -31.309  66.100  85.248  1.00  0.00     0.000 C 
BRANCH  15  16
ATOM     16  C   UNL     1     -32.445  66.745  86.062  1.00  0.00     0.000 C 
BRANCH  16  17
ATOM     17  C   UNL     1     -31.931  67.667  87.179  1.00  0.00     0.000 C 
BRANCH  17  18
ATOM     18  C   UNL     1     -32.113  69.143  86.796  1.00  0.00     0.000 C 
BRANCH  18  19
ATOM     19  C   UNL     1     -30.848  69.750  86.167  1.00  0.00     0.000 C 
BRANCH  19  20
ATOM     20  C   UNL     1     -29.565  69.041  86.631  1.00  0.00     0.006 C 
BRANCH  20  21
ATOM     21  C   UNL     1     -29.117  69.506  88.024  1.00  0.00     0.053 C 
BRANCH  21  22
ATOM     22  C   UNL     1     -27.758  68.988  88.383  1.00  0.00     0.041 C 
ATOM     23  O   UNL     1     -26.861  68.894  87.503  1.00  0.00    -0.550 OA
ATOM     24  O   UNL     1     -27.479  68.614  89.690  1.00  0.00    -0.550 OA
ENDBRANCH  21  22
ENDBRANCH  20  21
ENDBRANCH  19  20
ENDBRANCH  18  19
ENDBRANCH  17  18
ENDBRANCH  16  17
ENDBRANCH  15  16
ENDBRANCH  14  15
ENDBRANCH  13  14
ENDBRANCH   1  13
TORSDOF 20
ENDMDL
MODEL 4
REMARK VINA RESULT:    -2.886      2.764      6.030
REMARK INTER + INTRA:          -9.955
REMARK INTER:                  -7.012
REMARK INTRA:                  -2.943
REMARK UNBOUND:                -3.694
REMARK SMILES CCCCCCCCCCCCCCCCCCCCCC(=O)[O-]
REMARK SMILES IDX 12 1 11 2 10 3 9 4 8 5 7 6 6 7 5 8 4 9 3 10 2 11 1 12 13 13
REMARK SMILES IDX 14 14 15 15 16 16 17 17 18 18 19 19 20 20 21 21 22 22 23 23
REMARK SMILES IDX 24 24
REMARK H PARENT
REMARK Flexibility Score: inf
ROOT
ATOM      1  C   UNL     1     -26.383  67.418  85.368  1.00  0.00     0.000 C 
ENDROOT
BRANCH   1   2
ATOM      2  C   UNL     1     -26.971  68.726  85.933  1.00  0.00     0.000 C 
BRANCH   2   3
ATOM      3  C   UNL     1     -27.510  68.627  87.373  1.00  0.00     0.000 C 
BRANCH   3   4
ATOM      4  C   UNL     1     -29.032  68.824  87.515  1.00  0.00    -0.000 C 
BRANCH   4   5
ATOM      5  C   UNL     1     -29.741  69.335  86.250  1.00  0.00    -0.000 C 
BRANCH   5   6
ATOM      6  C   UNL     1     -31.270  69.227  86.339  1.00  0.00    -0.000 C 
BRANCH   6   7
ATOM      7  C   UNL     1     -31.690  67.925  87.033  1.00  0.00    -0.000 C 
BRANCH   7   8
ATOM      8  C   UNL     1     -32.244  66.875  86.054  1.00  0.00    -0.000 C 
BRANCH   8   9
ATOM      9  C   UNL     1     -31.174  65.900  85.524  1.00  0.00    -0.000 C 
BRANCH   9  10
ATOM     10  C   UNL     1     -29.994  65.750  86.496  1.00  0.00    -0.000 C 
BRANCH  10  11
ATOM     11  C   UNL     1     -29.627  64.275  86.693  1.00  0.00    -0.003 C 
ATOM     12  C   UNL     1     -30.794  63.366  86.324  1.00  0.00     0.004 C 
ENDBRANCH  10  11
ENDBRANCH   9  10
ENDBRANCH   8   9
ENDBRANCH   7   8
ENDBRANCH   6   7
ENDBRANCH   5   6
ENDBRANCH   4   5
ENDBRANCH   3   4
ENDBRANCH   2   3
ENDBRANCH   1   2
BRANCH   1  13
ATOM     13  C   UNL     1     -27.356  66.592  84.502  1.00  0.00     0.000 C 
BRANCH  13  14
ATOM     14  C   UNL     1     -28.517  67.395  83.882  1.00  0.00     0.000 C 
BRANCH  14  15
ATOM     15  C   UNL     1     -28.787  67.109  82.391  1.00  0.00     0.000 C 
BRANCH  15  16
ATOM     16  C   UNL     1     -27.720  66.251  81.690  1.00  0.00     0.000 C 
BRANCH  16  17
ATOM     17  C   UNL     1     -28.270  64.907  81.187  1.00  0.00     0.000 C 
BRANCH  17  18
ATOM     18  C   UNL     1     -29.716  64.697  81.661  1.00  0.00     0.000 C 
BRANCH  18  19
ATOM     19  C   UNL     1     -29.802  63.829  82.927  1.00  0.00     0.000 C 
BRANCH  19  20
ATOM     20  C   UNL     1     -28.442  63.226  83.317  1.00  0.00     0.006 C 
BRANCH  20  21
ATOM     21  C   UNL     1     -28.594  61.931  84.128  1.00  0.00     0.053 C 
BRANCH  21  22
ATOM     22  C   UNL     1     -27.412  61.024  83.972  1.00  0.00     0.041 C 
ATOM     23  O   UNL     1     -26.402  61.164  84.712  1.00  0.00    -0.550 OA
ATOM     24  O   UNL     1     -27.426  60.022  83.012  1.00  0.00    -0.550 OA
ENDBRANCH  21  22
ENDBRANCH  20  21
ENDBRANCH  19  20
ENDBRANCH  18  19
ENDBRANCH  17  18
ENDBRANCH  16  17
ENDBRANCH  15  16
ENDBRANCH  14  15
ENDBRANCH  13  14
ENDBRANCH   1  13
TORSDOF 20
ENDMDL
MODEL 5
REMARK VINA RESULT:    -2.872      2.268      4.322
REMARK INTER + INTRA:          -9.925
REMARK INTER:                  -7.656
REMARK INTRA:                  -2.270
REMARK UNBOUND:                -3.694
REMARK SMILES CCCCCCCCCCCCCCCCCCCCCC(=O)[O-]
REMARK SMILES IDX 12 1 11 2 10 3 9 4 8 5 7 6 6 7 5 8 4 9 3 10 2 11 1 12 13 13
REMARK SMILES IDX 14 14 15 15 16 16 17 17 18 18 19 19 20 20 21 21 22 22 23 23
REMARK SMILES IDX 24 24
REMARK H PARENT
REMARK Flexibility Score: inf
ROOT
ATOM      1  C   UNL     1     -28.243  66.706  81.929  1.00  0.00     0.000 C 
ENDROOT
BRANCH   1   2
ATOM      2  C   UNL     1     -28.279  65.178  81.727  1.00  0.00     0.000 C 
BRANCH   2   3
ATOM      3  C   UNL     1     -29.633  64.513  82.043  1.00  0.00     0.000 C 
BRANCH   3   4
ATOM      4  C   UNL     1     -29.561  63.308  83.000  1.00  0.00    -0.000 C 
BRANCH   4   5
ATOM      5  C   UNL     1     -28.205  63.115  83.699  1.00  0.00    -0.000 C 
BRANCH   5   6
ATOM      6  C   UNL     1     -28.143  61.828  84.535  1.00  0.00    -0.000 C 
BRANCH   6   7
ATOM      7  C   UNL     1     -27.214  60.795  83.884  1.00  0.00    -0.000 C 
BRANCH   7   8
ATOM      8  C   UNL     1     -27.909  59.972  82.785  1.00  0.00    -0.000 C 
BRANCH   8   9
ATOM      9  C   UNL     1     -27.185  58.652  82.449  1.00  0.00    -0.000 C 
BRANCH   9  10
ATOM     10  C   UNL     1     -26.388  58.109  83.645  1.00  0.00    -0.000 C 
BRANCH  10  11
ATOM     11  C   UNL     1     -26.217  56.590  83.548  1.00  0.00    -0.003 C 
ATOM     12  C   UNL     1     -24.908  56.143  84.189  1.00  0.00     0.004 C 
ENDBRANCH  10  11
ENDBRANCH   9  10
ENDBRANCH   8   9
ENDBRANCH   7   8
ENDBRANCH   6   7
ENDBRANCH   5   6
ENDBRANCH   4   5
ENDBRANCH   3   4
ENDBRANCH   2   3
ENDBRANCH   1   2
BRANCH   1  13
ATOM     13  C   UNL     1     -28.455  67.172  83.384  1.00  0.00     0.000 C 
BRANCH  13  14
ATOM     14  C   UNL     1     -27.574  66.460  84.430  1.00  0.00     0.000 C 
BRANCH  14  15
ATOM     15  C   UNL     1     -26.657  67.387  85.252  1.00  0.00     0.000 C 
BRANCH  15  16
ATOM     16  C   UNL     1     -27.341  68.643  85.819  1.00  0.00     0.000 C 
BRANCH  16  17
ATOM     17  C   UNL     1     -28.224  68.343  87.041  1.00  0.00     0.000 C 
BRANCH  17  18
ATOM     18  C   UNL     1     -29.604  68.999  86.893  1.00  0.00     0.000 C 
BRANCH  18  19
ATOM     19  C   UNL     1     -30.476  68.308  85.831  1.00  0.00     0.000 C 
BRANCH  19  20
ATOM     20  C   UNL     1     -31.273  67.127  86.406  1.00  0.00     0.006 C 
BRANCH  20  21
ATOM     21  C   UNL     1     -31.111  65.853  85.564  1.00  0.00     0.053 C 
BRANCH  21  22
ATOM     22  C   UNL     1     -30.306  64.806  86.271  1.00  0.00     0.041 C 
ATOM     23  O   UNL     1     -29.272  65.128  86.914  1.00  0.00    -0.550 OA
ATOM     24  O   UNL     1     -30.701  63.477  86.226  1.00  0.00    -0.550 OA
ENDBRANCH  21  22
ENDBRANCH  20  21
ENDBRANCH  19  20
ENDBRANCH  18  19
ENDBRANCH  17  18
ENDBRANCH  16  17
ENDBRANCH  15  16
ENDBRANCH  14  15
ENDBRANCH  13  14
ENDBRANCH   1  13
TORSDOF 20
ENDMDL
MODEL 6
REMARK VINA RESULT:    -2.855      2.623      5.451
REMARK INTER + INTRA:          -9.888
REMARK INTER:                  -7.134
REMARK INTRA:                  -2.754
REMARK UNBOUND:                -3.694
REMARK SMILES CCCCCCCCCCCCCCCCCCCCCC(=O)[O-]
REMARK SMILES IDX 12 1 11 2 10 3 9 4 8 5 7 6 6 7 5 8 4 9 3 10 2 11 1 12 13 13
REMARK SMILES IDX 14 14 15 15 16 16 17 17 18 18 19 19 20 20 21 21 22 22 23 23
REMARK SMILES IDX 24 24
REMARK H PARENT
REMARK Flexibility Score: inf
ROOT
ATOM      1  C   UNL     1     -30.017  69.389  86.282  1.00  0.00     0.000 C 
ENDROOT
BRANCH   1   2
ATOM      2  C   UNL     1     -31.540  69.237  86.473  1.00  0.00     0.000 C 
BRANCH   2   3
ATOM      3  C   UNL     1     -31.994  67.863  87.001  1.00  0.00     0.000 C 
BRANCH   3   4
ATOM      4  C   UNL     1     -32.340  66.828  85.912  1.00  0.00    -0.000 C 
BRANCH   4   5
ATOM      5  C   UNL     1     -31.154  65.981  85.422  1.00  0.00    -0.000 C 
BRANCH   5   6
ATOM      6  C   UNL     1     -30.086  65.768  86.504  1.00  0.00    -0.000 C 
BRANCH   6   7
ATOM      7  C   UNL     1     -29.794  64.276  86.704  1.00  0.00    -0.000 C 
BRANCH   7   8
ATOM      8  C   UNL     1     -30.520  63.381  85.683  1.00  0.00    -0.000 C 
BRANCH   8   9
ATOM      9  C   UNL     1     -29.709  62.141  85.261  1.00  0.00    -0.000 C 
BRANCH   9  10
ATOM     10  C   UNL     1     -28.677  62.468  84.171  1.00  0.00    -0.000 C 
BRANCH  10  11
ATOM     11  C   UNL     1     -27.418  61.609  84.330  1.00  0.00    -0.003 C 
ATOM     12  C   UNL     1     -27.483  60.370  83.445  1.00  0.00     0.004 C 
ENDBRANCH  10  11
ENDBRANCH   9  10
ENDBRANCH   8   9
ENDBRANCH   7   8
ENDBRANCH   6   7
ENDBRANCH   5   6
ENDBRANCH   4   5
ENDBRANCH   3   4
ENDBRANCH   2   3
ENDBRANCH   1   2
BRANCH   1  13
ATOM     13  C   UNL     1     -29.170  69.014  87.516  1.00  0.00     0.000 C 
BRANCH  13  14
ATOM     14  C   UNL     1     -27.742  68.526  87.200  1.00  0.00     0.000 C 
BRANCH  14  15
ATOM     15  C   UNL     1     -27.415  68.387  85.700  1.00  0.00     0.000 C 
BRANCH  15  16
ATOM     16  C   UNL     1     -26.757  67.054  85.299  1.00  0.00     0.000 C 
BRANCH  16  17
ATOM     17  C   UNL     1     -27.600  66.250  84.297  1.00  0.00     0.000 C 
BRANCH  17  18
ATOM     18  C   UNL     1     -28.429  67.186  83.405  1.00  0.00     0.000 C 
BRANCH  18  19
ATOM     19  C   UNL     1     -28.223  66.908  81.907  1.00  0.00     0.000 C 
BRANCH  19  20
ATOM     20  C   UNL     1     -27.956  65.422  81.618  1.00  0.00     0.006 C 
BRANCH  20  21
ATOM     21  C   UNL     1     -28.931  64.849  80.579  1.00  0.00     0.053 C 
BRANCH  21  22
ATOM     22  C   UNL     1     -30.192  64.340  81.208  1.00  0.00     0.041 C 
ATOM     23  O   UNL     1     -30.376  64.458  82.448  1.00  0.00    -0.550 OA
ATOM     24  O   UNL     1     -31.168  63.740  80.424  1.00  0.00    -0.550 OA
ENDBRANCH  21  22
ENDBRANCH  20  21
ENDBRANCH  19  20
ENDBRANCH  18  19
ENDBRANCH  17  18
ENDBRANCH  16  17
ENDBRANCH  15  16
ENDBRANCH  14  15
ENDBRANCH  13  14
ENDBRANCH   1  13
TORSDOF 20
ENDMDL
MODEL 7
REMARK VINA RESULT:    -2.770      2.862      5.310
REMARK INTER + INTRA:          -9.704
REMARK INTER:                  -7.026
REMARK INTRA:                  -2.678
REMARK UNBOUND:                -3.694
REMARK SMILES CCCCCCCCCCCCCCCCCCCCCC(=O)[O-]
REMARK SMILES IDX 12 1 11 2 10 3 9 4 8 5 7 6 6 7 5 8 4 9 3 10 2 11 1 12 13 13
REMARK SMILES IDX 14 14 15 15 16 16 17 17 18 18 19 19 20 20 21 21 22 22 23 23
REMARK SMILES IDX 24 24
REMARK H PARENT
REMARK Flexibility Score: inf
ROOT
ATOM      1  C   UNL     1     -28.859  68.441  87.369  1.00  0.00     0.000 C 
ENDROOT
BRANCH   1   2
ATOM      2  C   UNL     1     -27.556  69.075  87.898  1.00  0.00     0.000 C 
BRANCH   2   3
ATOM      3  C   UNL     1     -26.359  69.000  86.931  1.00  0.00     0.000 C 
BRANCH   3   4
ATOM      4  C   UNL     1     -26.714  68.618  85.480  1.00  0.00    -0.000 C 
BRANCH   4   5
ATOM      5  C   UNL     1     -26.371  67.171  85.087  1.00  0.00    -0.000 C 
BRANCH   5   6
ATOM      6  C   UNL     1     -27.585  66.393  84.560  1.00  0.00    -0.000 C 
BRANCH   6   7
ATOM      7  C   UNL     1     -28.537  67.316  83.788  1.00  0.00    -0.000 C 
BRANCH   7   8
ATOM      8  C   UNL     1     -28.658  66.943  82.300  1.00  0.00    -0.000 C 
BRANCH   8   9
ATOM      9  C   UNL     1     -28.014  65.587  81.948  1.00  0.00    -0.000 C 
BRANCH   9  10
ATOM     10  C   UNL     1     -28.865  64.783  80.953  1.00  0.00    -0.000 C 
BRANCH  10  11
ATOM     11  C   UNL     1     -30.115  64.215  81.632  1.00  0.00    -0.003 C 
ATOM     12  C   UNL     1     -31.207  63.918  80.611  1.00  0.00     0.004 C 
ENDBRANCH  10  11
ENDBRANCH   9  10
ENDBRANCH   8   9
ENDBRANCH   7   8
ENDBRANCH   6   7
ENDBRANCH   5   6
ENDBRANCH   4   5
ENDBRANCH   3   4
ENDBRANCH   2   3
ENDBRANCH   1   2
BRANCH   1  13
ATOM     13  C   UNL     1     -29.869  69.443  86.773  1.00  0.00     0.000 C 
BRANCH  13  14
ATOM     14  C   UNL     1     -30.991  68.809  85.926  1.00  0.00     0.000 C 
BRANCH  14  15
ATOM     15  C   UNL     1     -31.655  67.564  86.547  1.00  0.00     0.000 C 
BRANCH  15  16
ATOM     16  C   UNL     1     -31.331  66.234  85.843  1.00  0.00     0.000 C 
BRANCH  16  17
ATOM     17  C   UNL     1     -30.157  65.485  86.493  1.00  0.00     0.000 C 
BRANCH  17  18
ATOM     18  C   UNL     1     -30.380  63.966  86.437  1.00  0.00     0.000 C 
BRANCH  18  19
ATOM     19  C   UNL     1     -30.084  63.377  85.048  1.00  0.00     0.000 C 
BRANCH  19  20
ATOM     20  C   UNL     1     -28.634  62.882  84.918  1.00  0.00     0.006 C 
BRANCH  20  21
ATOM     21  C   UNL     1     -28.401  62.108  83.613  1.00  0.00     0.053 C 
BRANCH  21  22
ATOM     22  C   UNL     1     -27.421  60.988  83.788  1.00  0.00     0.041 C 
ATOM     23  O   UNL     1     -27.488  59.966  83.055  1.00  0.00    -0.550 OA
ATOM     24  O   UNL     1     -26.430  61.075  84.755  1.00  0.00    -0.550 OA
ENDBRANCH  21  22
ENDBRANCH  20  21
ENDBRANCH  19  20
ENDBRANCH  18  19
ENDBRANCH  17  18
ENDBRANCH  16  17
ENDBRANCH  15  16
ENDBRANCH  14  15
ENDBRANCH  13  14
ENDBRANCH   1  13
TORSDOF 20
ENDMDL
MODEL 8
REMARK VINA RESULT:    -2.648      4.122      7.773
REMARK INTER + INTRA:          -9.438
REMARK INTER:                  -7.448
REMARK INTRA:                  -1.989
REMARK UNBOUND:                -3.694
REMARK SMILES CCCCCCCCCCCCCCCCCCCCCC(=O)[O-]
REMARK SMILES IDX 12 1 11 2 10 3 9 4 8 5 7 6 6 7 5 8 4 9 3 10 2 11 1 12 13 13
REMARK SMILES IDX 14 14 15 15 16 16 17 17 18 18 19 19 20 20 21 21 22 22 23 23
REMARK SMILES IDX 24 24
REMARK H PARENT
REMARK Flexibility Score: inf
ROOT
ATOM      1  C   UNL     1     -28.330  66.908  83.271  1.00  0.00     0.000 C 
ENDROOT
BRANCH   1   2
ATOM      2  C   UNL     1     -27.573  66.576  84.573  1.00  0.00     0.000 C 
BRANCH   2   3
ATOM      3  C   UNL     1     -26.496  67.601  84.977  1.00  0.00     0.000 C 
BRANCH   3   4
ATOM      4  C   UNL     1     -26.934  68.621  86.046  1.00  0.00    -0.000 C 
BRANCH   4   5
ATOM      5  C   UNL     1     -28.117  68.176  86.922  1.00  0.00    -0.000 C 
BRANCH   5   6
ATOM      6  C   UNL     1     -29.315  69.132  86.836  1.00  0.00    -0.000 C 
BRANCH   6   7
ATOM      7  C   UNL     1     -30.418  68.553  85.940  1.00  0.00    -0.000 C 
BRANCH   7   8
ATOM      8  C   UNL     1     -31.564  67.909  86.741  1.00  0.00    -0.000 C 
BRANCH   8   9
ATOM      9  C   UNL     1     -32.099  66.605  86.116  1.00  0.00    -0.000 C 
BRANCH   9  10
ATOM     10  C   UNL     1     -30.997  65.815  85.394  1.00  0.00    -0.000 C 
BRANCH  10  11
ATOM     11  C   UNL     1     -30.129  65.043  86.394  1.00  0.00    -0.003 C 
ATOM     12  C   UNL     1     -30.495  63.563  86.410  1.00  0.00     0.004 C 
ENDBRANCH  10  11
ENDBRANCH   9  10
ENDBRANCH   8   9
ENDBRANCH   7   8
ENDBRANCH   6   7
ENDBRANCH   5   6
ENDBRANCH   4   5
ENDBRANCH   3   4
ENDBRANCH   2   3
ENDBRANCH   1   2
BRANCH   1  13
ATOM     13  C   UNL     1     -27.921  66.058  82.051  1.00  0.00     0.000 C 
BRANCH  13  14
ATOM     14  C   UNL     1     -28.699  64.737  81.887  1.00  0.00     0.000 C 
BRANCH  14  15
ATOM     15  C   UNL     1     -29.046  64.015  83.204  1.00  0.00     0.000 C 
BRANCH  15  16
ATOM     16  C   UNL     1     -28.827  62.492  83.188  1.00  0.00     0.000 C 
BRANCH  16  17
ATOM     17  C   UNL     1     -27.898  62.010  84.314  1.00  0.00     0.000 C 
BRANCH  17  18
ATOM     18  C   UNL     1     -27.228  60.681  83.938  1.00  0.00     0.000 C 
BRANCH  18  19
ATOM     19  C   UNL     1     -27.908  59.995  82.741  1.00  0.00     0.000 C 
BRANCH  19  20
ATOM     20  C   UNL     1     -27.368  58.577  82.495  1.00  0.00     0.006 C 
BRANCH  20  21
ATOM     21  C   UNL     1     -26.313  58.170  83.533  1.00  0.00     0.053 C 
BRANCH  21  22
ATOM     22  C   UNL     1     -26.117  56.685  83.589  1.00  0.00     0.041 C 
ATOM     23  O   UNL     1     -27.025  55.910  83.186  1.00  0.00    -0.550 OA
ATOM     24  O   UNL     1     -24.932  56.157  84.080  1.00  0.00    -0.550 OA
ENDBRANCH  21  22
ENDBRANCH  20  21
ENDBRANCH  19  20
ENDBRANCH  18  19
ENDBRANCH  17  18
ENDBRANCH  16  17
ENDBRANCH  15  16
ENDBRANCH  14  15
ENDBRANCH  13  14
ENDBRANCH   1  13
TORSDOF 20
ENDMDL
MODEL 9
REMARK VINA RESULT:    -2.626      1.897      3.493
REMARK INTER + INTRA:          -9.390
REMARK INTER:                  -6.663
REMARK INTRA:                  -2.727
REMARK UNBOUND:                -3.694
REMARK SMILES CCCCCCCCCCCCCCCCCCCCCC(=O)[O-]
REMARK SMILES IDX 12 1 11 2 10 3 9 4 8 5 7 6 6 7 5 8 4 9 3 10 2 11 1 12 13 13
REMARK SMILES IDX 14 14 15 15 16 16 17 17 18 18 19 19 20 20 21 21 22 22 23 23
REMARK SMILES IDX 24 24
REMARK H PARENT
REMARK Flexibility Score: inf
ROOT
ATOM      1  C   UNL     1     -27.435  66.713  84.601  1.00  0.00     0.000 C 
ENDROOT
BRANCH   1   2
ATOM      2  C   UNL     1     -28.461  67.116  83.523  1.00  0.00     0.000 C 
BRANCH   2   3
ATOM      3  C   UNL     1     -28.051  66.775  82.077  1.00  0.00     0.000 C 
BRANCH   3   4
ATOM      4  C   UNL     1     -28.224  65.295  81.682  1.00  0.00    -0.000 C 
BRANCH   4   5
ATOM      5  C   UNL     1     -29.630  64.719  81.922  1.00  0.00    -0.000 C 
BRANCH   5   6
ATOM      6  C   UNL     1     -29.644  63.601  82.973  1.00  0.00    -0.000 C 
BRANCH   6   7
ATOM      7  C   UNL     1     -28.229  63.316  83.492  1.00  0.00    -0.000 C 
BRANCH   7   8
ATOM      8  C   UNL     1     -28.199  62.241  84.593  1.00  0.00    -0.000 C 
BRANCH   8   9
ATOM      9  C   UNL     1     -27.334  61.015  84.238  1.00  0.00    -0.000 C 
BRANCH   9  10
ATOM     10  C   UNL     1     -27.829  60.307  82.968  1.00  0.00    -0.000 C 
BRANCH  10  11
ATOM     11  C   UNL     1     -27.079  58.990  82.745  1.00  0.00    -0.003 C 
ATOM     12  C   UNL     1     -27.840  58.079  81.788  1.00  0.00     0.004 C 
ENDBRANCH  10  11
ENDBRANCH   9  10
ENDBRANCH   8   9
ENDBRANCH   7   8
ENDBRANCH   6   7
ENDBRANCH   5   6
ENDBRANCH   4   5
ENDBRANCH   3   4
ENDBRANCH   2   3
ENDBRANCH   1   2
BRANCH   1  13
ATOM     13  C   UNL     1     -26.443  67.825  84.999  1.00  0.00     0.000 C 
BRANCH  13  14
ATOM     14  C   UNL     1     -26.886  68.694  86.193  1.00  0.00     0.000 C 
BRANCH  14  15
ATOM     15  C   UNL     1     -27.942  68.052  87.114  1.00  0.00     0.000 C 
BRANCH  15  16
ATOM     16  C   UNL     1     -29.050  69.005  87.597  1.00  0.00     0.000 C 
BRANCH  16  17
ATOM     17  C   UNL     1     -29.824  69.656  86.441  1.00  0.00     0.000 C 
BRANCH  17  18
ATOM     18  C   UNL     1     -30.754  68.638  85.764  1.00  0.00     0.000 C 
BRANCH  18  19
ATOM     19  C   UNL     1     -31.762  68.016  86.744  1.00  0.00     0.000 C 
BRANCH  19  20
ATOM     20  C   UNL     1     -32.080  66.551  86.406  1.00  0.00     0.006 C 
BRANCH  20  21
ATOM     21  C   UNL     1     -30.983  65.902  85.550  1.00  0.00     0.053 C 
BRANCH  21  22
ATOM     22  C   UNL     1     -30.289  64.787  86.270  1.00  0.00     0.041 C 
ATOM     23  O   UNL     1     -29.217  65.005  86.895  1.00  0.00    -0.550 OA
ATOM     24  O   UNL     1     -30.827  63.508  86.257  1.00  0.00    -0.550 OA
ENDBRANCH  21  22
ENDBRANCH  20  21
ENDBRANCH  19  20
ENDBRANCH  18  19
ENDBRANCH  17  18
ENDBRANCH  16  17
ENDBRANCH  15  16
ENDBRANCH  14  15
ENDBRANCH  13  14
ENDBRANCH   1  13
TORSDOF 20
ENDMDL
