MODEL 1
REMARK VINA RESULT:    -3.681      0.000      0.000
REMARK INTER + INTRA:          -8.053
REMARK INTER:                  -6.264
REMARK INTRA:                  -1.789
REMARK UNBOUND:                -1.789
REMARK SMILES CCCCCCCCCCCCCC(=O)[O-]
REMARK SMILES IDX 8 1 9 2 10 3 11 4 12 5 13 6 14 7 15 8 16 9 7 10 6 11 5 12
REMARK SMILES IDX 4 13 3 14 2 15 1 16
REMARK H PARENT
REMARK Flexibility Score: inf
ROOT
ATOM      1  C   UNL     1       3.048 124.846 110.681  1.00  0.00     0.000 C 
ENDROOT
BRANCH   1   2
ATOM      2  C   UNL     1       4.306 125.703 110.479  1.00  0.00     0.000 C 
BRANCH   2   3
ATOM      3  C   UNL     1       4.987 126.091 111.803  1.00  0.00     0.000 C 
BRANCH   3   4
ATOM      4  C   UNL     1       6.522 125.950 111.816  1.00  0.00     0.000 C 
BRANCH   4   5
ATOM      5  C   UNL     1       7.052 124.518 112.022  1.00  0.00     0.006 C 
BRANCH   5   6
ATOM      6  C   UNL     1       7.297 123.747 110.711  1.00  0.00     0.053 C 
BRANCH   6   7
ATOM      7  C   UNL     1       7.929 124.596 109.651  1.00  0.00     0.041 C 
ATOM      8  O   UNL     1       7.267 124.945 108.639  1.00  0.00    -0.550 OA
ATOM      9  O   UNL     1       9.262 124.972 109.762  1.00  0.00    -0.550 OA
ENDBRANCH   6   7
ENDBRANCH   5   6
ENDBRANCH   4   5
ENDBRANCH   3   4
ENDBRANCH   2   3
ENDBRANCH   1   2
BRANCH   1  10
ATOM     10  C   UNL     1       2.827 124.534 112.165  1.00  0.00     0.000 C 
BRANCH  10  11
ATOM     11  C   UNL     1       1.447 125.023 112.632  1.00  0.00    -0.000 C 
BRANCH  11  12
ATOM     12  C   UNL     1       1.525 126.271 113.531  1.00  0.00    -0.000 C 
BRANCH  12  13
ATOM     13  C   UNL     1       1.704 127.602 112.779  1.00  0.00    -0.000 C 
BRANCH  13  14
ATOM     14  C   UNL     1       0.749 127.745 111.580  1.00  0.00    -0.000 C 
BRANCH  14  15
ATOM     15  C   UNL     1       1.475 128.179 110.298  1.00  0.00    -0.003 C 
ATOM     16  C   UNL     1       2.657 129.107 110.576  1.00  0.00     0.004 C 
ENDBRANCH  14  15
ENDBRANCH  13  14
ENDBRANCH  12  13
ENDBRANCH  11  12
ENDBRANCH  10  11
ENDBRANCH   1  10
TORSDOF 12
ENDMDL
MODEL 2
REMARK VINA RESULT:    -3.642      2.819      5.749
REMARK INTER + INTRA:          -7.986
REMARK INTER:                  -6.349
REMARK INTRA:                  -1.637
REMARK UNBOUND:                -1.789
REMARK SMILES CCCCCCCCCCCCCC(=O)[O-]
REMARK SMILES IDX 8 1 9 2 10 3 11 4 12 5 13 6 14 7 15 8 16 9 7 10 6 11 5 12
REMARK SMILES IDX 4 13 3 14 2 15 1 16
REMARK H PARENT
REMARK Flexibility Score: inf
ROOT
ATOM      1  C   UNL     1       2.642 125.449 110.875  1.00  0.00     0.000 C 
ENDROOT
BRANCH   1   2
ATOM      2  C   UNL     1       2.739 124.739 112.234  1.00  0.00     0.000 C 
BRANCH   2   3
ATOM      3  C   UNL     1       2.337 125.642 113.413  1.00  0.00     0.000 C 
BRANCH   3   4
ATOM      4  C   UNL     1       3.396 126.680 113.833  1.00  0.00     0.000 C 
BRANCH   4   5
ATOM      5  C   UNL     1       3.025 128.151 113.558  1.00  0.00     0.006 C 
BRANCH   5   6
ATOM      6  C   UNL     1       3.605 128.708 112.246  1.00  0.00     0.053 C 
BRANCH   6   7
ATOM      7  C   UNL     1       2.542 129.114 111.271  1.00  0.00     0.041 C 
ATOM      8  O   UNL     1       1.403 129.458 111.681  1.00  0.00    -0.550 OA
ATOM      9  O   UNL     1       2.797 129.078 109.906  1.00  0.00    -0.550 OA
ENDBRANCH   6   7
ENDBRANCH   5   6
ENDBRANCH   4   5
ENDBRANCH   3   4
ENDBRANCH   2   3
ENDBRANCH   1   2
BRANCH   1  10
ATOM     10  C   UNL     1       4.011 125.513 110.189  1.00  0.00     0.000 C 
BRANCH  10  11
ATOM     11  C   UNL     1       5.088 124.828 111.044  1.00  0.00    -0.000 C 
BRANCH  11  12
ATOM     12  C   UNL     1       6.235 125.776 111.439  1.00  0.00    -0.000 C 
BRANCH  12  13
ATOM     13  C   UNL     1       7.610 125.408 110.854  1.00  0.00    -0.000 C 
BRANCH  13  14
ATOM     14  C   UNL     1       7.538 124.259 109.832  1.00  0.00    -0.000 C 
BRANCH  14  15
ATOM     15  C   UNL     1       7.938 124.703 108.418  1.00  0.00    -0.003 C 
ATOM     16  C   UNL     1       6.789 125.373 107.664  1.00  0.00     0.004 C 
ENDBRANCH  14  15
ENDBRANCH  13  14
ENDBRANCH  12  13
ENDBRANCH  11  12
ENDBRANCH  10  11
ENDBRANCH   1  10
TORSDOF 12
ENDMDL
MODEL 3
REMARK VINA RESULT:    -3.590      1.875      3.635
REMARK INTER + INTRA:          -7.897
REMARK INTER:                  -5.929
REMARK INTRA:                  -1.968
REMARK UNBOUND:                -1.789
REMARK SMILES CCCCCCCCCCCCCC(=O)[O-]
REMARK SMILES IDX 8 1 9 2 10 3 11 4 12 5 13 6 14 7 15 8 16 9 7 10 6 11 5 12
REMARK SMILES IDX 4 13 3 14 2 15 1 16
REMARK H PARENT
REMARK Flexibility Score: inf
ROOT
ATOM      1  C   UNL     1       2.352 126.614 110.995  1.00  0.00     0.000 C 
ENDROOT
BRANCH   1   2
ATOM      2  C   UNL     1       2.766 125.159 110.727  1.00  0.00     0.000 C 
BRANCH   2   3
ATOM      3  C   UNL     1       4.265 124.908 110.966  1.00  0.00     0.000 C 
BRANCH   3   4
ATOM      4  C   UNL     1       4.974 125.959 111.842  1.00  0.00     0.000 C 
BRANCH   4   5
ATOM      5  C   UNL     1       6.062 125.409 112.784  1.00  0.00     0.006 C 
BRANCH   5   6
ATOM      6  C   UNL     1       6.527 123.983 112.438  1.00  0.00     0.053 C 
BRANCH   6   7
ATOM      7  C   UNL     1       8.019 123.863 112.368  1.00  0.00     0.041 C 
ATOM      8  O   UNL     1       8.670 124.530 111.523  1.00  0.00    -0.550 OA
ATOM      9  O   UNL     1       8.689 122.987 113.214  1.00  0.00    -0.550 OA
ENDBRANCH   6   7
ENDBRANCH   5   6
ENDBRANCH   4   5
ENDBRANCH   3   4
ENDBRANCH   2   3
ENDBRANCH   1   2
BRANCH   1  10
ATOM     10  C   UNL     1       1.353 126.696 112.155  1.00  0.00     0.000 C 
BRANCH  10  11
ATOM     11  C   UNL     1       1.984 127.381 113.377  1.00  0.00    -0.000 C 
BRANCH  11  12
ATOM     12  C   UNL     1       2.125 126.438 114.587  1.00  0.00    -0.000 C 
BRANCH  12  13
ATOM     13  C   UNL     1       1.744 124.972 114.313  1.00  0.00    -0.000 C 
BRANCH  13  14
ATOM     14  C   UNL     1       2.950 124.018 114.374  1.00  0.00    -0.000 C 
BRANCH  14  15
ATOM     15  C   UNL     1       2.607 122.604 113.882  1.00  0.00    -0.003 C 
ATOM     16  C   UNL     1       3.849 121.790 113.520  1.00  0.00     0.004 C 
ENDBRANCH  14  15
ENDBRANCH  13  14
ENDBRANCH  12  13
ENDBRANCH  11  12
ENDBRANCH  10  11
ENDBRANCH   1  10
TORSDOF 12
ENDMDL
MODEL 4
REMARK VINA RESULT:    -3.506      1.960      2.838
REMARK INTER + INTRA:          -7.755
REMARK INTER:                  -5.847
REMARK INTRA:                  -1.908
REMARK UNBOUND:                -1.789
REMARK SMILES CCCCCCCCCCCCCC(=O)[O-]
REMARK SMILES IDX 8 1 9 2 10 3 11 4 12 5 13 6 14 7 15 8 16 9 7 10 6 11 5 12
REMARK SMILES IDX 4 13 3 14 2 15 1 16
REMARK H PARENT
REMARK Flexibility Score: inf
ROOT
ATOM      1  C   UNL     1       2.729 124.981 112.121  1.00  0.00     0.000 C 
ENDROOT
BRANCH   1   2
ATOM      2  C   UNL     1       3.916 124.275 112.793  1.00  0.00     0.000 C 
BRANCH   2   3
ATOM      3  C   UNL     1       4.590 125.134 113.877  1.00  0.00     0.000 C 
BRANCH   3   4
ATOM      4  C   UNL     1       6.000 125.647 113.523  1.00  0.00     0.000 C 
BRANCH   4   5
ATOM      5  C   UNL     1       6.267 125.861 112.020  1.00  0.00     0.006 C 
BRANCH   5   6
ATOM      6  C   UNL     1       7.547 125.176 111.508  1.00  0.00     0.053 C 
BRANCH   6   7
ATOM      7  C   UNL     1       7.571 123.706 111.797  1.00  0.00     0.041 C 
ATOM      8  O   UNL     1       6.832 122.920 111.150  1.00  0.00    -0.550 OA
ATOM      9  O   UNL     1       8.384 123.207 112.808  1.00  0.00    -0.550 OA
ENDBRANCH   6   7
ENDBRANCH   5   6
ENDBRANCH   4   5
ENDBRANCH   3   4
ENDBRANCH   2   3
ENDBRANCH   1   2
BRANCH   1  10
ATOM     10  C   UNL     1       2.973 125.156 110.617  1.00  0.00     0.000 C 
BRANCH  10  11
ATOM     11  C   UNL     1       2.972 126.643 110.229  1.00  0.00    -0.000 C 
BRANCH  11  12
ATOM     12  C   UNL     1       2.190 127.522 111.223  1.00  0.00    -0.000 C 
BRANCH  12  13
ATOM     13  C   UNL     1       2.877 128.849 111.593  1.00  0.00    -0.000 C 
BRANCH  13  14
ATOM     14  C   UNL     1       3.968 128.680 112.665  1.00  0.00    -0.000 C 
BRANCH  14  15
ATOM     15  C   UNL     1       3.523 129.190 114.043  1.00  0.00    -0.003 C 
ATOM     16  C   UNL     1       2.758 128.136 114.844  1.00  0.00     0.004 C 
ENDBRANCH  14  15
ENDBRANCH  13  14
ENDBRANCH  12  13
ENDBRANCH  11  12
ENDBRANCH  10  11
ENDBRANCH   1  10
TORSDOF 12
ENDMDL
MODEL 5
REMARK VINA RESULT:    -3.505      1.965      3.423
REMARK INTER + INTRA:          -7.753
REMARK INTER:                  -5.837
REMARK INTRA:                  -1.916
REMARK UNBOUND:                -1.789
REMARK SMILES CCCCCCCCCCCCCC(=O)[O-]
REMARK SMILES IDX 8 1 9 2 10 3 11 4 12 5 13 6 14 7 15 8 16 9 7 10 6 11 5 12
REMARK SMILES IDX 4 13 3 14 2 15 1 16
REMARK H PARENT
REMARK Flexibility Score: inf
ROOT
ATOM      1  C   UNL     1       1.478 126.571 112.101  1.00  0.00     0.000 C 
ENDROOT
BRANCH   1   2
ATOM      2  C   UNL     1       2.247 125.295 111.729  1.00  0.00     0.000 C 
BRANCH   2   3
ATOM      3  C   UNL     1       3.344 125.539 110.678  1.00  0.00     0.000 C 
BRANCH   3   4
ATOM      4  C   UNL     1       4.774 125.659 111.239  1.00  0.00     0.000 C 
BRANCH   4   5
ATOM      5  C   UNL     1       5.076 124.783 112.471  1.00  0.00     0.006 C 
BRANCH   5   6
ATOM      6  C   UNL     1       6.466 125.026 113.086  1.00  0.00     0.053 C 
BRANCH   6   7
ATOM      7  C   UNL     1       7.565 124.370 112.307  1.00  0.00     0.041 C 
ATOM      8  O   UNL     1       7.877 123.172 112.535  1.00  0.00    -0.550 OA
ATOM      9  O   UNL     1       8.271 125.093 111.354  1.00  0.00    -0.550 OA
ENDBRANCH   6   7
ENDBRANCH   5   6
ENDBRANCH   4   5
ENDBRANCH   3   4
ENDBRANCH   2   3
ENDBRANCH   1   2
BRANCH   1  10
ATOM     10  C   UNL     1       1.239 127.448 110.866  1.00  0.00     0.000 C 
BRANCH  10  11
ATOM     11  C   UNL     1       1.528 128.925 111.176  1.00  0.00    -0.000 C 
BRANCH  11  12
ATOM     12  C   UNL     1       3.032 129.253 111.189  1.00  0.00    -0.000 C 
BRANCH  12  13
ATOM     13  C   UNL     1       3.593 129.666 112.562  1.00  0.00    -0.000 C 
BRANCH  13  14
ATOM     14  C   UNL     1       4.789 128.803 113.004  1.00  0.00    -0.000 C 
BRANCH  14  15
ATOM     15  C   UNL     1       4.746 128.461 114.501  1.00  0.00    -0.003 C 
ATOM     16  C   UNL     1       3.711 127.385 114.830  1.00  0.00     0.004 C 
ENDBRANCH  14  15
ENDBRANCH  13  14
ENDBRANCH  12  13
ENDBRANCH  11  12
ENDBRANCH  10  11
ENDBRANCH   1  10
TORSDOF 12
ENDMDL
MODEL 6
REMARK VINA RESULT:    -3.477      1.773      3.585
REMARK INTER + INTRA:          -7.706
REMARK INTER:                  -5.590
REMARK INTRA:                  -2.116
REMARK UNBOUND:                -1.789
REMARK SMILES CCCCCCCCCCCCCC(=O)[O-]
REMARK SMILES IDX 8 1 9 2 10 3 11 4 12 5 13 6 14 7 15 8 16 9 7 10 6 11 5 12
REMARK SMILES IDX 4 13 3 14 2 15 1 16
REMARK H PARENT
REMARK Flexibility Score: inf
ROOT
ATOM      1  C   UNL     1       2.726 128.302 113.694  1.00  0.00     0.000 C 
ENDROOT
BRANCH   1   2
ATOM      2  C   UNL     1       4.153 127.950 114.141  1.00  0.00     0.000 C 
BRANCH   2   3
ATOM      3  C   UNL     1       5.107 127.702 112.960  1.00  0.00     0.000 C 
BRANCH   3   4
ATOM      4  C   UNL     1       5.926 126.399 113.043  1.00  0.00     0.000 C 
BRANCH   4   5
ATOM      5  C   UNL     1       6.487 125.884 111.703  1.00  0.00     0.006 C 
BRANCH   5   6
ATOM      6  C   UNL     1       6.730 124.364 111.668  1.00  0.00     0.053 C 
BRANCH   6   7
ATOM      7  C   UNL     1       8.141 123.997 112.014  1.00  0.00     0.041 C 
ATOM      8  O   UNL     1       9.104 124.528 111.401  1.00  0.00    -0.550 OA
ATOM      9  O   UNL     1       8.393 123.040 112.989  1.00  0.00    -0.550 OA
ENDBRANCH   6   7
ENDBRANCH   5   6
ENDBRANCH   4   5
ENDBRANCH   3   4
ENDBRANCH   2   3
ENDBRANCH   1   2
BRANCH   1  10
ATOM     10  C   UNL     1       2.631 128.378 112.166  1.00  0.00     0.000 C 
BRANCH  10  11
ATOM     11  C   UNL     1       1.842 127.185 111.603  1.00  0.00    -0.000 C 
BRANCH  11  12
ATOM     12  C   UNL     1       2.644 126.367 110.575  1.00  0.00    -0.000 C 
BRANCH  12  13
ATOM     13  C   UNL     1       2.902 124.902 110.971  1.00  0.00    -0.000 C 
BRANCH  13  14
ATOM     14  C   UNL     1       2.217 124.511 112.293  1.00  0.00    -0.000 C 
BRANCH  14  15
ATOM     15  C   UNL     1       3.225 124.127 113.386  1.00  0.00    -0.003 C 
ATOM     16  C   UNL     1       2.733 124.480 114.790  1.00  0.00     0.004 C 
ENDBRANCH  14  15
ENDBRANCH  13  14
ENDBRANCH  12  13
ENDBRANCH  11  12
ENDBRANCH  10  11
ENDBRANCH   1  10
TORSDOF 12
ENDMDL
MODEL 7
REMARK VINA RESULT:    -3.414      3.321      5.385
REMARK INTER + INTRA:          -7.597
REMARK INTER:                  -5.675
REMARK INTRA:                  -1.922
REMARK UNBOUND:                -1.789
REMARK SMILES CCCCCCCCCCCCCC(=O)[O-]
REMARK SMILES IDX 8 1 9 2 10 3 11 4 12 5 13 6 14 7 15 8 16 9 7 10 6 11 5 12
REMARK SMILES IDX 4 13 3 14 2 15 1 16
REMARK H PARENT
REMARK Flexibility Score: inf
ROOT
ATOM      1  C   UNL     1       1.661 126.060 113.336  1.00  0.00     0.000 C 
ENDROOT
BRANCH   1   2
ATOM      2  C   UNL     1       2.767 125.885 114.388  1.00  0.00     0.000 C 
BRANCH   2   3
ATOM      3  C   UNL     1       3.819 127.007 114.346  1.00  0.00     0.000 C 
BRANCH   3   4
ATOM      4  C   UNL     1       3.343 128.328 113.709  1.00  0.00     0.000 C 
BRANCH   4   5
ATOM      5  C   UNL     1       4.384 129.054 112.835  1.00  0.00     0.006 C 
BRANCH   5   6
ATOM      6  C   UNL     1       5.006 130.294 113.503  1.00  0.00     0.053 C 
BRANCH   6   7
ATOM      7  C   UNL     1       6.419 130.063 113.946  1.00  0.00     0.041 C 
ATOM      8  O   UNL     1       7.379 130.458 113.235  1.00  0.00    -0.550 OA
ATOM      9  O   UNL     1       6.676 129.380 115.128  1.00  0.00    -0.550 OA
ENDBRANCH   6   7
ENDBRANCH   5   6
ENDBRANCH   4   5
ENDBRANCH   3   4
ENDBRANCH   2   3
ENDBRANCH   1   2
BRANCH   1  10
ATOM     10  C   UNL     1       1.871 125.106 112.154  1.00  0.00     0.000 C 
BRANCH  10  11
ATOM     11  C   UNL     1       2.486 125.843 110.955  1.00  0.00    -0.000 C 
BRANCH  11  12
ATOM     12  C   UNL     1       3.800 125.204 110.468  1.00  0.00    -0.000 C 
BRANCH  12  13
ATOM     13  C   UNL     1       5.060 125.657 111.226  1.00  0.00    -0.000 C 
BRANCH  13  14
ATOM     14  C   UNL     1       5.814 124.488 111.886  1.00  0.00    -0.000 C 
BRANCH  14  15
ATOM     15  C   UNL     1       5.013 123.178 111.853  1.00  0.00    -0.003 C 
ATOM     16  C   UNL     1       4.548 122.737 113.242  1.00  0.00     0.004 C 
ENDBRANCH  14  15
ENDBRANCH  13  14
ENDBRANCH  12  13
ENDBRANCH  11  12
ENDBRANCH  10  11
ENDBRANCH   1  10
TORSDOF 12
ENDMDL
MODEL 8
REMARK VINA RESULT:    -3.395      2.728      5.537
REMARK INTER + INTRA:          -7.566
REMARK INTER:                  -6.281
REMARK INTRA:                  -1.285
REMARK UNBOUND:                -1.789
REMARK SMILES CCCCCCCCCCCCCC(=O)[O-]
REMARK SMILES IDX 8 1 9 2 10 3 11 4 12 5 13 6 14 7 15 8 16 9 7 10 6 11 5 12
REMARK SMILES IDX 4 13 3 14 2 15 1 16
REMARK H PARENT
REMARK Flexibility Score: inf
ROOT
ATOM      1  C   UNL     1       3.605 124.450 111.958  1.00  0.00     0.000 C 
ENDROOT
BRANCH   1   2
ATOM      2  C   UNL     1       3.037 124.973 110.631  1.00  0.00     0.000 C 
BRANCH   2   3
ATOM      3  C   UNL     1       2.212 126.261 110.796  1.00  0.00     0.000 C 
BRANCH   3   4
ATOM      4  C   UNL     1       3.040 127.549 110.976  1.00  0.00     0.000 C 
BRANCH   4   5
ATOM      5  C   UNL     1       2.728 128.362 112.248  1.00  0.00     0.006 C 
BRANCH   5   6
ATOM      6  C   UNL     1       3.929 129.157 112.793  1.00  0.00     0.053 C 
BRANCH   6   7
ATOM      7  C   UNL     1       4.959 128.279 113.435  1.00  0.00     0.041 C 
ATOM      8  O   UNL     1       4.606 127.300 114.144  1.00  0.00    -0.550 OA
ATOM      9  O   UNL     1       6.311 128.562 113.281  1.00  0.00    -0.550 OA
ENDBRANCH   6   7
ENDBRANCH   5   6
ENDBRANCH   4   5
ENDBRANCH   3   4
ENDBRANCH   2   3
ENDBRANCH   1   2
BRANCH   1  10
ATOM     10  C   UNL     1       4.959 123.764 111.745  1.00  0.00     0.000 C 
BRANCH  10  11
ATOM     11  C   UNL     1       6.106 124.630 112.288  1.00  0.00    -0.000 C 
BRANCH  11  12
ATOM     12  C   UNL     1       6.622 125.656 111.262  1.00  0.00    -0.000 C 
BRANCH  12  13
ATOM     13  C   UNL     1       6.548 125.197 109.794  1.00  0.00    -0.000 C 
BRANCH  13  14
ATOM     14  C   UNL     1       7.812 124.450 109.336  1.00  0.00    -0.000 C 
BRANCH  14  15
ATOM     15  C   UNL     1       8.100 124.642 107.840  1.00  0.00    -0.003 C 
ATOM     16  C   UNL     1       6.939 125.304 107.097  1.00  0.00     0.004 C 
ENDBRANCH  14  15
ENDBRANCH  13  14
ENDBRANCH  12  13
ENDBRANCH  11  12
ENDBRANCH  10  11
ENDBRANCH   1  10
TORSDOF 12
ENDMDL
MODEL 9
REMARK VINA RESULT:    -3.342      1.958      2.781
REMARK INTER + INTRA:          -7.475
REMARK INTER:                  -5.672
REMARK INTRA:                  -1.803
REMARK UNBOUND:                -1.789
REMARK SMILES CCCCCCCCCCCCCC(=O)[O-]
REMARK SMILES IDX 8 1 9 2 10 3 11 4 12 5 13 6 14 7 15 8 16 9 7 10 6 11 5 12
REMARK SMILES IDX 4 13 3 14 2 15 1 16
REMARK H PARENT
REMARK Flexibility Score: inf
ROOT
ATOM      1  C   UNL     1       4.326 124.604 113.502  1.00  0.00     0.000 C 
ENDROOT
BRANCH   1   2
ATOM      2  C   UNL     1       3.234 124.452 112.432  1.00  0.00     0.000 C 
BRANCH   2   3
ATOM      3  C   UNL     1       3.788 124.496 110.998  1.00  0.00     0.000 C 
BRANCH   3   4
ATOM      4  C   UNL     1       4.801 125.625 110.721  1.00  0.00     0.000 C 
BRANCH   4   5
ATOM      5  C   UNL     1       6.210 125.162 110.305  1.00  0.00     0.006 C 
BRANCH   5   6
ATOM      6  C   UNL     1       7.293 125.418 111.369  1.00  0.00     0.053 C 
BRANCH   6   7
ATOM      7  C   UNL     1       7.850 124.151 111.943  1.00  0.00     0.041 C 
ATOM      8  O   UNL     1       9.028 124.118 112.384  1.00  0.00    -0.550 OA
ATOM      9  O   UNL     1       7.079 122.995 111.959  1.00  0.00    -0.550 OA
ENDBRANCH   6   7
ENDBRANCH   5   6
ENDBRANCH   4   5
ENDBRANCH   3   4
ENDBRANCH   2   3
ENDBRANCH   1   2
BRANCH   1  10
ATOM     10  C   UNL     1       4.029 125.790 114.427  1.00  0.00     0.000 C 
BRANCH  10  11
ATOM     11  C   UNL     1       5.013 126.943 114.176  1.00  0.00    -0.000 C 
BRANCH  11  12
ATOM     12  C   UNL     1       4.308 128.286 113.911  1.00  0.00    -0.000 C 
BRANCH  12  13
ATOM     13  C   UNL     1       3.713 128.438 112.500  1.00  0.00    -0.000 C 
BRANCH  13  14
ATOM     14  C   UNL     1       2.175 128.490 112.502  1.00  0.00    -0.000 C 
BRANCH  14  15
ATOM     15  C   UNL     1       1.553 127.577 111.434  1.00  0.00    -0.003 C 
ATOM     16  C   UNL     1       0.409 128.250 110.677  1.00  0.00     0.004 C 
ENDBRANCH  14  15
ENDBRANCH  13  14
ENDBRANCH  12  13
ENDBRANCH  11  12
ENDBRANCH  10  11
ENDBRANCH   1  10
TORSDOF 12
ENDMDL
