MODEL 1
REMARK VINA RESULT:    -6.494      0.000      0.000
REMARK INTER + INTRA:          -7.696
REMARK INTER:                  -7.633
REMARK INTRA:                  -0.063
REMARK UNBOUND:                -0.063
REMARK SMILES O=c1c(O)c(-c2ccc(O)cc2)oc2cc(O)cc(O)c12
REMARK SMILES IDX 5 1 3 2 2 3 1 4 21 5 19 6 18 7 16 8 15 9 14 10 13 11 6 12
REMARK SMILES IDX 7 13 8 14 9 15 12 16 11 17 10 18 4 20 20 22 17 24
REMARK H PARENT 10 19 4 21 20 23 17 25
REMARK Flexibility Score: inf
ROOT
ATOM      1  C   UNL     1       2.384  -8.151   6.794  1.00  0.00     0.180 A 
ATOM      2  C   UNL     1       3.585  -7.559   7.223  1.00  0.00     0.208 A 
ATOM      3  C   UNL     1       3.545  -6.620   8.267  1.00  0.00     0.238 A 
ATOM      4  O   UNL     1       4.612  -6.038   8.595  1.00  0.00    -0.285 OA
ATOM      5  C   UNL     1       2.315  -6.324   8.902  1.00  0.00     0.111 A 
ATOM      6  C   UNL     1       2.164  -5.421   9.999  1.00  0.00     0.134 A 
ATOM      7  C   UNL     1       0.881  -5.127  10.480  1.00  0.00     0.093 A 
ATOM      8  C   UNL     1      -0.247  -5.749   9.948  1.00  0.00     0.123 A 
ATOM      9  C   UNL     1      -0.106  -6.674   8.914  1.00  0.00     0.094 A 
ATOM     10  C   UNL     1       1.156  -6.960   8.387  1.00  0.00     0.146 A 
ATOM     11  O   UNL     1       1.242  -7.830   7.388  1.00  0.00    -0.452 OA
ENDROOT
BRANCH   1  12
ATOM     12  C   UNL     1       2.344  -9.139   5.691  1.00  0.00     0.021 A 
ATOM     13  C   UNL     1       1.733 -10.386   5.905  1.00  0.00     0.016 A 
ATOM     14  C   UNL     1       1.662 -11.326   4.871  1.00  0.00     0.047 A 
ATOM     15  C   UNL     1       2.188 -11.025   3.608  1.00  0.00     0.115 A 
ATOM     16  C   UNL     1       2.852  -8.836   4.415  1.00  0.00     0.016 A 
ATOM     17  C   UNL     1       2.779  -9.777   3.383  1.00  0.00     0.047 A 
BRANCH  15  18
ATOM     18  O   UNL     1       2.124 -11.953   2.572  1.00  0.00    -0.508 OA
ATOM     19  H   UNL     1       1.944 -12.933   2.750  1.00  0.00     0.293 HD
ENDBRANCH  15  18
ENDBRANCH   1  12
BRANCH   2  20
ATOM     20  O   UNL     1       4.799  -7.921   6.634  1.00  0.00    -0.502 OA
ATOM     21  H   UNL     1       5.132  -7.503   5.774  1.00  0.00     0.293 HD
ENDBRANCH   2  20
BRANCH   6  22
ATOM     22  O   UNL     1       3.232  -4.812  10.664  1.00  0.00    -0.507 OA
ATOM     23  H   UNL     1       3.425  -3.822  10.663  1.00  0.00     0.293 HD
ENDBRANCH   6  22
BRANCH   8  24
ATOM     24  O   UNL     1      -1.506  -5.444  10.463  1.00  0.00    -0.508 OA
ATOM     25  H   UNL     1      -1.615  -4.982  11.358  1.00  0.00     0.293 HD
ENDBRANCH   8  24
TORSDOF 5
ENDMDL
MODEL 2
REMARK VINA RESULT:    -6.417      1.720      7.304
REMARK INTER + INTRA:          -7.605
REMARK INTER:                  -7.486
REMARK INTRA:                  -0.119
REMARK UNBOUND:                -0.063
REMARK SMILES O=c1c(O)c(-c2ccc(O)cc2)oc2cc(O)cc(O)c12
REMARK SMILES IDX 5 1 3 2 2 3 1 4 21 5 19 6 18 7 16 8 15 9 14 10 13 11 6 12
REMARK SMILES IDX 7 13 8 14 9 15 12 16 11 17 10 18 4 20 20 22 17 24
REMARK H PARENT 10 19 4 21 20 23 17 25
REMARK Flexibility Score: inf
ROOT
ATOM      1  C   UNL     1       2.801  -8.339   6.326  1.00  0.00     0.180 A 
ATOM      2  C   UNL     1       1.915  -9.428   6.281  1.00  0.00     0.208 A 
ATOM      3  C   UNL     1       1.974 -10.310   5.190  1.00  0.00     0.238 A 
ATOM      4  O   UNL     1       1.128 -11.239   5.119  1.00  0.00    -0.285 OA
ATOM      5  C   UNL     1       2.953 -10.123   4.185  1.00  0.00     0.111 A 
ATOM      6  C   UNL     1       3.134 -10.981   3.057  1.00  0.00     0.134 A 
ATOM      7  C   UNL     1       4.068 -10.637   2.071  1.00  0.00     0.093 A 
ATOM      8  C   UNL     1       4.871  -9.505   2.202  1.00  0.00     0.123 A 
ATOM      9  C   UNL     1       4.741  -8.690   3.328  1.00  0.00     0.094 A 
ATOM     10  C   UNL     1       3.793  -8.985   4.309  1.00  0.00     0.146 A 
ATOM     11  O   UNL     1       3.688  -8.171   5.352  1.00  0.00    -0.452 OA
ENDROOT
BRANCH   1  12
ATOM     12  C   UNL     1       2.790  -7.359   7.436  1.00  0.00     0.021 A 
ATOM     13  C   UNL     1       1.650  -6.564   7.643  1.00  0.00     0.016 A 
ATOM     14  C   UNL     1       1.607  -5.648   8.699  1.00  0.00     0.047 A 
ATOM     15  C   UNL     1       2.698  -5.526   9.569  1.00  0.00     0.115 A 
ATOM     16  C   UNL     1       3.873  -7.244   8.326  1.00  0.00     0.016 A 
ATOM     17  C   UNL     1       3.828  -6.329   9.382  1.00  0.00     0.047 A 
BRANCH  15  18
ATOM     18  O   UNL     1       2.667  -4.617  10.624  1.00  0.00    -0.508 OA
ATOM     19  H   UNL     1       3.363  -3.886  10.713  1.00  0.00     0.293 HD
ENDBRANCH  15  18
ENDBRANCH   1  12
BRANCH   2  20
ATOM     20  O   UNL     1       1.006  -9.639   7.322  1.00  0.00    -0.502 OA
ATOM     21  H   UNL     1       0.031  -9.859   7.156  1.00  0.00     0.293 HD
ENDBRANCH   2  20
BRANCH   6  22
ATOM     22  O   UNL     1       2.448 -12.184   2.870  1.00  0.00    -0.507 OA
ATOM     23  H   UNL     1       1.963 -12.448   2.026  1.00  0.00     0.293 HD
ENDBRANCH   6  22
BRANCH   8  24
ATOM     24  O   UNL     1       5.801  -9.204   1.209  1.00  0.00    -0.508 OA
ATOM     25  H   UNL     1       6.599  -8.607   1.394  1.00  0.00     0.293 HD
ENDBRANCH   8  24
TORSDOF 5
ENDMDL
MODEL 3
REMARK VINA RESULT:    -6.022      9.729     11.895
REMARK INTER + INTRA:          -7.141
REMARK INTER:                  -6.860
REMARK INTRA:                  -0.282
REMARK UNBOUND:                -0.063
REMARK SMILES O=c1c(O)c(-c2ccc(O)cc2)oc2cc(O)cc(O)c12
REMARK SMILES IDX 5 1 3 2 2 3 1 4 21 5 19 6 18 7 16 8 15 9 14 10 13 11 6 12
REMARK SMILES IDX 7 13 8 14 9 15 12 16 11 17 10 18 4 20 20 22 17 24
REMARK H PARENT 10 19 4 21 20 23 17 25
REMARK Flexibility Score: inf
ROOT
ATOM      1  C   UNL     1      -1.414   1.675  10.523  1.00  0.00     0.180 A 
ATOM      2  C   UNL     1      -0.372   0.866  10.037  1.00  0.00     0.208 A 
ATOM      3  C   UNL     1       0.807   1.477   9.579  1.00  0.00     0.238 A 
ATOM      4  O   UNL     1       1.705   0.752   9.075  1.00  0.00    -0.285 OA
ATOM      5  C   UNL     1       0.952   2.882   9.662  1.00  0.00     0.111 A 
ATOM      6  C   UNL     1       2.120   3.604   9.269  1.00  0.00     0.134 A 
ATOM      7  C   UNL     1       2.110   5.005   9.299  1.00  0.00     0.093 A 
ATOM      8  C   UNL     1       1.000   5.707   9.767  1.00  0.00     0.123 A 
ATOM      9  C   UNL     1      -0.126   5.010  10.206  1.00  0.00     0.094 A 
ATOM     10  C   UNL     1      -0.161   3.615  10.152  1.00  0.00     0.146 A 
ATOM     11  O   UNL     1      -1.261   2.993  10.559  1.00  0.00    -0.452 OA
ENDROOT
BRANCH   1  12
ATOM     12  C   UNL     1      -2.691   1.107  11.009  1.00  0.00     0.021 A 
ATOM     13  C   UNL     1      -3.708   0.806  10.087  1.00  0.00     0.016 A 
ATOM     14  C   UNL     1      -4.915   0.247  10.520  1.00  0.00     0.047 A 
ATOM     15  C   UNL     1      -5.114  -0.031  11.878  1.00  0.00     0.115 A 
ATOM     16  C   UNL     1      -2.891   0.806  12.368  1.00  0.00     0.016 A 
ATOM     17  C   UNL     1      -4.098   0.246  12.799  1.00  0.00     0.047 A 
BRANCH  15  18
ATOM     18  O   UNL     1      -6.311  -0.588  12.322  1.00  0.00    -0.508 OA
ATOM     19  H   UNL     1      -6.628  -1.492  11.994  1.00  0.00     0.293 HD
ENDBRANCH  15  18
ENDBRANCH   1  12
BRANCH   2  20
ATOM     20  O   UNL     1      -0.504  -0.525  10.033  1.00  0.00    -0.502 OA
ATOM     21  H   UNL     1      -0.852  -1.037   9.231  1.00  0.00     0.293 HD
ENDBRANCH   2  20
BRANCH   6  22
ATOM     22  O   UNL     1       3.316   3.000   8.870  1.00  0.00    -0.507 OA
ATOM     23  H   UNL     1       3.945   3.368   8.173  1.00  0.00     0.293 HD
ENDBRANCH   6  22
BRANCH   8  24
ATOM     24  O   UNL     1       1.032   7.100   9.798  1.00  0.00    -0.508 OA
ATOM     25  H   UNL     1       1.385   7.639   9.017  1.00  0.00     0.293 HD
ENDBRANCH   8  24
TORSDOF 5
ENDMDL
MODEL 4
REMARK VINA RESULT:    -5.910      1.455      6.647
REMARK INTER + INTRA:          -7.010
REMARK INTER:                  -7.381
REMARK INTRA:                   0.371
REMARK UNBOUND:                -0.063
REMARK SMILES O=c1c(O)c(-c2ccc(O)cc2)oc2cc(O)cc(O)c12
REMARK SMILES IDX 5 1 3 2 2 3 1 4 21 5 19 6 18 7 16 8 15 9 14 10 13 11 6 12
REMARK SMILES IDX 7 13 8 14 9 15 12 16 11 17 10 18 4 20 20 22 17 24
REMARK H PARENT 10 19 4 21 20 23 17 25
REMARK Flexibility Score: inf
ROOT
ATOM      1  C   UNL     1       2.858  -7.911   6.532  1.00  0.00     0.180 A 
ATOM      2  C   UNL     1       4.175  -7.900   6.043  1.00  0.00     0.208 A 
ATOM      3  C   UNL     1       4.488  -8.676   4.914  1.00  0.00     0.238 A 
ATOM      4  O   UNL     1       5.685  -8.721   4.527  1.00  0.00    -0.285 OA
ATOM      5  C   UNL     1       3.471  -9.409   4.258  1.00  0.00     0.111 A 
ATOM      6  C   UNL     1       3.665 -10.193   3.080  1.00  0.00     0.134 A 
ATOM      7  C   UNL     1       2.605 -10.961   2.579  1.00  0.00     0.093 A 
ATOM      8  C   UNL     1       1.345 -10.923   3.173  1.00  0.00     0.123 A 
ATOM      9  C   UNL     1       1.129 -10.116   4.291  1.00  0.00     0.094 A 
ATOM     10  C   UNL     1       2.175  -9.369   4.837  1.00  0.00     0.146 A 
ATOM     11  O   UNL     1       1.932  -8.633   5.914  1.00  0.00    -0.452 OA
ENDROOT
BRANCH   1  12
ATOM     12  C   UNL     1       2.454  -7.131   7.724  1.00  0.00     0.021 A 
ATOM     13  C   UNL     1       1.094  -6.853   7.939  1.00  0.00     0.016 A 
ATOM     14  C   UNL     1       0.686  -6.138   9.071  1.00  0.00     0.047 A 
ATOM     15  C   UNL     1       1.633  -5.705  10.007  1.00  0.00     0.115 A 
ATOM     16  C   UNL     1       3.396  -6.710   8.680  1.00  0.00     0.016 A 
ATOM     17  C   UNL     1       2.987  -5.996   9.811  1.00  0.00     0.047 A 
BRANCH  15  18
ATOM     18  O   UNL     1       1.240  -4.992  11.137  1.00  0.00    -0.508 OA
ATOM     19  H   UNL     1       0.451  -5.285  11.700  1.00  0.00     0.293 HD
ENDBRANCH  15  18
ENDBRANCH   1  12
BRANCH   2  20
ATOM     20  O   UNL     1       5.149  -7.110   6.659  1.00  0.00    -0.502 OA
ATOM     21  H   UNL     1       5.965  -7.505   7.110  1.00  0.00     0.293 HD
ENDBRANCH   2  20
BRANCH   6  22
ATOM     22  O   UNL     1       4.859 -10.235   2.355  1.00  0.00    -0.507 OA
ATOM     23  H   UNL     1       5.166  -9.528   1.705  1.00  0.00     0.293 HD
ENDBRANCH   6  22
BRANCH   8  24
ATOM     24  O   UNL     1       0.310 -11.687   2.637  1.00  0.00    -0.508 OA
ATOM     25  H   UNL     1       0.260 -12.688   2.782  1.00  0.00     0.293 HD
ENDBRANCH   8  24
TORSDOF 5
ENDMDL
MODEL 5
REMARK VINA RESULT:    -5.851      9.525     11.258
REMARK INTER + INTRA:          -6.941
REMARK INTER:                  -6.657
REMARK INTRA:                  -0.284
REMARK UNBOUND:                -0.063
REMARK SMILES O=c1c(O)c(-c2ccc(O)cc2)oc2cc(O)cc(O)c12
REMARK SMILES IDX 5 1 3 2 2 3 1 4 21 5 19 6 18 7 16 8 15 9 14 10 13 11 6 12
REMARK SMILES IDX 7 13 8 14 9 15 12 16 11 17 10 18 4 20 20 22 17 24
REMARK H PARENT 10 19 4 21 20 23 17 25
REMARK Flexibility Score: inf
ROOT
ATOM      1  C   UNL     1      -3.194  -0.215  11.761  1.00  0.00     0.180 A 
ATOM      2  C   UNL     1      -3.927   0.868  12.277  1.00  0.00     0.208 A 
ATOM      3  C   UNL     1      -3.409   2.167  12.140  1.00  0.00     0.238 A 
ATOM      4  O   UNL     1      -4.033   3.123  12.670  1.00  0.00    -0.285 OA
ATOM      5  C   UNL     1      -2.195   2.372  11.442  1.00  0.00     0.111 A 
ATOM      6  C   UNL     1      -1.600   3.649  11.205  1.00  0.00     0.134 A 
ATOM      7  C   UNL     1      -0.341   3.721  10.593  1.00  0.00     0.093 A 
ATOM      8  C   UNL     1       0.314   2.571  10.155  1.00  0.00     0.123 A 
ATOM      9  C   UNL     1      -0.284   1.323  10.332  1.00  0.00     0.094 A 
ATOM     10  C   UNL     1      -1.520   1.215  10.973  1.00  0.00     0.146 A 
ATOM     11  O   UNL     1      -2.042   0.006  11.141  1.00  0.00    -0.452 OA
ENDROOT
BRANCH   1  12
ATOM     12  C   UNL     1      -3.667  -1.613  11.880  1.00  0.00     0.021 A 
ATOM     13  C   UNL     1      -3.261  -2.387  12.980  1.00  0.00     0.016 A 
ATOM     14  C   UNL     1      -3.714  -3.703  13.125  1.00  0.00     0.047 A 
ATOM     15  C   UNL     1      -4.588  -4.255  12.180  1.00  0.00     0.115 A 
ATOM     16  C   UNL     1      -4.560  -2.167  10.946  1.00  0.00     0.016 A 
ATOM     17  C   UNL     1      -5.012  -3.483  11.093  1.00  0.00     0.047 A 
BRANCH  15  18
ATOM     18  O   UNL     1      -5.044  -5.564  12.313  1.00  0.00    -0.508 OA
ATOM     19  H   UNL     1      -4.758  -6.293  11.671  1.00  0.00     0.293 HD
ENDBRANCH  15  18
ENDBRANCH   1  12
BRANCH   2  20
ATOM     20  O   UNL     1      -5.161   0.653  12.895  1.00  0.00    -0.502 OA
ATOM     21  H   UNL     1      -5.553  -0.273  13.019  1.00  0.00     0.293 HD
ENDBRANCH   2  20
BRANCH   6  22
ATOM     22  O   UNL     1      -2.207   4.867  11.522  1.00  0.00    -0.507 OA
ATOM     23  H   UNL     1      -3.033   4.970  12.090  1.00  0.00     0.293 HD
ENDBRANCH   6  22
BRANCH   8  24
ATOM     24  O   UNL     1       1.558   2.683   9.536  1.00  0.00    -0.508 OA
ATOM     25  H   UNL     1       1.899   1.972   8.901  1.00  0.00     0.293 HD
ENDBRANCH   8  24
TORSDOF 5
ENDMDL
MODEL 6
REMARK VINA RESULT:    -5.837      7.827     11.154
REMARK INTER + INTRA:          -6.924
REMARK INTER:                  -6.632
REMARK INTRA:                  -0.292
REMARK UNBOUND:                -0.063
REMARK SMILES O=c1c(O)c(-c2ccc(O)cc2)oc2cc(O)cc(O)c12
REMARK SMILES IDX 5 1 3 2 2 3 1 4 21 5 19 6 18 7 16 8 15 9 14 10 13 11 6 12
REMARK SMILES IDX 7 13 8 14 9 15 12 16 11 17 10 18 4 20 20 22 17 24
REMARK H PARENT 10 19 4 21 20 23 17 25
REMARK Flexibility Score: inf
ROOT
ATOM      1  C   UNL     1      -1.548   0.912  10.650  1.00  0.00     0.180 A 
ATOM      2  C   UNL     1      -1.192   2.271  10.612  1.00  0.00     0.208 A 
ATOM      3  C   UNL     1       0.038   2.637  10.042  1.00  0.00     0.238 A 
ATOM      4  O   UNL     1       0.384   3.847  10.080  1.00  0.00    -0.285 OA
ATOM      5  C   UNL     1       0.872   1.647   9.470  1.00  0.00     0.111 A 
ATOM      6  C   UNL     1       2.120   1.909   8.826  1.00  0.00     0.134 A 
ATOM      7  C   UNL     1       2.910   0.837   8.389  1.00  0.00     0.093 A 
ATOM      8  C   UNL     1       2.471  -0.479   8.514  1.00  0.00     0.123 A 
ATOM      9  C   UNL     1       1.228  -0.744   9.091  1.00  0.00     0.094 A 
ATOM     10  C   UNL     1       0.435   0.300   9.571  1.00  0.00     0.146 A 
ATOM     11  O   UNL     1      -0.730   0.003  10.133  1.00  0.00    -0.452 OA
ENDROOT
BRANCH   1  12
ATOM     12  C   UNL     1      -2.821   0.447  11.246  1.00  0.00     0.021 A 
ATOM     13  C   UNL     1      -3.967   0.352  10.439  1.00  0.00     0.016 A 
ATOM     14  C   UNL     1      -5.175  -0.107  10.975  1.00  0.00     0.047 A 
ATOM     15  C   UNL     1      -5.248  -0.489  12.320  1.00  0.00     0.115 A 
ATOM     16  C   UNL     1      -2.897   0.042  12.591  1.00  0.00     0.016 A 
ATOM     17  C   UNL     1      -4.106  -0.417  13.124  1.00  0.00     0.047 A 
BRANCH  15  18
ATOM     18  O   UNL     1      -6.445  -0.946  12.865  1.00  0.00    -0.508 OA
ATOM     19  H   UNL     1      -6.851  -1.830  12.583  1.00  0.00     0.293 HD
ENDBRANCH  15  18
ENDBRANCH   1  12
BRANCH   2  20
ATOM     20  O   UNL     1      -2.064   3.241  11.113  1.00  0.00    -0.502 OA
ATOM     21  H   UNL     1      -2.739   3.042  11.842  1.00  0.00     0.293 HD
ENDBRANCH   2  20
BRANCH   6  22
ATOM     22  O   UNL     1       2.615   3.190   8.569  1.00  0.00    -0.507 OA
ATOM     23  H   UNL     1       3.298   3.670   9.133  1.00  0.00     0.293 HD
ENDBRANCH   6  22
BRANCH   8  24
ATOM     24  O   UNL     1       3.276  -1.519   8.053  1.00  0.00    -0.508 OA
ATOM     25  H   UNL     1       3.144  -2.472   8.369  1.00  0.00     0.293 HD
ENDBRANCH   8  24
TORSDOF 5
ENDMDL
MODEL 7
REMARK VINA RESULT:    -5.695      9.831     11.526
REMARK INTER + INTRA:          -6.757
REMARK INTER:                  -6.468
REMARK INTRA:                  -0.289
REMARK UNBOUND:                -0.063
REMARK SMILES O=c1c(O)c(-c2ccc(O)cc2)oc2cc(O)cc(O)c12
REMARK SMILES IDX 5 1 3 2 2 3 1 4 21 5 19 6 18 7 16 8 15 9 14 10 13 11 6 12
REMARK SMILES IDX 7 13 8 14 9 15 12 16 11 17 10 18 4 20 20 22 17 24
REMARK H PARENT 10 19 4 21 20 23 17 25
REMARK Flexibility Score: inf
ROOT
ATOM      1  C   UNL     1      -3.836  -0.419  10.847  1.00  0.00     0.180 A 
ATOM      2  C   UNL     1      -5.007  -0.141  10.120  1.00  0.00     0.208 A 
ATOM      3  C   UNL     1      -6.054  -1.076  10.133  1.00  0.00     0.238 A 
ATOM      4  O   UNL     1      -7.068  -0.855   9.421  1.00  0.00    -0.285 OA
ATOM      5  C   UNL     1      -5.941  -2.251  10.914  1.00  0.00     0.111 A 
ATOM      6  C   UNL     1      -6.958  -3.247  11.037  1.00  0.00     0.134 A 
ATOM      7  C   UNL     1      -6.692  -4.421  11.755  1.00  0.00     0.093 A 
ATOM      8  C   UNL     1      -5.474  -4.607  12.406  1.00  0.00     0.123 A 
ATOM      9  C   UNL     1      -4.494  -3.616  12.339  1.00  0.00     0.094 A 
ATOM     10  C   UNL     1      -4.714  -2.452  11.599  1.00  0.00     0.146 A 
ATOM     11  O   UNL     1      -3.746  -1.545  11.543  1.00  0.00    -0.452 OA
ENDROOT
BRANCH   1  12
ATOM     12  C   UNL     1      -2.684   0.510  10.870  1.00  0.00     0.021 A 
ATOM     13  C   UNL     1      -1.702   0.418   9.869  1.00  0.00     0.016 A 
ATOM     14  C   UNL     1      -0.617   1.301   9.857  1.00  0.00     0.047 A 
ATOM     15  C   UNL     1      -0.508   2.295  10.838  1.00  0.00     0.115 A 
ATOM     16  C   UNL     1      -2.578   1.524  11.839  1.00  0.00     0.016 A 
ATOM     17  C   UNL     1      -1.493   2.406  11.825  1.00  0.00     0.047 A 
BRANCH  15  18
ATOM     18  O   UNL     1       0.568   3.179  10.837  1.00  0.00    -0.508 OA
ATOM     19  H   UNL     1       0.504   4.089  10.398  1.00  0.00     0.293 HD
ENDBRANCH  15  18
ENDBRANCH   1  12
BRANCH   2  20
ATOM     20  O   UNL     1      -5.130   1.060   9.418  1.00  0.00    -0.502 OA
ATOM     21  H   UNL     1      -6.028   1.483   9.216  1.00  0.00     0.293 HD
ENDBRANCH   2  20
BRANCH   6  22
ATOM     22  O   UNL     1      -8.243  -3.124  10.501  1.00  0.00    -0.507 OA
ATOM     23  H   UNL     1      -9.085  -3.473  10.932  1.00  0.00     0.293 HD
ENDBRANCH   6  22
BRANCH   8  24
ATOM     24  O   UNL     1      -5.251  -5.780  13.125  1.00  0.00    -0.508 OA
ATOM     25  H   UNL     1      -4.338  -6.216  13.157  1.00  0.00     0.293 HD
ENDBRANCH   8  24
TORSDOF 5
ENDMDL
MODEL 8
REMARK VINA RESULT:    -5.571      9.449     11.342
REMARK INTER + INTRA:          -6.611
REMARK INTER:                  -6.622
REMARK INTRA:                   0.011
REMARK UNBOUND:                -0.063
REMARK SMILES O=c1c(O)c(-c2ccc(O)cc2)oc2cc(O)cc(O)c12
REMARK SMILES IDX 5 1 3 2 2 3 1 4 21 5 19 6 18 7 16 8 15 9 14 10 13 11 6 12
REMARK SMILES IDX 7 13 8 14 9 15 12 16 11 17 10 18 4 20 20 22 17 24
REMARK H PARENT 10 19 4 21 20 23 17 25
REMARK Flexibility Score: inf
ROOT
ATOM      1  C   UNL     1      -3.065   0.187  10.757  1.00  0.00     0.180 A 
ATOM      2  C   UNL     1      -4.332   0.767  10.574  1.00  0.00     0.208 A 
ATOM      3  C   UNL     1      -5.476   0.018  10.893  1.00  0.00     0.238 A 
ATOM      4  O   UNL     1      -6.608   0.516  10.656  1.00  0.00    -0.285 OA
ATOM      5  C   UNL     1      -5.339  -1.280  11.441  1.00  0.00     0.111 A 
ATOM      6  C   UNL     1      -6.429  -2.112  11.842  1.00  0.00     0.134 A 
ATOM      7  C   UNL     1      -6.176  -3.421  12.274  1.00  0.00     0.093 A 
ATOM      8  C   UNL     1      -4.873  -3.905  12.379  1.00  0.00     0.123 A 
ATOM      9  C   UNL     1      -3.798  -3.082  12.042  1.00  0.00     0.094 A 
ATOM     10  C   UNL     1      -4.019  -1.786  11.572  1.00  0.00     0.146 A 
ATOM     11  O   UNL     1      -2.969  -1.045  11.242  1.00  0.00    -0.452 OA
ENDROOT
BRANCH   1  12
ATOM     12  C   UNL     1      -1.813   0.908  10.430  1.00  0.00     0.021 A 
ATOM     13  C   UNL     1      -1.573   2.167  11.005  1.00  0.00     0.016 A 
ATOM     14  C   UNL     1      -0.387   2.857  10.730  1.00  0.00     0.047 A 
ATOM     15  C   UNL     1       0.578   2.289   9.887  1.00  0.00     0.115 A 
ATOM     16  C   UNL     1      -0.831   0.336   9.602  1.00  0.00     0.016 A 
ATOM     17  C   UNL     1       0.354   1.026   9.328  1.00  0.00     0.047 A 
BRANCH  15  18
ATOM     18  O   UNL     1       1.762   2.966   9.605  1.00  0.00    -0.508 OA
ATOM     19  H   UNL     1       1.873   3.949   9.822  1.00  0.00     0.293 HD
ENDBRANCH  15  18
ENDBRANCH   1  12
BRANCH   2  20
ATOM     20  O   UNL     1      -4.444   2.078  10.104  1.00  0.00    -0.502 OA
ATOM     21  H   UNL     1      -3.648   2.605   9.765  1.00  0.00     0.293 HD
ENDBRANCH   2  20
BRANCH   6  22
ATOM     22  O   UNL     1      -7.763  -1.699  11.861  1.00  0.00    -0.507 OA
ATOM     23  H   UNL     1      -8.556  -2.309  11.982  1.00  0.00     0.293 HD
ENDBRANCH   6  22
BRANCH   8  24
ATOM     24  O   UNL     1      -4.659  -5.207  12.828  1.00  0.00    -0.508 OA
ATOM     25  H   UNL     1      -5.231  -5.979  12.508  1.00  0.00     0.293 HD
ENDBRANCH   8  24
TORSDOF 5
ENDMDL
