MODEL 1
REMARK VINA RESULT:    -7.987      0.000      0.000
REMARK INTER + INTRA:         -11.633
REMARK INTER:                 -10.555
REMARK INTRA:                  -1.078
REMARK UNBOUND:                -1.078
REMARK SMILES CC[C@@H](C=C[C@H](C)[C@H]1CC[C@H]2C3=CC[C@@H]4C[C@H](O)CC[C@@]4(C)[C@H]3CC[C@@]12C)C(C)C
REMARK SMILES IDX 6 1 7 2 5 3 4 4 3 5 2 6 1 7 28 8 29 9 30 10 8 11 9 12 26 13
REMARK SMILES IDX 10 14 11 15 25 16 27 17 12 18 24 19 23 20 13 21 21 22 14 23
REMARK SMILES IDX 15 24 20 25 22 26 16 27 19 28 17 29 18 30
REMARK H PARENT 18 31
REMARK Flexibility Score: inf
ROOT
ATOM      1  C   UNL     1      -2.703  21.499  47.235  1.00  0.00     0.012 C 
ATOM      2  C   UNL     1      -1.169  21.544  47.151  1.00  0.00     0.012 C 
ENDROOT
BRANCH   1   3
ATOM      3  C   UNL     1      -3.180  20.065  47.133  1.00  0.00    -0.028 C 
ATOM      4  C   UNL     1      -2.451  19.025  47.568  1.00  0.00    -0.027 C 
BRANCH   4   5
ATOM      5  C   UNL     1      -2.949  17.599  47.450  1.00  0.00     0.014 C 
BRANCH   5   6
ATOM      6  C   UNL     1      -2.716  16.876  48.807  1.00  0.00     0.004 C 
ATOM      7  C   UNL     1      -2.746  17.841  49.997  1.00  0.00     0.004 C 
ENDBRANCH   5   6
BRANCH   5   8
ATOM      8  C   UNL     1      -2.236  16.879  46.262  1.00  0.00    -0.011 C 
ATOM      9  C   UNL     1      -3.104  16.877  44.993  1.00  0.00     0.008 C 
ATOM     10  C   UNL     1      -0.882  17.537  45.934  1.00  0.00     0.008 C 
ENDBRANCH   5   8
ENDBRANCH   4   5
ENDBRANCH   1   3
BRANCH   1  11
ATOM     11  C   UNL     1      -3.352  22.234  48.469  1.00  0.00     0.002 C 
ATOM     12  C   UNL     1      -2.400  22.960  49.420  1.00  0.00     0.005 C 
ATOM     13  C   UNL     1      -4.493  23.248  48.160  1.00  0.00    -0.023 C 
ATOM     14  C   UNL     1      -3.256  23.984  50.159  1.00  0.00     0.009 C 
ATOM     15  C   UNL     1      -4.663  23.987  49.519  1.00  0.00     0.021 C 
ATOM     16  C   UNL     1      -4.070  24.267  47.052  1.00  0.00     0.008 C 
ATOM     17  C   UNL     1      -5.761  22.449  47.747  1.00  0.00     0.012 C 
ATOM     18  C   UNL     1      -5.239  25.401  49.399  1.00  0.00    -0.067 C 
ATOM     19  C   UNL     1      -4.940  25.544  46.921  1.00  0.00     0.009 C 
ATOM     20  C   UNL     1      -5.921  25.797  48.092  1.00  0.00     0.021 C 
ATOM     21  C   UNL     1      -5.070  26.284  50.413  1.00  0.00    -0.027 C 
ATOM     22  C   UNL     1      -6.595  27.227  48.130  1.00  0.00    -0.023 C 
ATOM     23  C   UNL     1      -5.415  27.745  50.328  1.00  0.00     0.031 C 
ATOM     24  C   UNL     1      -5.644  28.207  48.878  1.00  0.00     0.002 C 
ATOM     25  C   UNL     1      -6.876  27.777  46.696  1.00  0.00     0.010 C 
ATOM     26  C   UNL     1      -7.963  27.085  48.874  1.00  0.00     0.012 C 
ATOM     27  C   UNL     1      -6.133  29.674  48.851  1.00  0.00     0.036 C 
ATOM     28  C   UNL     1      -7.396  29.219  46.702  1.00  0.00     0.032 C 
ATOM     29  C   UNL     1      -6.419  30.156  47.420  1.00  0.00     0.114 C 
BRANCH  29  30
ATOM     30  O   UNL     1      -6.973  31.444  47.453  1.00  0.00    -0.393 OA
ATOM     31  H   UNL     1      -7.844  31.371  47.927  1.00  0.00     0.210 HD
ENDBRANCH  29  30
ENDBRANCH   1  11
TORSDOF 6
ENDMDL
MODEL 2
REMARK VINA RESULT:    -7.740      0.860      1.823
REMARK INTER + INTRA:         -11.307
REMARK INTER:                 -10.124
REMARK INTRA:                  -1.183
REMARK UNBOUND:                -1.078
REMARK SMILES CC[C@@H](C=C[C@H](C)[C@H]1CC[C@H]2C3=CC[C@@H]4C[C@H](O)CC[C@@]4(C)[C@H]3CC[C@@]12C)C(C)C
REMARK SMILES IDX 6 1 7 2 5 3 4 4 3 5 2 6 1 7 28 8 29 9 30 10 8 11 9 12 26 13
REMARK SMILES IDX 10 14 11 15 25 16 27 17 12 18 24 19 23 20 13 21 21 22 14 23
REMARK SMILES IDX 15 24 20 25 22 26 16 27 19 28 17 29 18 30
REMARK H PARENT 18 31
REMARK Flexibility Score: inf
ROOT
ATOM      1  C   UNL     1      -2.286  21.950  46.336  1.00  0.00     0.012 C 
ATOM      2  C   UNL     1      -0.875  22.340  45.866  1.00  0.00     0.012 C 
ENDROOT
BRANCH   1   3
ATOM      3  C   UNL     1      -2.425  20.442  46.347  1.00  0.00    -0.028 C 
ATOM      4  C   UNL     1      -2.077  19.690  47.404  1.00  0.00    -0.027 C 
BRANCH   4   5
ATOM      5  C   UNL     1      -2.221  18.181  47.388  1.00  0.00     0.014 C 
BRANCH   5   6
ATOM      6  C   UNL     1      -2.597  17.732  45.947  1.00  0.00     0.004 C 
ATOM      7  C   UNL     1      -1.469  16.955  45.262  1.00  0.00     0.004 C 
ENDBRANCH   5   6
BRANCH   5   8
ATOM      8  C   UNL     1      -3.275  17.732  48.448  1.00  0.00    -0.011 C 
ATOM      9  C   UNL     1      -2.655  17.596  49.847  1.00  0.00     0.008 C 
ATOM     10  C   UNL     1      -4.456  18.719  48.523  1.00  0.00     0.008 C 
ENDBRANCH   5   8
ENDBRANCH   4   5
ENDBRANCH   1   3
BRANCH   1  11
ATOM     11  C   UNL     1      -2.761  22.581  47.700  1.00  0.00     0.002 C 
ATOM     12  C   UNL     1      -1.720  23.364  48.499  1.00  0.00     0.005 C 
ATOM     13  C   UNL     1      -4.024  23.492  47.648  1.00  0.00    -0.023 C 
ATOM     14  C   UNL     1      -2.513  24.278  49.428  1.00  0.00     0.009 C 
ATOM     15  C   UNL     1      -4.008  24.168  49.050  1.00  0.00     0.021 C 
ATOM     16  C   UNL     1      -3.900  24.581  46.534  1.00  0.00     0.008 C 
ATOM     17  C   UNL     1      -5.271  22.589  47.431  1.00  0.00     0.012 C 
ATOM     18  C   UNL     1      -4.718  25.524  49.103  1.00  0.00    -0.067 C 
ATOM     19  C   UNL     1      -4.888  25.772  46.621  1.00  0.00     0.009 C 
ATOM     20  C   UNL     1      -5.658  25.895  47.960  1.00  0.00     0.021 C 
ATOM     21  C   UNL     1      -4.445  26.386  50.113  1.00  0.00    -0.027 C 
ATOM     22  C   UNL     1      -6.437  27.252  48.186  1.00  0.00    -0.023 C 
ATOM     23  C   UNL     1      -4.926  27.810  50.160  1.00  0.00     0.031 C 
ATOM     24  C   UNL     1      -5.455  28.294  48.798  1.00  0.00     0.002 C 
ATOM     25  C   UNL     1      -7.020  27.818  46.854  1.00  0.00     0.010 C 
ATOM     26  C   UNL     1      -7.629  26.958  49.155  1.00  0.00     0.012 C 
ATOM     27  C   UNL     1      -6.067  29.708  48.930  1.00  0.00     0.036 C 
ATOM     28  C   UNL     1      -7.656  29.203  47.021  1.00  0.00     0.032 C 
ATOM     29  C   UNL     1      -6.650  30.206  47.598  1.00  0.00     0.114 C 
BRANCH  29  30
ATOM     30  O   UNL     1      -7.299  31.433  47.792  1.00  0.00    -0.393 OA
ATOM     31  H   UNL     1      -8.069  31.260  48.397  1.00  0.00     0.210 HD
ENDBRANCH  29  30
ENDBRANCH   1  11
TORSDOF 6
ENDMDL
MODEL 3
REMARK VINA RESULT:    -7.333      1.280      2.020
REMARK INTER + INTRA:         -10.768
REMARK INTER:                  -9.691
REMARK INTRA:                  -1.077
REMARK UNBOUND:                -1.078
REMARK SMILES CC[C@@H](C=C[C@H](C)[C@H]1CC[C@H]2C3=CC[C@@H]4C[C@H](O)CC[C@@]4(C)[C@H]3CC[C@@]12C)C(C)C
REMARK SMILES IDX 6 1 7 2 5 3 4 4 3 5 2 6 1 7 28 8 29 9 30 10 8 11 9 12 26 13
REMARK SMILES IDX 10 14 11 15 25 16 27 17 12 18 24 19 23 20 13 21 21 22 14 23
REMARK SMILES IDX 15 24 20 25 22 26 16 27 19 28 17 29 18 30
REMARK H PARENT 18 31
REMARK Flexibility Score: inf
ROOT
ATOM      1  C   UNL     1      -2.822  22.544  49.103  1.00  0.00     0.012 C 
ATOM      2  C   UNL     1      -1.827  22.811  50.245  1.00  0.00     0.012 C 
ENDROOT
BRANCH   1   3
ATOM      3  C   UNL     1      -2.886  21.059  48.816  1.00  0.00    -0.028 C 
ATOM      4  C   UNL     1      -2.641  20.544  47.600  1.00  0.00    -0.027 C 
BRANCH   4   5
ATOM      5  C   UNL     1      -2.717  19.054  47.336  1.00  0.00     0.014 C 
BRANCH   5   6
ATOM      6  C   UNL     1      -3.555  18.391  48.467  1.00  0.00     0.004 C 
ATOM      7  C   UNL     1      -2.739  17.388  49.288  1.00  0.00     0.004 C 
ENDBRANCH   5   6
BRANCH   5   8
ATOM      8  C   UNL     1      -1.280  18.454  47.228  1.00  0.00    -0.011 C 
ATOM      9  C   UNL     1      -1.139  17.529  46.009  1.00  0.00     0.008 C 
ATOM     10  C   UNL     1      -0.212  19.561  47.137  1.00  0.00     0.008 C 
ENDBRANCH   5   8
ENDBRANCH   4   5
ENDBRANCH   1   3
BRANCH   1  11
ATOM     11  C   UNL     1      -4.262  23.158  49.281  1.00  0.00     0.002 C 
ATOM     12  C   UNL     1      -4.585  23.782  50.638  1.00  0.00     0.005 C 
ATOM     13  C   UNL     1      -4.714  24.204  48.219  1.00  0.00    -0.023 C 
ATOM     14  C   UNL     1      -5.752  24.733  50.390  1.00  0.00     0.009 C 
ATOM     15  C   UNL     1      -5.996  24.807  48.864  1.00  0.00     0.021 C 
ATOM     16  C   UNL     1      -3.642  25.325  48.025  1.00  0.00     0.008 C 
ATOM     17  C   UNL     1      -5.008  23.456  46.887  1.00  0.00     0.012 C 
ATOM     18  C   UNL     1      -6.325  26.229  48.401  1.00  0.00    -0.067 C 
ATOM     19  C   UNL     1      -4.113  26.612  47.301  1.00  0.00     0.009 C 
ATOM     20  C   UNL     1      -5.647  26.755  47.139  1.00  0.00     0.021 C 
ATOM     21  C   UNL     1      -7.145  27.007  49.150  1.00  0.00    -0.027 C 
ATOM     22  C   UNL     1      -6.163  28.178  46.681  1.00  0.00    -0.023 C 
ATOM     23  C   UNL     1      -7.379  28.471  48.900  1.00  0.00     0.031 C 
ATOM     24  C   UNL     1      -6.337  29.074  47.942  1.00  0.00     0.002 C 
ATOM     25  C   UNL     1      -5.170  28.868  45.694  1.00  0.00     0.010 C 
ATOM     26  C   UNL     1      -7.524  27.971  45.939  1.00  0.00     0.012 C 
ATOM     27  C   UNL     1      -6.700  30.539  47.605  1.00  0.00     0.036 C 
ATOM     28  C   UNL     1      -5.575  30.305  45.347  1.00  0.00     0.032 C 
ATOM     29  C   UNL     1      -5.707  31.162  46.611  1.00  0.00     0.114 C 
BRANCH  29  30
ATOM     30  O   UNL     1      -6.142  32.443  46.243  1.00  0.00    -0.393 OA
ATOM     31  H   UNL     1      -6.966  32.629  46.766  1.00  0.00     0.210 HD
ENDBRANCH  29  30
ENDBRANCH   1  11
TORSDOF 6
ENDMDL
MODEL 4
REMARK VINA RESULT:    -7.156      1.916      4.304
REMARK INTER + INTRA:         -10.534
REMARK INTER:                  -9.215
REMARK INTRA:                  -1.320
REMARK UNBOUND:                -1.078
REMARK SMILES CC[C@@H](C=C[C@H](C)[C@H]1CC[C@H]2C3=CC[C@@H]4C[C@H](O)CC[C@@]4(C)[C@H]3CC[C@@]12C)C(C)C
REMARK SMILES IDX 6 1 7 2 5 3 4 4 3 5 2 6 1 7 28 8 29 9 30 10 8 11 9 12 26 13
REMARK SMILES IDX 10 14 11 15 25 16 27 17 12 18 24 19 23 20 13 21 21 22 14 23
REMARK SMILES IDX 15 24 20 25 22 26 16 27 19 28 17 29 18 30
REMARK H PARENT 18 31
REMARK Flexibility Score: inf
ROOT
ATOM      1  C   UNL     1      -3.899  24.756  50.581  1.00  0.00     0.012 C 
ATOM      2  C   UNL     1      -4.367  24.681  52.044  1.00  0.00     0.012 C 
ENDROOT
BRANCH   1   3
ATOM      3  C   UNL     1      -3.154  23.490  50.215  1.00  0.00    -0.028 C 
ATOM      4  C   UNL     1      -3.542  22.685  49.213  1.00  0.00    -0.027 C 
BRANCH   4   5
ATOM      5  C   UNL     1      -2.782  21.419  48.869  1.00  0.00     0.014 C 
BRANCH   5   6
ATOM      6  C   UNL     1      -1.470  21.811  48.133  1.00  0.00     0.004 C 
ATOM      7  C   UNL     1      -1.230  20.969  46.876  1.00  0.00     0.004 C 
ENDBRANCH   5   6
BRANCH   5   8
ATOM      8  C   UNL     1      -3.682  20.468  48.020  1.00  0.00    -0.011 C 
ATOM      9  C   UNL     1      -3.942  19.135  48.740  1.00  0.00     0.008 C 
ATOM     10  C   UNL     1      -5.036  21.122  47.684  1.00  0.00     0.008 C 
ENDBRANCH   5   8
ENDBRANCH   4   5
ENDBRANCH   1   3
BRANCH   1  11
ATOM     11  C   UNL     1      -5.008  25.100  49.516  1.00  0.00     0.002 C 
ATOM     12  C   UNL     1      -6.441  25.236  50.029  1.00  0.00     0.005 C 
ATOM     13  C   UNL     1      -4.759  26.353  48.624  1.00  0.00    -0.023 C 
ATOM     14  C   UNL     1      -7.179  26.062  48.980  1.00  0.00     0.009 C 
ATOM     15  C   UNL     1      -6.144  26.564  47.946  1.00  0.00     0.021 C 
ATOM     16  C   UNL     1      -4.395  27.605  49.485  1.00  0.00     0.008 C 
ATOM     17  C   UNL     1      -3.636  26.014  47.604  1.00  0.00     0.012 C 
ATOM     18  C   UNL     1      -6.418  28.006  47.509  1.00  0.00    -0.067 C 
ATOM     19  C   UNL     1      -4.498  28.982  48.778  1.00  0.00     0.009 C 
ATOM     20  C   UNL     1      -5.240  28.972  47.419  1.00  0.00     0.021 C 
ATOM     21  C   UNL     1      -7.692  28.409  47.284  1.00  0.00    -0.027 C 
ATOM     22  C   UNL     1      -5.618  30.389  46.829  1.00  0.00    -0.023 C 
ATOM     23  C   UNL     1      -8.096  29.838  47.046  1.00  0.00     0.031 C 
ATOM     24  C   UNL     1      -6.985  30.830  47.430  1.00  0.00     0.002 C 
ATOM     25  C   UNL     1      -4.538  31.466  47.162  1.00  0.00     0.010 C 
ATOM     26  C   UNL     1      -5.702  30.247  45.273  1.00  0.00     0.012 C 
ATOM     27  C   UNL     1      -7.389  32.270  47.037  1.00  0.00     0.036 C 
ATOM     28  C   UNL     1      -4.949  32.877  46.725  1.00  0.00     0.032 C 
ATOM     29  C   UNL     1      -6.282  33.286  47.361  1.00  0.00     0.114 C 
BRANCH  29  30
ATOM     30  O   UNL     1      -6.641  34.552  46.879  1.00  0.00    -0.393 OA
ATOM     31  H   UNL     1      -5.912  35.176  47.137  1.00  0.00     0.210 HD
ENDBRANCH  29  30
ENDBRANCH   1  11
TORSDOF 6
ENDMDL
MODEL 5
REMARK VINA RESULT:    -7.086      4.269      6.854
REMARK INTER + INTRA:         -10.442
REMARK INTER:                 -10.050
REMARK INTRA:                  -0.392
REMARK UNBOUND:                -1.078
REMARK SMILES CC[C@@H](C=C[C@H](C)[C@H]1CC[C@H]2C3=CC[C@@H]4C[C@H](O)CC[C@@]4(C)[C@H]3CC[C@@]12C)C(C)C
REMARK SMILES IDX 6 1 7 2 5 3 4 4 3 5 2 6 1 7 28 8 29 9 30 10 8 11 9 12 26 13
REMARK SMILES IDX 10 14 11 15 25 16 27 17 12 18 24 19 23 20 13 21 21 22 14 23
REMARK SMILES IDX 15 24 20 25 22 26 16 27 19 28 17 29 18 30
REMARK H PARENT 18 31
REMARK Flexibility Score: inf
ROOT
ATOM      1  C   UNL     1      -5.215  23.398  48.617  1.00  0.00     0.012 C 
ATOM      2  C   UNL     1      -5.248  24.037  47.218  1.00  0.00     0.012 C 
ENDROOT
BRANCH   1   3
ATOM      3  C   UNL     1      -4.431  22.104  48.570  1.00  0.00    -0.028 C 
ATOM      4  C   UNL     1      -4.525  21.235  47.550  1.00  0.00    -0.027 C 
BRANCH   4   5
ATOM      5  C   UNL     1      -3.734  19.942  47.530  1.00  0.00     0.014 C 
BRANCH   5   6
ATOM      6  C   UNL     1      -3.149  19.695  48.950  1.00  0.00     0.004 C 
ATOM      7  C   UNL     1      -3.161  18.214  49.339  1.00  0.00     0.004 C 
ENDBRANCH   5   6
BRANCH   5   8
ATOM      8  C   UNL     1      -2.627  20.008  46.432  1.00  0.00    -0.011 C 
ATOM      9  C   UNL     1      -1.364  20.723  46.938  1.00  0.00     0.008 C 
ATOM     10  C   UNL     1      -2.237  18.602  45.939  1.00  0.00     0.008 C 
ENDBRANCH   5   8
ENDBRANCH   4   5
ENDBRANCH   1   3
BRANCH   1  11
ATOM     11  C   UNL     1      -4.723  24.327  49.791  1.00  0.00     0.002 C 
ATOM     12  C   UNL     1      -5.171  23.952  51.203  1.00  0.00     0.005 C 
ATOM     13  C   UNL     1      -3.189  24.580  49.888  1.00  0.00    -0.023 C 
ATOM     14  C   UNL     1      -4.178  24.626  52.144  1.00  0.00     0.009 C 
ATOM     15  C   UNL     1      -3.046  25.242  51.289  1.00  0.00     0.021 C 
ATOM     16  C   UNL     1      -2.384  23.240  49.852  1.00  0.00     0.008 C 
ATOM     17  C   UNL     1      -2.773  25.529  48.730  1.00  0.00     0.012 C 
ATOM     18  C   UNL     1      -1.670  25.059  51.936  1.00  0.00    -0.067 C 
ATOM     19  C   UNL     1      -0.907  23.310  50.320  1.00  0.00     0.009 C 
ATOM     20  C   UNL     1      -0.508  24.615  51.051  1.00  0.00     0.021 C 
ATOM     21  C   UNL     1      -1.529  25.221  53.274  1.00  0.00    -0.027 C 
ATOM     22  C   UNL     1       0.888  24.591  51.794  1.00  0.00    -0.023 C 
ATOM     23  C   UNL     1      -0.281  24.877  54.039  1.00  0.00     0.031 C 
ATOM     24  C   UNL     1       0.683  24.001  53.220  1.00  0.00     0.002 C 
ATOM     25  C   UNL     1       1.940  23.729  51.028  1.00  0.00     0.010 C 
ATOM     26  C   UNL     1       1.416  26.061  51.858  1.00  0.00     0.012 C 
ATOM     27  C   UNL     1       2.007  23.792  53.991  1.00  0.00     0.036 C 
ATOM     28  C   UNL     1       3.256  23.571  51.797  1.00  0.00     0.032 C 
ATOM     29  C   UNL     1       3.017  22.960  53.182  1.00  0.00     0.114 C 
BRANCH  29  30
ATOM     30  O   UNL     1       4.239  22.900  53.866  1.00  0.00    -0.393 OA
ATOM     31  H   UNL     1       4.664  22.036  53.621  1.00  0.00     0.210 HD
ENDBRANCH  29  30
ENDBRANCH   1  11
TORSDOF 6
ENDMDL
MODEL 6
REMARK VINA RESULT:    -7.046      3.162      9.301
REMARK INTER + INTRA:         -10.389
REMARK INTER:                  -9.034
REMARK INTRA:                  -1.355
REMARK UNBOUND:                -1.078
REMARK SMILES CC[C@@H](C=C[C@H](C)[C@H]1CC[C@H]2C3=CC[C@@H]4C[C@H](O)CC[C@@]4(C)[C@H]3CC[C@@]12C)C(C)C
REMARK SMILES IDX 6 1 7 2 5 3 4 4 3 5 2 6 1 7 28 8 29 9 30 10 8 11 9 12 26 13
REMARK SMILES IDX 10 14 11 15 25 16 27 17 12 18 24 19 23 20 13 21 21 22 14 23
REMARK SMILES IDX 15 24 20 25 22 26 16 27 19 28 17 29 18 30
REMARK H PARENT 18 31
REMARK Flexibility Score: inf
ROOT
ATOM      1  C   UNL     1      -5.048  26.877  50.332  1.00  0.00     0.012 C 
ATOM      2  C   UNL     1      -4.500  27.116  51.749  1.00  0.00     0.012 C 
ENDROOT
BRANCH   1   3
ATOM      3  C   UNL     1      -5.861  28.074  49.888  1.00  0.00    -0.028 C 
ATOM      4  C   UNL     1      -5.715  28.643  48.680  1.00  0.00    -0.027 C 
BRANCH   4   5
ATOM      5  C   UNL     1      -6.537  29.844  48.261  1.00  0.00     0.014 C 
BRANCH   5   6
ATOM      6  C   UNL     1      -7.349  29.473  46.987  1.00  0.00     0.004 C 
ATOM      7  C   UNL     1      -6.932  28.120  46.402  1.00  0.00     0.004 C 
ENDBRANCH   5   6
BRANCH   5   8
ATOM      8  C   UNL     1      -5.608  31.078  48.038  1.00  0.00    -0.011 C 
ATOM      9  C   UNL     1      -5.905  32.205  49.041  1.00  0.00     0.008 C 
ATOM     10  C   UNL     1      -4.121  30.693  48.151  1.00  0.00     0.008 C 
ENDBRANCH   5   8
ENDBRANCH   4   5
ENDBRANCH   1   3
BRANCH   1  11
ATOM     11  C   UNL     1      -3.988  26.464  49.241  1.00  0.00     0.002 C 
ATOM     12  C   UNL     1      -2.517  26.513  49.652  1.00  0.00     0.005 C 
ATOM     13  C   UNL     1      -4.189  25.079  48.558  1.00  0.00    -0.023 C 
ATOM     14  C   UNL     1      -1.784  25.600  48.675  1.00  0.00     0.009 C 
ATOM     15  C   UNL     1      -2.841  24.875  47.809  1.00  0.00     0.021 C 
ATOM     16  C   UNL     1      -4.385  23.942  49.614  1.00  0.00     0.008 C 
ATOM     17  C   UNL     1      -5.404  25.179  47.593  1.00  0.00     0.012 C 
ATOM     18  C   UNL     1      -2.474  23.408  47.559  1.00  0.00    -0.067 C 
ATOM     19  C   UNL     1      -4.213  22.489  49.102  1.00  0.00     0.009 C 
ATOM     20  C   UNL     1      -3.569  22.354  47.700  1.00  0.00     0.021 C 
ATOM     21  C   UNL     1      -1.189  23.073  47.292  1.00  0.00    -0.027 C 
ATOM     22  C   UNL     1      -3.112  20.898  47.288  1.00  0.00    -0.023 C 
ATOM     23  C   UNL     1      -0.681  21.659  47.227  1.00  0.00     0.031 C 
ATOM     24  C   UNL     1      -1.674  20.654  47.835  1.00  0.00     0.002 C 
ATOM     25  C   UNL     1      -4.070  19.804  47.855  1.00  0.00     0.010 C 
ATOM     26  C   UNL     1      -3.146  20.816  45.726  1.00  0.00     0.012 C 
ATOM     27  C   UNL     1      -1.176  19.206  47.618  1.00  0.00     0.036 C 
ATOM     28  C   UNL     1      -3.571  18.379  47.591  1.00  0.00     0.032 C 
ATOM     29  C   UNL     1      -2.167  18.169  48.170  1.00  0.00     0.114 C 
BRANCH  29  30
ATOM     30  O   UNL     1      -1.734  16.876  47.844  1.00  0.00    -0.393 OA
ATOM     31  H   UNL     1      -2.456  16.252  48.121  1.00  0.00     0.210 HD
ENDBRANCH  29  30
ENDBRANCH   1  11
TORSDOF 6
ENDMDL
MODEL 7
REMARK VINA RESULT:    -7.017      3.154      9.817
REMARK INTER + INTRA:         -10.351
REMARK INTER:                  -8.969
REMARK INTRA:                  -1.382
REMARK UNBOUND:                -1.078
REMARK SMILES CC[C@@H](C=C[C@H](C)[C@H]1CC[C@H]2C3=CC[C@@H]4C[C@H](O)CC[C@@]4(C)[C@H]3CC[C@@]12C)C(C)C
REMARK SMILES IDX 6 1 7 2 5 3 4 4 3 5 2 6 1 7 28 8 29 9 30 10 8 11 9 12 26 13
REMARK SMILES IDX 10 14 11 15 25 16 27 17 12 18 24 19 23 20 13 21 21 22 14 23
REMARK SMILES IDX 15 24 20 25 22 26 16 27 19 28 17 29 18 30
REMARK H PARENT 18 31
REMARK Flexibility Score: inf
ROOT
ATOM      1  C   UNL     1      -7.381  29.137  47.031  1.00  0.00     0.012 C 
ATOM      2  C   UNL     1      -8.827  28.869  46.582  1.00  0.00     0.012 C 
ENDROOT
BRANCH   1   3
ATOM      3  C   UNL     1      -7.211  30.604  47.364  1.00  0.00    -0.028 C 
ATOM      4  C   UNL     1      -6.498  31.031  48.419  1.00  0.00    -0.027 C 
BRANCH   4   5
ATOM      5  C   UNL     1      -6.348  32.505  48.734  1.00  0.00     0.014 C 
BRANCH   5   6
ATOM      6  C   UNL     1      -7.308  33.312  47.814  1.00  0.00     0.004 C 
ATOM      7  C   UNL     1      -8.032  34.434  48.563  1.00  0.00     0.004 C 
ENDBRANCH   5   6
BRANCH   5   8
ATOM      8  C   UNL     1      -4.858  32.940  48.568  1.00  0.00    -0.011 C 
ATOM      9  C   UNL     1      -3.889  31.871  49.098  1.00  0.00     0.008 C 
ATOM     10  C   UNL     1      -4.516  33.231  47.094  1.00  0.00     0.008 C 
ENDBRANCH   5   8
ENDBRANCH   4   5
ENDBRANCH   1   3
BRANCH   1  11
ATOM     11  C   UNL     1      -6.834  28.218  48.188  1.00  0.00     0.002 C 
ATOM     12  C   UNL     1      -7.827  27.250  48.831  1.00  0.00     0.005 C 
ATOM     13  C   UNL     1      -5.566  27.371  47.869  1.00  0.00    -0.023 C 
ATOM     14  C   UNL     1      -6.980  26.163  49.485  1.00  0.00     0.009 C 
ATOM     15  C   UNL     1      -5.506  26.389  49.075  1.00  0.00     0.021 C 
ATOM     16  C   UNL     1      -5.733  26.566  46.540  1.00  0.00     0.008 C 
ATOM     17  C   UNL     1      -4.340  28.325  47.811  1.00  0.00     0.012 C 
ATOM     18  C   UNL     1      -4.781  25.072  48.780  1.00  0.00    -0.067 C 
ATOM     19  C   UNL     1      -4.730  25.408  46.303  1.00  0.00     0.009 C 
ATOM     20  C   UNL     1      -3.894  24.995  47.540  1.00  0.00     0.021 C 
ATOM     21  C   UNL     1      -4.996  23.994  49.573  1.00  0.00    -0.027 C 
ATOM     22  C   UNL     1      -3.093  23.639  47.410  1.00  0.00    -0.023 C 
ATOM     23  C   UNL     1      -4.499  22.608  49.267  1.00  0.00     0.031 C 
ATOM     24  C   UNL     1      -4.033  22.464  47.808  1.00  0.00     0.002 C 
ATOM     25  C   UNL     1      -2.569  23.409  45.958  1.00  0.00     0.010 C 
ATOM     26  C   UNL     1      -1.857  23.726  48.366  1.00  0.00     0.012 C 
ATOM     27  C   UNL     1      -3.401  21.071  47.580  1.00  0.00     0.036 C 
ATOM     28  C   UNL     1      -1.913  22.036  45.771  1.00  0.00     0.032 C 
ATOM     29  C   UNL     1      -2.879  20.906  46.143  1.00  0.00     0.114 C 
BRANCH  29  30
ATOM     30  O   UNL     1      -2.209  19.681  46.018  1.00  0.00    -0.393 OA
ATOM     31  H   UNL     1      -1.533  19.795  45.298  1.00  0.00     0.210 HD
ENDBRANCH  29  30
ENDBRANCH   1  11
TORSDOF 6
ENDMDL
MODEL 8
REMARK VINA RESULT:    -6.991      4.093      9.286
REMARK INTER + INTRA:         -10.316
REMARK INTER:                  -9.021
REMARK INTRA:                  -1.295
REMARK UNBOUND:                -1.078
REMARK SMILES CC[C@@H](C=C[C@H](C)[C@H]1CC[C@H]2C3=CC[C@@H]4C[C@H](O)CC[C@@]4(C)[C@H]3CC[C@@]12C)C(C)C
REMARK SMILES IDX 6 1 7 2 5 3 4 4 3 5 2 6 1 7 28 8 29 9 30 10 8 11 9 12 26 13
REMARK SMILES IDX 10 14 11 15 25 16 27 17 12 18 24 19 23 20 13 21 21 22 14 23
REMARK SMILES IDX 15 24 20 25 22 26 16 27 19 28 17 29 18 30
REMARK H PARENT 18 31
REMARK Flexibility Score: inf
ROOT
ATOM      1  C   UNL     1      -6.629  29.485  46.704  1.00  0.00     0.012 C 
ATOM      2  C   UNL     1      -5.827  30.082  45.536  1.00  0.00     0.012 C 
ENDROOT
BRANCH   1   3
ATOM      3  C   UNL     1      -8.060  29.974  46.647  1.00  0.00    -0.028 C 
ATOM      4  C   UNL     1      -9.077  29.197  46.241  1.00  0.00    -0.027 C 
BRANCH   4   5
ATOM      5  C   UNL     1     -10.501  29.712  46.187  1.00  0.00     0.014 C 
BRANCH   5   6
ATOM      6  C   UNL     1     -11.460  28.573  46.637  1.00  0.00     0.004 C 
ATOM      7  C   UNL     1     -10.890  27.752  47.797  1.00  0.00     0.004 C 
ENDBRANCH   5   6
BRANCH   5   8
ATOM      8  C   UNL     1     -10.828  30.235  44.753  1.00  0.00    -0.011 C 
ATOM      9  C   UNL     1     -12.122  29.616  44.202  1.00  0.00     0.008 C 
ATOM     10  C   UNL     1     -10.964  31.770  44.730  1.00  0.00     0.008 C 
ENDBRANCH   5   8
ENDBRANCH   4   5
ENDBRANCH   1   3
BRANCH   1  11
ATOM     11  C   UNL     1      -6.562  27.919  46.861  1.00  0.00     0.002 C 
ATOM     12  C   UNL     1      -5.699  27.159  45.855  1.00  0.00     0.005 C 
ATOM     13  C   UNL     1      -6.157  27.371  48.262  1.00  0.00    -0.023 C 
ATOM     14  C   UNL     1      -5.375  25.821  46.513  1.00  0.00     0.009 C 
ATOM     15  C   UNL     1      -5.892  25.866  47.971  1.00  0.00     0.021 C 
ATOM     16  C   UNL     1      -4.848  28.048  48.785  1.00  0.00     0.008 C 
ATOM     17  C   UNL     1      -7.346  27.593  49.239  1.00  0.00     0.012 C 
ATOM     18  C   UNL     1      -4.919  25.196  48.947  1.00  0.00    -0.067 C 
ATOM     19  C   UNL     1      -4.129  27.340  49.963  1.00  0.00     0.009 C 
ATOM     20  C   UNL     1      -4.618  25.902  50.267  1.00  0.00     0.021 C 
ATOM     21  C   UNL     1      -4.300  24.044  48.595  1.00  0.00    -0.027 C 
ATOM     22  C   UNL     1      -3.712  25.059  51.251  1.00  0.00    -0.023 C 
ATOM     23  C   UNL     1      -3.187  23.409  49.382  1.00  0.00     0.031 C 
ATOM     24  C   UNL     1      -2.587  24.369  50.425  1.00  0.00     0.002 C 
ATOM     25  C   UNL     1      -3.065  25.952  52.355  1.00  0.00     0.010 C 
ATOM     26  C   UNL     1      -4.630  24.005  51.952  1.00  0.00     0.012 C 
ATOM     27  C   UNL     1      -1.550  23.632  51.302  1.00  0.00     0.036 C 
ATOM     28  C   UNL     1      -2.070  25.185  53.235  1.00  0.00     0.032 C 
ATOM     29  C   UNL     1      -0.963  24.547  52.389  1.00  0.00     0.114 C 
BRANCH  29  30
ATOM     30  O   UNL     1      -0.122  23.807  53.232  1.00  0.00    -0.393 OA
ATOM     31  H   UNL     1      -0.630  23.639  54.070  1.00  0.00     0.210 HD
ENDBRANCH  29  30
ENDBRANCH   1  11
TORSDOF 6
ENDMDL
MODEL 9
REMARK VINA RESULT:    -6.954      2.234      4.480
REMARK INTER + INTRA:         -10.268
REMARK INTER:                  -9.091
REMARK INTRA:                  -1.177
REMARK UNBOUND:                -1.078
REMARK SMILES CC[C@@H](C=C[C@H](C)[C@H]1CC[C@H]2C3=CC[C@@H]4C[C@H](O)CC[C@@]4(C)[C@H]3CC[C@@]12C)C(C)C
REMARK SMILES IDX 6 1 7 2 5 3 4 4 3 5 2 6 1 7 28 8 29 9 30 10 8 11 9 12 26 13
REMARK SMILES IDX 10 14 11 15 25 16 27 17 12 18 24 19 23 20 13 21 21 22 14 23
REMARK SMILES IDX 15 24 20 25 22 26 16 27 19 28 17 29 18 30
REMARK H PARENT 18 31
REMARK Flexibility Score: inf
ROOT
ATOM      1  C   UNL     1      -4.382  24.168  49.914  1.00  0.00     0.012 C 
ATOM      2  C   UNL     1      -5.035  23.986  51.294  1.00  0.00     0.012 C 
ENDROOT
BRANCH   1   3
ATOM      3  C   UNL     1      -4.127  22.815  49.285  1.00  0.00    -0.028 C 
ATOM      4  C   UNL     1      -4.400  22.552  47.996  1.00  0.00    -0.027 C 
BRANCH   4   5
ATOM      5  C   UNL     1      -4.141  21.187  47.391  1.00  0.00     0.014 C 
BRANCH   5   6
ATOM      6  C   UNL     1      -3.728  20.208  48.527  1.00  0.00     0.004 C 
ATOM      7  C   UNL     1      -4.497  18.885  48.470  1.00  0.00     0.004 C 
ENDBRANCH   5   6
BRANCH   5   8
ATOM      8  C   UNL     1      -3.058  21.293  46.272  1.00  0.00    -0.011 C 
ATOM      9  C   UNL     1      -2.415  22.688  46.232  1.00  0.00     0.008 C 
ATOM     10  C   UNL     1      -1.948  20.241  46.460  1.00  0.00     0.008 C 
ENDBRANCH   5   8
ENDBRANCH   4   5
ENDBRANCH   1   3
BRANCH   1  11
ATOM     11  C   UNL     1      -5.126  25.136  48.918  1.00  0.00     0.002 C 
ATOM     12  C   UNL     1      -6.611  25.387  49.177  1.00  0.00     0.005 C 
ATOM     13  C   UNL     1      -4.492  26.542  48.701  1.00  0.00    -0.023 C 
ATOM     14  C   UNL     1      -6.940  26.695  48.465  1.00  0.00     0.009 C 
ATOM     15  C   UNL     1      -5.618  27.305  47.944  1.00  0.00     0.021 C 
ATOM     16  C   UNL     1      -4.195  27.252  50.062  1.00  0.00     0.008 C 
ATOM     17  C   UNL     1      -3.202  26.374  47.850  1.00  0.00     0.012 C 
ATOM     18  C   UNL     1      -5.575  28.826  48.118  1.00  0.00    -0.067 C 
ATOM     19  C   UNL     1      -3.930  28.778  50.000  1.00  0.00     0.009 C 
ATOM     20  C   UNL     1      -4.294  29.458  48.657  1.00  0.00     0.021 C 
ATOM     21  C   UNL     1      -6.684  29.563  47.864  1.00  0.00    -0.027 C 
ATOM     22  C   UNL     1      -4.317  31.039  48.667  1.00  0.00    -0.023 C 
ATOM     23  C   UNL     1      -6.819  31.025  48.188  1.00  0.00     0.031 C 
ATOM     24  C   UNL     1      -5.719  31.514  49.147  1.00  0.00     0.002 C 
ATOM     25  C   UNL     1      -3.223  31.631  49.611  1.00  0.00     0.010 C 
ATOM     26  C   UNL     1      -4.019  31.525  47.211  1.00  0.00     0.012 C 
ATOM     27  C   UNL     1      -5.813  33.046  49.337  1.00  0.00     0.036 C 
ATOM     28  C   UNL     1      -3.316  33.154  49.750  1.00  0.00     0.032 C 
ATOM     29  C   UNL     1      -4.700  33.580  50.252  1.00  0.00     0.114 C 
BRANCH  29  30
ATOM     30  O   UNL     1      -4.751  34.981  50.297  1.00  0.00    -0.393 OA
ATOM     31  H   UNL     1      -4.808  35.236  51.256  1.00  0.00     0.210 HD
ENDBRANCH  29  30
ENDBRANCH   1  11
TORSDOF 6
ENDMDL
