MODEL 1
REMARK VINA RESULT:    -5.042      0.000      0.000
REMARK INTER + INTRA:         -10.037
REMARK INTER:                  -9.464
REMARK INTRA:                  -0.573
REMARK UNBOUND:                -0.573
REMARK SMILES CCCCCCCCC=CCCCCCCCC(=O)[O-]
REMARK SMILES IDX 10 1 9 2 11 3 12 4 13 5 14 6 15 7 16 8 17 9 18 10 19 11
REMARK SMILES IDX 20 12 8 13 7 14 6 15 5 16 4 17 3 18 2 19 1 20
REMARK H PARENT
REMARK Flexibility Score: inf
ROOT
ATOM      1  C   UNL     1      -1.138  -8.144  -2.019  1.00  0.00    -0.031 C 
ATOM      2  C   UNL     1      -0.643  -6.939  -2.358  1.00  0.00    -0.031 C 
ENDROOT
BRANCH   1   3
ATOM      3  C   UNL     1      -0.751  -8.914  -0.779  1.00  0.00     0.027 C 
BRANCH   3   4
ATOM      4  C   UNL     1      -1.772 -10.014  -0.442  1.00  0.00     0.004 C 
BRANCH   4   5
ATOM      5  C   UNL     1      -1.312 -10.971   0.673  1.00  0.00     0.000 C 
BRANCH   5   6
ATOM      6  C   UNL     1      -2.190 -10.871   1.933  1.00  0.00     0.000 C 
BRANCH   6   7
ATOM      7  C   UNL     1      -2.151  -9.476   2.583  1.00  0.00     0.000 C 
BRANCH   7   8
ATOM      8  C   UNL     1      -2.647  -9.419   4.040  1.00  0.00     0.006 C 
BRANCH   8   9
ATOM      9  C   UNL     1      -3.981 -10.147   4.248  1.00  0.00     0.053 C 
BRANCH   9  10
ATOM     10  C   UNL     1      -4.675  -9.627   5.467  1.00  0.00     0.041 C 
ATOM     11  O   UNL     1      -5.792  -9.054   5.363  1.00  0.00    -0.550 OA
ATOM     12  O   UNL     1      -4.115  -9.819   6.723  1.00  0.00    -0.550 OA
ENDBRANCH   9  10
ENDBRANCH   8   9
ENDBRANCH   7   8
ENDBRANCH   6   7
ENDBRANCH   5   6
ENDBRANCH   4   5
ENDBRANCH   3   4
ENDBRANCH   1   3
BRANCH   2  13
ATOM     13  C   UNL     1       0.445  -6.211  -1.606  1.00  0.00     0.027 C 
BRANCH  13  14
ATOM     14  C   UNL     1       0.645  -4.777  -2.122  1.00  0.00     0.004 C 
BRANCH  14  15
ATOM     15  C   UNL     1       0.527  -3.687  -1.037  1.00  0.00     0.000 C 
BRANCH  15  16
ATOM     16  C   UNL     1       0.337  -2.253  -1.571  1.00  0.00     0.000 C 
BRANCH  16  17
ATOM     17  C   UNL     1       1.476  -1.738  -2.474  1.00  0.00    -0.000 C 
BRANCH  17  18
ATOM     18  C   UNL     1       2.593  -0.970  -1.739  1.00  0.00    -0.000 C 
BRANCH  18  19
ATOM     19  C   UNL     1       3.802  -0.593  -2.613  1.00  0.00    -0.003 C 
ATOM     20  C   UNL     1       5.125  -0.634  -1.849  1.00  0.00     0.004 C 
ENDBRANCH  18  19
ENDBRANCH  17  18
ENDBRANCH  16  17
ENDBRANCH  15  16
ENDBRANCH  14  15
ENDBRANCH  13  14
ENDBRANCH   2  13
TORSDOF 15
ENDMDL
MODEL 2
REMARK VINA RESULT:    -4.567      6.209     10.624
REMARK INTER + INTRA:          -9.145
REMARK INTER:                  -7.455
REMARK INTRA:                  -1.690
REMARK UNBOUND:                -0.573
REMARK SMILES CCCCCCCCC=CCCCCCCCC(=O)[O-]
REMARK SMILES IDX 10 1 9 2 11 3 12 4 13 5 14 6 15 7 16 8 17 9 18 10 19 11
REMARK SMILES IDX 20 12 8 13 7 14 6 15 5 16 4 17 3 18 2 19 1 20
REMARK H PARENT
REMARK Flexibility Score: inf
ROOT
ATOM      1  C   UNL     1      -8.015  -4.658   5.890  1.00  0.00    -0.031 C 
ATOM      2  C   UNL     1      -6.983  -5.516   5.782  1.00  0.00    -0.031 C 
ENDROOT
BRANCH   1   3
ATOM      3  C   UNL     1      -8.267  -3.763   7.080  1.00  0.00     0.027 C 
BRANCH   3   4
ATOM      4  C   UNL     1      -8.680  -2.343   6.653  1.00  0.00     0.004 C 
BRANCH   4   5
ATOM      5  C   UNL     1      -7.649  -1.640   5.751  1.00  0.00     0.000 C 
BRANCH   5   6
ATOM      6  C   UNL     1      -6.815  -0.596   6.512  1.00  0.00     0.000 C 
BRANCH   6   7
ATOM      7  C   UNL     1      -5.299  -0.783   6.319  1.00  0.00     0.000 C 
BRANCH   7   8
ATOM      8  C   UNL     1      -4.762  -2.181   6.679  1.00  0.00     0.006 C 
BRANCH   8   9
ATOM      9  C   UNL     1      -4.031  -2.861   5.514  1.00  0.00     0.053 C 
BRANCH   9  10
ATOM     10  C   UNL     1      -2.704  -3.385   5.964  1.00  0.00     0.041 C 
ATOM     11  O   UNL     1      -1.642  -2.805   5.613  1.00  0.00    -0.550 OA
ATOM     12  O   UNL     1      -2.640  -4.481   6.814  1.00  0.00    -0.550 OA
ENDBRANCH   9  10
ENDBRANCH   8   9
ENDBRANCH   7   8
ENDBRANCH   6   7
ENDBRANCH   5   6
ENDBRANCH   4   5
ENDBRANCH   3   4
ENDBRANCH   1   3
BRANCH   2  13
ATOM     13  C   UNL     1      -5.971  -5.788   6.870  1.00  0.00     0.027 C 
BRANCH  13  14
ATOM     14  C   UNL     1      -5.327  -7.177   6.725  1.00  0.00     0.004 C 
BRANCH  14  15
ATOM     15  C   UNL     1      -6.257  -8.253   6.130  1.00  0.00     0.000 C 
BRANCH  15  16
ATOM     16  C   UNL     1      -5.537  -9.435   5.451  1.00  0.00     0.000 C 
BRANCH  16  17
ATOM     17  C   UNL     1      -4.039  -9.208   5.167  1.00  0.00    -0.000 C 
BRANCH  17  18
ATOM     18  C   UNL     1      -3.495  -9.931   3.920  1.00  0.00    -0.000 C 
BRANCH  18  19
ATOM     19  C   UNL     1      -2.267  -9.269   3.271  1.00  0.00    -0.003 C 
ATOM     20  C   UNL     1      -1.917  -9.868   1.909  1.00  0.00     0.004 C 
ENDBRANCH  18  19
ENDBRANCH  17  18
ENDBRANCH  16  17
ENDBRANCH  15  16
ENDBRANCH  14  15
ENDBRANCH  13  14
ENDBRANCH   2  13
TORSDOF 15
ENDMDL
MODEL 3
REMARK VINA RESULT:    -4.540      7.774     11.277
REMARK INTER + INTRA:          -9.095
REMARK INTER:                  -6.911
REMARK INTRA:                  -2.184
REMARK UNBOUND:                -0.573
REMARK SMILES CCCCCCCCC=CCCCCCCCC(=O)[O-]
REMARK SMILES IDX 10 1 9 2 11 3 12 4 13 5 14 6 15 7 16 8 17 9 18 10 19 11
REMARK SMILES IDX 20 12 8 13 7 14 6 15 5 16 4 17 3 18 2 19 1 20
REMARK H PARENT
REMARK Flexibility Score: inf
ROOT
ATOM      1  C   UNL     1      -7.219  -4.695   5.930  1.00  0.00    -0.031 C 
ATOM      2  C   UNL     1      -7.969  -5.471   5.125  1.00  0.00    -0.031 C 
ENDROOT
BRANCH   1   3
ATOM      3  C   UNL     1      -7.766  -3.821   7.033  1.00  0.00     0.027 C 
BRANCH   3   4
ATOM      4  C   UNL     1      -7.907  -2.354   6.589  1.00  0.00     0.004 C 
BRANCH   4   5
ATOM      5  C   UNL     1      -6.896  -1.932   5.506  1.00  0.00     0.000 C 
BRANCH   5   6
ATOM      6  C   UNL     1      -5.860  -0.922   6.030  1.00  0.00     0.000 C 
BRANCH   6   7
ATOM      7  C   UNL     1      -4.546  -1.588   6.475  1.00  0.00     0.000 C 
BRANCH   7   8
ATOM      8  C   UNL     1      -4.068  -2.752   5.587  1.00  0.00     0.006 C 
BRANCH   8   9
ATOM      9  C   UNL     1      -2.767  -3.393   6.085  1.00  0.00     0.053 C 
BRANCH   9  10
ATOM     10  C   UNL     1      -2.917  -4.879   6.172  1.00  0.00     0.041 C 
ATOM     11  O   UNL     1      -2.357  -5.623   5.324  1.00  0.00    -0.550 OA
ATOM     12  O   UNL     1      -3.630  -5.446   7.220  1.00  0.00    -0.550 OA
ENDBRANCH   9  10
ENDBRANCH   8   9
ENDBRANCH   7   8
ENDBRANCH   6   7
ENDBRANCH   5   6
ENDBRANCH   4   5
ENDBRANCH   3   4
ENDBRANCH   1   3
BRANCH   2  13
ATOM     13  C   UNL     1      -9.479  -5.517   5.135  1.00  0.00     0.027 C 
BRANCH  13  14
ATOM     14  C   UNL     1     -10.030  -6.584   4.174  1.00  0.00     0.004 C 
BRANCH  14  15
ATOM     15  C   UNL     1      -8.964  -7.251   3.282  1.00  0.00     0.000 C 
BRANCH  15  16
ATOM     16  C   UNL     1      -8.736  -8.752   3.549  1.00  0.00     0.000 C 
BRANCH  16  17
ATOM     17  C   UNL     1      -9.131  -9.229   4.961  1.00  0.00    -0.000 C 
BRANCH  17  18
ATOM     18  C   UNL     1      -8.000  -9.176   6.007  1.00  0.00    -0.000 C 
BRANCH  18  19
ATOM     19  C   UNL     1      -6.577  -9.140   5.421  1.00  0.00    -0.003 C 
ATOM     20  C   UNL     1      -5.638  -8.216   6.195  1.00  0.00     0.004 C 
ENDBRANCH  18  19
ENDBRANCH  17  18
ENDBRANCH  16  17
ENDBRANCH  15  16
ENDBRANCH  14  15
ENDBRANCH  13  14
ENDBRANCH   2  13
TORSDOF 15
ENDMDL
MODEL 4
REMARK VINA RESULT:    -4.465      8.830     11.638
REMARK INTER + INTRA:          -8.953
REMARK INTER:                  -6.183
REMARK INTRA:                  -2.770
REMARK UNBOUND:                -0.573
REMARK SMILES CCCCCCCCC=CCCCCCCCC(=O)[O-]
REMARK SMILES IDX 10 1 9 2 11 3 12 4 13 5 14 6 15 7 16 8 17 9 18 10 19 11
REMARK SMILES IDX 20 12 8 13 7 14 6 15 5 16 4 17 3 18 2 19 1 20
REMARK H PARENT
REMARK Flexibility Score: inf
ROOT
ATOM      1  C   UNL     1      -5.025  -5.262   5.495  1.00  0.00    -0.031 C 
ATOM      2  C   UNL     1      -6.235  -4.882   5.946  1.00  0.00    -0.031 C 
ENDROOT
BRANCH   1   3
ATOM      3  C   UNL     1      -3.850  -5.608   6.377  1.00  0.00     0.027 C 
BRANCH   3   4
ATOM      4  C   UNL     1      -2.781  -4.501   6.372  1.00  0.00     0.004 C 
BRANCH   4   5
ATOM      5  C   UNL     1      -2.661  -3.746   7.709  1.00  0.00     0.000 C 
BRANCH   5   6
ATOM      6  C   UNL     1      -3.574  -2.509   7.770  1.00  0.00     0.000 C 
BRANCH   6   7
ATOM      7  C   UNL     1      -3.925  -1.953   6.377  1.00  0.00     0.000 C 
BRANCH   7   8
ATOM      8  C   UNL     1      -5.317  -1.305   6.264  1.00  0.00     0.006 C 
BRANCH   8   9
ATOM      9  C   UNL     1      -5.786  -0.656   7.572  1.00  0.00     0.053 C 
BRANCH   9  10
ATOM     10  C   UNL     1      -5.942   0.822   7.396  1.00  0.00     0.041 C 
ATOM     11  O   UNL     1      -7.078   1.355   7.500  1.00  0.00    -0.550 OA
ATOM     12  O   UNL     1      -4.827   1.617   7.167  1.00  0.00    -0.550 OA
ENDBRANCH   9  10
ENDBRANCH   8   9
ENDBRANCH   7   8
ENDBRANCH   6   7
ENDBRANCH   5   6
ENDBRANCH   4   5
ENDBRANCH   3   4
ENDBRANCH   1   3
BRANCH   2  13
ATOM     13  C   UNL     1      -6.580  -4.650   7.398  1.00  0.00     0.027 C 
BRANCH  13  14
ATOM     14  C   UNL     1      -7.884  -3.851   7.561  1.00  0.00     0.004 C 
BRANCH  14  15
ATOM     15  C   UNL     1      -8.610  -3.537   6.237  1.00  0.00     0.000 C 
BRANCH  15  16
ATOM     16  C   UNL     1      -9.963  -4.251   6.049  1.00  0.00     0.000 C 
BRANCH  16  17
ATOM     17  C   UNL     1      -9.864  -5.744   5.676  1.00  0.00    -0.000 C 
BRANCH  17  18
ATOM     18  C   UNL     1      -9.246  -6.030   4.293  1.00  0.00    -0.000 C 
BRANCH  18  19
ATOM     19  C   UNL     1      -8.608  -7.422   4.144  1.00  0.00    -0.003 C 
ATOM     20  C   UNL     1      -8.145  -8.011   5.476  1.00  0.00     0.004 C 
ENDBRANCH  18  19
ENDBRANCH  17  18
ENDBRANCH  16  17
ENDBRANCH  15  16
ENDBRANCH  14  15
ENDBRANCH  13  14
ENDBRANCH   2  13
TORSDOF 15
ENDMDL
MODEL 5
REMARK VINA RESULT:    -4.446      6.461      9.071
REMARK INTER + INTRA:          -8.917
REMARK INTER:                  -7.271
REMARK INTRA:                  -1.646
REMARK UNBOUND:                -0.573
REMARK SMILES CCCCCCCCC=CCCCCCCCC(=O)[O-]
REMARK SMILES IDX 10 1 9 2 11 3 12 4 13 5 14 6 15 7 16 8 17 9 18 10 19 11
REMARK SMILES IDX 20 12 8 13 7 14 6 15 5 16 4 17 3 18 2 19 1 20
REMARK H PARENT
REMARK Flexibility Score: inf
ROOT
ATOM      1  C   UNL     1      -6.715  -5.389   5.809  1.00  0.00    -0.031 C 
ATOM      2  C   UNL     1      -7.949  -4.898   5.591  1.00  0.00    -0.031 C 
ENDROOT
BRANCH   1   3
ATOM      3  C   UNL     1      -6.037  -5.443   7.157  1.00  0.00     0.027 C 
BRANCH   3   4
ATOM      4  C   UNL     1      -5.898  -6.885   7.675  1.00  0.00     0.004 C 
BRANCH   4   5
ATOM      5  C   UNL     1      -5.574  -7.913   6.575  1.00  0.00     0.000 C 
BRANCH   5   6
ATOM      6  C   UNL     1      -4.893  -9.175   7.131  1.00  0.00     0.000 C 
BRANCH   6   7
ATOM      7  C   UNL     1      -4.901 -10.349   6.134  1.00  0.00     0.000 C 
BRANCH   7   8
ATOM      8  C   UNL     1      -4.665  -9.959   4.663  1.00  0.00     0.006 C 
BRANCH   8   9
ATOM      9  C   UNL     1      -3.331 -10.478   4.111  1.00  0.00     0.053 C 
BRANCH   9  10
ATOM     10  C   UNL     1      -2.457  -9.337   3.696  1.00  0.00     0.041 C 
ATOM     11  O   UNL     1      -2.180  -8.421   4.516  1.00  0.00    -0.550 OA
ATOM     12  O   UNL     1      -1.907  -9.309   2.422  1.00  0.00    -0.550 OA
ENDBRANCH   9  10
ENDBRANCH   8   9
ENDBRANCH   7   8
ENDBRANCH   6   7
ENDBRANCH   5   6
ENDBRANCH   4   5
ENDBRANCH   3   4
ENDBRANCH   1   3
BRANCH   2  13
ATOM     13  C   UNL     1      -8.812  -4.238   6.641  1.00  0.00     0.027 C 
BRANCH  13  14
ATOM     14  C   UNL     1      -8.980  -2.731   6.385  1.00  0.00     0.004 C 
BRANCH  14  15
ATOM     15  C   UNL     1      -7.747  -1.880   6.751  1.00  0.00     0.000 C 
BRANCH  15  16
ATOM     16  C   UNL     1      -6.892  -1.422   5.552  1.00  0.00     0.000 C 
BRANCH  16  17
ATOM     17  C   UNL     1      -5.469  -0.951   5.910  1.00  0.00    -0.000 C 
BRANCH  17  18
ATOM     18  C   UNL     1      -4.572  -2.025   6.558  1.00  0.00    -0.000 C 
BRANCH  18  19
ATOM     19  C   UNL     1      -3.717  -2.837   5.569  1.00  0.00    -0.003 C 
ATOM     20  C   UNL     1      -2.338  -3.192   6.126  1.00  0.00     0.004 C 
ENDBRANCH  18  19
ENDBRANCH  17  18
ENDBRANCH  16  17
ENDBRANCH  15  16
ENDBRANCH  14  15
ENDBRANCH  13  14
ENDBRANCH   2  13
TORSDOF 15
ENDMDL
MODEL 6
REMARK VINA RESULT:    -4.381      6.722      9.682
REMARK INTER + INTRA:          -8.795
REMARK INTER:                  -6.474
REMARK INTRA:                  -2.321
REMARK UNBOUND:                -0.573
REMARK SMILES CCCCCCCCC=CCCCCCCCC(=O)[O-]
REMARK SMILES IDX 10 1 9 2 11 3 12 4 13 5 14 6 15 7 16 8 17 9 18 10 19 11
REMARK SMILES IDX 20 12 8 13 7 14 6 15 5 16 4 17 3 18 2 19 1 20
REMARK H PARENT
REMARK Flexibility Score: inf
ROOT
ATOM      1  C   UNL     1      -3.343  -4.439   5.931  1.00  0.00    -0.031 C 
ATOM      2  C   UNL     1      -3.707  -3.215   5.506  1.00  0.00    -0.031 C 
ENDROOT
BRANCH   1   3
ATOM      3  C   UNL     1      -4.259  -5.637   5.987  1.00  0.00     0.027 C 
BRANCH   3   4
ATOM      4  C   UNL     1      -4.910  -5.800   7.372  1.00  0.00     0.004 C 
BRANCH   4   5
ATOM      5  C   UNL     1      -5.649  -7.138   7.560  1.00  0.00     0.000 C 
BRANCH   5   6
ATOM      6  C   UNL     1      -5.429  -8.102   6.381  1.00  0.00     0.000 C 
BRANCH   6   7
ATOM      7  C   UNL     1      -5.204  -9.557   6.830  1.00  0.00     0.000 C 
BRANCH   7   8
ATOM      8  C   UNL     1      -4.272 -10.384   5.924  1.00  0.00     0.006 C 
BRANCH   8   9
ATOM      9  C   UNL     1      -4.350  -9.974   4.448  1.00  0.00     0.053 C 
BRANCH   9  10
ATOM     10  C   UNL     1      -2.995  -9.600   3.938  1.00  0.00     0.041 C 
ATOM     11  O   UNL     1      -2.530 -10.156   2.908  1.00  0.00    -0.550 OA
ATOM     12  O   UNL     1      -2.265  -8.601   4.568  1.00  0.00    -0.550 OA
ENDBRANCH   9  10
ENDBRANCH   8   9
ENDBRANCH   7   8
ENDBRANCH   6   7
ENDBRANCH   5   6
ENDBRANCH   4   5
ENDBRANCH   3   4
ENDBRANCH   1   3
BRANCH   2  13
ATOM     13  C   UNL     1      -5.110  -2.823   5.108  1.00  0.00     0.027 C 
BRANCH  13  14
ATOM     14  C   UNL     1      -5.934  -2.328   6.309  1.00  0.00     0.004 C 
BRANCH  14  15
ATOM     15  C   UNL     1      -7.452  -2.575   6.185  1.00  0.00     0.000 C 
BRANCH  15  16
ATOM     16  C   UNL     1      -7.993  -3.749   7.025  1.00  0.00     0.000 C 
BRANCH  16  17
ATOM     17  C   UNL     1      -8.734  -4.836   6.222  1.00  0.00    -0.000 C 
BRANCH  17  18
ATOM     18  C   UNL     1      -7.911  -5.486   5.092  1.00  0.00    -0.000 C 
BRANCH  18  19
ATOM     19  C   UNL     1      -8.687  -6.491   4.222  1.00  0.00    -0.003 C 
ATOM     20  C   UNL     1      -8.742  -7.891   4.834  1.00  0.00     0.004 C 
ENDBRANCH  18  19
ENDBRANCH  17  18
ENDBRANCH  16  17
ENDBRANCH  15  16
ENDBRANCH  14  15
ENDBRANCH  13  14
ENDBRANCH   2  13
TORSDOF 15
ENDMDL
MODEL 7
REMARK VINA RESULT:    -4.356      7.273      9.222
REMARK INTER + INTRA:          -8.750
REMARK INTER:                  -7.013
REMARK INTRA:                  -1.736
REMARK UNBOUND:                -0.573
REMARK SMILES CCCCCCCCC=CCCCCCCCC(=O)[O-]
REMARK SMILES IDX 10 1 9 2 11 3 12 4 13 5 14 6 15 7 16 8 17 9 18 10 19 11
REMARK SMILES IDX 20 12 8 13 7 14 6 15 5 16 4 17 3 18 2 19 1 20
REMARK H PARENT
REMARK Flexibility Score: inf
ROOT
ATOM      1  C   UNL     1      -8.058  -5.721   5.285  1.00  0.00    -0.031 C 
ATOM      2  C   UNL     1      -7.593  -4.693   6.020  1.00  0.00    -0.031 C 
ENDROOT
BRANCH   1   3
ATOM      3  C   UNL     1      -9.459  -5.816   4.730  1.00  0.00     0.027 C 
BRANCH   3   4
ATOM      4  C   UNL     1      -9.855  -7.270   4.414  1.00  0.00     0.004 C 
BRANCH   4   5
ATOM      5  C   UNL     1      -9.039  -7.903   3.272  1.00  0.00     0.000 C 
BRANCH   5   6
ATOM      6  C   UNL     1      -8.394  -9.239   3.679  1.00  0.00     0.000 C 
BRANCH   6   7
ATOM      7  C   UNL     1      -8.411  -9.474   5.200  1.00  0.00     0.000 C 
BRANCH   7   8
ATOM      8  C   UNL     1      -7.064  -9.251   5.912  1.00  0.00     0.006 C 
BRANCH   8   9
ATOM      9  C   UNL     1      -5.857  -9.620   5.040  1.00  0.00     0.053 C 
BRANCH   9  10
ATOM     10  C   UNL     1      -4.611  -8.993   5.581  1.00  0.00     0.041 C 
ATOM     11  O   UNL     1      -4.682  -8.126   6.492  1.00  0.00    -0.550 OA
ATOM     12  O   UNL     1      -3.368  -9.403   5.117  1.00  0.00    -0.550 OA
ENDBRANCH   9  10
ENDBRANCH   8   9
ENDBRANCH   7   8
ENDBRANCH   6   7
ENDBRANCH   5   6
ENDBRANCH   4   5
ENDBRANCH   3   4
ENDBRANCH   1   3
BRANCH   2  13
ATOM     13  C   UNL     1      -8.425  -3.520   6.483  1.00  0.00     0.027 C 
BRANCH  13  14
ATOM     14  C   UNL     1      -7.924  -2.190   5.898  1.00  0.00     0.004 C 
BRANCH  14  15
ATOM     15  C   UNL     1      -7.658  -1.091   6.947  1.00  0.00     0.000 C 
BRANCH  15  16
ATOM     16  C   UNL     1      -6.336  -0.318   6.762  1.00  0.00     0.000 C 
BRANCH  16  17
ATOM     17  C   UNL     1      -5.299  -1.011   5.857  1.00  0.00    -0.000 C 
BRANCH  17  18
ATOM     18  C   UNL     1      -4.330  -1.963   6.586  1.00  0.00    -0.000 C 
BRANCH  18  19
ATOM     19  C   UNL     1      -3.608  -2.973   5.677  1.00  0.00    -0.003 C 
ATOM     20  C   UNL     1      -4.516  -3.556   4.595  1.00  0.00     0.004 C 
ENDBRANCH  18  19
ENDBRANCH  17  18
ENDBRANCH  16  17
ENDBRANCH  15  16
ENDBRANCH  14  15
ENDBRANCH  13  14
ENDBRANCH   2  13
TORSDOF 15
ENDMDL
MODEL 8
REMARK VINA RESULT:    -4.287      7.357      8.966
REMARK INTER + INTRA:          -8.620
REMARK INTER:                  -6.495
REMARK INTRA:                  -2.125
REMARK UNBOUND:                -0.573
REMARK SMILES CCCCCCCCC=CCCCCCCCC(=O)[O-]
REMARK SMILES IDX 10 1 9 2 11 3 12 4 13 5 14 6 15 7 16 8 17 9 18 10 19 11
REMARK SMILES IDX 20 12 8 13 7 14 6 15 5 16 4 17 3 18 2 19 1 20
REMARK H PARENT
REMARK Flexibility Score: inf
ROOT
ATOM      1  C   UNL     1      -8.213  -5.320   6.546  1.00  0.00    -0.031 C 
ATOM      2  C   UNL     1      -7.008  -5.618   7.067  1.00  0.00    -0.031 C 
ENDROOT
BRANCH   1   3
ATOM      3  C   UNL     1      -8.568  -5.429   5.083  1.00  0.00     0.027 C 
BRANCH   3   4
ATOM      4  C   UNL     1      -9.391  -6.694   4.783  1.00  0.00     0.004 C 
BRANCH   4   5
ATOM      5  C   UNL     1      -8.910  -7.470   3.543  1.00  0.00     0.000 C 
BRANCH   5   6
ATOM      6  C   UNL     1      -8.258  -8.815   3.907  1.00  0.00     0.000 C 
BRANCH   6   7
ATOM      7  C   UNL     1      -7.952  -8.946   5.410  1.00  0.00     0.000 C 
BRANCH   7   8
ATOM      8  C   UNL     1      -6.853  -9.964   5.767  1.00  0.00     0.006 C 
BRANCH   8   9
ATOM      9  C   UNL     1      -5.622  -9.862   4.858  1.00  0.00     0.053 C 
BRANCH   9  10
ATOM     10  C   UNL     1      -4.411  -9.495   5.658  1.00  0.00     0.041 C 
ATOM     11  O   UNL     1      -4.242  -9.979   6.808  1.00  0.00    -0.550 OA
ATOM     12  O   UNL     1      -3.445  -8.659   5.114  1.00  0.00    -0.550 OA
ENDBRANCH   9  10
ENDBRANCH   8   9
ENDBRANCH   7   8
ENDBRANCH   6   7
ENDBRANCH   5   6
ENDBRANCH   4   5
ENDBRANCH   3   4
ENDBRANCH   1   3
BRANCH   2  13
ATOM     13  C   UNL     1      -5.795  -6.017   6.260  1.00  0.00     0.027 C 
BRANCH  13  14
ATOM     14  C   UNL     1      -4.488  -5.520   6.898  1.00  0.00     0.004 C 
BRANCH  14  15
ATOM     15  C   UNL     1      -3.416  -5.066   5.885  1.00  0.00     0.000 C 
BRANCH  15  16
ATOM     16  C   UNL     1      -2.814  -3.673   6.153  1.00  0.00     0.000 C 
BRANCH  16  17
ATOM     17  C   UNL     1      -3.839  -2.578   6.511  1.00  0.00    -0.000 C 
BRANCH  17  18
ATOM     18  C   UNL     1      -4.830  -2.222   5.386  1.00  0.00    -0.000 C 
BRANCH  18  19
ATOM     19  C   UNL     1      -5.924  -1.214   5.782  1.00  0.00    -0.003 C 
ATOM     20  C   UNL     1      -7.332  -1.804   5.708  1.00  0.00     0.004 C 
ENDBRANCH  18  19
ENDBRANCH  17  18
ENDBRANCH  16  17
ENDBRANCH  15  16
ENDBRANCH  14  15
ENDBRANCH  13  14
ENDBRANCH   2  13
TORSDOF 15
ENDMDL
MODEL 9
REMARK VINA RESULT:    -4.261      7.714     11.443
REMARK INTER + INTRA:          -8.570
REMARK INTER:                  -6.166
REMARK INTRA:                  -2.404
REMARK UNBOUND:                -0.573
REMARK SMILES CCCCCCCCC=CCCCCCCCC(=O)[O-]
REMARK SMILES IDX 10 1 9 2 11 3 12 4 13 5 14 6 15 7 16 8 17 9 18 10 19 11
REMARK SMILES IDX 20 12 8 13 7 14 6 15 5 16 4 17 3 18 2 19 1 20
REMARK H PARENT
REMARK Flexibility Score: inf
ROOT
ATOM      1  C   UNL     1      -7.784  -3.930   5.741  1.00  0.00    -0.031 C 
ATOM      2  C   UNL     1      -7.108  -5.092   5.667  1.00  0.00    -0.031 C 
ENDROOT
BRANCH   1   3
ATOM      3  C   UNL     1      -8.364  -3.353   7.010  1.00  0.00     0.027 C 
BRANCH   3   4
ATOM      4  C   UNL     1      -8.406  -1.815   6.976  1.00  0.00     0.004 C 
BRANCH   4   5
ATOM      5  C   UNL     1      -7.015  -1.154   6.978  1.00  0.00     0.000 C 
BRANCH   5   6
ATOM      6  C   UNL     1      -6.093  -1.726   8.069  1.00  0.00     0.000 C 
BRANCH   6   7
ATOM      7  C   UNL     1      -4.787  -2.313   7.504  1.00  0.00     0.000 C 
BRANCH   7   8
ATOM      8  C   UNL     1      -4.520  -2.005   6.019  1.00  0.00     0.006 C 
BRANCH   8   9
ATOM      9  C   UNL     1      -4.070  -3.236   5.222  1.00  0.00     0.053 C 
BRANCH   9  10
ATOM     10  C   UNL     1      -2.722  -3.693   5.684  1.00  0.00     0.041 C 
ATOM     11  O   UNL     1      -2.533  -4.901   5.986  1.00  0.00    -0.550 OA
ATOM     12  O   UNL     1      -1.662  -2.797   5.733  1.00  0.00    -0.550 OA
ENDBRANCH   9  10
ENDBRANCH   8   9
ENDBRANCH   7   8
ENDBRANCH   6   7
ENDBRANCH   5   6
ENDBRANCH   4   5
ENDBRANCH   3   4
ENDBRANCH   1   3
BRANCH   2  13
ATOM     13  C   UNL     1      -6.905  -6.046   6.820  1.00  0.00     0.027 C 
BRANCH  13  14
ATOM     14  C   UNL     1      -5.498  -6.667   6.815  1.00  0.00     0.004 C 
BRANCH  14  15
ATOM     15  C   UNL     1      -5.467  -8.172   6.477  1.00  0.00     0.000 C 
BRANCH  15  16
ATOM     16  C   UNL     1      -6.848  -8.816   6.241  1.00  0.00     0.000 C 
BRANCH  16  17
ATOM     17  C   UNL     1      -7.265  -8.937   4.761  1.00  0.00    -0.000 C 
BRANCH  17  18
ATOM     18  C   UNL     1      -8.726  -8.548   4.463  1.00  0.00    -0.000 C 
BRANCH  18  19
ATOM     19  C   UNL     1      -8.917  -7.646   3.230  1.00  0.00    -0.003 C 
ATOM     20  C   UNL     1      -9.777  -6.416   3.520  1.00  0.00     0.004 C 
ENDBRANCH  18  19
ENDBRANCH  17  18
ENDBRANCH  16  17
ENDBRANCH  15  16
ENDBRANCH  14  15
ENDBRANCH  13  14
ENDBRANCH   2  13
TORSDOF 15
ENDMDL
