MODEL 1
REMARK VINA RESULT:    -4.014      0.000      0.000
REMARK INTER + INTRA:          -8.032
REMARK INTER:                  -6.830
REMARK INTRA:                  -1.203
REMARK UNBOUND:                -1.203
REMARK SMILES CCCCCCCCCCCCCC(=O)[O-]
REMARK SMILES IDX 8 1 9 2 10 3 11 4 12 5 13 6 14 7 15 8 16 9 7 10 6 11 5 12
REMARK SMILES IDX 4 13 3 14 2 15 1 16
REMARK H PARENT
REMARK Flexibility Score: inf
ROOT
ATOM      1  C   UNL     1      -6.277  -8.496   1.332  1.00  0.00     0.000 C 
ENDROOT
BRANCH   1   2
ATOM      2  C   UNL     1      -6.423  -7.567   0.117  1.00  0.00     0.000 C 
BRANCH   2   3
ATOM      3  C   UNL     1      -6.811  -6.148   0.557  1.00  0.00     0.000 C 
BRANCH   3   4
ATOM      4  C   UNL     1      -7.503  -6.112   1.929  1.00  0.00     0.000 C 
BRANCH   4   5
ATOM      5  C   UNL     1      -9.009  -5.786   1.901  1.00  0.00     0.006 C 
BRANCH   5   6
ATOM      6  C   UNL     1      -9.919  -7.026   1.835  1.00  0.00     0.053 C 
BRANCH   6   7
ATOM      7  C   UNL     1     -10.330  -7.368   0.435  1.00  0.00     0.041 C 
ATOM      8  O   UNL     1      -9.800  -8.342  -0.164  1.00  0.00    -0.550 OA
ATOM      9  O   UNL     1     -11.327  -6.635  -0.198  1.00  0.00    -0.550 OA
ENDBRANCH   6   7
ENDBRANCH   5   6
ENDBRANCH   4   5
ENDBRANCH   3   4
ENDBRANCH   2   3
ENDBRANCH   1   2
BRANCH   1  10
ATOM     10  C   UNL     1      -7.031  -9.824   1.153  1.00  0.00     0.000 C 
BRANCH  10  11
ATOM     11  C   UNL     1      -6.806 -10.450  -0.235  1.00  0.00    -0.000 C 
BRANCH  11  12
ATOM     12  C   UNL     1      -5.670 -11.485  -0.242  1.00  0.00    -0.000 C 
BRANCH  12  13
ATOM     13  C   UNL     1      -5.227 -11.884   1.177  1.00  0.00    -0.000 C 
BRANCH  13  14
ATOM     14  C   UNL     1      -5.565 -13.346   1.511  1.00  0.00    -0.000 C 
BRANCH  14  15
ATOM     15  C   UNL     1      -6.333 -14.049   0.383  1.00  0.00    -0.003 C 
ATOM     16  C   UNL     1      -6.914 -15.377   0.860  1.00  0.00     0.004 C 
ENDBRANCH  14  15
ENDBRANCH  13  14
ENDBRANCH  12  13
ENDBRANCH  11  12
ENDBRANCH  10  11
ENDBRANCH   1  10
TORSDOF 12
ENDMDL
MODEL 2
REMARK VINA RESULT:    -3.885      1.552      2.232
REMARK INTER + INTRA:          -7.813
REMARK INTER:                  -6.562
REMARK INTRA:                  -1.252
REMARK UNBOUND:                -1.203
REMARK SMILES CCCCCCCCCCCCCC(=O)[O-]
REMARK SMILES IDX 8 1 9 2 10 3 11 4 12 5 13 6 14 7 15 8 16 9 7 10 6 11 5 12
REMARK SMILES IDX 4 13 3 14 2 15 1 16
REMARK H PARENT
REMARK Flexibility Score: inf
ROOT
ATOM      1  C   UNL     1      -6.361 -10.717   0.005  1.00  0.00     0.000 C 
ENDROOT
BRANCH   1   2
ATOM      2  C   UNL     1      -7.144  -9.548  -0.611  1.00  0.00     0.000 C 
BRANCH   2   3
ATOM      3  C   UNL     1      -6.587  -8.201  -0.129  1.00  0.00     0.000 C 
BRANCH   3   4
ATOM      4  C   UNL     1      -7.684  -7.228   0.332  1.00  0.00     0.000 C 
BRANCH   4   5
ATOM      5  C   UNL     1      -8.936  -7.887   0.943  1.00  0.00     0.006 C 
BRANCH   5   6
ATOM      6  C   UNL     1     -10.239  -7.593   0.175  1.00  0.00     0.053 C 
BRANCH   6   7
ATOM      7  C   UNL     1     -11.012  -6.451   0.762  1.00  0.00     0.041 C 
ATOM      8  O   UNL     1     -11.403  -5.504   0.029  1.00  0.00    -0.550 OA
ATOM      9  O   UNL     1     -11.334  -6.450   2.114  1.00  0.00    -0.550 OA
ENDBRANCH   6   7
ENDBRANCH   5   6
ENDBRANCH   4   5
ENDBRANCH   3   4
ENDBRANCH   2   3
ENDBRANCH   1   2
BRANCH   1  10
ATOM     10  C   UNL     1      -5.326 -10.252   1.042  1.00  0.00     0.000 C 
BRANCH  10  11
ATOM     11  C   UNL     1      -5.798 -10.476   2.490  1.00  0.00    -0.000 C 
BRANCH  11  12
ATOM     12  C   UNL     1      -6.798 -11.636   2.616  1.00  0.00    -0.000 C 
BRANCH  12  13
ATOM     13  C   UNL     1      -6.103 -13.007   2.692  1.00  0.00    -0.000 C 
BRANCH  13  14
ATOM     14  C   UNL     1      -6.909 -14.116   1.996  1.00  0.00    -0.000 C 
BRANCH  14  15
ATOM     15  C   UNL     1      -6.398 -14.420   0.580  1.00  0.00    -0.003 C 
ATOM     16  C   UNL     1      -4.875 -14.352   0.521  1.00  0.00     0.004 C 
ENDBRANCH  14  15
ENDBRANCH  13  14
ENDBRANCH  12  13
ENDBRANCH  11  12
ENDBRANCH  10  11
ENDBRANCH   1  10
TORSDOF 12
ENDMDL
MODEL 3
REMARK VINA RESULT:    -3.876     19.648     21.961
REMARK INTER + INTRA:          -7.798
REMARK INTER:                  -6.476
REMARK INTRA:                  -1.322
REMARK UNBOUND:                -1.203
REMARK SMILES CCCCCCCCCCCCCC(=O)[O-]
REMARK SMILES IDX 8 1 9 2 10 3 11 4 12 5 13 6 14 7 15 8 16 9 7 10 6 11 5 12
REMARK SMILES IDX 4 13 3 14 2 15 1 16
REMARK H PARENT
REMARK Flexibility Score: inf
ROOT
ATOM      1  C   UNL     1     -21.904  -3.977 -15.013  1.00  0.00     0.000 C 
ENDROOT
BRANCH   1   2
ATOM      2  C   UNL     1     -22.662  -4.701 -16.136  1.00  0.00     0.000 C 
BRANCH   2   3
ATOM      3  C   UNL     1     -23.345  -5.970 -15.605  1.00  0.00     0.000 C 
BRANCH   3   4
ATOM      4  C   UNL     1     -22.649  -7.263 -16.062  1.00  0.00     0.000 C 
BRANCH   4   5
ATOM      5  C   UNL     1     -23.591  -8.389 -16.529  1.00  0.00     0.006 C 
BRANCH   5   6
ATOM      6  C   UNL     1     -23.016  -9.806 -16.345  1.00  0.00     0.053 C 
BRANCH   6   7
ATOM      7  C   UNL     1     -24.084 -10.852 -16.225  1.00  0.00     0.041 C 
ATOM      8  O   UNL     1     -25.125 -10.624 -15.554  1.00  0.00    -0.550 OA
ATOM      9  O   UNL     1     -23.947 -12.066 -16.888  1.00  0.00    -0.550 OA
ENDBRANCH   6   7
ENDBRANCH   5   6
ENDBRANCH   4   5
ENDBRANCH   3   4
ENDBRANCH   2   3
ENDBRANCH   1   2
BRANCH   1  10
ATOM     10  C   UNL     1     -20.406  -3.820 -15.319  1.00  0.00     0.000 C 
BRANCH  10  11
ATOM     11  C   UNL     1     -19.513  -4.513 -14.276  1.00  0.00    -0.000 C 
BRANCH  11  12
ATOM     12  C   UNL     1     -20.295  -4.972 -13.035  1.00  0.00    -0.000 C 
BRANCH  12  13
ATOM     13  C   UNL     1     -20.473  -6.500 -12.981  1.00  0.00    -0.000 C 
BRANCH  13  14
ATOM     14  C   UNL     1     -19.754  -7.217 -14.134  1.00  0.00    -0.000 C 
BRANCH  14  15
ATOM     15  C   UNL     1     -19.301  -8.636 -13.759  1.00  0.00    -0.003 C 
ATOM     16  C   UNL     1     -20.500  -9.546 -13.510  1.00  0.00     0.004 C 
ENDBRANCH  14  15
ENDBRANCH  13  14
ENDBRANCH  12  13
ENDBRANCH  11  12
ENDBRANCH  10  11
ENDBRANCH   1  10
TORSDOF 12
ENDMDL
MODEL 4
REMARK VINA RESULT:    -3.875      2.862      6.745
REMARK INTER + INTRA:          -7.795
REMARK INTER:                  -6.578
REMARK INTRA:                  -1.217
REMARK UNBOUND:                -1.203
REMARK SMILES CCCCCCCCCCCCCC(=O)[O-]
REMARK SMILES IDX 8 1 9 2 10 3 11 4 12 5 13 6 14 7 15 8 16 9 7 10 6 11 5 12
REMARK SMILES IDX 4 13 3 14 2 15 1 16
REMARK H PARENT
REMARK Flexibility Score: inf
ROOT
ATOM      1  C   UNL     1      -7.791  -8.301  -0.271  1.00  0.00     0.000 C 
ENDROOT
BRANCH   1   2
ATOM      2  C   UNL     1      -7.194  -9.714  -0.354  1.00  0.00     0.000 C 
BRANCH   2   3
ATOM      3  C   UNL     1      -6.403 -10.050   0.920  1.00  0.00     0.000 C 
BRANCH   3   4
ATOM      4  C   UNL     1      -5.190 -10.955   0.652  1.00  0.00     0.000 C 
BRANCH   4   5
ATOM      5  C   UNL     1      -5.440 -12.123  -0.322  1.00  0.00     0.006 C 
BRANCH   5   6
ATOM      6  C   UNL     1      -5.134 -13.511   0.270  1.00  0.00     0.053 C 
BRANCH   6   7
ATOM      7  C   UNL     1      -6.323 -14.127   0.944  1.00  0.00     0.041 C 
ATOM      8  O   UNL     1      -6.905 -15.117   0.427  1.00  0.00    -0.550 OA
ATOM      9  O   UNL     1      -6.767 -13.632   2.164  1.00  0.00    -0.550 OA
ENDBRANCH   6   7
ENDBRANCH   5   6
ENDBRANCH   4   5
ENDBRANCH   3   4
ENDBRANCH   2   3
ENDBRANCH   1   2
BRANCH   1  10
ATOM     10  C   UNL     1      -6.713  -7.209  -0.186  1.00  0.00     0.000 C 
BRANCH  10  11
ATOM     11  C   UNL     1      -7.053  -6.121   0.848  1.00  0.00    -0.000 C 
BRANCH  11  12
ATOM     12  C   UNL     1      -7.241  -6.687   2.265  1.00  0.00    -0.000 C 
BRANCH  12  13
ATOM     13  C   UNL     1      -8.637  -6.385   2.839  1.00  0.00    -0.000 C 
BRANCH  13  14
ATOM     14  C   UNL     1      -9.557  -5.696   1.820  1.00  0.00    -0.000 C 
BRANCH  14  15
ATOM     15  C   UNL     1     -10.838  -6.497   1.541  1.00  0.00    -0.003 C 
ATOM     16  C   UNL     1     -11.129  -6.562   0.045  1.00  0.00     0.004 C 
ENDBRANCH  14  15
ENDBRANCH  13  14
ENDBRANCH  12  13
ENDBRANCH  11  12
ENDBRANCH  10  11
ENDBRANCH   1  10
TORSDOF 12
ENDMDL
MODEL 5
REMARK VINA RESULT:    -3.867      2.890      6.559
REMARK INTER + INTRA:          -7.782
REMARK INTER:                  -6.409
REMARK INTRA:                  -1.373
REMARK UNBOUND:                -1.203
REMARK SMILES CCCCCCCCCCCCCC(=O)[O-]
REMARK SMILES IDX 8 1 9 2 10 3 11 4 12 5 13 6 14 7 15 8 16 9 7 10 6 11 5 12
REMARK SMILES IDX 4 13 3 14 2 15 1 16
REMARK H PARENT
REMARK Flexibility Score: inf
ROOT
ATOM      1  C   UNL     1     -10.341  -6.265   0.814  1.00  0.00     0.000 C 
ENDROOT
BRANCH   1   2
ATOM      2  C   UNL     1     -10.121  -7.597   0.083  1.00  0.00     0.000 C 
BRANCH   2   3
ATOM      3  C   UNL     1      -8.923  -8.355   0.673  1.00  0.00     0.000 C 
BRANCH   3   4
ATOM      4  C   UNL     1      -8.112  -9.117  -0.387  1.00  0.00     0.000 C 
BRANCH   4   5
ATOM      5  C   UNL     1      -6.734  -9.627   0.077  1.00  0.00     0.006 C 
BRANCH   5   6
ATOM      6  C   UNL     1      -6.793 -10.900   0.943  1.00  0.00     0.053 C 
BRANCH   6   7
ATOM      7  C   UNL     1      -6.064 -12.054   0.325  1.00  0.00     0.041 C 
ATOM      8  O   UNL     1      -6.201 -13.216   0.792  1.00  0.00    -0.550 OA
ATOM      9  O   UNL     1      -5.261 -11.854  -0.791  1.00  0.00    -0.550 OA
ENDBRANCH   6   7
ENDBRANCH   5   6
ENDBRANCH   4   5
ENDBRANCH   3   4
ENDBRANCH   2   3
ENDBRANCH   1   2
BRANCH   1  10
ATOM     10  C   UNL     1     -10.268  -6.412   2.342  1.00  0.00     0.000 C 
BRANCH  10  11
ATOM     11  C   UNL     1     -10.155  -5.057   3.062  1.00  0.00    -0.000 C 
BRANCH  11  12
ATOM     12  C   UNL     1      -9.004  -4.192   2.523  1.00  0.00    -0.000 C 
BRANCH  12  13
ATOM     13  C   UNL     1      -7.621  -4.733   2.927  1.00  0.00    -0.000 C 
BRANCH  13  14
ATOM     14  C   UNL     1      -6.594  -4.637   1.788  1.00  0.00    -0.000 C 
BRANCH  14  15
ATOM     15  C   UNL     1      -6.102  -6.013   1.315  1.00  0.00    -0.003 C 
ATOM     16  C   UNL     1      -5.988  -6.063  -0.205  1.00  0.00     0.004 C 
ENDBRANCH  14  15
ENDBRANCH  13  14
ENDBRANCH  12  13
ENDBRANCH  11  12
ENDBRANCH  10  11
ENDBRANCH   1  10
TORSDOF 12
ENDMDL
MODEL 6
REMARK VINA RESULT:    -3.771     19.317     21.508
REMARK INTER + INTRA:          -7.619
REMARK INTER:                  -5.829
REMARK INTRA:                  -1.790
REMARK UNBOUND:                -1.203
REMARK SMILES CCCCCCCCCCCCCC(=O)[O-]
REMARK SMILES IDX 8 1 9 2 10 3 11 4 12 5 13 6 14 7 15 8 16 9 7 10 6 11 5 12
REMARK SMILES IDX 4 13 3 14 2 15 1 16
REMARK H PARENT
REMARK Flexibility Score: inf
ROOT
ATOM      1  C   UNL     1     -21.084  -5.881 -16.944  1.00  0.00     0.000 C 
ENDROOT
BRANCH   1   2
ATOM      2  C   UNL     1     -22.529  -6.389 -17.053  1.00  0.00     0.000 C 
BRANCH   2   3
ATOM      3  C   UNL     1     -23.243  -6.307 -15.696  1.00  0.00     0.000 C 
BRANCH   3   4
ATOM      4  C   UNL     1     -24.462  -5.370 -15.714  1.00  0.00     0.000 C 
BRANCH   4   5
ATOM      5  C   UNL     1     -24.539  -4.365 -14.549  1.00  0.00     0.006 C 
BRANCH   5   6
ATOM      6  C   UNL     1     -23.295  -4.359 -13.640  1.00  0.00     0.053 C 
BRANCH   6   7
ATOM      7  C   UNL     1     -23.516  -3.608 -12.362  1.00  0.00     0.041 C 
ATOM      8  O   UNL     1     -23.029  -2.456 -12.210  1.00  0.00    -0.550 OA
ATOM      9  O   UNL     1     -24.292  -4.163 -11.352  1.00  0.00    -0.550 OA
ENDBRANCH   6   7
ENDBRANCH   5   6
ENDBRANCH   4   5
ENDBRANCH   3   4
ENDBRANCH   2   3
ENDBRANCH   1   2
BRANCH   1  10
ATOM     10  C   UNL     1     -21.006  -4.424 -16.461  1.00  0.00     0.000 C 
BRANCH  10  11
ATOM     11  C   UNL     1     -19.954  -4.223 -15.356  1.00  0.00    -0.000 C 
BRANCH  11  12
ATOM     12  C   UNL     1     -19.559  -5.538 -14.665  1.00  0.00    -0.000 C 
BRANCH  12  13
ATOM     13  C   UNL     1     -19.993  -5.582 -13.189  1.00  0.00    -0.000 C 
BRANCH  13  14
ATOM     14  C   UNL     1     -20.657  -6.915 -12.810  1.00  0.00    -0.000 C 
BRANCH  14  15
ATOM     15  C   UNL     1     -20.532  -7.975 -13.915  1.00  0.00    -0.003 C 
ATOM     16  C   UNL     1     -20.247  -9.352 -13.324  1.00  0.00     0.004 C 
ENDBRANCH  14  15
ENDBRANCH  13  14
ENDBRANCH  12  13
ENDBRANCH  11  12
ENDBRANCH  10  11
ENDBRANCH   1  10
TORSDOF 12
ENDMDL
MODEL 7
REMARK VINA RESULT:    -3.764     19.199     21.456
REMARK INTER + INTRA:          -7.607
REMARK INTER:                  -5.841
REMARK INTRA:                  -1.767
REMARK UNBOUND:                -1.203
REMARK SMILES CCCCCCCCCCCCCC(=O)[O-]
REMARK SMILES IDX 8 1 9 2 10 3 11 4 12 5 13 6 14 7 15 8 16 9 7 10 6 11 5 12
REMARK SMILES IDX 4 13 3 14 2 15 1 16
REMARK H PARENT
REMARK Flexibility Score: inf
ROOT
ATOM      1  C   UNL     1     -22.009  -3.416 -12.124  1.00  0.00     0.000 C 
ENDROOT
BRANCH   1   2
ATOM      2  C   UNL     1     -20.733  -3.250 -12.962  1.00  0.00     0.000 C 
BRANCH   2   3
ATOM      3  C   UNL     1     -19.963  -4.575 -13.057  1.00  0.00     0.000 C 
BRANCH   3   4
ATOM      4  C   UNL     1     -19.564  -4.937 -14.497  1.00  0.00     0.000 C 
BRANCH   4   5
ATOM      5  C   UNL     1     -19.688  -6.430 -14.860  1.00  0.00     0.006 C 
BRANCH   5   6
ATOM      6  C   UNL     1     -20.436  -7.273 -13.810  1.00  0.00     0.053 C 
BRANCH   6   7
ATOM      7  C   UNL     1     -19.997  -8.706 -13.800  1.00  0.00     0.041 C 
ATOM      8  O   UNL     1     -18.775  -8.996 -13.705  1.00  0.00    -0.550 OA
ATOM      9  O   UNL     1     -20.941  -9.724 -13.858  1.00  0.00    -0.550 OA
ENDBRANCH   6   7
ENDBRANCH   5   6
ENDBRANCH   4   5
ENDBRANCH   3   4
ENDBRANCH   2   3
ENDBRANCH   1   2
BRANCH   1  10
ATOM     10  C   UNL     1     -22.885  -4.583 -12.607  1.00  0.00     0.000 C 
BRANCH  10  11
ATOM     11  C   UNL     1     -24.155  -4.109 -13.335  1.00  0.00    -0.000 C 
BRANCH  11  12
ATOM     12  C   UNL     1     -23.917  -3.837 -14.829  1.00  0.00    -0.000 C 
BRANCH  12  13
ATOM     13  C   UNL     1     -22.999  -4.886 -15.481  1.00  0.00    -0.000 C 
BRANCH  13  14
ATOM     14  C   UNL     1     -23.749  -6.175 -15.853  1.00  0.00    -0.000 C 
BRANCH  14  15
ATOM     15  C   UNL     1     -22.963  -7.055 -16.837  1.00  0.00    -0.003 C 
ATOM     16  C   UNL     1     -23.008  -8.521 -16.418  1.00  0.00     0.004 C 
ENDBRANCH  14  15
ENDBRANCH  13  14
ENDBRANCH  12  13
ENDBRANCH  11  12
ENDBRANCH  10  11
ENDBRANCH   1  10
TORSDOF 12
ENDMDL
MODEL 8
REMARK VINA RESULT:    -3.763      1.557      2.750
REMARK INTER + INTRA:          -7.605
REMARK INTER:                  -6.975
REMARK INTRA:                  -0.631
REMARK UNBOUND:                -1.203
REMARK SMILES CCCCCCCCCCCCCC(=O)[O-]
REMARK SMILES IDX 8 1 9 2 10 3 11 4 12 5 13 6 14 7 15 8 16 9 7 10 6 11 5 12
REMARK SMILES IDX 4 13 3 14 2 15 1 16
REMARK H PARENT
REMARK Flexibility Score: inf
ROOT
ATOM      1  C   UNL     1      -6.699 -10.695   1.167  1.00  0.00     0.000 C 
ENDROOT
BRANCH   1   2
ATOM      2  C   UNL     1      -6.579 -10.327  -0.320  1.00  0.00     0.000 C 
BRANCH   2   3
ATOM      3  C   UNL     1      -7.449  -9.107  -0.655  1.00  0.00     0.000 C 
BRANCH   3   4
ATOM      4  C   UNL     1      -7.033  -7.842   0.112  1.00  0.00     0.000 C 
BRANCH   4   5
ATOM      5  C   UNL     1      -8.194  -6.953   0.599  1.00  0.00     0.006 C 
BRANCH   5   6
ATOM      6  C   UNL     1      -9.532  -7.699   0.760  1.00  0.00     0.053 C 
BRANCH   6   7
ATOM      7  C   UNL     1     -10.699  -6.769   0.901  1.00  0.00     0.041 C 
ATOM      8  O   UNL     1     -11.317  -6.366  -0.120  1.00  0.00    -0.550 OA
ATOM      9  O   UNL     1     -11.130  -6.376   2.162  1.00  0.00    -0.550 OA
ENDBRANCH   6   7
ENDBRANCH   5   6
ENDBRANCH   4   5
ENDBRANCH   3   4
ENDBRANCH   2   3
ENDBRANCH   1   2
BRANCH   1  10
ATOM     10  C   UNL     1      -5.956 -11.994   1.515  1.00  0.00     0.000 C 
BRANCH  10  11
ATOM     11  C   UNL     1      -5.690 -12.873   0.281  1.00  0.00    -0.000 C 
BRANCH  11  12
ATOM     12  C   UNL     1      -5.454 -14.348   0.642  1.00  0.00    -0.000 C 
BRANCH  12  13
ATOM     13  C   UNL     1      -6.739 -15.191   0.552  1.00  0.00    -0.000 C 
BRANCH  13  14
ATOM     14  C   UNL     1      -6.537 -16.629   1.055  1.00  0.00    -0.000 C 
BRANCH  14  15
ATOM     15  C   UNL     1      -5.236 -17.261   0.539  1.00  0.00    -0.003 C 
ATOM     16  C   UNL     1      -5.505 -18.606  -0.128  1.00  0.00     0.004 C 
ENDBRANCH  14  15
ENDBRANCH  13  14
ENDBRANCH  12  13
ENDBRANCH  11  12
ENDBRANCH  10  11
ENDBRANCH   1  10
TORSDOF 12
ENDMDL
MODEL 9
REMARK VINA RESULT:    -3.701     19.257     21.501
REMARK INTER + INTRA:          -7.500
REMARK INTER:                  -5.597
REMARK INTRA:                  -1.903
REMARK UNBOUND:                -1.203
REMARK SMILES CCCCCCCCCCCCCC(=O)[O-]
REMARK SMILES IDX 8 1 9 2 10 3 11 4 12 5 13 6 14 7 15 8 16 9 7 10 6 11 5 12
REMARK SMILES IDX 4 13 3 14 2 15 1 16
REMARK H PARENT
REMARK Flexibility Score: inf
ROOT
ATOM      1  C   UNL     1     -23.810  -3.894 -13.120  1.00  0.00     0.000 C 
ENDROOT
BRANCH   1   2
ATOM      2  C   UNL     1     -23.886  -3.877 -14.654  1.00  0.00     0.000 C 
BRANCH   2   3
ATOM      3  C   UNL     1     -23.942  -5.305 -15.215  1.00  0.00     0.000 C 
BRANCH   3   4
ATOM      4  C   UNL     1     -22.747  -5.642 -16.122  1.00  0.00     0.000 C 
BRANCH   4   5
ATOM      5  C   UNL     1     -22.140  -4.448 -16.883  1.00  0.00     0.006 C 
BRANCH   5   6
ATOM      6  C   UNL     1     -20.651  -4.199 -16.576  1.00  0.00     0.053 C 
BRANCH   6   7
ATOM      7  C   UNL     1     -20.381  -2.796 -16.122  1.00  0.00     0.041 C 
ATOM      8  O   UNL     1     -19.252  -2.483 -15.659  1.00  0.00    -0.550 OA
ATOM      9  O   UNL     1     -21.365  -1.822 -16.246  1.00  0.00    -0.550 OA
ENDBRANCH   6   7
ENDBRANCH   5   6
ENDBRANCH   4   5
ENDBRANCH   3   4
ENDBRANCH   2   3
ENDBRANCH   1   2
BRANCH   1  10
ATOM     10  C   UNL     1     -22.595  -4.676 -12.598  1.00  0.00     0.000 C 
BRANCH  10  11
ATOM     11  C   UNL     1     -21.297  -3.851 -12.640  1.00  0.00    -0.000 C 
BRANCH  11  12
ATOM     12  C   UNL     1     -20.056  -4.711 -12.929  1.00  0.00    -0.000 C 
BRANCH  12  13
ATOM     13  C   UNL     1     -20.347  -6.219 -12.828  1.00  0.00    -0.000 C 
BRANCH  13  14
ATOM     14  C   UNL     1     -19.986  -6.976 -14.116  1.00  0.00    -0.000 C 
BRANCH  14  15
ATOM     15  C   UNL     1     -20.684  -8.341 -14.216  1.00  0.00    -0.003 C 
ATOM     16  C   UNL     1     -20.286  -9.247 -13.056  1.00  0.00     0.004 C 
ENDBRANCH  14  15
ENDBRANCH  13  14
ENDBRANCH  12  13
ENDBRANCH  11  12
ENDBRANCH  10  11
ENDBRANCH   1  10
TORSDOF 12
ENDMDL
