MODEL 1
REMARK VINA RESULT:    -7.084      0.000      0.000
REMARK INTER + INTRA:         -11.750
REMARK INTER:                 -10.397
REMARK INTRA:                  -1.353
REMARK UNBOUND:                -1.353
REMARK SMILES O=c1c(O[C@H]2O[C@@H](CO)[C@@H](O)[C@H](O)[C@H]2O)c(-c2ccc(O)c(O)c2)oc2cc(O)cc(O)c12
REMARK SMILES IDX 4 1 3 2 16 3 25 4 2 5 26 6 1 7 33 8 27 9 31 10 28 11 30 12
REMARK SMILES IDX 17 13 18 14 19 15 20 16 24 17 22 18 21 19 23 21 32 23 29 25
REMARK SMILES IDX 5 27 14 28 6 29 12 30 7 31 10 32 15 33 13 35 8 37 9 38 11 40
REMARK H PARENT 21 20 23 22 32 24 29 26 15 34 13 36 9 39 11 41
REMARK Flexibility Score: inf
ROOT
ATOM      1  O   UNL     1       5.443  15.647  18.518  1.00  0.00    -0.454 OA
ENDROOT
BRANCH   1   2
ATOM      2  C   UNL     1       4.951  15.834  17.222  1.00  0.00     0.214 A 
ATOM      3  C   UNL     1       4.540  14.734  16.450  1.00  0.00     0.180 A 
ATOM      4  O   UNL     1       4.119  14.923  15.205  1.00  0.00    -0.452 OA
ATOM      5  C   UNL     1       4.864  17.120  16.673  1.00  0.00     0.239 A 
ATOM      6  C   UNL     1       4.055  16.118  14.628  1.00  0.00     0.146 A 
ATOM      7  O   UNL     1       5.116  18.109  17.409  1.00  0.00    -0.285 OA
ATOM      8  C   UNL     1       4.457  17.286  15.327  1.00  0.00     0.111 A 
ATOM      9  C   UNL     1       3.572  16.204  13.320  1.00  0.00     0.094 A 
ATOM     10  C   UNL     1       4.400  18.538  14.647  1.00  0.00     0.134 A 
ATOM     11  C   UNL     1       3.464  17.442  12.687  1.00  0.00     0.123 A 
ATOM     12  C   UNL     1       3.872  18.598  13.352  1.00  0.00     0.093 A 
BRANCH   3  13
ATOM     13  C   UNL     1       4.563  13.354  16.979  1.00  0.00     0.025 A 
ATOM     14  C   UNL     1       3.409  12.822  17.576  1.00  0.00     0.016 A 
ATOM     15  C   UNL     1       3.415  11.523  18.091  1.00  0.00     0.051 A 
ATOM     16  C   UNL     1       4.579  10.745  18.033  1.00  0.00     0.157 A 
ATOM     17  C   UNL     1       5.736  12.580  16.946  1.00  0.00     0.062 A 
ATOM     18  C   UNL     1       5.747  11.279  17.463  1.00  0.00     0.158 A 
BRANCH  16  19
ATOM     19  O   UNL     1       4.580   9.447  18.542  1.00  0.00    -0.504 OA
ATOM     20  H   UNL     1       4.117   8.687  18.056  1.00  0.00     0.293 HD
ENDBRANCH  16  19
BRANCH  18  21
ATOM     21  O   UNL     1       6.926  10.537  17.404  1.00  0.00    -0.504 OA
ATOM     22  H   UNL     1       7.031   9.744  16.783  1.00  0.00     0.293 HD
ENDBRANCH  18  21
ENDBRANCH   3  13
BRANCH  10  23
ATOM     23  O   UNL     1       4.877  19.737  15.185  1.00  0.00    -0.507 OA
ATOM     24  H   UNL     1       4.292  20.505  15.480  1.00  0.00     0.293 HD
ENDBRANCH  10  23
BRANCH  11  25
ATOM     25  O   UNL     1       2.963  17.535  11.389  1.00  0.00    -0.508 OA
ATOM     26  H   UNL     1       3.176  18.327  10.796  1.00  0.00     0.293 HD
ENDBRANCH  11  25
ENDBRANCH   1   2
BRANCH   1  27
ATOM     27  C   UNL     1       4.773  16.164  19.668  1.00  0.00     0.339 C 
ATOM     28  C   UNL     1       5.773  16.236  20.847  1.00  0.00     0.214 C 
ATOM     29  O   UNL     1       3.594  15.393  19.899  1.00  0.00    -0.332 OA
ATOM     30  C   UNL     1       6.057  14.817  21.380  1.00  0.00     0.180 C 
ATOM     31  C   UNL     1       3.492  14.836  21.200  1.00  0.00     0.179 C 
ATOM     32  C   UNL     1       4.750  13.996  21.561  1.00  0.00     0.177 C 
BRANCH  28  33
ATOM     33  O   UNL     1       6.964  16.843  20.419  1.00  0.00    -0.384 OA
ATOM     34  H   UNL     1       7.538  16.952  21.223  1.00  0.00     0.211 HD
ENDBRANCH  28  33
BRANCH  30  35
ATOM     35  O   UNL     1       6.783  14.878  22.583  1.00  0.00    -0.387 OA
ATOM     36  H   UNL     1       6.405  14.198  23.197  1.00  0.00     0.211 HD
ENDBRANCH  30  35
BRANCH  31  37
ATOM     37  C   UNL     1       2.206  13.999  21.268  1.00  0.00     0.191 C 
BRANCH  37  38
ATOM     38  O   UNL     1       2.360  12.923  22.158  1.00  0.00    -0.394 OA
ATOM     39  H   UNL     1       3.308  12.635  22.102  1.00  0.00     0.210 HD
ENDBRANCH  37  38
ENDBRANCH  31  37
BRANCH  32  40
ATOM     40  O   UNL     1       4.808  12.808  20.808  1.00  0.00    -0.387 OA
ATOM     41  H   UNL     1       4.102  12.200  21.149  1.00  0.00     0.211 HD
ENDBRANCH  32  40
ENDBRANCH   1  27
TORSDOF 12
ENDMDL
MODEL 2
REMARK VINA RESULT:    -6.837      2.036      6.924
REMARK INTER + INTRA:         -11.387
REMARK INTER:                  -9.890
REMARK INTRA:                  -1.497
REMARK UNBOUND:                -1.353
REMARK SMILES O=c1c(O[C@H]2O[C@@H](CO)[C@@H](O)[C@H](O)[C@H]2O)c(-c2ccc(O)c(O)c2)oc2cc(O)cc(O)c12
REMARK SMILES IDX 4 1 3 2 16 3 25 4 2 5 26 6 1 7 33 8 27 9 31 10 28 11 30 12
REMARK SMILES IDX 17 13 18 14 19 15 20 16 24 17 22 18 21 19 23 21 32 23 29 25
REMARK SMILES IDX 5 27 14 28 6 29 12 30 7 31 10 32 15 33 13 35 8 37 9 38 11 40
REMARK H PARENT 21 20 23 22 32 24 29 26 15 34 13 36 9 39 11 41
REMARK Flexibility Score: inf
ROOT
ATOM      1  O   UNL     1       4.178  14.161  17.154  1.00  0.00    -0.454 OA
ENDROOT
BRANCH   1   2
ATOM      2  C   UNL     1       3.945  12.918  17.752  1.00  0.00     0.214 A 
ATOM      3  C   UNL     1       4.468  12.631  19.026  1.00  0.00     0.180 A 
ATOM      4  O   UNL     1       4.278  11.431  19.560  1.00  0.00    -0.452 OA
ATOM      5  C   UNL     1       3.191  11.940  17.091  1.00  0.00     0.239 A 
ATOM      6  C   UNL     1       3.604  10.459  18.956  1.00  0.00     0.146 A 
ATOM      7  O   UNL     1       2.624  12.244  16.010  1.00  0.00    -0.285 OA
ATOM      8  C   UNL     1       3.047  10.654  17.665  1.00  0.00     0.111 A 
ATOM      9  C   UNL     1       3.443   9.242  19.623  1.00  0.00     0.094 A 
ATOM     10  C   UNL     1       2.362   9.564  17.049  1.00  0.00     0.134 A 
ATOM     11  C   UNL     1       2.720   8.204  19.034  1.00  0.00     0.123 A 
ATOM     12  C   UNL     1       2.181   8.372  17.759  1.00  0.00     0.093 A 
BRANCH   3  13
ATOM     13  C   UNL     1       5.236  13.630  19.799  1.00  0.00     0.025 A 
ATOM     14  C   UNL     1       6.393  14.196  19.241  1.00  0.00     0.016 A 
ATOM     15  C   UNL     1       7.138  15.133  19.961  1.00  0.00     0.051 A 
ATOM     16  C   UNL     1       6.746  15.505  21.254  1.00  0.00     0.157 A 
ATOM     17  C   UNL     1       4.860  13.986  21.105  1.00  0.00     0.062 A 
ATOM     18  C   UNL     1       5.605  14.923  21.831  1.00  0.00     0.158 A 
BRANCH  16  19
ATOM     19  O   UNL     1       7.488  16.447  21.967  1.00  0.00    -0.504 OA
ATOM     20  H   UNL     1       7.241  16.710  22.914  1.00  0.00     0.293 HD
ENDBRANCH  16  19
BRANCH  18  21
ATOM     21  O   UNL     1       5.198  15.260  23.121  1.00  0.00    -0.504 OA
ATOM     22  H   UNL     1       5.709  14.959  23.942  1.00  0.00     0.293 HD
ENDBRANCH  18  21
ENDBRANCH   3  13
BRANCH  10  23
ATOM     23  O   UNL     1       1.875   9.594  15.739  1.00  0.00    -0.507 OA
ATOM     24  H   UNL     1       1.594  10.432  15.251  1.00  0.00     0.293 HD
ENDBRANCH  10  23
BRANCH  11  25
ATOM     25  O   UNL     1       2.540   6.995  19.704  1.00  0.00    -0.508 OA
ATOM     26  H   UNL     1       3.327   6.465  20.059  1.00  0.00     0.293 HD
ENDBRANCH  11  25
ENDBRANCH   1   2
BRANCH   1  27
ATOM     27  C   UNL     1       3.147  15.139  17.008  1.00  0.00     0.339 C 
ATOM     28  C   UNL     1       3.278  15.808  15.619  1.00  0.00     0.214 C 
ATOM     29  O   UNL     1       3.189  16.022  18.129  1.00  0.00    -0.332 OA
ATOM     30  C   UNL     1       4.489  16.763  15.608  1.00  0.00     0.180 C 
ATOM     31  C   UNL     1       3.303  17.397  17.801  1.00  0.00     0.179 C 
ATOM     32  C   UNL     1       4.523  17.664  16.875  1.00  0.00     0.177 C 
BRANCH  28  33
ATOM     33  O   UNL     1       3.428  14.821  14.632  1.00  0.00    -0.384 OA
ATOM     34  H   UNL     1       2.879  15.105  13.853  1.00  0.00     0.211 HD
ENDBRANCH  28  33
BRANCH  30  35
ATOM     35  O   UNL     1       4.492  17.542  14.437  1.00  0.00    -0.387 OA
ATOM     36  H   UNL     1       5.050  18.344  14.611  1.00  0.00     0.211 HD
ENDBRANCH  30  35
BRANCH  31  37
ATOM     37  C   UNL     1       3.388  18.202  19.106  1.00  0.00     0.191 C 
BRANCH  37  38
ATOM     38  O   UNL     1       4.121  17.498  20.076  1.00  0.00    -0.394 OA
ATOM     39  H   UNL     1       3.542  16.760  20.396  1.00  0.00     0.210 HD
ENDBRANCH  37  38
ENDBRANCH  31  37
BRANCH  32  40
ATOM     40  O   UNL     1       5.739  17.493  17.565  1.00  0.00    -0.387 OA
ATOM     41  H   UNL     1       5.701  16.618  18.029  1.00  0.00     0.211 HD
ENDBRANCH  32  40
ENDBRANCH   1  27
TORSDOF 12
ENDMDL
MODEL 3
REMARK VINA RESULT:    -6.611      1.196      1.559
REMARK INTER + INTRA:         -11.056
REMARK INTER:                  -9.846
REMARK INTRA:                  -1.210
REMARK UNBOUND:                -1.353
REMARK SMILES O=c1c(O[C@H]2O[C@@H](CO)[C@@H](O)[C@H](O)[C@H]2O)c(-c2ccc(O)c(O)c2)oc2cc(O)cc(O)c12
REMARK SMILES IDX 4 1 3 2 16 3 25 4 2 5 26 6 1 7 33 8 27 9 31 10 28 11 30 12
REMARK SMILES IDX 17 13 18 14 19 15 20 16 24 17 22 18 21 19 23 21 32 23 29 25
REMARK SMILES IDX 5 27 14 28 6 29 12 30 7 31 10 32 15 33 13 35 8 37 9 38 11 40
REMARK H PARENT 21 20 23 22 32 24 29 26 15 34 13 36 9 39 11 41
REMARK Flexibility Score: inf
ROOT
ATOM      1  O   UNL     1       4.577  15.890  18.222  1.00  0.00    -0.454 OA
ENDROOT
BRANCH   1   2
ATOM      2  C   UNL     1       4.379  16.059  16.848  1.00  0.00     0.214 A 
ATOM      3  C   UNL     1       4.510  14.969  15.970  1.00  0.00     0.180 A 
ATOM      4  O   UNL     1       4.366  15.155  14.663  1.00  0.00    -0.452 OA
ATOM      5  C   UNL     1       4.051  17.317  16.325  1.00  0.00     0.239 A 
ATOM      6  C   UNL     1       4.094  16.335  14.118  1.00  0.00     0.146 A 
ATOM      7  O   UNL     1       3.815  18.260  17.124  1.00  0.00    -0.285 OA
ATOM      8  C   UNL     1       3.951  17.494  14.924  1.00  0.00     0.111 A 
ATOM      9  C   UNL     1       3.937  16.410  12.732  1.00  0.00     0.094 A 
ATOM     10  C   UNL     1       3.693  18.741  14.282  1.00  0.00     0.134 A 
ATOM     11  C   UNL     1       3.625  17.625  12.121  1.00  0.00     0.123 A 
ATOM     12  C   UNL     1       3.500  18.778  12.896  1.00  0.00     0.093 A 
BRANCH   3  13
ATOM     13  C   UNL     1       4.812  13.606  16.455  1.00  0.00     0.025 A 
ATOM     14  C   UNL     1       6.111  13.298  16.891  1.00  0.00     0.016 A 
ATOM     15  C   UNL     1       6.418  12.013  17.343  1.00  0.00     0.051 A 
ATOM     16  C   UNL     1       5.437  11.013  17.350  1.00  0.00     0.157 A 
ATOM     17  C   UNL     1       3.837  12.594  16.440  1.00  0.00     0.062 A 
ATOM     18  C   UNL     1       4.142  11.304  16.890  1.00  0.00     0.158 A 
BRANCH  16  19
ATOM     19  O   UNL     1       5.745   9.733  17.810  1.00  0.00    -0.504 OA
ATOM     20  H   UNL     1       6.069   9.573  18.757  1.00  0.00     0.293 HD
ENDBRANCH  16  19
BRANCH  18  21
ATOM     21  O   UNL     1       3.147  10.327  16.869  1.00  0.00    -0.504 OA
ATOM     22  H   UNL     1       3.276   9.418  17.298  1.00  0.00     0.293 HD
ENDBRANCH  18  21
ENDBRANCH   3  13
BRANCH  10  23
ATOM     23  O   UNL     1       3.650  19.967  14.953  1.00  0.00    -0.507 OA
ATOM     24  H   UNL     1       4.348  20.285  15.611  1.00  0.00     0.293 HD
ENDBRANCH  10  23
BRANCH  11  25
ATOM     25  O   UNL     1       3.448  17.702  10.740  1.00  0.00    -0.508 OA
ATOM     26  H   UNL     1       2.530  17.823  10.331  1.00  0.00     0.293 HD
ENDBRANCH  11  25
ENDBRANCH   1   2
BRANCH   1  27
ATOM     27  C   UNL     1       3.488  15.808  19.142  1.00  0.00     0.339 C 
ATOM     28  C   UNL     1       3.985  16.207  20.552  1.00  0.00     0.214 C 
ATOM     29  O   UNL     1       2.894  14.514  19.036  1.00  0.00    -0.332 OA
ATOM     30  C   UNL     1       4.854  15.078  21.141  1.00  0.00     0.180 C 
ATOM     31  C   UNL     1       2.807  13.796  20.257  1.00  0.00     0.179 C 
ATOM     32  C   UNL     1       4.194  13.683  20.952  1.00  0.00     0.177 C 
BRANCH  28  33
ATOM     33  O   UNL     1       4.723  17.399  20.473  1.00  0.00    -0.384 OA
ATOM     34  H   UNL     1       5.464  17.324  21.131  1.00  0.00     0.211 HD
ENDBRANCH  28  33
BRANCH  30  35
ATOM     35  O   UNL     1       5.129  15.324  22.499  1.00  0.00    -0.387 OA
ATOM     36  H   UNL     1       6.103  15.195  22.636  1.00  0.00     0.211 HD
ENDBRANCH  30  35
BRANCH  31  37
ATOM     37  C   UNL     1       2.200  12.416  19.965  1.00  0.00     0.191 C 
BRANCH  37  38
ATOM     38  O   UNL     1       1.884  11.750  21.160  1.00  0.00    -0.394 OA
ATOM     39  H   UNL     1       2.498  10.974  21.230  1.00  0.00     0.210 HD
ENDBRANCH  37  38
ENDBRANCH  31  37
BRANCH  32  40
ATOM     40  O   UNL     1       5.055  12.825  20.243  1.00  0.00    -0.387 OA
ATOM     41  H   UNL     1       4.977  11.921  20.643  1.00  0.00     0.211 HD
ENDBRANCH  32  40
ENDBRANCH   1  27
TORSDOF 12
ENDMDL
MODEL 4
REMARK VINA RESULT:    -6.563      2.460      6.948
REMARK INTER + INTRA:         -10.985
REMARK INTER:                  -9.870
REMARK INTRA:                  -1.115
REMARK UNBOUND:                -1.353
REMARK SMILES O=c1c(O[C@H]2O[C@@H](CO)[C@@H](O)[C@H](O)[C@H]2O)c(-c2ccc(O)c(O)c2)oc2cc(O)cc(O)c12
REMARK SMILES IDX 4 1 3 2 16 3 25 4 2 5 26 6 1 7 33 8 27 9 31 10 28 11 30 12
REMARK SMILES IDX 17 13 18 14 19 15 20 16 24 17 22 18 21 19 23 21 32 23 29 25
REMARK SMILES IDX 5 27 14 28 6 29 12 30 7 31 10 32 15 33 13 35 8 37 9 38 11 40
REMARK H PARENT 21 20 23 22 32 24 29 26 15 34 13 36 9 39 11 41
REMARK Flexibility Score: inf
ROOT
ATOM      1  O   UNL     1       3.141  13.376  19.737  1.00  0.00    -0.454 OA
ENDROOT
BRANCH   1   2
ATOM      2  C   UNL     1       2.982  12.047  19.330  1.00  0.00     0.214 A 
ATOM      3  C   UNL     1       2.887  11.726  17.964  1.00  0.00     0.180 A 
ATOM      4  O   UNL     1       2.690  10.467  17.595  1.00  0.00    -0.452 OA
ATOM      5  C   UNL     1       2.913  11.016  20.276  1.00  0.00     0.239 A 
ATOM      6  C   UNL     1       2.579   9.462  18.456  1.00  0.00     0.146 A 
ATOM      7  O   UNL     1       3.121  11.292  21.486  1.00  0.00    -0.285 OA
ATOM      8  C   UNL     1       2.654   9.689  19.855  1.00  0.00     0.111 A 
ATOM      9  C   UNL     1       2.399   8.170  17.956  1.00  0.00     0.094 A 
ATOM     10  C   UNL     1       2.493   8.578  20.735  1.00  0.00     0.134 A 
ATOM     11  C   UNL     1       2.303   7.082  18.825  1.00  0.00     0.123 A 
ATOM     12  C   UNL     1       2.356   7.290  20.203  1.00  0.00     0.093 A 
BRANCH   3  13
ATOM     13  C   UNL     1       2.995  12.757  16.910  1.00  0.00     0.025 A 
ATOM     14  C   UNL     1       2.079  13.820  16.885  1.00  0.00     0.016 A 
ATOM     15  C   UNL     1       2.158  14.798  15.890  1.00  0.00     0.051 A 
ATOM     16  C   UNL     1       3.144  14.717  14.897  1.00  0.00     0.157 A 
ATOM     17  C   UNL     1       3.966  12.666  15.898  1.00  0.00     0.062 A 
ATOM     18  C   UNL     1       4.048  13.642  14.898  1.00  0.00     0.158 A 
BRANCH  16  19
ATOM     19  O   UNL     1       3.225  15.699  13.911  1.00  0.00    -0.504 OA
ATOM     20  H   UNL     1       3.268  15.460  12.926  1.00  0.00     0.293 HD
ENDBRANCH  16  19
BRANCH  18  21
ATOM     21  O   UNL     1       5.030  13.525  13.916  1.00  0.00    -0.504 OA
ATOM     22  H   UNL     1       4.812  13.236  12.969  1.00  0.00     0.293 HD
ENDBRANCH  18  21
ENDBRANCH   3  13
BRANCH  10  23
ATOM     23  O   UNL     1       2.429   8.691  22.127  1.00  0.00    -0.507 OA
ATOM     24  H   UNL     1       3.233   8.691  22.738  1.00  0.00     0.293 HD
ENDBRANCH  10  23
BRANCH  11  25
ATOM     25  O   UNL     1       2.143   5.789  18.329  1.00  0.00    -0.508 OA
ATOM     26  H   UNL     1       2.939   5.189  18.150  1.00  0.00     0.293 HD
ENDBRANCH  11  25
ENDBRANCH   1   2
BRANCH   1  27
ATOM     27  C   UNL     1       4.269  13.808  20.498  1.00  0.00     0.339 C 
ATOM     28  C   UNL     1       4.057  15.280  20.926  1.00  0.00     0.214 C 
ATOM     29  O   UNL     1       5.456  13.543  19.751  1.00  0.00    -0.332 OA
ATOM     30  C   UNL     1       4.243  16.211  19.711  1.00  0.00     0.180 C 
ATOM     31  C   UNL     1       6.295  14.669  19.545  1.00  0.00     0.179 C 
ATOM     32  C   UNL     1       5.516  15.848  18.896  1.00  0.00     0.177 C 
BRANCH  28  33
ATOM     33  O   UNL     1       2.769  15.435  21.464  1.00  0.00    -0.384 OA
ATOM     34  H   UNL     1       2.126  15.183  20.751  1.00  0.00     0.211 HD
ENDBRANCH  28  33
BRANCH  30  35
ATOM     35  O   UNL     1       4.274  17.556  20.120  1.00  0.00    -0.387 OA
ATOM     36  H   UNL     1       3.930  17.596  21.049  1.00  0.00     0.211 HD
ENDBRANCH  30  35
BRANCH  31  37
ATOM     37  C   UNL     1       7.491  14.232  18.687  1.00  0.00     0.191 C 
BRANCH  37  38
ATOM     38  O   UNL     1       7.119  13.207  17.802  1.00  0.00    -0.394 OA
ATOM     39  H   UNL     1       7.115  12.363  18.322  1.00  0.00     0.210 HD
ENDBRANCH  37  38
ENDBRANCH  31  37
BRANCH  32  40
ATOM     40  O   UNL     1       5.180  15.567  17.558  1.00  0.00    -0.387 OA
ATOM     41  H   UNL     1       4.387  14.971  17.566  1.00  0.00     0.211 HD
ENDBRANCH  32  40
ENDBRANCH   1  27
TORSDOF 12
ENDMDL
MODEL 5
REMARK VINA RESULT:    -6.525      2.140      5.016
REMARK INTER + INTRA:         -10.930
REMARK INTER:                  -9.447
REMARK INTRA:                  -1.483
REMARK UNBOUND:                -1.353
REMARK SMILES O=c1c(O[C@H]2O[C@@H](CO)[C@@H](O)[C@H](O)[C@H]2O)c(-c2ccc(O)c(O)c2)oc2cc(O)cc(O)c12
REMARK SMILES IDX 4 1 3 2 16 3 25 4 2 5 26 6 1 7 33 8 27 9 31 10 28 11 30 12
REMARK SMILES IDX 17 13 18 14 19 15 20 16 24 17 22 18 21 19 23 21 32 23 29 25
REMARK SMILES IDX 5 27 14 28 6 29 12 30 7 31 10 32 15 33 13 35 8 37 9 38 11 40
REMARK H PARENT 21 20 23 22 32 24 29 26 15 34 13 36 9 39 11 41
REMARK Flexibility Score: inf
ROOT
ATOM      1  O   UNL     1       5.864  14.694  17.716  1.00  0.00    -0.454 OA
ENDROOT
BRANCH   1   2
ATOM      2  C   UNL     1       5.232  15.940  17.779  1.00  0.00     0.214 A 
ATOM      3  C   UNL     1       5.118  16.619  19.005  1.00  0.00     0.180 A 
ATOM      4  O   UNL     1       4.475  17.779  19.058  1.00  0.00    -0.452 OA
ATOM      5  C   UNL     1       4.701  16.529  16.624  1.00  0.00     0.239 A 
ATOM      6  C   UNL     1       3.921  18.357  17.998  1.00  0.00     0.146 A 
ATOM      7  O   UNL     1       4.913  15.977  15.514  1.00  0.00    -0.285 OA
ATOM      8  C   UNL     1       3.979  17.742  16.720  1.00  0.00     0.111 A 
ATOM      9  C   UNL     1       3.290  19.592  18.163  1.00  0.00     0.094 A 
ATOM     10  C   UNL     1       3.337  18.391  15.623  1.00  0.00     0.134 A 
ATOM     11  C   UNL     1       2.718  20.246  17.071  1.00  0.00     0.123 A 
ATOM     12  C   UNL     1       2.749  19.647  15.812  1.00  0.00     0.093 A 
BRANCH   3  13
ATOM     13  C   UNL     1       5.692  16.079  20.255  1.00  0.00     0.025 A 
ATOM     14  C   UNL     1       4.862  15.400  21.161  1.00  0.00     0.016 A 
ATOM     15  C   UNL     1       5.384  14.891  22.353  1.00  0.00     0.051 A 
ATOM     16  C   UNL     1       6.739  15.069  22.664  1.00  0.00     0.157 A 
ATOM     17  C   UNL     1       7.045  16.276  20.582  1.00  0.00     0.062 A 
ATOM     18  C   UNL     1       7.571  15.770  21.776  1.00  0.00     0.158 A 
BRANCH  16  19
ATOM     19  O   UNL     1       7.258  14.553  23.850  1.00  0.00    -0.504 OA
ATOM     20  H   UNL     1       6.759  13.852  24.388  1.00  0.00     0.293 HD
ENDBRANCH  16  19
BRANCH  18  21
ATOM     21  O   UNL     1       8.920  15.977  22.063  1.00  0.00    -0.504 OA
ATOM     22  H   UNL     1       9.224  16.463  22.899  1.00  0.00     0.293 HD
ENDBRANCH  18  21
ENDBRANCH   3  13
BRANCH  10  23
ATOM     23  O   UNL     1       3.223  17.831  14.348  1.00  0.00    -0.507 OA
ATOM     24  H   UNL     1       2.443  17.981  13.724  1.00  0.00     0.293 HD
ENDBRANCH  10  23
BRANCH  11  25
ATOM     25  O   UNL     1       2.105  21.488  17.228  1.00  0.00    -0.508 OA
ATOM     26  H   UNL     1       2.422  22.150  17.926  1.00  0.00     0.293 HD
ENDBRANCH  11  25
ENDBRANCH   1   2
BRANCH   1  27
ATOM     27  C   UNL     1       5.247  13.502  18.203  1.00  0.00     0.339 C 
ATOM     28  C   UNL     1       6.115  12.284  17.808  1.00  0.00     0.214 C 
ATOM     29  O   UNL     1       3.892  13.470  17.755  1.00  0.00    -0.332 OA
ATOM     30  C   UNL     1       5.970  12.004  16.298  1.00  0.00     0.180 C 
ATOM     31  C   UNL     1       3.526  12.298  17.044  1.00  0.00     0.179 C 
ATOM     32  C   UNL     1       4.483  12.036  15.847  1.00  0.00     0.177 C 
BRANCH  28  33
ATOM     33  O   UNL     1       7.458  12.537  18.128  1.00  0.00    -0.384 OA
ATOM     34  H   UNL     1       7.940  12.670  17.270  1.00  0.00     0.211 HD
ENDBRANCH  28  33
BRANCH  30  35
ATOM     35  O   UNL     1       6.571  10.776  15.964  1.00  0.00    -0.387 OA
ATOM     36  H   UNL     1       5.845  10.134  15.753  1.00  0.00     0.211 HD
ENDBRANCH  30  35
BRANCH  31  37
ATOM     37  C   UNL     1       2.067  12.442  16.589  1.00  0.00     0.191 C 
BRANCH  37  38
ATOM     38  O   UNL     1       1.877  11.849  15.331  1.00  0.00    -0.394 OA
ATOM     39  H   UNL     1       2.662  11.266  15.165  1.00  0.00     0.210 HD
ENDBRANCH  37  38
ENDBRANCH  31  37
BRANCH  32  40
ATOM     40  O   UNL     1       4.301  12.988  14.825  1.00  0.00    -0.387 OA
ATOM     41  H   UNL     1       4.745  12.643  14.009  1.00  0.00     0.211 HD
ENDBRANCH  32  40
ENDBRANCH   1  27
TORSDOF 12
ENDMDL
MODEL 6
REMARK VINA RESULT:    -6.402      2.359      5.290
REMARK INTER + INTRA:         -10.749
REMARK INTER:                  -9.471
REMARK INTRA:                  -1.278
REMARK UNBOUND:                -1.353
REMARK SMILES O=c1c(O[C@H]2O[C@@H](CO)[C@@H](O)[C@H](O)[C@H]2O)c(-c2ccc(O)c(O)c2)oc2cc(O)cc(O)c12
REMARK SMILES IDX 4 1 3 2 16 3 25 4 2 5 26 6 1 7 33 8 27 9 31 10 28 11 30 12
REMARK SMILES IDX 17 13 18 14 19 15 20 16 24 17 22 18 21 19 23 21 32 23 29 25
REMARK SMILES IDX 5 27 14 28 6 29 12 30 7 31 10 32 15 33 13 35 8 37 9 38 11 40
REMARK H PARENT 21 20 23 22 32 24 29 26 15 34 13 36 9 39 11 41
REMARK Flexibility Score: inf
ROOT
ATOM      1  O   UNL     1       4.586  15.314  17.400  1.00  0.00    -0.454 OA
ENDROOT
BRANCH   1   2
ATOM      2  C   UNL     1       4.121  16.584  17.757  1.00  0.00     0.214 A 
ATOM      3  C   UNL     1       3.670  16.837  19.064  1.00  0.00     0.180 A 
ATOM      4  O   UNL     1       3.188  18.034  19.375  1.00  0.00    -0.452 OA
ATOM      5  C   UNL     1       4.095  17.623  16.816  1.00  0.00     0.239 A 
ATOM      6  C   UNL     1       3.107  19.037  18.508  1.00  0.00     0.146 A 
ATOM      7  O   UNL     1       4.613  17.426  15.686  1.00  0.00    -0.285 OA
ATOM      8  C   UNL     1       3.532  18.874  17.164  1.00  0.00     0.111 A 
ATOM      9  C   UNL     1       2.607  20.265  18.950  1.00  0.00     0.094 A 
ATOM     10  C   UNL     1       3.390  19.974  16.267  1.00  0.00     0.134 A 
ATOM     11  C   UNL     1       2.530  21.352  18.079  1.00  0.00     0.123 A 
ATOM     12  C   UNL     1       2.924  21.203  16.750  1.00  0.00     0.093 A 
BRANCH   3  13
ATOM     13  C   UNL     1       3.708  15.802  20.119  1.00  0.00     0.025 A 
ATOM     14  C   UNL     1       2.572  15.011  20.354  1.00  0.00     0.016 A 
ATOM     15  C   UNL     1       2.585  14.035  21.353  1.00  0.00     0.051 A 
ATOM     16  C   UNL     1       3.728  13.847  22.142  1.00  0.00     0.157 A 
ATOM     17  C   UNL     1       4.843  15.627  20.928  1.00  0.00     0.062 A 
ATOM     18  C   UNL     1       4.860  14.652  21.932  1.00  0.00     0.158 A 
BRANCH  16  19
ATOM     19  O   UNL     1       3.741  12.866  23.133  1.00  0.00    -0.504 OA
ATOM     20  H   UNL     1       4.480  12.821  23.826  1.00  0.00     0.293 HD
ENDBRANCH  16  19
BRANCH  18  21
ATOM     21  O   UNL     1       6.007  14.500  22.710  1.00  0.00    -0.504 OA
ATOM     22  H   UNL     1       6.845  14.057  22.352  1.00  0.00     0.293 HD
ENDBRANCH  18  21
ENDBRANCH   3  13
BRANCH  10  23
ATOM     23  O   UNL     1       3.660  19.901  14.897  1.00  0.00    -0.507 OA
ATOM     24  H   UNL     1       2.966  19.720  14.186  1.00  0.00     0.293 HD
ENDBRANCH  10  23
BRANCH  11  25
ATOM     25  O   UNL     1       2.049  22.584  18.521  1.00  0.00    -0.508 OA
ATOM     26  H   UNL     1       1.073  22.836  18.425  1.00  0.00     0.293 HD
ENDBRANCH  11  25
ENDBRANCH   1   2
BRANCH   1  27
ATOM     27  C   UNL     1       3.709  14.196  17.259  1.00  0.00     0.339 C 
ATOM     28  C   UNL     1       4.551  12.900  17.178  1.00  0.00     0.214 C 
ATOM     29  O   UNL     1       2.831  14.435  16.159  1.00  0.00    -0.332 OA
ATOM     30  C   UNL     1       5.244  12.809  15.803  1.00  0.00     0.180 C 
ATOM     31  C   UNL     1       2.828  13.422  15.166  1.00  0.00     0.179 C 
ATOM     32  C   UNL     1       4.264  13.134  14.641  1.00  0.00     0.177 C 
BRANCH  28  33
ATOM     33  O   UNL     1       5.507  12.893  18.206  1.00  0.00    -0.384 OA
ATOM     34  H   UNL     1       6.142  13.633  18.015  1.00  0.00     0.211 HD
ENDBRANCH  28  33
BRANCH  30  35
ATOM     35  O   UNL     1       5.829  11.542  15.628  1.00  0.00    -0.387 OA
ATOM     36  H   UNL     1       6.590  11.473  16.261  1.00  0.00     0.211 HD
ENDBRANCH  30  35
BRANCH  31  37
ATOM     37  C   UNL     1       1.882  13.853  14.036  1.00  0.00     0.191 C 
BRANCH  37  38
ATOM     38  O   UNL     1       1.875  15.250  13.899  1.00  0.00    -0.394 OA
ATOM     39  H   UNL     1       2.821  15.538  13.825  1.00  0.00     0.210 HD
ENDBRANCH  37  38
ENDBRANCH  31  37
BRANCH  32  40
ATOM     40  O   UNL     1       4.754  14.206  13.871  1.00  0.00    -0.387 OA
ATOM     41  H   UNL     1       4.865  13.883  12.940  1.00  0.00     0.211 HD
ENDBRANCH  32  40
ENDBRANCH   1  27
TORSDOF 12
ENDMDL
MODEL 7
REMARK VINA RESULT:    -6.325      2.238      6.956
REMARK INTER + INTRA:         -10.636
REMARK INTER:                  -9.141
REMARK INTRA:                  -1.494
REMARK UNBOUND:                -1.353
REMARK SMILES O=c1c(O[C@H]2O[C@@H](CO)[C@@H](O)[C@H](O)[C@H]2O)c(-c2ccc(O)c(O)c2)oc2cc(O)cc(O)c12
REMARK SMILES IDX 4 1 3 2 16 3 25 4 2 5 26 6 1 7 33 8 27 9 31 10 28 11 30 12
REMARK SMILES IDX 17 13 18 14 19 15 20 16 24 17 22 18 21 19 23 21 32 23 29 25
REMARK SMILES IDX 5 27 14 28 6 29 12 30 7 31 10 32 15 33 13 35 8 37 9 38 11 40
REMARK H PARENT 21 20 23 22 32 24 29 26 15 34 13 36 9 39 11 41
REMARK Flexibility Score: inf
ROOT
ATOM      1  O   UNL     1       3.189  14.228  19.113  1.00  0.00    -0.454 OA
ENDROOT
BRANCH   1   2
ATOM      2  C   UNL     1       3.123  12.837  18.978  1.00  0.00     0.214 A 
ATOM      3  C   UNL     1       3.241  12.237  17.713  1.00  0.00     0.180 A 
ATOM      4  O   UNL     1       3.130  10.919  17.595  1.00  0.00    -0.452 OA
ATOM      5  C   UNL     1       2.936  12.021  20.102  1.00  0.00     0.239 A 
ATOM      6  C   UNL     1       2.913  10.109  18.625  1.00  0.00     0.146 A 
ATOM      7  O   UNL     1       2.954  12.552  21.243  1.00  0.00    -0.285 OA
ATOM      8  C   UNL     1       2.773  10.625  19.940  1.00  0.00     0.111 A 
ATOM      9  C   UNL     1       2.839   8.734  18.390  1.00  0.00     0.094 A 
ATOM     10  C   UNL     1       2.507   9.712  21.003  1.00  0.00     0.134 A 
ATOM     11  C   UNL     1       2.639   7.846  19.447  1.00  0.00     0.123 A 
ATOM     12  C   UNL     1       2.480   8.337  20.743  1.00  0.00     0.093 A 
BRANCH   3  13
ATOM     13  C   UNL     1       3.482  13.032  16.490  1.00  0.00     0.025 A 
ATOM     14  C   UNL     1       4.656  12.821  15.748  1.00  0.00     0.016 A 
ATOM     15  C   UNL     1       4.907  13.570  14.596  1.00  0.00     0.051 A 
ATOM     16  C   UNL     1       3.997  14.550  14.177  1.00  0.00     0.157 A 
ATOM     17  C   UNL     1       2.585  14.032  16.081  1.00  0.00     0.062 A 
ATOM     18  C   UNL     1       2.834  14.786  14.928  1.00  0.00     0.158 A 
BRANCH  16  19
ATOM     19  O   UNL     1       4.247  15.289  13.022  1.00  0.00    -0.504 OA
ATOM     20  H   UNL     1       3.800  16.184  12.858  1.00  0.00     0.293 HD
ENDBRANCH  16  19
BRANCH  18  21
ATOM     21  O   UNL     1       1.916  15.765  14.547  1.00  0.00    -0.504 OA
ATOM     22  H   UNL     1       1.813  16.059  13.584  1.00  0.00     0.293 HD
ENDBRANCH  18  21
ENDBRANCH   3  13
BRANCH  10  23
ATOM     23  O   UNL     1       2.233  10.106  22.316  1.00  0.00    -0.507 OA
ATOM     24  H   UNL     1       1.699   9.562  22.978  1.00  0.00     0.293 HD
ENDBRANCH  10  23
BRANCH  11  25
ATOM     25  O   UNL     1       2.584   6.472  19.220  1.00  0.00    -0.508 OA
ATOM     26  H   UNL     1       2.727   6.082  18.296  1.00  0.00     0.293 HD
ENDBRANCH  11  25
ENDBRANCH   1   2
BRANCH   1  27
ATOM     27  C   UNL     1       4.423  14.913  19.329  1.00  0.00     0.339 C 
ATOM     28  C   UNL     1       4.180  16.101  20.291  1.00  0.00     0.214 C 
ATOM     29  O   UNL     1       4.993  15.245  18.063  1.00  0.00    -0.332 OA
ATOM     30  C   UNL     1       3.431  17.228  19.552  1.00  0.00     0.180 C 
ATOM     31  C   UNL     1       5.295  16.620  17.887  1.00  0.00     0.179 C 
ATOM     32  C   UNL     1       4.052  17.515  18.156  1.00  0.00     0.177 C 
BRANCH  28  33
ATOM     33  O   UNL     1       3.436  15.667  21.399  1.00  0.00    -0.384 OA
ATOM     34  H   UNL     1       2.730  15.059  21.053  1.00  0.00     0.211 HD
ENDBRANCH  28  33
BRANCH  30  35
ATOM     35  O   UNL     1       3.398  18.395  20.337  1.00  0.00    -0.387 OA
ATOM     36  H   UNL     1       4.130  18.331  21.002  1.00  0.00     0.211 HD
ENDBRANCH  30  35
BRANCH  31  37
ATOM     37  C   UNL     1       5.845  16.817  16.468  1.00  0.00     0.191 C 
BRANCH  37  38
ATOM     38  O   UNL     1       5.830  18.176  16.113  1.00  0.00    -0.394 OA
ATOM     39  H   UNL     1       6.116  18.687  16.913  1.00  0.00     0.210 HD
ENDBRANCH  37  38
ENDBRANCH  31  37
BRANCH  32  40
ATOM     40  O   UNL     1       3.081  17.364  17.147  1.00  0.00    -0.387 OA
ATOM     41  H   UNL     1       2.807  18.270  16.855  1.00  0.00     0.211 HD
ENDBRANCH  32  40
ENDBRANCH   1  27
TORSDOF 12
ENDMDL
MODEL 8
REMARK VINA RESULT:    -6.257      2.096      5.959
REMARK INTER + INTRA:         -10.537
REMARK INTER:                  -9.816
REMARK INTRA:                  -0.721
REMARK UNBOUND:                -1.353
REMARK SMILES O=c1c(O[C@H]2O[C@@H](CO)[C@@H](O)[C@H](O)[C@H]2O)c(-c2ccc(O)c(O)c2)oc2cc(O)cc(O)c12
REMARK SMILES IDX 4 1 3 2 16 3 25 4 2 5 26 6 1 7 33 8 27 9 31 10 28 11 30 12
REMARK SMILES IDX 17 13 18 14 19 15 20 16 24 17 22 18 21 19 23 21 32 23 29 25
REMARK SMILES IDX 5 27 14 28 6 29 12 30 7 31 10 32 15 33 13 35 8 37 9 38 11 40
REMARK H PARENT 21 20 23 22 32 24 29 26 15 34 13 36 9 39 11 41
REMARK Flexibility Score: inf
ROOT
ATOM      1  O   UNL     1       4.791  13.434  16.658  1.00  0.00    -0.454 OA
ENDROOT
BRANCH   1   2
ATOM      2  C   UNL     1       5.241  13.792  17.933  1.00  0.00     0.214 A 
ATOM      3  C   UNL     1       4.907  13.009  19.052  1.00  0.00     0.180 A 
ATOM      4  O   UNL     1       5.303  13.387  20.262  1.00  0.00    -0.452 OA
ATOM      5  C   UNL     1       6.029  14.936  18.115  1.00  0.00     0.239 A 
ATOM      6  C   UNL     1       6.016  14.484  20.488  1.00  0.00     0.146 A 
ATOM      7  O   UNL     1       6.426  15.562  17.099  1.00  0.00    -0.285 OA
ATOM      8  C   UNL     1       6.394  15.340  19.421  1.00  0.00     0.111 A 
ATOM      9  C   UNL     1       6.401  14.772  21.800  1.00  0.00     0.094 A 
ATOM     10  C   UNL     1       7.132  16.522  19.726  1.00  0.00     0.134 A 
ATOM     11  C   UNL     1       7.174  15.900  22.079  1.00  0.00     0.123 A 
ATOM     12  C   UNL     1       7.538  16.762  21.044  1.00  0.00     0.093 A 
BRANCH   3  13
ATOM     13  C   UNL     1       4.116  11.766  18.930  1.00  0.00     0.025 A 
ATOM     14  C   UNL     1       3.342  11.330  20.017  1.00  0.00     0.016 A 
ATOM     15  C   UNL     1       2.596  10.152  19.924  1.00  0.00     0.051 A 
ATOM     16  C   UNL     1       2.627   9.386  18.751  1.00  0.00     0.157 A 
ATOM     17  C   UNL     1       4.165  10.983  17.765  1.00  0.00     0.062 A 
ATOM     18  C   UNL     1       3.421   9.801  17.668  1.00  0.00     0.158 A 
BRANCH  16  19
ATOM     19  O   UNL     1       1.875   8.215  18.659  1.00  0.00    -0.504 OA
ATOM     20  H   UNL     1       1.071   8.053  19.254  1.00  0.00     0.293 HD
ENDBRANCH  16  19
BRANCH  18  21
ATOM     21  O   UNL     1       3.486   9.053  16.493  1.00  0.00    -0.504 OA
ATOM     22  H   UNL     1       3.834   8.102  16.479  1.00  0.00     0.293 HD
ENDBRANCH  18  21
ENDBRANCH   3  13
BRANCH  10  23
ATOM     23  O   UNL     1       7.459  17.500  18.782  1.00  0.00    -0.507 OA
ATOM     24  H   UNL     1       8.401  17.772  18.542  1.00  0.00     0.293 HD
ENDBRANCH  10  23
BRANCH  11  25
ATOM     25  O   UNL     1       7.576  16.182  23.383  1.00  0.00    -0.508 OA
ATOM     26  H   UNL     1       8.510  16.514  23.588  1.00  0.00     0.293 HD
ENDBRANCH  11  25
ENDBRANCH   1   2
BRANCH   1  27
ATOM     27  C   UNL     1       3.458  13.698  16.220  1.00  0.00     0.339 C 
ATOM     28  C   UNL     1       3.473  13.993  14.701  1.00  0.00     0.214 C 
ATOM     29  O   UNL     1       2.897  14.719  17.045  1.00  0.00    -0.332 OA
ATOM     30  C   UNL     1       4.069  15.393  14.445  1.00  0.00     0.180 C 
ATOM     31  C   UNL     1       2.394  15.844  16.343  1.00  0.00     0.179 C 
ATOM     32  C   UNL     1       3.470  16.459  15.404  1.00  0.00     0.177 C 
BRANCH  28  33
ATOM     33  O   UNL     1       4.229  13.014  14.037  1.00  0.00    -0.384 OA
ATOM     34  H   UNL     1       4.935  12.716  14.669  1.00  0.00     0.211 HD
ENDBRANCH  28  33
BRANCH  30  35
ATOM     35  O   UNL     1       3.888  15.767  13.101  1.00  0.00    -0.387 OA
ATOM     36  H   UNL     1       2.912  15.814  12.931  1.00  0.00     0.211 HD
ENDBRANCH  30  35
BRANCH  31  37
ATOM     37  C   UNL     1       1.879  16.865  17.368  1.00  0.00     0.191 C 
BRANCH  37  38
ATOM     38  O   UNL     1       1.906  18.163  16.834  1.00  0.00    -0.394 OA
ATOM     39  H   UNL     1       2.791  18.280  16.401  1.00  0.00     0.210 HD
ENDBRANCH  37  38
ENDBRANCH  31  37
BRANCH  32  40
ATOM     40  O   UNL     1       4.494  17.088  16.139  1.00  0.00    -0.387 OA
ATOM     41  H   UNL     1       4.233  17.070  17.095  1.00  0.00     0.211 HD
ENDBRANCH  32  40
ENDBRANCH   1  27
TORSDOF 12
ENDMDL
MODEL 9
REMARK VINA RESULT:    -6.124      2.546      8.163
REMARK INTER + INTRA:         -10.340
REMARK INTER:                  -8.765
REMARK INTRA:                  -1.575
REMARK UNBOUND:                -1.353
REMARK SMILES O=c1c(O[C@H]2O[C@@H](CO)[C@@H](O)[C@H](O)[C@H]2O)c(-c2ccc(O)c(O)c2)oc2cc(O)cc(O)c12
REMARK SMILES IDX 4 1 3 2 16 3 25 4 2 5 26 6 1 7 33 8 27 9 31 10 28 11 30 12
REMARK SMILES IDX 17 13 18 14 19 15 20 16 24 17 22 18 21 19 23 21 32 23 29 25
REMARK SMILES IDX 5 27 14 28 6 29 12 30 7 31 10 32 15 33 13 35 8 37 9 38 11 40
REMARK H PARENT 21 20 23 22 32 24 29 26 15 34 13 36 9 39 11 41
REMARK Flexibility Score: inf
ROOT
ATOM      1  O   UNL     1       3.895  12.854  18.346  1.00  0.00    -0.454 OA
ENDROOT
BRANCH   1   2
ATOM      2  C   UNL     1       3.497  12.480  19.634  1.00  0.00     0.214 A 
ATOM      3  C   UNL     1       3.219  13.457  20.606  1.00  0.00     0.180 A 
ATOM      4  O   UNL     1       2.887  13.087  21.837  1.00  0.00    -0.452 OA
ATOM      5  C   UNL     1       3.371  11.127  19.976  1.00  0.00     0.239 A 
ATOM      6  C   UNL     1       2.794  11.818  22.218  1.00  0.00     0.146 A 
ATOM      7  O   UNL     1       3.501  10.262  19.072  1.00  0.00    -0.285 OA
ATOM      8  C   UNL     1       3.063  10.763  21.308  1.00  0.00     0.111 A 
ATOM      9  C   UNL     1       2.411  11.542  23.533  1.00  0.00     0.094 A 
ATOM     10  C   UNL     1       2.981   9.419  21.782  1.00  0.00     0.134 A 
ATOM     11  C   UNL     1       2.275  10.223  23.967  1.00  0.00     0.123 A 
ATOM     12  C   UNL     1       2.555   9.173  23.092  1.00  0.00     0.093 A 
BRANCH   3  13
ATOM     13  C   UNL     1       3.288  14.903  20.304  1.00  0.00     0.025 A 
ATOM     14  C   UNL     1       2.107  15.661  20.274  1.00  0.00     0.016 A 
ATOM     15  C   UNL     1       2.151  17.026  19.980  1.00  0.00     0.051 A 
ATOM     16  C   UNL     1       3.374  17.649  19.696  1.00  0.00     0.157 A 
ATOM     17  C   UNL     1       4.509  15.525  19.993  1.00  0.00     0.062 A 
ATOM     18  C   UNL     1       4.558  16.892  19.696  1.00  0.00     0.158 A 
BRANCH  16  19
ATOM     19  O   UNL     1       3.415  19.013  19.411  1.00  0.00    -0.504 OA
ATOM     20  H   UNL     1       2.729  19.450  18.805  1.00  0.00     0.293 HD
ENDBRANCH  16  19
BRANCH  18  21
ATOM     21  O   UNL     1       5.788  17.478  19.402  1.00  0.00    -0.504 OA
ATOM     22  H   UNL     1       6.432  17.771  20.127  1.00  0.00     0.293 HD
ENDBRANCH  18  21
ENDBRANCH   3  13
BRANCH  10  23
ATOM     23  O   UNL     1       3.336   8.303  21.019  1.00  0.00    -0.507 OA
ATOM     24  H   UNL     1       3.184   7.345  21.300  1.00  0.00     0.293 HD
ENDBRANCH  10  23
BRANCH  11  25
ATOM     25  O   UNL     1       1.875   9.942  25.273  1.00  0.00    -0.508 OA
ATOM     26  H   UNL     1       2.491  10.103  26.061  1.00  0.00     0.293 HD
ENDBRANCH  11  25
ENDBRANCH   1   2
BRANCH   1  27
ATOM     27  C   UNL     1       2.993  12.844  17.239  1.00  0.00     0.339 C 
ATOM     28  C   UNL     1       3.710  12.240  16.008  1.00  0.00     0.214 C 
ATOM     29  O   UNL     1       2.464  14.159  17.066  1.00  0.00    -0.332 OA
ATOM     30  C   UNL     1       4.733  13.250  15.448  1.00  0.00     0.180 C 
ATOM     31  C   UNL     1       2.636  14.705  15.768  1.00  0.00     0.179 C 
ATOM     32  C   UNL     1       4.128  14.677  15.332  1.00  0.00     0.177 C 
BRANCH  28  33
ATOM     33  O   UNL     1       4.354  11.048  16.374  1.00  0.00    -0.384 OA
ATOM     34  H   UNL     1       4.029  10.811  17.283  1.00  0.00     0.211 HD
ENDBRANCH  28  33
BRANCH  30  35
ATOM     35  O   UNL     1       5.231  12.812  14.208  1.00  0.00    -0.387 OA
ATOM     36  H   UNL     1       4.467  12.767  13.576  1.00  0.00     0.211 HD
ENDBRANCH  30  35
BRANCH  31  37
ATOM     37  C   UNL     1       2.065  16.131  15.763  1.00  0.00     0.191 C 
BRANCH  37  38
ATOM     38  O   UNL     1       2.635  16.890  14.729  1.00  0.00    -0.394 OA
ATOM     39  H   UNL     1       3.577  17.064  14.982  1.00  0.00     0.210 HD
ENDBRANCH  37  38
ENDBRANCH  31  37
BRANCH  32  40
ATOM     40  O   UNL     1       4.897  15.597  16.071  1.00  0.00    -0.387 OA
ATOM     41  H   UNL     1       5.118  16.356  15.471  1.00  0.00     0.211 HD
ENDBRANCH  32  40
ENDBRANCH   1  27
TORSDOF 12
ENDMDL
