MODEL 1
REMARK VINA RESULT:    -3.683      0.000      0.000
REMARK INTER + INTRA:          -9.162
REMARK INTER:                  -6.697
REMARK INTRA:                  -2.465
REMARK UNBOUND:                -2.465
REMARK SMILES CCCCCCCCCCCCCCCC(=O)[O-]
REMARK SMILES IDX 9 1 10 2 11 3 12 4 13 5 14 6 15 7 16 8 17 9 18 10 8 11 7 12
REMARK SMILES IDX 6 13 5 14 4 15 3 16 2 17 1 18
REMARK H PARENT
REMARK Flexibility Score: inf
ROOT
ATOM      1  C   UNL     1      11.135 -23.095 -37.316  1.00  0.00     0.000 C 
ENDROOT
BRANCH   1   2
ATOM      2  C   UNL     1      10.666 -22.157 -38.440  1.00  0.00     0.000 C 
BRANCH   2   3
ATOM      3  C   UNL     1      11.407 -20.809 -38.430  1.00  0.00     0.000 C 
BRANCH   3   4
ATOM      4  C   UNL     1      12.148 -20.546 -37.106  1.00  0.00     0.000 C 
BRANCH   4   5
ATOM      5  C   UNL     1      13.666 -20.313 -37.243  1.00  0.00     0.000 C 
BRANCH   5   6
ATOM      6  C   UNL     1      14.331 -21.169 -38.346  1.00  0.00     0.006 C 
BRANCH   6   7
ATOM      7  C   UNL     1      14.750 -22.568 -37.866  1.00  0.00     0.053 C 
BRANCH   7   8
ATOM      8  C   UNL     1      14.561 -23.603 -38.933  1.00  0.00     0.041 C 
ATOM      9  O   UNL     1      15.239 -24.664 -38.913  1.00  0.00    -0.550 OA
ATOM     10  O   UNL     1      13.653 -23.386 -39.962  1.00  0.00    -0.550 OA
ENDBRANCH   7   8
ENDBRANCH   6   7
ENDBRANCH   5   6
ENDBRANCH   4   5
ENDBRANCH   3   4
ENDBRANCH   2   3
ENDBRANCH   1   2
BRANCH   1  11
ATOM     11  C   UNL     1      10.305 -24.386 -37.234  1.00  0.00     0.000 C 
BRANCH  11  12
ATOM     12  C   UNL     1       9.252 -24.291 -36.123  1.00  0.00    -0.000 C 
BRANCH  12  13
ATOM     13  C   UNL     1       9.688 -23.297 -35.036  1.00  0.00    -0.000 C 
BRANCH  13  14
ATOM     14  C   UNL     1       8.587 -22.275 -34.704  1.00  0.00    -0.000 C 
BRANCH  14  15
ATOM     15  C   UNL     1       8.820 -20.890 -35.350  1.00  0.00    -0.000 C 
BRANCH  15  16
ATOM     16  C   UNL     1       7.746 -20.505 -36.384  1.00  0.00    -0.000 C 
BRANCH  16  17
ATOM     17  C   UNL     1       6.716 -21.610 -36.675  1.00  0.00    -0.003 C 
ATOM     18  C   UNL     1       6.920 -22.267 -38.040  1.00  0.00     0.004 C 
ENDBRANCH  16  17
ENDBRANCH  15  16
ENDBRANCH  14  15
ENDBRANCH  13  14
ENDBRANCH  12  13
ENDBRANCH  11  12
ENDBRANCH   1  11
TORSDOF 14
ENDMDL
MODEL 2
REMARK VINA RESULT:    -3.548      2.986      4.844
REMARK INTER + INTRA:          -8.918
REMARK INTER:                  -7.305
REMARK INTRA:                  -1.613
REMARK UNBOUND:                -2.465
REMARK SMILES CCCCCCCCCCCCCCCC(=O)[O-]
REMARK SMILES IDX 9 1 10 2 11 3 12 4 13 5 14 6 15 7 16 8 17 9 18 10 8 11 7 12
REMARK SMILES IDX 6 13 5 14 4 15 3 16 2 17 1 18
REMARK H PARENT
REMARK Flexibility Score: inf
ROOT
ATOM      1  C   UNL     1       7.125 -22.376 -37.731  1.00  0.00     0.000 C 
ENDROOT
BRANCH   1   2
ATOM      2  C   UNL     1       8.125 -23.155 -36.862  1.00  0.00     0.000 C 
BRANCH   2   3
ATOM      3  C   UNL     1       8.171 -22.641 -35.412  1.00  0.00     0.000 C 
BRANCH   3   4
ATOM      4  C   UNL     1       9.545 -22.063 -35.029  1.00  0.00     0.000 C 
BRANCH   4   5
ATOM      5  C   UNL     1       9.730 -20.564 -35.335  1.00  0.00     0.000 C 
BRANCH   5   6
ATOM      6  C   UNL     1      10.539 -20.285 -36.623  1.00  0.00     0.006 C 
BRANCH   6   7
ATOM      7  C   UNL     1      11.388 -21.481 -37.083  1.00  0.00     0.053 C 
BRANCH   7   8
ATOM      8  C   UNL     1      12.805 -21.084 -37.365  1.00  0.00     0.041 C 
ATOM      9  O   UNL     1      13.232 -19.957 -36.996  1.00  0.00    -0.550 OA
ATOM     10  O   UNL     1      13.647 -21.947 -38.053  1.00  0.00    -0.550 OA
ENDBRANCH   7   8
ENDBRANCH   6   7
ENDBRANCH   5   6
ENDBRANCH   4   5
ENDBRANCH   3   4
ENDBRANCH   2   3
ENDBRANCH   1   2
BRANCH   1  11
ATOM     11  C   UNL     1       6.013 -21.710 -36.907  1.00  0.00     0.000 C 
BRANCH  11  12
ATOM     12  C   UNL     1       5.684 -20.316 -37.454  1.00  0.00    -0.000 C 
BRANCH  12  13
ATOM     13  C   UNL     1       6.760 -19.298 -37.047  1.00  0.00    -0.000 C 
BRANCH  13  14
ATOM     14  C   UNL     1       6.451 -18.631 -35.695  1.00  0.00    -0.000 C 
BRANCH  14  15
ATOM     15  C   UNL     1       5.404 -17.498 -35.795  1.00  0.00    -0.000 C 
BRANCH  15  16
ATOM     16  C   UNL     1       6.026 -16.094 -35.920  1.00  0.00    -0.000 C 
BRANCH  16  17
ATOM     17  C   UNL     1       5.605 -15.110 -34.816  1.00  0.00    -0.003 C 
ATOM     18  C   UNL     1       5.196 -15.812 -33.520  1.00  0.00     0.004 C 
ENDBRANCH  16  17
ENDBRANCH  15  16
ENDBRANCH  14  15
ENDBRANCH  13  14
ENDBRANCH  12  13
ENDBRANCH  11  12
ENDBRANCH   1  11
TORSDOF 14
ENDMDL
MODEL 3
REMARK VINA RESULT:    -3.509      1.441      2.918
REMARK INTER + INTRA:          -8.847
REMARK INTER:                  -6.553
REMARK INTRA:                  -2.295
REMARK UNBOUND:                -2.465
REMARK SMILES CCCCCCCCCCCCCCCC(=O)[O-]
REMARK SMILES IDX 9 1 10 2 11 3 12 4 13 5 14 6 15 7 16 8 17 9 18 10 8 11 7 12
REMARK SMILES IDX 6 13 5 14 4 15 3 16 2 17 1 18
REMARK H PARENT
REMARK Flexibility Score: inf
ROOT
ATOM      1  C   UNL     1       7.660 -21.206 -38.368  1.00  0.00     0.000 C 
ENDROOT
BRANCH   1   2
ATOM      2  C   UNL     1       9.180 -20.981 -38.416  1.00  0.00     0.000 C 
BRANCH   2   3
ATOM      3  C   UNL     1       9.605 -19.671 -37.730  1.00  0.00     0.000 C 
BRANCH   3   4
ATOM      4  C   UNL     1      10.841 -19.844 -36.830  1.00  0.00     0.000 C 
BRANCH   4   5
ATOM      5  C   UNL     1      12.145 -19.245 -37.391  1.00  0.00     0.000 C 
BRANCH   5   6
ATOM      6  C   UNL     1      13.374 -20.171 -37.236  1.00  0.00     0.006 C 
BRANCH   6   7
ATOM      7  C   UNL     1      13.141 -21.593 -37.770  1.00  0.00     0.053 C 
BRANCH   7   8
ATOM      8  C   UNL     1      14.389 -22.420 -37.718  1.00  0.00     0.041 C 
ATOM      9  O   UNL     1      15.369 -22.044 -37.023  1.00  0.00    -0.550 OA
ATOM     10  O   UNL     1      14.477 -23.596 -38.453  1.00  0.00    -0.550 OA
ENDBRANCH   7   8
ENDBRANCH   6   7
ENDBRANCH   5   6
ENDBRANCH   4   5
ENDBRANCH   3   4
ENDBRANCH   2   3
ENDBRANCH   1   2
BRANCH   1  11
ATOM     11  C   UNL     1       7.072 -20.995 -36.964  1.00  0.00     0.000 C 
BRANCH  11  12
ATOM     12  C   UNL     1       7.361 -22.201 -36.062  1.00  0.00    -0.000 C 
BRANCH  12  13
ATOM     13  C   UNL     1       8.247 -21.798 -34.873  1.00  0.00    -0.000 C 
BRANCH  13  14
ATOM     14  C   UNL     1       9.555 -22.607 -34.819  1.00  0.00    -0.000 C 
BRANCH  14  15
ATOM     15  C   UNL     1       9.492 -23.931 -35.615  1.00  0.00    -0.000 C 
BRANCH  15  16
ATOM     16  C   UNL     1      10.544 -24.026 -36.735  1.00  0.00    -0.000 C 
BRANCH  16  17
ATOM     17  C   UNL     1      10.105 -24.857 -37.953  1.00  0.00    -0.003 C 
ATOM     18  C   UNL     1       8.586 -24.949 -38.091  1.00  0.00     0.004 C 
ENDBRANCH  16  17
ENDBRANCH  15  16
ENDBRANCH  14  15
ENDBRANCH  13  14
ENDBRANCH  12  13
ENDBRANCH  11  12
ENDBRANCH   1  11
TORSDOF 14
ENDMDL
MODEL 4
REMARK VINA RESULT:    -3.494      1.127      1.994
REMARK INTER + INTRA:          -8.819
REMARK INTER:                  -6.552
REMARK INTRA:                  -2.267
REMARK UNBOUND:                -2.465
REMARK SMILES CCCCCCCCCCCCCCCC(=O)[O-]
REMARK SMILES IDX 9 1 10 2 11 3 12 4 13 5 14 6 15 7 16 8 17 9 18 10 8 11 7 12
REMARK SMILES IDX 6 13 5 14 4 15 3 16 2 17 1 18
REMARK H PARENT
REMARK Flexibility Score: inf
ROOT
ATOM      1  C   UNL     1       9.433 -24.236 -36.942  1.00  0.00     0.000 C 
ENDROOT
BRANCH   1   2
ATOM      2  C   UNL     1      10.623 -23.442 -37.503  1.00  0.00     0.000 C 
BRANCH   2   3
ATOM      3  C   UNL     1      10.196 -22.409 -38.561  1.00  0.00     0.000 C 
BRANCH   3   4
ATOM      4  C   UNL     1      10.955 -21.077 -38.433  1.00  0.00     0.000 C 
BRANCH   4   5
ATOM      5  C   UNL     1      11.747 -20.901 -37.122  1.00  0.00     0.000 C 
BRANCH   5   6
ATOM      6  C   UNL     1      13.073 -20.125 -37.293  1.00  0.00     0.006 C 
BRANCH   6   7
ATOM      7  C   UNL     1      14.034 -20.771 -38.304  1.00  0.00     0.053 C 
BRANCH   7   8
ATOM      8  C   UNL     1      14.554 -22.089 -37.816  1.00  0.00     0.041 C 
ATOM      9  O   UNL     1      15.380 -22.132 -36.866  1.00  0.00    -0.550 OA
ATOM     10  O   UNL     1      14.142 -23.269 -38.423  1.00  0.00    -0.550 OA
ENDBRANCH   7   8
ENDBRANCH   6   7
ENDBRANCH   5   6
ENDBRANCH   4   5
ENDBRANCH   3   4
ENDBRANCH   2   3
ENDBRANCH   1   2
BRANCH   1  11
ATOM     11  C   UNL     1       9.374 -24.213 -35.407  1.00  0.00     0.000 C 
BRANCH  11  12
ATOM     12  C   UNL     1       9.628 -22.800 -34.869  1.00  0.00    -0.000 C 
BRANCH  12  13
ATOM     13  C   UNL     1       8.318 -22.003 -34.779  1.00  0.00    -0.000 C 
BRANCH  13  14
ATOM     14  C   UNL     1       8.381 -20.686 -35.573  1.00  0.00    -0.000 C 
BRANCH  14  15
ATOM     15  C   UNL     1       7.457 -20.673 -36.813  1.00  0.00    -0.000 C 
BRANCH  15  16
ATOM     16  C   UNL     1       6.316 -21.705 -36.741  1.00  0.00    -0.000 C 
BRANCH  16  17
ATOM     17  C   UNL     1       5.404 -21.734 -37.979  1.00  0.00    -0.003 C 
ATOM     18  C   UNL     1       6.186 -21.695 -39.293  1.00  0.00     0.004 C 
ENDBRANCH  16  17
ENDBRANCH  15  16
ENDBRANCH  14  15
ENDBRANCH  13  14
ENDBRANCH  12  13
ENDBRANCH  11  12
ENDBRANCH   1  11
TORSDOF 14
ENDMDL
MODEL 5
REMARK VINA RESULT:    -3.477      5.031      7.606
REMARK INTER + INTRA:          -8.788
REMARK INTER:                  -7.000
REMARK INTRA:                  -1.788
REMARK UNBOUND:                -2.465
REMARK SMILES CCCCCCCCCCCCCCCC(=O)[O-]
REMARK SMILES IDX 9 1 10 2 11 3 12 4 13 5 14 6 15 7 16 8 17 9 18 10 8 11 7 12
REMARK SMILES IDX 6 13 5 14 4 15 3 16 2 17 1 18
REMARK H PARENT
REMARK Flexibility Score: inf
ROOT
ATOM      1  C   UNL     1       8.187 -22.269 -35.128  1.00  0.00     0.000 C 
ENDROOT
BRANCH   1   2
ATOM      2  C   UNL     1       7.477 -22.345 -36.489  1.00  0.00     0.000 C 
BRANCH   2   3
ATOM      3  C   UNL     1       6.814 -21.013 -36.884  1.00  0.00     0.000 C 
BRANCH   3   4
ATOM      4  C   UNL     1       7.277 -19.835 -36.009  1.00  0.00     0.000 C 
BRANCH   4   5
ATOM      5  C   UNL     1       6.698 -18.462 -36.403  1.00  0.00     0.000 C 
BRANCH   5   6
ATOM      6  C   UNL     1       5.737 -17.865 -35.350  1.00  0.00     0.006 C 
BRANCH   6   7
ATOM      7  C   UNL     1       5.659 -16.330 -35.394  1.00  0.00     0.053 C 
BRANCH   7   8
ATOM      8  C   UNL     1       4.982 -15.771 -34.180  1.00  0.00     0.041 C 
ATOM      9  O   UNL     1       5.260 -16.220 -33.037  1.00  0.00    -0.550 OA
ATOM     10  O   UNL     1       4.029 -14.769 -34.312  1.00  0.00    -0.550 OA
ENDBRANCH   7   8
ENDBRANCH   6   7
ENDBRANCH   5   6
ENDBRANCH   4   5
ENDBRANCH   3   4
ENDBRANCH   2   3
ENDBRANCH   1   2
BRANCH   1  11
ATOM     11  C   UNL     1       9.384 -23.226 -35.027  1.00  0.00     0.000 C 
BRANCH  11  12
ATOM     12  C   UNL     1       9.452 -24.150 -36.249  1.00  0.00    -0.000 C 
BRANCH  12  13
ATOM     13  C   UNL     1      10.888 -24.246 -36.787  1.00  0.00    -0.000 C 
BRANCH  13  14
ATOM     14  C   UNL     1      11.011 -23.703 -38.221  1.00  0.00    -0.000 C 
BRANCH  14  15
ATOM     15  C   UNL     1      10.734 -22.187 -38.330  1.00  0.00    -0.000 C 
BRANCH  15  16
ATOM     16  C   UNL     1      11.668 -21.326 -37.460  1.00  0.00    -0.000 C 
BRANCH  16  17
ATOM     17  C   UNL     1      10.953 -20.239 -36.639  1.00  0.00    -0.003 C 
ATOM     18  C   UNL     1      10.757 -18.940 -37.420  1.00  0.00     0.004 C 
ENDBRANCH  16  17
ENDBRANCH  15  16
ENDBRANCH  14  15
ENDBRANCH  13  14
ENDBRANCH  12  13
ENDBRANCH  11  12
ENDBRANCH   1  11
TORSDOF 14
ENDMDL
MODEL 6
REMARK VINA RESULT:    -3.474     12.513     13.855
REMARK INTER + INTRA:          -8.783
REMARK INTER:                  -7.229
REMARK INTRA:                  -1.555
REMARK UNBOUND:                -2.465
REMARK SMILES CCCCCCCCCCCCCCCC(=O)[O-]
REMARK SMILES IDX 9 1 10 2 11 3 12 4 13 5 14 6 15 7 16 8 17 9 18 10 8 11 7 12
REMARK SMILES IDX 6 13 5 14 4 15 3 16 2 17 1 18
REMARK H PARENT
REMARK Flexibility Score: inf
ROOT
ATOM      1  C   UNL     1      15.466 -14.143 -45.579  1.00  0.00     0.000 C 
ENDROOT
BRANCH   1   2
ATOM      2  C   UNL     1      14.691 -14.389 -46.882  1.00  0.00     0.000 C 
BRANCH   2   3
ATOM      3  C   UNL     1      13.282 -14.956 -46.633  1.00  0.00     0.000 C 
BRANCH   3   4
ATOM      4  C   UNL     1      12.171 -14.077 -47.233  1.00  0.00     0.000 C 
BRANCH   4   5
ATOM      5  C   UNL     1      11.330 -13.295 -46.204  1.00  0.00     0.000 C 
BRANCH   5   6
ATOM      6  C   UNL     1       9.909 -13.866 -45.996  1.00  0.00     0.006 C 
BRANCH   6   7
ATOM      7  C   UNL     1       8.962 -12.900 -45.266  1.00  0.00     0.053 C 
BRANCH   7   8
ATOM      8  C   UNL     1       7.856 -12.423 -46.157  1.00  0.00     0.041 C 
ATOM      9  O   UNL     1       7.060 -11.532 -45.758  1.00  0.00    -0.550 OA
ATOM     10  O   UNL     1       7.691 -12.978 -47.420  1.00  0.00    -0.550 OA
ENDBRANCH   7   8
ENDBRANCH   6   7
ENDBRANCH   5   6
ENDBRANCH   4   5
ENDBRANCH   3   4
ENDBRANCH   2   3
ENDBRANCH   1   2
BRANCH   1  11
ATOM     11  C   UNL     1      15.371 -12.687 -45.095  1.00  0.00     0.000 C 
BRANCH  11  12
ATOM     12  C   UNL     1      14.588 -12.596 -43.780  1.00  0.00    -0.000 C 
BRANCH  12  13
ATOM     13  C   UNL     1      13.572 -11.445 -43.824  1.00  0.00    -0.000 C 
BRANCH  13  14
ATOM     14  C   UNL     1      12.242 -11.814 -43.143  1.00  0.00    -0.000 C 
BRANCH  14  15
ATOM     15  C   UNL     1      11.237 -10.642 -43.084  1.00  0.00    -0.000 C 
BRANCH  15  16
ATOM     16  C   UNL     1      10.978  -9.983 -44.452  1.00  0.00    -0.000 C 
BRANCH  16  17
ATOM     17  C   UNL     1      11.076  -8.448 -44.448  1.00  0.00    -0.003 C 
ATOM     18  C   UNL     1       9.975  -7.786 -43.620  1.00  0.00     0.004 C 
ENDBRANCH  16  17
ENDBRANCH  15  16
ENDBRANCH  14  15
ENDBRANCH  13  14
ENDBRANCH  12  13
ENDBRANCH  11  12
ENDBRANCH   1  11
TORSDOF 14
ENDMDL
MODEL 7
REMARK VINA RESULT:    -3.431      3.824      6.505
REMARK INTER + INTRA:          -8.705
REMARK INTER:                  -6.411
REMARK INTRA:                  -2.295
REMARK UNBOUND:                -2.465
REMARK SMILES CCCCCCCCCCCCCCCC(=O)[O-]
REMARK SMILES IDX 9 1 10 2 11 3 12 4 13 5 14 6 15 7 16 8 17 9 18 10 8 11 7 12
REMARK SMILES IDX 6 13 5 14 4 15 3 16 2 17 1 18
REMARK H PARENT
REMARK Flexibility Score: inf
ROOT
ATOM      1  C   UNL     1      10.106 -24.248 -36.781  1.00  0.00     0.000 C 
ENDROOT
BRANCH   1   2
ATOM      2  C   UNL     1       9.369 -23.997 -35.456  1.00  0.00     0.000 C 
BRANCH   2   3
ATOM      3  C   UNL     1       9.739 -22.644 -34.822  1.00  0.00     0.000 C 
BRANCH   3   4
ATOM      4  C   UNL     1       8.593 -21.620 -34.895  1.00  0.00     0.000 C 
BRANCH   4   5
ATOM      5  C   UNL     1       7.403 -22.034 -35.783  1.00  0.00     0.000 C 
BRANCH   5   6
ATOM      6  C   UNL     1       6.808 -20.871 -36.610  1.00  0.00     0.006 C 
BRANCH   6   7
ATOM      7  C   UNL     1       7.196 -19.481 -36.081  1.00  0.00     0.053 C 
BRANCH   7   8
ATOM      8  C   UNL     1       6.065 -18.506 -36.194  1.00  0.00     0.041 C 
ATOM      9  O   UNL     1       5.394 -18.434 -37.257  1.00  0.00    -0.550 OA
ATOM     10  O   UNL     1       5.765 -17.660 -35.133  1.00  0.00    -0.550 OA
ENDBRANCH   7   8
ENDBRANCH   6   7
ENDBRANCH   5   6
ENDBRANCH   4   5
ENDBRANCH   3   4
ENDBRANCH   2   3
ENDBRANCH   1   2
BRANCH   1  11
ATOM     11  C   UNL     1       9.156 -24.306 -37.987  1.00  0.00     0.000 C 
BRANCH  11  12
ATOM     12  C   UNL     1       9.282 -23.042 -38.846  1.00  0.00    -0.000 C 
BRANCH  12  13
ATOM     13  C   UNL     1      10.542 -22.247 -38.471  1.00  0.00    -0.000 C 
BRANCH  13  14
ATOM     14  C   UNL     1      10.445 -20.769 -38.889  1.00  0.00    -0.000 C 
BRANCH  14  15
ATOM     15  C   UNL     1      10.611 -19.785 -37.708  1.00  0.00    -0.000 C 
BRANCH  15  16
ATOM     16  C   UNL     1      11.770 -20.151 -36.762  1.00  0.00    -0.000 C 
BRANCH  16  17
ATOM     17  C   UNL     1      13.171 -19.924 -37.354  1.00  0.00    -0.003 C 
ATOM     18  C   UNL     1      14.010 -21.201 -37.400  1.00  0.00     0.004 C 
ENDBRANCH  16  17
ENDBRANCH  15  16
ENDBRANCH  14  15
ENDBRANCH  13  14
ENDBRANCH  12  13
ENDBRANCH  11  12
ENDBRANCH   1  11
TORSDOF 14
ENDMDL
MODEL 8
REMARK VINA RESULT:    -3.410      1.743      3.169
REMARK INTER + INTRA:          -8.666
REMARK INTER:                  -6.424
REMARK INTRA:                  -2.242
REMARK UNBOUND:                -2.465
REMARK SMILES CCCCCCCCCCCCCCCC(=O)[O-]
REMARK SMILES IDX 9 1 10 2 11 3 12 4 13 5 14 6 15 7 16 8 17 9 18 10 8 11 7 12
REMARK SMILES IDX 6 13 5 14 4 15 3 16 2 17 1 18
REMARK H PARENT
REMARK Flexibility Score: inf
ROOT
ATOM      1  C   UNL     1       9.836 -24.127 -36.086  1.00  0.00     0.000 C 
ENDROOT
BRANCH   1   2
ATOM      2  C   UNL     1       8.621 -24.082 -37.025  1.00  0.00     0.000 C 
BRANCH   2   3
ATOM      3  C   UNL     1       9.001 -23.688 -38.464  1.00  0.00     0.000 C 
BRANCH   3   4
ATOM      4  C   UNL     1      10.402 -23.058 -38.558  1.00  0.00     0.000 C 
BRANCH   4   5
ATOM      5  C   UNL     1      10.441 -21.640 -39.161  1.00  0.00     0.000 C 
BRANCH   5   6
ATOM      6  C   UNL     1      11.362 -20.662 -38.395  1.00  0.00     0.006 C 
BRANCH   6   7
ATOM      7  C   UNL     1      12.321 -21.361 -37.418  1.00  0.00     0.053 C 
BRANCH   7   8
ATOM      8  C   UNL     1      13.740 -21.304 -37.893  1.00  0.00     0.041 C 
ATOM      9  O   UNL     1      14.688 -21.346 -37.064  1.00  0.00    -0.550 OA
ATOM     10  O   UNL     1      14.017 -21.183 -39.249  1.00  0.00    -0.550 OA
ENDBRANCH   7   8
ENDBRANCH   6   7
ENDBRANCH   5   6
ENDBRANCH   4   5
ENDBRANCH   3   4
ENDBRANCH   2   3
ENDBRANCH   1   2
BRANCH   1  11
ATOM     11  C   UNL     1       9.737 -23.112 -34.936  1.00  0.00     0.000 C 
BRANCH  11  12
ATOM     12  C   UNL     1       8.414 -22.340 -34.999  1.00  0.00    -0.000 C 
BRANCH  12  13
ATOM     13  C   UNL     1       8.664 -20.831 -35.141  1.00  0.00    -0.000 C 
BRANCH  13  14
ATOM     14  C   UNL     1       8.267 -20.302 -36.531  1.00  0.00    -0.000 C 
BRANCH  14  15
ATOM     15  C   UNL     1       6.844 -20.721 -36.964  1.00  0.00    -0.000 C 
BRANCH  15  16
ATOM     16  C   UNL     1       5.824 -19.568 -36.925  1.00  0.00    -0.000 C 
BRANCH  16  17
ATOM     17  C   UNL     1       6.422 -18.201 -36.552  1.00  0.00    -0.003 C 
ATOM     18  C   UNL     1       5.752 -17.574 -35.329  1.00  0.00     0.004 C 
ENDBRANCH  16  17
ENDBRANCH  15  16
ENDBRANCH  14  15
ENDBRANCH  13  14
ENDBRANCH  12  13
ENDBRANCH  11  12
ENDBRANCH   1  11
TORSDOF 14
ENDMDL
MODEL 9
REMARK VINA RESULT:    -3.357     12.586     13.811
REMARK INTER + INTRA:          -8.571
REMARK INTER:                  -6.968
REMARK INTRA:                  -1.603
REMARK UNBOUND:                -2.465
REMARK SMILES CCCCCCCCCCCCCCCC(=O)[O-]
REMARK SMILES IDX 9 1 10 2 11 3 12 4 13 5 14 6 15 7 16 8 17 9 18 10 8 11 7 12
REMARK SMILES IDX 6 13 5 14 4 15 3 16 2 17 1 18
REMARK H PARENT
REMARK Flexibility Score: inf
ROOT
ATOM      1  C   UNL     1      14.666 -14.360 -45.936  1.00  0.00     0.000 C 
ENDROOT
BRANCH   1   2
ATOM      2  C   UNL     1      14.999 -12.991 -45.322  1.00  0.00     0.000 C 
BRANCH   2   3
ATOM      3  C   UNL     1      14.350 -12.790 -43.942  1.00  0.00     0.000 C 
BRANCH   3   4
ATOM      4  C   UNL     1      13.563 -11.472 -43.840  1.00  0.00     0.000 C 
BRANCH   4   5
ATOM      5  C   UNL     1      12.161 -11.596 -43.211  1.00  0.00     0.000 C 
BRANCH   5   6
ATOM      6  C   UNL     1      11.093 -10.703 -43.884  1.00  0.00     0.006 C 
BRANCH   6   7
ATOM      7  C   UNL     1      11.508  -9.226 -43.985  1.00  0.00     0.053 C 
BRANCH   7   8
ATOM      8  C   UNL     1      10.587  -8.334 -43.210  1.00  0.00     0.041 C 
ATOM      9  O   UNL     1       9.876  -7.484 -43.808  1.00  0.00    -0.550 OA
ATOM     10  O   UNL     1      10.531  -8.426 -41.825  1.00  0.00    -0.550 OA
ENDBRANCH   7   8
ENDBRANCH   6   7
ENDBRANCH   5   6
ENDBRANCH   4   5
ENDBRANCH   3   4
ENDBRANCH   2   3
ENDBRANCH   1   2
BRANCH   1  11
ATOM     11  C   UNL     1      13.892 -14.246 -47.259  1.00  0.00     0.000 C 
BRANCH  11  12
ATOM     12  C   UNL     1      12.432 -14.678 -47.078  1.00  0.00    -0.000 C 
BRANCH  12  13
ATOM     13  C   UNL     1      11.544 -13.477 -46.718  1.00  0.00    -0.000 C 
BRANCH  13  14
ATOM     14  C   UNL     1      10.487 -13.829 -45.657  1.00  0.00    -0.000 C 
BRANCH  14  15
ATOM     15  C   UNL     1       9.069 -14.018 -46.241  1.00  0.00    -0.000 C 
BRANCH  15  16
ATOM     16  C   UNL     1       7.971 -13.300 -45.435  1.00  0.00    -0.000 C 
BRANCH  16  17
ATOM     17  C   UNL     1       7.311 -12.119 -46.167  1.00  0.00    -0.003 C 
ATOM     18  C   UNL     1       7.967 -10.778 -45.840  1.00  0.00     0.004 C 
ENDBRANCH  16  17
ENDBRANCH  15  16
ENDBRANCH  14  15
ENDBRANCH  13  14
ENDBRANCH  12  13
ENDBRANCH  11  12
ENDBRANCH   1  11
TORSDOF 14
ENDMDL
