MODEL 1
REMARK VINA RESULT:     0.000      0.000      0.000
REMARK INTER + INTRA:          -4.992
REMARK INTER:                   0.000
REMARK INTRA:                  -4.992
REMARK UNBOUND:                -4.992
REMARK SMILES CCCCCCCCCCCCCCCCCCCCCC(=O)[O-]
REMARK SMILES IDX 12 1 11 2 10 3 9 4 8 5 7 6 6 7 5 8 4 9 3 10 2 11 1 12 13 13
REMARK SMILES IDX 14 14 15 15 16 16 17 17 18 18 19 19 20 20 21 21 22 22 23 23
REMARK SMILES IDX 24 24
REMARK H PARENT
REMARK Flexibility Score: inf
ROOT
ATOM      1  C   UNL     1     181.654 181.133 183.116  1.00  0.00     0.000 C 
ENDROOT
BRANCH   1   2
ATOM      2  C   UNL     1     180.656 180.914 184.266  1.00  0.00     0.000 C 
BRANCH   2   3
ATOM      3  C   UNL     1     181.243 180.060 185.404  1.00  0.00     0.000 C 
BRANCH   3   4
ATOM      4  C   UNL     1     182.723 180.371 185.677  1.00  0.00    -0.000 C 
BRANCH   4   5
ATOM      5  C   UNL     1     183.598 179.105 185.686  1.00  0.00    -0.000 C 
BRANCH   5   6
ATOM      6  C   UNL     1     182.983 177.962 184.861  1.00  0.00    -0.000 C 
BRANCH   6   7
ATOM      7  C   UNL     1     183.794 177.647 183.594  1.00  0.00    -0.000 C 
BRANCH   7   8
ATOM      8  C   UNL     1     182.913 177.732 182.338  1.00  0.00    -0.000 C 
BRANCH   8   9
ATOM      9  C   UNL     1     181.426 177.462 182.651  1.00  0.00    -0.000 C 
BRANCH   9  10
ATOM     10  C   UNL     1     180.477 177.822 181.494  1.00  0.00    -0.000 C 
BRANCH  10  11
ATOM     11  C   UNL     1     179.168 178.465 181.971  1.00  0.00    -0.003 C 
ATOM     12  C   UNL     1     178.798 179.670 181.109  1.00  0.00     0.004 C 
ENDBRANCH  10  11
ENDBRANCH   9  10
ENDBRANCH   8   9
ENDBRANCH   7   8
ENDBRANCH   6   7
ENDBRANCH   5   6
ENDBRANCH   4   5
ENDBRANCH   3   4
ENDBRANCH   2   3
ENDBRANCH   1   2
BRANCH   1  13
ATOM     13  C   UNL     1     181.298 182.285 182.154  1.00  0.00     0.000 C 
BRANCH  13  14
ATOM     14  C   UNL     1     182.010 182.247 180.790  1.00  0.00     0.000 C 
BRANCH  14  15
ATOM     15  C   UNL     1     182.308 180.814 180.315  1.00  0.00     0.000 C 
BRANCH  15  16
ATOM     16  C   UNL     1     183.786 180.602 179.937  1.00  0.00     0.000 C 
BRANCH  16  17
ATOM     17  C   UNL     1     184.807 181.359 180.812  1.00  0.00     0.000 C 
BRANCH  17  18
ATOM     18  C   UNL     1     185.336 180.576 182.026  1.00  0.00     0.000 C 
BRANCH  18  19
ATOM     19  C   UNL     1     185.373 181.415 183.311  1.00  0.00     0.000 C 
BRANCH  19  20
ATOM     20  C   UNL     1     184.978 182.872 183.024  1.00  0.00     0.006 C 
BRANCH  20  21
ATOM     21  C   UNL     1     184.256 183.524 184.211  1.00  0.00     0.053 C 
BRANCH  21  22
ATOM     22  C   UNL     1     183.522 184.764 183.800  1.00  0.00     0.041 C 
ATOM     23  O   UNL     1     182.955 185.484 184.668  1.00  0.00    -0.550 OA
ATOM     24  O   UNL     1     183.450 185.117 182.459  1.00  0.00    -0.550 OA
ENDBRANCH  21  22
ENDBRANCH  20  21
ENDBRANCH  19  20
ENDBRANCH  18  19
ENDBRANCH  17  18
ENDBRANCH  16  17
ENDBRANCH  15  16
ENDBRANCH  14  15
ENDBRANCH  13  14
ENDBRANCH   1  13
TORSDOF 20
ENDMDL
MODEL 2
REMARK VINA RESULT:     0.016      5.884      8.463
REMARK INTER + INTRA:          -4.957
REMARK INTER:                   0.000
REMARK INTRA:                  -4.957
REMARK UNBOUND:                -4.992
REMARK SMILES CCCCCCCCCCCCCCCCCCCCCC(=O)[O-]
REMARK SMILES IDX 12 1 11 2 10 3 9 4 8 5 7 6 6 7 5 8 4 9 3 10 2 11 1 12 13 13
REMARK SMILES IDX 14 14 15 15 16 16 17 17 18 18 19 19 20 20 21 21 22 22 23 23
REMARK SMILES IDX 24 24
REMARK H PARENT
REMARK Flexibility Score: inf
ROOT
ATOM      1  C   UNL     1     185.203 184.737 174.148  1.00  0.00     0.000 C 
ENDROOT
BRANCH   1   2
ATOM      2  C   UNL     1     184.808 184.760 175.635  1.00  0.00     0.000 C 
BRANCH   2   3
ATOM      3  C   UNL     1     183.336 185.152 175.851  1.00  0.00     0.000 C 
BRANCH   3   4
ATOM      4  C   UNL     1     182.549 184.092 176.638  1.00  0.00    -0.000 C 
BRANCH   4   5
ATOM      5  C   UNL     1     181.105 183.933 176.128  1.00  0.00    -0.000 C 
BRANCH   5   6
ATOM      6  C   UNL     1     180.453 182.628 176.615  1.00  0.00    -0.000 C 
BRANCH   6   7
ATOM      7  C   UNL     1     181.418 181.756 177.434  1.00  0.00    -0.000 C 
BRANCH   7   8
ATOM      8  C   UNL     1     181.146 180.263 177.202  1.00  0.00    -0.000 C 
BRANCH   8   9
ATOM      9  C   UNL     1     180.537 179.991 175.809  1.00  0.00    -0.000 C 
BRANCH   9  10
ATOM     10  C   UNL     1     181.167 178.789 175.084  1.00  0.00    -0.000 C 
BRANCH  10  11
ATOM     11  C   UNL     1     182.364 178.195 175.837  1.00  0.00    -0.003 C 
ATOM     12  C   UNL     1     183.392 177.613 174.869  1.00  0.00     0.004 C 
ENDBRANCH  10  11
ENDBRANCH   9  10
ENDBRANCH   8   9
ENDBRANCH   7   8
ENDBRANCH   6   7
ENDBRANCH   5   6
ENDBRANCH   4   5
ENDBRANCH   3   4
ENDBRANCH   2   3
ENDBRANCH   1   2
BRANCH   1  13
ATOM     13  C   UNL     1     184.083 185.152 173.171  1.00  0.00     0.000 C 
BRANCH  13  14
ATOM     14  C   UNL     1     183.564 184.032 172.252  1.00  0.00     0.000 C 
BRANCH  14  15
ATOM     15  C   UNL     1     182.135 183.587 172.605  1.00  0.00     0.000 C 
BRANCH  15  16
ATOM     16  C   UNL     1     182.078 182.173 173.211  1.00  0.00     0.000 C 
BRANCH  16  17
ATOM     17  C   UNL     1     183.431 181.438 173.304  1.00  0.00     0.000 C 
BRANCH  17  18
ATOM     18  C   UNL     1     183.980 181.255 174.730  1.00  0.00     0.000 C 
BRANCH  18  19
ATOM     19  C   UNL     1     185.502 181.051 174.764  1.00  0.00     0.000 C 
BRANCH  19  20
ATOM     20  C   UNL     1     186.047 181.244 176.186  1.00  0.00     0.006 C 
BRANCH  20  21
ATOM     21  C   UNL     1     184.933 181.247 177.242  1.00  0.00     0.053 C 
BRANCH  21  22
ATOM     22  C   UNL     1     185.030 180.060 178.153  1.00  0.00     0.041 C 
ATOM     23  O   UNL     1     184.828 180.192 179.392  1.00  0.00    -0.550 OA
ATOM     24  O   UNL     1     185.356 178.813 177.638  1.00  0.00    -0.550 OA
ENDBRANCH  21  22
ENDBRANCH  20  21
ENDBRANCH  19  20
ENDBRANCH  18  19
ENDBRANCH  17  18
ENDBRANCH  16  17
ENDBRANCH  15  16
ENDBRANCH  14  15
ENDBRANCH  13  14
ENDBRANCH   1  13
TORSDOF 20
ENDMDL
MODEL 3
REMARK VINA RESULT:     0.031      5.191      7.833
REMARK INTER + INTRA:          -4.923
REMARK INTER:                   0.000
REMARK INTRA:                  -4.923
REMARK UNBOUND:                -4.992
REMARK SMILES CCCCCCCCCCCCCCCCCCCCCC(=O)[O-]
REMARK SMILES IDX 12 1 11 2 10 3 9 4 8 5 7 6 6 7 5 8 4 9 3 10 2 11 1 12 13 13
REMARK SMILES IDX 14 14 15 15 16 16 17 17 18 18 19 19 20 20 21 21 22 22 23 23
REMARK SMILES IDX 24 24
REMARK H PARENT
REMARK Flexibility Score: inf
ROOT
ATOM      1  C   UNL     1     179.873 188.865 183.382  1.00  0.00     0.000 C 
ENDROOT
BRANCH   1   2
ATOM      2  C   UNL     1     178.606 188.091 183.785  1.00  0.00     0.000 C 
BRANCH   2   3
ATOM      3  C   UNL     1     178.856 186.579 183.926  1.00  0.00     0.000 C 
BRANCH   3   4
ATOM      4  C   UNL     1     177.780 185.875 184.767  1.00  0.00    -0.000 C 
BRANCH   4   5
ATOM      5  C   UNL     1     177.574 184.408 184.351  1.00  0.00    -0.000 C 
BRANCH   5   6
ATOM      6  C   UNL     1     178.570 183.962 183.267  1.00  0.00    -0.000 C 
BRANCH   6   7
ATOM      7  C   UNL     1     179.138 182.558 183.529  1.00  0.00    -0.000 C 
BRANCH   7   8
ATOM      8  C   UNL     1     180.480 182.635 184.271  1.00  0.00    -0.000 C 
BRANCH   8   9
ATOM      9  C   UNL     1     181.362 183.795 183.762  1.00  0.00    -0.000 C 
BRANCH   9  10
ATOM     10  C   UNL     1     181.899 184.701 184.884  1.00  0.00    -0.000 C 
BRANCH  10  11
ATOM     11  C   UNL     1     181.081 184.602 186.178  1.00  0.00    -0.003 C 
ATOM     12  C   UNL     1     180.985 185.956 186.876  1.00  0.00     0.004 C 
ENDBRANCH  10  11
ENDBRANCH   9  10
ENDBRANCH   8   9
ENDBRANCH   7   8
ENDBRANCH   6   7
ENDBRANCH   5   6
ENDBRANCH   4   5
ENDBRANCH   3   4
ENDBRANCH   2   3
ENDBRANCH   1   2
BRANCH   1  13
ATOM     13  C   UNL     1     181.194 188.281 183.925  1.00  0.00     0.000 C 
BRANCH  13  14
ATOM     14  C   UNL     1     182.211 187.851 182.852  1.00  0.00     0.000 C 
BRANCH  14  15
ATOM     15  C   UNL     1     181.588 187.742 181.450  1.00  0.00     0.000 C 
BRANCH  15  16
ATOM     16  C   UNL     1     181.233 186.295 181.061  1.00  0.00     0.000 C 
BRANCH  16  17
ATOM     17  C   UNL     1     179.843 186.105 180.420  1.00  0.00     0.000 C 
BRANCH  17  18
ATOM     18  C   UNL     1     179.196 187.387 179.867  1.00  0.00     0.000 C 
BRANCH  18  19
ATOM     19  C   UNL     1     177.716 187.525 180.251  1.00  0.00     0.000 C 
BRANCH  19  20
ATOM     20  C   UNL     1     177.125 186.165 180.650  1.00  0.00     0.006 C 
BRANCH  20  21
ATOM     21  C   UNL     1     175.900 186.308 181.563  1.00  0.00     0.053 C 
BRANCH  21  22
ATOM     22  C   UNL     1     175.023 185.094 181.509  1.00  0.00     0.041 C 
ATOM     23  O   UNL     1     173.771 185.208 181.621  1.00  0.00    -0.550 OA
ATOM     24  O   UNL     1     175.587 183.835 181.348  1.00  0.00    -0.550 OA
ENDBRANCH  21  22
ENDBRANCH  20  21
ENDBRANCH  19  20
ENDBRANCH  18  19
ENDBRANCH  17  18
ENDBRANCH  16  17
ENDBRANCH  15  16
ENDBRANCH  14  15
ENDBRANCH  13  14
ENDBRANCH   1  13
TORSDOF 20
ENDMDL
MODEL 4
REMARK VINA RESULT:     0.044      6.720      9.744
REMARK INTER + INTRA:          -4.897
REMARK INTER:                   0.000
REMARK INTRA:                  -4.897
REMARK UNBOUND:                -4.992
REMARK SMILES CCCCCCCCCCCCCCCCCCCCCC(=O)[O-]
REMARK SMILES IDX 12 1 11 2 10 3 9 4 8 5 7 6 6 7 5 8 4 9 3 10 2 11 1 12 13 13
REMARK SMILES IDX 14 14 15 15 16 16 17 17 18 18 19 19 20 20 21 21 22 22 23 23
REMARK SMILES IDX 24 24
REMARK H PARENT
REMARK Flexibility Score: inf
ROOT
ATOM      1  C   UNL     1     180.999 177.578 175.501  1.00  0.00     0.000 C 
ENDROOT
BRANCH   1   2
ATOM      2  C   UNL     1     179.956 177.063 174.494  1.00  0.00     0.000 C 
BRANCH   2   3
ATOM      3  C   UNL     1     179.636 178.092 173.395  1.00  0.00     0.000 C 
BRANCH   3   4
ATOM      4  C   UNL     1     178.185 177.997 172.898  1.00  0.00    -0.000 C 
BRANCH   4   5
ATOM      5  C   UNL     1     177.501 179.374 172.811  1.00  0.00    -0.000 C 
BRANCH   5   6
ATOM      6  C   UNL     1     176.580 179.646 174.012  1.00  0.00    -0.000 C 
BRANCH   6   7
ATOM      7  C   UNL     1     177.014 180.878 174.821  1.00  0.00    -0.000 C 
BRANCH   7   8
ATOM      8  C   UNL     1     177.919 180.476 175.996  1.00  0.00    -0.000 C 
BRANCH   8   9
ATOM      9  C   UNL     1     177.567 179.080 176.552  1.00  0.00    -0.000 C 
BRANCH   9  10
ATOM     10  C   UNL     1     178.346 178.708 177.826  1.00  0.00    -0.000 C 
BRANCH  10  11
ATOM     11  C   UNL     1     179.161 179.878 178.392  1.00  0.00    -0.003 C 
ATOM     12  C   UNL     1     180.439 179.385 179.068  1.00  0.00     0.004 C 
ENDBRANCH  10  11
ENDBRANCH   9  10
ENDBRANCH   8   9
ENDBRANCH   7   8
ENDBRANCH   6   7
ENDBRANCH   5   6
ENDBRANCH   4   5
ENDBRANCH   3   4
ENDBRANCH   2   3
ENDBRANCH   1   2
BRANCH   1  13
ATOM     13  C   UNL     1     181.295 179.090 175.417  1.00  0.00     0.000 C 
BRANCH  13  14
ATOM     14  C   UNL     1     182.631 179.533 176.039  1.00  0.00     0.000 C 
BRANCH  14  15
ATOM     15  C   UNL     1     182.705 181.051 176.272  1.00  0.00     0.000 C 
BRANCH  15  16
ATOM     16  C   UNL     1     181.364 181.764 176.018  1.00  0.00     0.000 C 
BRANCH  16  17
ATOM     17  C   UNL     1     181.453 183.066 175.195  1.00  0.00     0.000 C 
BRANCH  17  18
ATOM     18  C   UNL     1     180.472 183.162 174.013  1.00  0.00     0.000 C 
BRANCH  18  19
ATOM     19  C   UNL     1     180.228 181.812 173.325  1.00  0.00     0.000 C 
BRANCH  19  20
ATOM     20  C   UNL     1     181.089 181.679 172.060  1.00  0.00     0.006 C 
BRANCH  20  21
ATOM     21  C   UNL     1     182.171 180.600 172.203  1.00  0.00     0.053 C 
BRANCH  21  22
ATOM     22  C   UNL     1     183.487 181.185 172.617  1.00  0.00     0.041 C 
ATOM     23  O   UNL     1     184.392 180.443 173.091  1.00  0.00    -0.550 OA
ATOM     24  O   UNL     1     183.711 182.550 172.493  1.00  0.00    -0.550 OA
ENDBRANCH  21  22
ENDBRANCH  20  21
ENDBRANCH  19  20
ENDBRANCH  18  19
ENDBRANCH  17  18
ENDBRANCH  16  17
ENDBRANCH  15  16
ENDBRANCH  14  15
ENDBRANCH  13  14
ENDBRANCH   1  13
TORSDOF 20
ENDMDL
MODEL 5
REMARK VINA RESULT:     0.047      6.651      9.902
REMARK INTER + INTRA:          -4.890
REMARK INTER:                   0.000
REMARK INTRA:                  -4.890
REMARK UNBOUND:                -4.992
REMARK SMILES CCCCCCCCCCCCCCCCCCCCCC(=O)[O-]
REMARK SMILES IDX 12 1 11 2 10 3 9 4 8 5 7 6 6 7 5 8 4 9 3 10 2 11 1 12 13 13
REMARK SMILES IDX 14 14 15 15 16 16 17 17 18 18 19 19 20 20 21 21 22 22 23 23
REMARK SMILES IDX 24 24
REMARK H PARENT
REMARK Flexibility Score: inf
ROOT
ATOM      1  C   UNL     1     184.333 188.967 178.505  1.00  0.00     0.000 C 
ENDROOT
BRANCH   1   2
ATOM      2  C   UNL     1     184.686 188.383 177.126  1.00  0.00     0.000 C 
BRANCH   2   3
ATOM      3  C   UNL     1     186.145 187.900 177.044  1.00  0.00     0.000 C 
BRANCH   3   4
ATOM      4  C   UNL     1     186.950 188.625 175.954  1.00  0.00    -0.000 C 
BRANCH   4   5
ATOM      5  C   UNL     1     188.463 188.620 176.237  1.00  0.00    -0.000 C 
BRANCH   5   6
ATOM      6  C   UNL     1     189.177 187.425 175.585  1.00  0.00    -0.000 C 
BRANCH   6   7
ATOM      7  C   UNL     1     189.978 186.592 176.598  1.00  0.00    -0.000 C 
BRANCH   7   8
ATOM      8  C   UNL     1     189.242 185.290 176.948  1.00  0.00    -0.000 C 
BRANCH   8   9
ATOM      9  C   UNL     1     188.237 184.876 175.853  1.00  0.00    -0.000 C 
BRANCH   9  10
ATOM     10  C   UNL     1     186.933 184.275 176.407  1.00  0.00    -0.000 C 
BRANCH  10  11
ATOM     11  C   UNL     1     185.710 184.591 175.536  1.00  0.00    -0.003 C 
ATOM     12  C   UNL     1     186.110 185.363 174.281  1.00  0.00     0.004 C 
ENDBRANCH  10  11
ENDBRANCH   9  10
ENDBRANCH   8   9
ENDBRANCH   7   8
ENDBRANCH   6   7
ENDBRANCH   5   6
ENDBRANCH   4   5
ENDBRANCH   3   4
ENDBRANCH   2   3
ENDBRANCH   1   2
BRANCH   1  13
ATOM     13  C   UNL     1     185.460 189.779 179.177  1.00  0.00     0.000 C 
BRANCH  13  14
ATOM     14  C   UNL     1     185.548 189.638 180.707  1.00  0.00     0.000 C 
BRANCH  14  15
ATOM     15  C   UNL     1     186.947 189.211 181.185  1.00  0.00     0.000 C 
BRANCH  15  16
ATOM     16  C   UNL     1     187.959 189.072 180.034  1.00  0.00     0.000 C 
BRANCH  16  17
ATOM     17  C   UNL     1     188.558 187.662 179.847  1.00  0.00     0.000 C 
BRANCH  17  18
ATOM     18  C   UNL     1     187.886 186.550 180.672  1.00  0.00     0.000 C 
BRANCH  18  19
ATOM     19  C   UNL     1     186.977 185.645 179.829  1.00  0.00     0.000 C 
BRANCH  19  20
ATOM     20  C   UNL     1     185.499 185.885 180.170  1.00  0.00     0.006 C 
BRANCH  20  21
ATOM     21  C   UNL     1     184.553 185.233 179.152  1.00  0.00     0.053 C 
BRANCH  21  22
ATOM     22  C   UNL     1     184.345 183.777 179.440  1.00  0.00     0.041 C 
ATOM     23  O   UNL     1     184.391 182.931 178.505  1.00  0.00    -0.550 OA
ATOM     24  O   UNL     1     184.087 183.355 180.738  1.00  0.00    -0.550 OA
ENDBRANCH  21  22
ENDBRANCH  20  21
ENDBRANCH  19  20
ENDBRANCH  18  19
ENDBRANCH  17  18
ENDBRANCH  16  17
ENDBRANCH  15  16
ENDBRANCH  14  15
ENDBRANCH  13  14
ENDBRANCH   1  13
TORSDOF 20
ENDMDL
MODEL 6
REMARK VINA RESULT:     0.048      2.354      4.799
REMARK INTER + INTRA:          -4.888
REMARK INTER:                   0.000
REMARK INTRA:                  -4.888
REMARK UNBOUND:                -4.992
REMARK SMILES CCCCCCCCCCCCCCCCCCCCCC(=O)[O-]
REMARK SMILES IDX 12 1 11 2 10 3 9 4 8 5 7 6 6 7 5 8 4 9 3 10 2 11 1 12 13 13
REMARK SMILES IDX 14 14 15 15 16 16 17 17 18 18 19 19 20 20 21 21 22 22 23 23
REMARK SMILES IDX 24 24
REMARK H PARENT
REMARK Flexibility Score: inf
ROOT
ATOM      1  C   UNL     1     185.171 178.826 182.574  1.00  0.00     0.000 C 
ENDROOT
BRANCH   1   2
ATOM      2  C   UNL     1     184.223 178.353 181.458  1.00  0.00     0.000 C 
BRANCH   2   3
ATOM      3  C   UNL     1     182.775 178.828 181.671  1.00  0.00     0.000 C 
BRANCH   3   4
ATOM      4  C   UNL     1     181.780 177.662 181.794  1.00  0.00    -0.000 C 
BRANCH   4   5
ATOM      5  C   UNL     1     180.726 177.902 182.889  1.00  0.00    -0.000 C 
BRANCH   5   6
ATOM      6  C   UNL     1     180.794 179.326 183.466  1.00  0.00    -0.000 C 
BRANCH   6   7
ATOM      7  C   UNL     1     181.000 179.337 184.989  1.00  0.00    -0.000 C 
BRANCH   7   8
ATOM      8  C   UNL     1     181.299 177.925 185.515  1.00  0.00    -0.000 C 
BRANCH   8   9
ATOM      9  C   UNL     1     182.552 177.891 186.416  1.00  0.00    -0.000 C 
BRANCH   9  10
ATOM     10  C   UNL     1     183.581 176.825 186.003  1.00  0.00    -0.000 C 
BRANCH  10  11
ATOM     11  C   UNL     1     183.090 175.930 184.858  1.00  0.00    -0.003 C 
ATOM     12  C   UNL     1     184.240 175.529 183.937  1.00  0.00     0.004 C 
ENDBRANCH  10  11
ENDBRANCH   9  10
ENDBRANCH   8   9
ENDBRANCH   7   8
ENDBRANCH   6   7
ENDBRANCH   5   6
ENDBRANCH   4   5
ENDBRANCH   3   4
ENDBRANCH   2   3
ENDBRANCH   1   2
BRANCH   1  13
ATOM     13  C   UNL     1     184.480 179.525 183.763  1.00  0.00     0.000 C 
BRANCH  13  14
ATOM     14  C   UNL     1     185.430 180.119 184.818  1.00  0.00     0.000 C 
BRANCH  14  15
ATOM     15  C   UNL     1     184.693 180.947 185.884  1.00  0.00     0.000 C 
BRANCH  15  16
ATOM     16  C   UNL     1     184.274 182.340 185.380  1.00  0.00     0.000 C 
BRANCH  16  17
ATOM     17  C   UNL     1     182.754 182.563 185.239  1.00  0.00     0.000 C 
BRANCH  17  18
ATOM     18  C   UNL     1     182.313 183.267 183.943  1.00  0.00     0.000 C 
BRANCH  18  19
ATOM     19  C   UNL     1     182.590 182.433 182.684  1.00  0.00     0.000 C 
BRANCH  19  20
ATOM     20  C   UNL     1     183.549 183.173 181.739  1.00  0.00     0.006 C 
BRANCH  20  21
ATOM     21  C   UNL     1     184.924 182.495 181.658  1.00  0.00     0.053 C 
BRANCH  21  22
ATOM     22  C   UNL     1     185.119 181.791 180.349  1.00  0.00     0.041 C 
ATOM     23  O   UNL     1     184.145 181.630 179.562  1.00  0.00    -0.550 OA
ATOM     24  O   UNL     1     186.371 181.300 180.003  1.00  0.00    -0.550 OA
ENDBRANCH  21  22
ENDBRANCH  20  21
ENDBRANCH  19  20
ENDBRANCH  18  19
ENDBRANCH  17  18
ENDBRANCH  16  17
ENDBRANCH  15  16
ENDBRANCH  14  15
ENDBRANCH  13  14
ENDBRANCH   1  13
TORSDOF 20
ENDMDL
MODEL 7
REMARK VINA RESULT:     0.053      4.582      7.154
REMARK INTER + INTRA:          -4.876
REMARK INTER:                   0.000
REMARK INTRA:                  -4.876
REMARK UNBOUND:                -4.992
REMARK SMILES CCCCCCCCCCCCCCCCCCCCCC(=O)[O-]
REMARK SMILES IDX 12 1 11 2 10 3 9 4 8 5 7 6 6 7 5 8 4 9 3 10 2 11 1 12 13 13
REMARK SMILES IDX 14 14 15 15 16 16 17 17 18 18 19 19 20 20 21 21 22 22 23 23
REMARK SMILES IDX 24 24
REMARK H PARENT
REMARK Flexibility Score: inf
ROOT
ATOM      1  C   UNL     1     180.345 185.762 181.148  1.00  0.00     0.000 C 
ENDROOT
BRANCH   1   2
ATOM      2  C   UNL     1     179.601 186.451 182.306  1.00  0.00     0.000 C 
BRANCH   2   3
ATOM      3  C   UNL     1     179.537 185.577 183.571  1.00  0.00     0.000 C 
BRANCH   3   4
ATOM      4  C   UNL     1     179.443 186.408 184.861  1.00  0.00    -0.000 C 
BRANCH   4   5
ATOM      5  C   UNL     1     180.076 185.693 186.068  1.00  0.00    -0.000 C 
BRANCH   5   6
ATOM      6  C   UNL     1     180.817 184.407 185.665  1.00  0.00    -0.000 C 
BRANCH   6   7
ATOM      7  C   UNL     1     182.137 184.221 186.431  1.00  0.00    -0.000 C 
BRANCH   7   8
ATOM      8  C   UNL     1     182.264 185.247 187.568  1.00  0.00    -0.000 C 
BRANCH   8   9
ATOM      9  C   UNL     1     183.661 185.904 187.606  1.00  0.00    -0.000 C 
BRANCH   9  10
ATOM     10  C   UNL     1     183.623 187.440 187.519  1.00  0.00    -0.000 C 
BRANCH  10  11
ATOM     11  C   UNL     1     182.261 188.029 187.909  1.00  0.00    -0.003 C 
ATOM     12  C   UNL     1     181.730 188.960 186.822  1.00  0.00     0.004 C 
ENDBRANCH  10  11
ENDBRANCH   9  10
ENDBRANCH   8   9
ENDBRANCH   7   8
ENDBRANCH   6   7
ENDBRANCH   5   6
ENDBRANCH   4   5
ENDBRANCH   3   4
ENDBRANCH   2   3
ENDBRANCH   1   2
BRANCH   1  13
ATOM     13  C   UNL     1     180.940 184.380 181.488  1.00  0.00     0.000 C 
BRANCH  13  14
ATOM     14  C   UNL     1     182.476 184.291 181.421  1.00  0.00     0.000 C 
BRANCH  14  15
ATOM     15  C   UNL     1     183.122 184.100 182.804  1.00  0.00     0.000 C 
BRANCH  15  16
ATOM     16  C   UNL     1     184.400 184.939 182.991  1.00  0.00     0.000 C 
BRANCH  16  17
ATOM     17  C   UNL     1     184.292 186.090 184.011  1.00  0.00     0.000 C 
BRANCH  17  18
ATOM     18  C   UNL     1     183.000 186.923 183.925  1.00  0.00     0.000 C 
BRANCH  18  19
ATOM     19  C   UNL     1     183.243 188.356 183.432  1.00  0.00     0.000 C 
BRANCH  19  20
ATOM     20  C   UNL     1     182.587 188.582 182.062  1.00  0.00     0.006 C 
BRANCH  20  21
ATOM     21  C   UNL     1     183.386 187.937 180.920  1.00  0.00     0.053 C 
BRANCH  21  22
ATOM     22  C   UNL     1     184.796 188.442 180.877  1.00  0.00     0.041 C 
ATOM     23  O   UNL     1     185.030 189.653 180.611  1.00  0.00    -0.550 OA
ATOM     24  O   UNL     1     185.853 187.573 181.117  1.00  0.00    -0.550 OA
ENDBRANCH  21  22
ENDBRANCH  20  21
ENDBRANCH  19  20
ENDBRANCH  18  19
ENDBRANCH  17  18
ENDBRANCH  16  17
ENDBRANCH  15  16
ENDBRANCH  14  15
ENDBRANCH  13  14
ENDBRANCH   1  13
TORSDOF 20
ENDMDL
MODEL 8
REMARK VINA RESULT:     0.056      6.467      9.570
REMARK INTER + INTRA:          -4.871
REMARK INTER:                   0.000
REMARK INTRA:                  -4.871
REMARK UNBOUND:                -4.992
REMARK SMILES CCCCCCCCCCCCCCCCCCCCCC(=O)[O-]
REMARK SMILES IDX 12 1 11 2 10 3 9 4 8 5 7 6 6 7 5 8 4 9 3 10 2 11 1 12 13 13
REMARK SMILES IDX 14 14 15 15 16 16 17 17 18 18 19 19 20 20 21 21 22 22 23 23
REMARK SMILES IDX 24 24
REMARK H PARENT
REMARK Flexibility Score: inf
ROOT
ATOM      1  C   UNL     1     183.053 188.261 177.438  1.00  0.00     0.000 C 
ENDROOT
BRANCH   1   2
ATOM      2  C   UNL     1     183.406 187.677 176.059  1.00  0.00     0.000 C 
BRANCH   2   3
ATOM      3  C   UNL     1     184.847 187.140 175.995  1.00  0.00     0.000 C 
BRANCH   3   4
ATOM      4  C   UNL     1     185.696 187.843 174.924  1.00  0.00    -0.000 C 
BRANCH   4   5
ATOM      5  C   UNL     1     187.201 187.793 175.240  1.00  0.00    -0.000 C 
BRANCH   5   6
ATOM      6  C   UNL     1     187.897 186.589 174.583  1.00  0.00    -0.000 C 
BRANCH   6   7
ATOM      7  C   UNL     1     188.657 185.721 175.599  1.00  0.00    -0.000 C 
BRANCH   7   8
ATOM      8  C   UNL     1     187.866 184.448 175.938  1.00  0.00    -0.000 C 
BRANCH   8   9
ATOM      9  C   UNL     1     186.875 184.062 174.820  1.00  0.00    -0.000 C 
BRANCH   9  10
ATOM     10  C   UNL     1     185.548 183.485 175.343  1.00  0.00    -0.000 C 
BRANCH  10  11
ATOM     11  C   UNL     1     184.348 183.843 174.458  1.00  0.00    -0.003 C 
ATOM     12  C   UNL     1     184.789 184.605 173.211  1.00  0.00     0.004 C 
ENDBRANCH  10  11
ENDBRANCH   9  10
ENDBRANCH   8   9
ENDBRANCH   7   8
ENDBRANCH   6   7
ENDBRANCH   5   6
ENDBRANCH   4   5
ENDBRANCH   3   4
ENDBRANCH   2   3
ENDBRANCH   1   2
BRANCH   1  13
ATOM     13  C   UNL     1     184.179 189.073 178.110  1.00  0.00     0.000 C 
BRANCH  13  14
ATOM     14  C   UNL     1     184.242 188.965 179.644  1.00  0.00     0.000 C 
BRANCH  14  15
ATOM     15  C   UNL     1     185.579 188.394 180.147  1.00  0.00     0.000 C 
BRANCH  15  16
ATOM     16  C   UNL     1     186.627 188.246 179.029  1.00  0.00     0.000 C 
BRANCH  16  17
ATOM     17  C   UNL     1     187.181 186.821 178.827  1.00  0.00     0.000 C 
BRANCH  17  18
ATOM     18  C   UNL     1     186.471 185.721 179.636  1.00  0.00     0.000 C 
BRANCH  18  19
ATOM     19  C   UNL     1     185.559 184.836 178.773  1.00  0.00     0.000 C 
BRANCH  19  20
ATOM     20  C   UNL     1     184.080 185.110 179.083  1.00  0.00     0.006 C 
BRANCH  20  21
ATOM     21  C   UNL     1     183.142 184.480 178.044  1.00  0.00     0.053 C 
BRANCH  21  22
ATOM     22  C   UNL     1     182.942 183.015 178.292  1.00  0.00     0.041 C 
ATOM     23  O   UNL     1     182.867 182.575 179.473  1.00  0.00    -0.550 OA
ATOM     24  O   UNL     1     182.852 182.134 177.223  1.00  0.00    -0.550 OA
ENDBRANCH  21  22
ENDBRANCH  20  21
ENDBRANCH  19  20
ENDBRANCH  18  19
ENDBRANCH  17  18
ENDBRANCH  16  17
ENDBRANCH  15  16
ENDBRANCH  14  15
ENDBRANCH  13  14
ENDBRANCH   1  13
TORSDOF 20
ENDMDL
MODEL 9
REMARK VINA RESULT:     0.063      5.490      8.398
REMARK INTER + INTRA:          -4.856
REMARK INTER:                   0.000
REMARK INTRA:                  -4.856
REMARK UNBOUND:                -4.992
REMARK SMILES CCCCCCCCCCCCCCCCCCCCCC(=O)[O-]
REMARK SMILES IDX 12 1 11 2 10 3 9 4 8 5 7 6 6 7 5 8 4 9 3 10 2 11 1 12 13 13
REMARK SMILES IDX 14 14 15 15 16 16 17 17 18 18 19 19 20 20 21 21 22 22 23 23
REMARK SMILES IDX 24 24
REMARK H PARENT
REMARK Flexibility Score: inf
ROOT
ATOM      1  C   UNL     1     179.368 182.598 174.975  1.00  0.00     0.000 C 
ENDROOT
BRANCH   1   2
ATOM      2  C   UNL     1     180.551 182.497 175.954  1.00  0.00     0.000 C 
BRANCH   2   3
ATOM      3  C   UNL     1     180.147 182.813 177.405  1.00  0.00     0.000 C 
BRANCH   3   4
ATOM      4  C   UNL     1     180.562 181.710 178.391  1.00  0.00    -0.000 C 
BRANCH   4   5
ATOM      5  C   UNL     1     179.532 181.509 179.516  1.00  0.00    -0.000 C 
BRANCH   5   6
ATOM      6  C   UNL     1     178.316 182.439 179.370  1.00  0.00    -0.000 C 
BRANCH   6   7
ATOM      7  C   UNL     1     178.052 183.267 180.638  1.00  0.00    -0.000 C 
BRANCH   7   8
ATOM      8  C   UNL     1     178.280 184.764 180.378  1.00  0.00    -0.000 C 
BRANCH   8   9
ATOM      9  C   UNL     1     179.613 185.262 180.976  1.00  0.00    -0.000 C 
BRANCH   9  10
ATOM     10  C   UNL     1     180.723 185.464 179.929  1.00  0.00    -0.000 C 
BRANCH  10  11
ATOM     11  C   UNL     1     181.968 184.612 180.205  1.00  0.00    -0.003 C 
ATOM     12  C   UNL     1     181.782 183.747 181.449  1.00  0.00     0.004 C 
ENDBRANCH  10  11
ENDBRANCH   9  10
ENDBRANCH   8   9
ENDBRANCH   7   8
ENDBRANCH   6   7
ENDBRANCH   5   6
ENDBRANCH   4   5
ENDBRANCH   3   4
ENDBRANCH   2   3
ENDBRANCH   1   2
BRANCH   1  13
ATOM     13  C   UNL     1     177.978 182.684 175.640  1.00  0.00     0.000 C 
BRANCH  13  14
ATOM     14  C   UNL     1     176.907 183.433 174.826  1.00  0.00     0.000 C 
BRANCH  14  15
ATOM     15  C   UNL     1     176.059 184.382 175.690  1.00  0.00     0.000 C 
BRANCH  15  16
ATOM     16  C   UNL     1     176.747 184.768 177.012  1.00  0.00     0.000 C 
BRANCH  16  17
ATOM     17  C   UNL     1     177.408 186.162 177.032  1.00  0.00     0.000 C 
BRANCH  17  18
ATOM     18  C   UNL     1     178.923 186.172 176.766  1.00  0.00     0.000 C 
BRANCH  18  19
ATOM     19  C   UNL     1     179.270 186.365 175.282  1.00  0.00     0.000 C 
BRANCH  19  20
ATOM     20  C   UNL     1     180.766 186.124 175.035  1.00  0.00     0.006 C 
BRANCH  20  21
ATOM     21  C   UNL     1     181.573 186.081 176.340  1.00  0.00     0.053 C 
BRANCH  21  22
ATOM     22  C   UNL     1     182.937 185.497 176.130  1.00  0.00     0.041 C 
ATOM     23  O   UNL     1     183.674 185.922 175.198  1.00  0.00    -0.550 OA
ATOM     24  O   UNL     1     183.390 184.474 176.953  1.00  0.00    -0.550 OA
ENDBRANCH  21  22
ENDBRANCH  20  21
ENDBRANCH  19  20
ENDBRANCH  18  19
ENDBRANCH  17  18
ENDBRANCH  16  17
ENDBRANCH  15  16
ENDBRANCH  14  15
ENDBRANCH  13  14
ENDBRANCH   1  13
TORSDOF 20
ENDMDL
