MODEL 1
REMARK VINA RESULT:    -8.331      0.000      0.000
REMARK INTER + INTRA:          -9.806
REMARK INTER:                 -10.035
REMARK INTRA:                   0.229
REMARK UNBOUND:                 0.229
REMARK SMILES O=c1c(O)c(-c2ccc(O)c(O)c2)oc2cc(O)cc(O)c12
REMARK SMILES IDX 5 1 3 2 2 3 1 4 22 5 20 6 19 7 17 8 16 9 15 10 14 11 6 12
REMARK SMILES IDX 7 13 8 14 9 15 13 16 11 17 10 18 12 20 4 22 21 24 18 26
REMARK H PARENT 10 19 12 21 4 23 21 25 18 27
REMARK Flexibility Score: inf
ROOT
ATOM      1  C   UNL     1      39.753 -12.361   9.171  1.00  0.00     0.180 A 
ATOM      2  C   UNL     1      40.031 -11.025   9.511  1.00  0.00     0.208 A 
ATOM      3  C   UNL     1      41.115 -10.750  10.359  1.00  0.00     0.238 A 
ATOM      4  O   UNL     1      41.325  -9.558  10.704  1.00  0.00    -0.285 OA
ATOM      5  C   UNL     1      41.918 -11.810  10.844  1.00  0.00     0.111 A 
ATOM      6  C   UNL     1      43.065 -11.643  11.676  1.00  0.00     0.134 A 
ATOM      7  C   UNL     1      43.707 -12.770  12.202  1.00  0.00     0.093 A 
ATOM      8  C   UNL     1      43.282 -14.060  11.874  1.00  0.00     0.123 A 
ATOM      9  C   UNL     1      42.200 -14.234  11.013  1.00  0.00     0.094 A 
ATOM     10  C   UNL     1      41.517 -13.128  10.501  1.00  0.00     0.146 A 
ATOM     11  O   UNL     1      40.485 -13.338   9.695  1.00  0.00    -0.452 OA
ENDROOT
BRANCH   1  12
ATOM     12  C   UNL     1      38.643 -12.728   8.262  1.00  0.00     0.025 A 
ATOM     13  C   UNL     1      37.428 -12.030   8.340  1.00  0.00     0.016 A 
ATOM     14  C   UNL     1      36.361 -12.372   7.506  1.00  0.00     0.051 A 
ATOM     15  C   UNL     1      36.484 -13.426   6.595  1.00  0.00     0.157 A 
ATOM     16  C   UNL     1      38.760 -13.799   7.360  1.00  0.00     0.062 A 
ATOM     17  C   UNL     1      37.688 -14.146   6.523  1.00  0.00     0.158 A 
BRANCH  15  18
ATOM     18  O   UNL     1      35.403 -13.743   5.774  1.00  0.00    -0.504 OA
ATOM     19  H   UNL     1      34.502 -13.292   5.873  1.00  0.00     0.293 HD
ENDBRANCH  15  18
BRANCH  17  20
ATOM     20  O   UNL     1      37.814 -15.207   5.626  1.00  0.00    -0.504 OA
ATOM     21  H   UNL     1      38.045 -16.142   5.940  1.00  0.00     0.293 HD
ENDBRANCH  17  20
ENDBRANCH   1  12
BRANCH   2  22
ATOM     22  O   UNL     1      39.211  -9.995   9.039  1.00  0.00    -0.502 OA
ATOM     23  H   UNL     1      39.551  -9.051   8.901  1.00  0.00     0.293 HD
ENDBRANCH   2  22
BRANCH   6  24
ATOM     24  O   UNL     1      43.626 -10.402  11.992  1.00  0.00    -0.507 OA
ATOM     25  H   UNL     1      44.545 -10.098  11.707  1.00  0.00     0.293 HD
ENDBRANCH   6  24
BRANCH   8  26
ATOM     26  O   UNL     1      43.936 -15.177  12.389  1.00  0.00    -0.508 OA
ATOM     27  H   UNL     1      43.899 -16.075  11.920  1.00  0.00     0.293 HD
ENDBRANCH   8  26
TORSDOF 6
ENDMDL
MODEL 2
REMARK VINA RESULT:    -8.208      1.122      1.143
REMARK INTER + INTRA:          -9.658
REMARK INTER:                  -9.325
REMARK INTRA:                  -0.333
REMARK UNBOUND:                 0.229
REMARK SMILES O=c1c(O)c(-c2ccc(O)c(O)c2)oc2cc(O)cc(O)c12
REMARK SMILES IDX 5 1 3 2 2 3 1 4 22 5 20 6 19 7 17 8 16 9 15 10 14 11 6 12
REMARK SMILES IDX 7 13 8 14 9 15 13 16 11 17 10 18 12 20 4 22 21 24 18 26
REMARK H PARENT 10 19 12 21 4 23 21 25 18 27
REMARK Flexibility Score: inf
ROOT
ATOM      1  C   UNL     1      39.993 -11.810   9.172  1.00  0.00     0.180 A 
ATOM      2  C   UNL     1      40.366 -10.563   9.704  1.00  0.00     0.208 A 
ATOM      3  C   UNL     1      41.437 -10.501  10.610  1.00  0.00     0.238 A 
ATOM      4  O   UNL     1      41.731  -9.391  11.124  1.00  0.00    -0.285 OA
ATOM      5  C   UNL     1      42.133 -11.684  10.960  1.00  0.00     0.111 A 
ATOM      6  C   UNL     1      43.258 -11.732  11.836  1.00  0.00     0.134 A 
ATOM      7  C   UNL     1      43.787 -12.973  12.213  1.00  0.00     0.093 A 
ATOM      8  C   UNL     1      43.271 -14.163  11.695  1.00  0.00     0.123 A 
ATOM      9  C   UNL     1      42.211 -14.123  10.792  1.00  0.00     0.094 A 
ATOM     10  C   UNL     1      41.639 -12.902  10.424  1.00  0.00     0.146 A 
ATOM     11  O   UNL     1      40.624 -12.909   9.570  1.00  0.00    -0.452 OA
ENDROOT
BRANCH   1  12
ATOM     12  C   UNL     1      38.892 -11.951   8.192  1.00  0.00     0.025 A 
ATOM     13  C   UNL     1      37.596 -12.241   8.649  1.00  0.00     0.016 A 
ATOM     14  C   UNL     1      36.546 -12.399   7.742  1.00  0.00     0.051 A 
ATOM     15  C   UNL     1      36.774 -12.285   6.367  1.00  0.00     0.157 A 
ATOM     16  C   UNL     1      39.124 -11.857   6.810  1.00  0.00     0.062 A 
ATOM     17  C   UNL     1      38.071 -12.017   5.897  1.00  0.00     0.158 A 
BRANCH  15  18
ATOM     18  O   UNL     1      35.706 -12.445   5.486  1.00  0.00    -0.504 OA
ATOM     19  H   UNL     1      35.839 -12.497   4.483  1.00  0.00     0.293 HD
ENDBRANCH  15  18
BRANCH  17  20
ATOM     20  O   UNL     1      38.310 -11.916   4.527  1.00  0.00    -0.504 OA
ATOM     21  H   UNL     1      38.120 -12.687   3.897  1.00  0.00     0.293 HD
ENDBRANCH  17  20
ENDBRANCH   1  12
BRANCH   2  22
ATOM     22  O   UNL     1      39.651  -9.411   9.362  1.00  0.00    -0.502 OA
ATOM     23  H   UNL     1      38.680  -9.440   9.076  1.00  0.00     0.293 HD
ENDBRANCH   2  22
BRANCH   6  24
ATOM     24  O   UNL     1      43.907 -10.600  12.337  1.00  0.00    -0.507 OA
ATOM     25  H   UNL     1      43.547  -9.659  12.280  1.00  0.00     0.293 HD
ENDBRANCH   6  24
BRANCH   8  26
ATOM     26  O   UNL     1      43.812 -15.393  12.063  1.00  0.00    -0.508 OA
ATOM     27  H   UNL     1      43.550 -15.849  12.930  1.00  0.00     0.293 HD
ENDBRANCH   8  26
TORSDOF 6
ENDMDL
MODEL 3
REMARK VINA RESULT:    -7.774      2.057      6.852
REMARK INTER + INTRA:          -9.135
REMARK INTER:                  -8.898
REMARK INTRA:                  -0.237
REMARK UNBOUND:                 0.229
REMARK SMILES O=c1c(O)c(-c2ccc(O)c(O)c2)oc2cc(O)cc(O)c12
REMARK SMILES IDX 5 1 3 2 2 3 1 4 22 5 20 6 19 7 17 8 16 9 15 10 14 11 6 12
REMARK SMILES IDX 7 13 8 14 9 15 13 16 11 17 10 18 12 20 4 22 21 24 18 26
REMARK H PARENT 10 19 12 21 4 23 21 25 18 27
REMARK Flexibility Score: inf
ROOT
ATOM      1  C   UNL     1      41.070 -12.409   8.656  1.00  0.00     0.180 A 
ATOM      2  C   UNL     1      41.561 -11.489   7.714  1.00  0.00     0.208 A 
ATOM      3  C   UNL     1      40.696 -11.001   6.723  1.00  0.00     0.238 A 
ATOM      4  O   UNL     1      41.155 -10.219   5.850  1.00  0.00    -0.285 OA
ATOM      5  C   UNL     1      39.345 -11.426   6.695  1.00  0.00     0.111 A 
ATOM      6  C   UNL     1      38.370 -10.965   5.761  1.00  0.00     0.134 A 
ATOM      7  C   UNL     1      37.098 -11.551   5.745  1.00  0.00     0.093 A 
ATOM      8  C   UNL     1      36.747 -12.535   6.671  1.00  0.00     0.123 A 
ATOM      9  C   UNL     1      37.673 -12.949   7.626  1.00  0.00     0.094 A 
ATOM     10  C   UNL     1      38.962 -12.409   7.644  1.00  0.00     0.146 A 
ATOM     11  O   UNL     1      39.816 -12.839   8.563  1.00  0.00    -0.452 OA
ENDROOT
BRANCH   1  12
ATOM     12  C   UNL     1      41.915 -12.949   9.746  1.00  0.00     0.025 A 
ATOM     13  C   UNL     1      42.248 -14.313   9.750  1.00  0.00     0.016 A 
ATOM     14  C   UNL     1      43.027 -14.848  10.778  1.00  0.00     0.051 A 
ATOM     15  C   UNL     1      43.473 -14.034  11.825  1.00  0.00     0.157 A 
ATOM     16  C   UNL     1      42.346 -12.137  10.809  1.00  0.00     0.062 A 
ATOM     17  C   UNL     1      43.127 -12.673  11.844  1.00  0.00     0.158 A 
BRANCH  15  18
ATOM     18  O   UNL     1      44.250 -14.596  12.837  1.00  0.00    -0.504 OA
ATOM     19  H   UNL     1      43.841 -15.109  13.608  1.00  0.00     0.293 HD
ENDBRANCH  15  18
BRANCH  17  20
ATOM     20  O   UNL     1      43.556 -11.859  12.892  1.00  0.00    -0.504 OA
ATOM     21  H   UNL     1      43.599 -10.851  12.797  1.00  0.00     0.293 HD
ENDBRANCH  17  20
ENDBRANCH   1  12
BRANCH   2  22
ATOM     22  O   UNL     1      42.904 -11.100   7.746  1.00  0.00    -0.502 OA
ATOM     23  H   UNL     1      43.552 -11.443   8.445  1.00  0.00     0.293 HD
ENDBRANCH   2  22
BRANCH   6  24
ATOM     24  O   UNL     1      38.588  -9.924   4.854  1.00  0.00    -0.507 OA
ATOM     25  H   UNL     1      39.124  -9.092   5.051  1.00  0.00     0.293 HD
ENDBRANCH   6  24
BRANCH   8  26
ATOM     26  O   UNL     1      35.474 -13.102   6.659  1.00  0.00    -0.508 OA
ATOM     27  H   UNL     1      34.916 -13.131   5.813  1.00  0.00     0.293 HD
ENDBRANCH   8  26
TORSDOF 6
ENDMDL
MODEL 4
REMARK VINA RESULT:    -7.688      5.902     11.934
REMARK INTER + INTRA:          -9.032
REMARK INTER:                  -8.774
REMARK INTRA:                  -0.258
REMARK UNBOUND:                 0.229
REMARK SMILES O=c1c(O)c(-c2ccc(O)c(O)c2)oc2cc(O)cc(O)c12
REMARK SMILES IDX 5 1 3 2 2 3 1 4 22 5 20 6 19 7 17 8 16 9 15 10 14 11 6 12
REMARK SMILES IDX 7 13 8 14 9 15 13 16 11 17 10 18 12 20 4 22 21 24 18 26
REMARK H PARENT 10 19 12 21 4 23 21 25 18 27
REMARK Flexibility Score: inf
ROOT
ATOM      1  C   UNL     1      33.879 -13.951   2.805  1.00  0.00     0.180 A 
ATOM      2  C   UNL     1      34.216 -14.465   1.541  1.00  0.00     0.208 A 
ATOM      3  C   UNL     1      33.189 -14.842   0.662  1.00  0.00     0.238 A 
ATOM      4  O   UNL     1      33.498 -15.352  -0.446  1.00  0.00    -0.285 OA
ATOM      5  C   UNL     1      31.836 -14.684   1.050  1.00  0.00     0.111 A 
ATOM      6  C   UNL     1      30.715 -14.994   0.224  1.00  0.00     0.134 A 
ATOM      7  C   UNL     1      29.423 -14.922   0.758  1.00  0.00     0.093 A 
ATOM      8  C   UNL     1      29.208 -14.489   2.068  1.00  0.00     0.123 A 
ATOM      9  C   UNL     1      30.293 -14.126   2.863  1.00  0.00     0.094 A 
ATOM     10  C   UNL     1      31.597 -14.222   2.370  1.00  0.00     0.146 A 
ATOM     11  O   UNL     1      32.602 -13.877   3.165  1.00  0.00    -0.452 OA
ENDROOT
BRANCH   1  12
ATOM     12  C   UNL     1      34.906 -13.509   3.776  1.00  0.00     0.025 A 
ATOM     13  C   UNL     1      35.110 -14.253   4.949  1.00  0.00     0.016 A 
ATOM     14  C   UNL     1      36.060 -13.843   5.889  1.00  0.00     0.051 A 
ATOM     15  C   UNL     1      36.806 -12.679   5.680  1.00  0.00     0.157 A 
ATOM     16  C   UNL     1      35.642 -12.329   3.577  1.00  0.00     0.062 A 
ATOM     17  C   UNL     1      36.594 -11.915   4.521  1.00  0.00     0.158 A 
BRANCH  15  18
ATOM     18  O   UNL     1      37.748 -12.297   6.635  1.00  0.00    -0.504 OA
ATOM     19  H   UNL     1      37.681 -12.588   7.603  1.00  0.00     0.293 HD
ENDBRANCH  15  18
BRANCH  17  20
ATOM     20  O   UNL     1      37.325 -10.746   4.313  1.00  0.00    -0.504 OA
ATOM     21  H   UNL     1      36.997 -10.020   3.686  1.00  0.00     0.293 HD
ENDBRANCH  17  20
ENDBRANCH   1  12
BRANCH   2  22
ATOM     22  O   UNL     1      35.559 -14.633   1.187  1.00  0.00    -0.502 OA
ATOM     23  H   UNL     1      35.935 -14.296   0.309  1.00  0.00     0.293 HD
ENDBRANCH   2  22
BRANCH   6  24
ATOM     24  O   UNL     1      30.813 -15.349  -1.125  1.00  0.00    -0.507 OA
ATOM     25  H   UNL     1      31.343 -16.132  -1.477  1.00  0.00     0.293 HD
ENDBRANCH   6  24
BRANCH   8  26
ATOM     26  O   UNL     1      27.918 -14.405   2.588  1.00  0.00    -0.508 OA
ATOM     27  H   UNL     1      27.105 -14.368   1.983  1.00  0.00     0.293 HD
ENDBRANCH   8  26
TORSDOF 6
ENDMDL
MODEL 5
REMARK VINA RESULT:    -7.675      7.241     10.370
REMARK INTER + INTRA:          -9.016
REMARK INTER:                  -8.693
REMARK INTRA:                  -0.323
REMARK UNBOUND:                 0.229
REMARK SMILES O=c1c(O)c(-c2ccc(O)c(O)c2)oc2cc(O)cc(O)c12
REMARK SMILES IDX 5 1 3 2 2 3 1 4 22 5 20 6 19 7 17 8 16 9 15 10 14 11 6 12
REMARK SMILES IDX 7 13 8 14 9 15 13 16 11 17 10 18 12 20 4 22 21 24 18 26
REMARK H PARENT 10 19 12 21 4 23 21 25 18 27
REMARK Flexibility Score: inf
ROOT
ATOM      1  C   UNL     1      33.493 -13.983   1.904  1.00  0.00     0.180 A 
ATOM      2  C   UNL     1      34.308 -14.926   2.556  1.00  0.00     0.208 A 
ATOM      3  C   UNL     1      35.528 -14.506   3.109  1.00  0.00     0.238 A 
ATOM      4  O   UNL     1      36.277 -15.365   3.642  1.00  0.00    -0.285 OA
ATOM      5  C   UNL     1      35.911 -13.146   3.019  1.00  0.00     0.111 A 
ATOM      6  C   UNL     1      37.106 -12.602   3.579  1.00  0.00     0.134 A 
ATOM      7  C   UNL     1      37.447 -11.270   3.317  1.00  0.00     0.093 A 
ATOM      8  C   UNL     1      36.604 -10.444   2.569  1.00  0.00     0.123 A 
ATOM      9  C   UNL     1      35.406 -10.950   2.069  1.00  0.00     0.094 A 
ATOM     10  C   UNL     1      35.056 -12.285   2.283  1.00  0.00     0.146 A 
ATOM     11  O   UNL     1      33.911 -12.729   1.779  1.00  0.00    -0.452 OA
ENDROOT
BRANCH   1  12
ATOM     12  C   UNL     1      32.182 -14.345   1.319  1.00  0.00     0.025 A 
ATOM     13  C   UNL     1      32.121 -14.798  -0.008  1.00  0.00     0.016 A 
ATOM     14  C   UNL     1      30.893 -15.126  -0.588  1.00  0.00     0.051 A 
ATOM     15  C   UNL     1      29.707 -14.992   0.142  1.00  0.00     0.157 A 
ATOM     16  C   UNL     1      30.989 -14.192   2.045  1.00  0.00     0.062 A 
ATOM     17  C   UNL     1      29.754 -14.519   1.464  1.00  0.00     0.158 A 
BRANCH  15  18
ATOM     18  O   UNL     1      28.497 -15.329  -0.462  1.00  0.00    -0.504 OA
ATOM     19  H   UNL     1      28.430 -16.056  -1.164  1.00  0.00     0.293 HD
ENDBRANCH  15  18
BRANCH  17  20
ATOM     20  O   UNL     1      28.575 -14.370   2.193  1.00  0.00    -0.504 OA
ATOM     21  H   UNL     1      28.442 -14.828   3.087  1.00  0.00     0.293 HD
ENDBRANCH  17  20
ENDBRANCH   1  12
BRANCH   2  22
ATOM     22  O   UNL     1      33.920 -16.269   2.613  1.00  0.00    -0.502 OA
ATOM     23  H   UNL     1      34.088 -16.916   1.852  1.00  0.00     0.293 HD
ENDBRANCH   2  22
BRANCH   6  24
ATOM     24  O   UNL     1      37.970 -13.314   4.416  1.00  0.00    -0.507 OA
ATOM     25  H   UNL     1      38.975 -13.230   4.410  1.00  0.00     0.293 HD
ENDBRANCH   6  24
BRANCH   8  26
ATOM     26  O   UNL     1      36.943  -9.115   2.326  1.00  0.00    -0.508 OA
ATOM     27  H   UNL     1      37.745  -8.869   1.756  1.00  0.00     0.293 HD
ENDBRANCH   8  26
TORSDOF 6
ENDMDL
MODEL 6
REMARK VINA RESULT:    -7.605      2.744      6.843
REMARK INTER + INTRA:          -8.932
REMARK INTER:                  -8.611
REMARK INTRA:                  -0.321
REMARK UNBOUND:                 0.229
REMARK SMILES O=c1c(O)c(-c2ccc(O)c(O)c2)oc2cc(O)cc(O)c12
REMARK SMILES IDX 5 1 3 2 2 3 1 4 22 5 20 6 19 7 17 8 16 9 15 10 14 11 6 12
REMARK SMILES IDX 7 13 8 14 9 15 13 16 11 17 10 18 12 20 4 22 21 24 18 26
REMARK H PARENT 10 19 12 21 4 23 21 25 18 27
REMARK Flexibility Score: inf
ROOT
ATOM      1  C   UNL     1      41.107 -12.149   8.931  1.00  0.00     0.180 A 
ATOM      2  C   UNL     1      39.703 -12.131   9.009  1.00  0.00     0.208 A 
ATOM      3  C   UNL     1      38.974 -11.461   8.014  1.00  0.00     0.238 A 
ATOM      4  O   UNL     1      37.722 -11.402   8.119  1.00  0.00    -0.285 OA
ATOM      5  C   UNL     1      39.655 -10.833   6.944  1.00  0.00     0.111 A 
ATOM      6  C   UNL     1      39.016 -10.162   5.859  1.00  0.00     0.134 A 
ATOM      7  C   UNL     1      39.791  -9.464   4.925  1.00  0.00     0.093 A 
ATOM      8  C   UNL     1      41.186  -9.468   5.000  1.00  0.00     0.123 A 
ATOM      9  C   UNL     1      41.822 -10.171   6.022  1.00  0.00     0.094 A 
ATOM     10  C   UNL     1      41.074 -10.846   6.989  1.00  0.00     0.146 A 
ATOM     11  O   UNL     1      41.719 -11.494   7.951  1.00  0.00    -0.452 OA
ENDROOT
BRANCH   1  12
ATOM     12  C   UNL     1      41.943 -12.855   9.929  1.00  0.00     0.025 A 
ATOM     13  C   UNL     1      42.202 -14.225   9.766  1.00  0.00     0.016 A 
ATOM     14  C   UNL     1      42.971 -14.916  10.705  1.00  0.00     0.051 A 
ATOM     15  C   UNL     1      43.479 -14.255  11.829  1.00  0.00     0.157 A 
ATOM     16  C   UNL     1      42.436 -12.197  11.068  1.00  0.00     0.062 A 
ATOM     17  C   UNL     1      43.207 -12.889  12.014  1.00  0.00     0.158 A 
BRANCH  15  18
ATOM     18  O   UNL     1      44.244 -14.971  12.748  1.00  0.00    -0.504 OA
ATOM     19  H   UNL     1      44.490 -14.591  13.654  1.00  0.00     0.293 HD
ENDBRANCH  15  18
BRANCH  17  20
ATOM     20  O   UNL     1      43.698 -12.227  13.139  1.00  0.00    -0.504 OA
ATOM     21  H   UNL     1      43.373 -12.453  14.072  1.00  0.00     0.293 HD
ENDBRANCH  17  20
ENDBRANCH   1  12
BRANCH   2  22
ATOM     22  O   UNL     1      39.052 -12.739  10.087  1.00  0.00    -0.502 OA
ATOM     23  H   UNL     1      38.127 -13.142  10.005  1.00  0.00     0.293 HD
ENDBRANCH   2  22
BRANCH   6  24
ATOM     24  O   UNL     1      37.636 -10.172   5.639  1.00  0.00    -0.507 OA
ATOM     25  H   UNL     1      36.990 -10.820   6.066  1.00  0.00     0.293 HD
ENDBRANCH   6  24
BRANCH   8  26
ATOM     26  O   UNL     1      41.952  -8.784   4.058  1.00  0.00    -0.508 OA
ATOM     27  H   UNL     1      42.470  -7.948   4.303  1.00  0.00     0.293 HD
ENDBRANCH   8  26
TORSDOF 6
ENDMDL
MODEL 7
REMARK VINA RESULT:    -7.360      6.856      9.550
REMARK INTER + INTRA:          -8.637
REMARK INTER:                  -8.336
REMARK INTRA:                  -0.301
REMARK UNBOUND:                 0.229
REMARK SMILES O=c1c(O)c(-c2ccc(O)c(O)c2)oc2cc(O)cc(O)c12
REMARK SMILES IDX 5 1 3 2 2 3 1 4 22 5 20 6 19 7 17 8 16 9 15 10 14 11 6 12
REMARK SMILES IDX 7 13 8 14 9 15 13 16 11 17 10 18 12 20 4 22 21 24 18 26
REMARK H PARENT 10 19 12 21 4 23 21 25 18 27
REMARK Flexibility Score: inf
ROOT
ATOM      1  C   UNL     1      34.864 -13.286   1.851  1.00  0.00     0.180 A 
ATOM      2  C   UNL     1      35.676 -13.804   0.827  1.00  0.00     0.208 A 
ATOM      3  C   UNL     1      37.041 -13.476   0.808  1.00  0.00     0.238 A 
ATOM      4  O   UNL     1      37.751 -13.898  -0.141  1.00  0.00    -0.285 OA
ATOM      5  C   UNL     1      37.581 -12.648   1.822  1.00  0.00     0.111 A 
ATOM      6  C   UNL     1      38.957 -12.284   1.924  1.00  0.00     0.134 A 
ATOM      7  C   UNL     1      39.355 -11.355   2.892  1.00  0.00     0.093 A 
ATOM      8  C   UNL     1      38.439 -10.825   3.803  1.00  0.00     0.123 A 
ATOM      9  C   UNL     1      37.103 -11.220   3.749  1.00  0.00     0.094 A 
ATOM     10  C   UNL     1      36.669 -12.118   2.772  1.00  0.00     0.146 A 
ATOM     11  O   UNL     1      35.387 -12.459   2.749  1.00  0.00    -0.452 OA
ENDROOT
BRANCH   1  12
ATOM     12  C   UNL     1      33.422 -13.608   1.951  1.00  0.00     0.025 A 
ATOM     13  C   UNL     1      33.026 -14.832   2.513  1.00  0.00     0.016 A 
ATOM     14  C   UNL     1      31.672 -15.165   2.600  1.00  0.00     0.051 A 
ATOM     15  C   UNL     1      30.695 -14.290   2.114  1.00  0.00     0.157 A 
ATOM     16  C   UNL     1      32.441 -12.739   1.445  1.00  0.00     0.062 A 
ATOM     17  C   UNL     1      31.081 -13.073   1.529  1.00  0.00     0.158 A 
BRANCH  15  18
ATOM     18  O   UNL     1      29.352 -14.649   2.216  1.00  0.00    -0.504 OA
ATOM     19  H   UNL     1      29.063 -15.590   2.457  1.00  0.00     0.293 HD
ENDBRANCH  15  18
BRANCH  17  20
ATOM     20  O   UNL     1      30.113 -12.202   1.029  1.00  0.00    -0.504 OA
ATOM     21  H   UNL     1      29.866 -12.191   0.046  1.00  0.00     0.293 HD
ENDBRANCH  17  20
ENDBRANCH   1  12
BRANCH   2  22
ATOM     22  O   UNL     1      35.118 -14.602  -0.177  1.00  0.00    -0.502 OA
ATOM     23  H   UNL     1      35.408 -15.560  -0.333  1.00  0.00     0.293 HD
ENDBRANCH   2  22
BRANCH   6  24
ATOM     24  O   UNL     1      39.968 -12.824   1.124  1.00  0.00    -0.507 OA
ATOM     25  H   UNL     1      39.838 -13.162   0.182  1.00  0.00     0.293 HD
ENDBRANCH   6  24
BRANCH   8  26
ATOM     26  O   UNL     1      38.846  -9.912   4.774  1.00  0.00    -0.508 OA
ATOM     27  H   UNL     1      39.354 -10.209   5.599  1.00  0.00     0.293 HD
ENDBRANCH   8  26
TORSDOF 6
ENDMDL
MODEL 8
REMARK VINA RESULT:    -7.349      6.765      9.996
REMARK INTER + INTRA:          -8.623
REMARK INTER:                  -8.300
REMARK INTRA:                  -0.323
REMARK UNBOUND:                 0.229
REMARK SMILES O=c1c(O)c(-c2ccc(O)c(O)c2)oc2cc(O)cc(O)c12
REMARK SMILES IDX 5 1 3 2 2 3 1 4 22 5 20 6 19 7 17 8 16 9 15 10 14 11 6 12
REMARK SMILES IDX 7 13 8 14 9 15 13 16 11 17 10 18 12 20 4 22 21 24 18 26
REMARK H PARENT 10 19 12 21 4 23 21 25 18 27
REMARK Flexibility Score: inf
ROOT
ATOM      1  C   UNL     1      33.402 -13.427   2.062  1.00  0.00     0.180 A 
ATOM      2  C   UNL     1      33.392 -13.877   3.394  1.00  0.00     0.208 A 
ATOM      3  C   UNL     1      34.570 -13.792   4.151  1.00  0.00     0.238 A 
ATOM      4  O   UNL     1      34.569 -14.245   5.325  1.00  0.00    -0.285 OA
ATOM      5  C   UNL     1      35.741 -13.243   3.574  1.00  0.00     0.111 A 
ATOM      6  C   UNL     1      36.980 -13.071   4.261  1.00  0.00     0.134 A 
ATOM      7  C   UNL     1      38.108 -12.639   3.553  1.00  0.00     0.093 A 
ATOM      8  C   UNL     1      38.026 -12.311   2.198  1.00  0.00     0.123 A 
ATOM      9  C   UNL     1      36.807 -12.418   1.533  1.00  0.00     0.094 A 
ATOM     10  C   UNL     1      35.672 -12.881   2.203  1.00  0.00     0.146 A 
ATOM     11  O   UNL     1      34.533 -12.979   1.529  1.00  0.00    -0.452 OA
ENDROOT
BRANCH   1  12
ATOM     12  C   UNL     1      32.192 -13.461   1.209  1.00  0.00     0.025 A 
ATOM     13  C   UNL     1      31.311 -12.369   1.219  1.00  0.00     0.016 A 
ATOM     14  C   UNL     1      30.153 -12.387   0.438  1.00  0.00     0.051 A 
ATOM     15  C   UNL     1      29.849 -13.501  -0.351  1.00  0.00     0.157 A 
ATOM     16  C   UNL     1      31.875 -14.588   0.432  1.00  0.00     0.062 A 
ATOM     17  C   UNL     1      30.712 -14.610  -0.352  1.00  0.00     0.158 A 
BRANCH  15  18
ATOM     18  O   UNL     1      28.687 -13.491  -1.122  1.00  0.00    -0.504 OA
ATOM     19  H   UNL     1      27.798 -13.179  -0.750  1.00  0.00     0.293 HD
ENDBRANCH  15  18
BRANCH  17  20
ATOM     20  O   UNL     1      30.408 -15.730  -1.125  1.00  0.00    -0.504 OA
ATOM     21  H   UNL     1      30.290 -16.646  -0.709  1.00  0.00     0.293 HD
ENDBRANCH  17  20
ENDBRANCH   1  12
BRANCH   2  22
ATOM     22  O   UNL     1      32.230 -14.435   3.938  1.00  0.00    -0.502 OA
ATOM     23  H   UNL     1      31.934 -15.381   3.731  1.00  0.00     0.293 HD
ENDBRANCH   2  22
BRANCH   6  24
ATOM     24  O   UNL     1      37.147 -13.282   5.633  1.00  0.00    -0.507 OA
ATOM     25  H   UNL     1      37.823 -13.912   6.039  1.00  0.00     0.293 HD
ENDBRANCH   6  24
BRANCH   8  26
ATOM     26  O   UNL     1      39.150 -11.867   1.504  1.00  0.00    -0.508 OA
ATOM     27  H   UNL     1      40.054 -12.312   1.620  1.00  0.00     0.293 HD
ENDBRANCH   8  26
TORSDOF 6
ENDMDL
MODEL 9
REMARK VINA RESULT:    -7.139      3.891      9.465
REMARK INTER + INTRA:          -8.371
REMARK INTER:                  -8.042
REMARK INTRA:                  -0.329
REMARK UNBOUND:                 0.229
REMARK SMILES O=c1c(O)c(-c2ccc(O)c(O)c2)oc2cc(O)cc(O)c12
REMARK SMILES IDX 5 1 3 2 2 3 1 4 22 5 20 6 19 7 17 8 16 9 15 10 14 11 6 12
REMARK SMILES IDX 7 13 8 14 9 15 13 16 11 17 10 18 12 20 4 22 21 24 18 26
REMARK H PARENT 10 19 12 21 4 23 21 25 18 27
REMARK Flexibility Score: inf
ROOT
ATOM      1  C   UNL     1      36.481 -13.065   4.648  1.00  0.00     0.180 A 
ATOM      2  C   UNL     1      37.212 -13.065   3.446  1.00  0.00     0.208 A 
ATOM      3  C   UNL     1      36.589 -13.508   2.270  1.00  0.00     0.238 A 
ATOM      4  O   UNL     1      37.264 -13.556   1.209  1.00  0.00    -0.285 OA
ATOM      5  C   UNL     1      35.238 -13.931   2.304  1.00  0.00     0.111 A 
ATOM      6  C   UNL     1      34.494 -14.362   1.164  1.00  0.00     0.134 A 
ATOM      7  C   UNL     1      33.206 -14.881   1.337  1.00  0.00     0.093 A 
ATOM      8  C   UNL     1      32.610 -14.926   2.599  1.00  0.00     0.123 A 
ATOM      9  C   UNL     1      33.306 -14.452   3.710  1.00  0.00     0.094 A 
ATOM     10  C   UNL     1      34.606 -13.961   3.575  1.00  0.00     0.146 A 
ATOM     11  O   UNL     1      35.237 -13.530   4.660  1.00  0.00    -0.452 OA
ENDROOT
BRANCH   1  12
ATOM     12  C   UNL     1      37.062 -12.589   5.924  1.00  0.00     0.025 A 
ATOM     13  C   UNL     1      37.584 -13.520   6.835  1.00  0.00     0.016 A 
ATOM     14  C   UNL     1      38.118 -13.095   8.053  1.00  0.00     0.051 A 
ATOM     15  C   UNL     1      38.126 -11.737   8.388  1.00  0.00     0.157 A 
ATOM     16  C   UNL     1      37.051 -11.227   6.269  1.00  0.00     0.062 A 
ATOM     17  C   UNL     1      37.586 -10.797   7.493  1.00  0.00     0.158 A 
BRANCH  15  18
ATOM     18  O   UNL     1      38.668 -11.342   9.610  1.00  0.00    -0.504 OA
ATOM     19  H   UNL     1      38.748 -11.979  10.393  1.00  0.00     0.293 HD
ENDBRANCH  15  18
BRANCH  17  20
ATOM     20  O   UNL     1      37.577  -9.443   7.826  1.00  0.00    -0.504 OA
ATOM     21  H   UNL     1      37.709  -9.130   8.781  1.00  0.00     0.293 HD
ENDBRANCH  17  20
ENDBRANCH   1  12
BRANCH   2  22
ATOM     22  O   UNL     1      38.551 -12.663   3.440  1.00  0.00    -0.502 OA
ATOM     23  H   UNL     1      39.290 -13.241   3.057  1.00  0.00     0.293 HD
ENDBRANCH   2  22
BRANCH   6  24
ATOM     24  O   UNL     1      34.961 -14.275  -0.150  1.00  0.00    -0.507 OA
ATOM     25  H   UNL     1      34.811 -14.975  -0.861  1.00  0.00     0.293 HD
ENDBRANCH   6  24
BRANCH   8  26
ATOM     26  O   UNL     1      31.321 -15.431   2.761  1.00  0.00    -0.508 OA
ATOM     27  H   UNL     1      31.118 -16.415   2.628  1.00  0.00     0.293 HD
ENDBRANCH   8  26
TORSDOF 6
ENDMDL
