MODEL 1
REMARK VINA RESULT:    -6.170      0.000      0.000
REMARK INTER + INTRA:         -10.012
REMARK INTER:                  -9.056
REMARK INTRA:                  -0.956
REMARK UNBOUND:                -0.956
REMARK SMILES O=c1c(O[C@H]2O[C@H](CO)[C@@H](O)[C@H](O)[C@H]2O)c(-c2ccc(O)c(O)c2)oc2cc(O)cc(O)c12
REMARK SMILES IDX 4 1 3 2 16 3 25 4 2 5 26 6 1 7 33 8 27 9 31 10 28 11 30 12
REMARK SMILES IDX 17 13 18 14 19 15 20 16 24 17 22 18 21 19 23 21 32 23 29 25
REMARK SMILES IDX 5 27 14 28 6 29 12 30 7 31 10 32 15 33 13 35 8 37 9 38 11 40
REMARK H PARENT 21 20 23 22 32 24 29 26 15 34 13 36 9 39 11 41
REMARK Flexibility Score: inf
ROOT
ATOM      1  O   UNL     1      -6.105   6.093  14.190  1.00  0.00    -0.454 OA
ENDROOT
BRANCH   1   2
ATOM      2  C   UNL     1      -5.059   5.331  14.734  1.00  0.00     0.214 A 
ATOM      3  C   UNL     1      -3.719   5.693  14.484  1.00  0.00     0.180 A 
ATOM      4  O   UNL     1      -2.730   5.027  15.075  1.00  0.00    -0.452 OA
ATOM      5  C   UNL     1      -5.313   4.198  15.526  1.00  0.00     0.239 A 
ATOM      6  C   UNL     1      -2.930   3.989  15.880  1.00  0.00     0.146 A 
ATOM      7  O   UNL     1      -6.498   3.792  15.668  1.00  0.00    -0.285 OA
ATOM      8  C   UNL     1      -4.239   3.515  16.134  1.00  0.00     0.111 A 
ATOM      9  C   UNL     1      -1.828   3.369  16.475  1.00  0.00     0.094 A 
ATOM     10  C   UNL     1      -4.413   2.396  16.983  1.00  0.00     0.134 A 
ATOM     11  C   UNL     1      -2.010   2.276  17.328  1.00  0.00     0.123 A 
ATOM     12  C   UNL     1      -3.295   1.791  17.574  1.00  0.00     0.093 A 
BRANCH   3  13
ATOM     13  C   UNL     1      -3.369   6.829  13.606  1.00  0.00     0.025 A 
ATOM     14  C   UNL     1      -3.984   6.945  12.350  1.00  0.00     0.016 A 
ATOM     15  C   UNL     1      -3.640   7.990  11.489  1.00  0.00     0.051 A 
ATOM     16  C   UNL     1      -2.681   8.934  11.871  1.00  0.00     0.157 A 
ATOM     17  C   UNL     1      -2.442   7.808  14.010  1.00  0.00     0.062 A 
ATOM     18  C   UNL     1      -2.080   8.846  13.139  1.00  0.00     0.158 A 
BRANCH  16  19
ATOM     19  O   UNL     1      -2.340   9.949  10.977  1.00  0.00    -0.504 OA
ATOM     20  H   UNL     1      -2.116   9.763  10.007  1.00  0.00     0.293 HD
ENDBRANCH  16  19
BRANCH  18  21
ATOM     21  O   UNL     1      -1.118   9.781  13.524  1.00  0.00    -0.504 OA
ATOM     22  H   UNL     1      -1.354  10.758  13.666  1.00  0.00     0.293 HD
ENDBRANCH  18  21
ENDBRANCH   3  13
BRANCH  10  23
ATOM     23  O   UNL     1      -5.685   1.888  17.251  1.00  0.00    -0.507 OA
ATOM     24  H   UNL     1      -6.367   2.414  17.786  1.00  0.00     0.293 HD
ENDBRANCH  10  23
BRANCH  11  25
ATOM     25  O   UNL     1      -0.916   1.662  17.937  1.00  0.00    -0.508 OA
ATOM     26  H   UNL     1       0.033   1.978  17.766  1.00  0.00     0.293 HD
ENDBRANCH  11  25
ENDBRANCH   1   2
BRANCH   1  27
ATOM     27  C   UNL     1      -7.025   6.862  14.977  1.00  0.00     0.339 C 
ATOM     28  C   UNL     1      -8.298   7.169  14.172  1.00  0.00     0.214 C 
ATOM     29  O   UNL     1      -6.421   8.054  15.456  1.00  0.00    -0.332 OA
ATOM     30  C   UNL     1      -7.963   8.113  13.007  1.00  0.00     0.180 C 
ATOM     31  C   UNL     1      -5.992   8.906  14.402  1.00  0.00     0.179 C 
ATOM     32  C   UNL     1      -7.187   9.348  13.513  1.00  0.00     0.177 C 
BRANCH  28  33
ATOM     33  O   UNL     1      -8.852   5.983  13.665  1.00  0.00    -0.384 OA
ATOM     34  H   UNL     1      -9.621   6.251  13.096  1.00  0.00     0.211 HD
ENDBRANCH  28  33
BRANCH  30  35
ATOM     35  O   UNL     1      -9.125   8.507  12.320  1.00  0.00    -0.387 OA
ATOM     36  H   UNL     1      -9.399   7.755  11.732  1.00  0.00     0.211 HD
ENDBRANCH  30  35
BRANCH  31  37
ATOM     37  C   UNL     1      -5.288  10.115  15.039  1.00  0.00     0.191 C 
BRANCH  37  38
ATOM     38  O   UNL     1      -5.364  10.065  16.438  1.00  0.00    -0.394 OA
ATOM     39  H   UNL     1      -5.553  10.988  16.754  1.00  0.00     0.210 HD
ENDBRANCH  37  38
ENDBRANCH  31  37
BRANCH  32  40
ATOM     40  O   UNL     1      -6.754  10.125  12.420  1.00  0.00    -0.387 OA
ATOM     41  H   UNL     1      -7.557  10.375  11.894  1.00  0.00     0.211 HD
ENDBRANCH  32  40
ENDBRANCH   1  27
TORSDOF 12
ENDMDL
MODEL 2
REMARK VINA RESULT:    -6.030      1.438      1.835
REMARK INTER + INTRA:          -9.806
REMARK INTER:                  -9.908
REMARK INTRA:                   0.102
REMARK UNBOUND:                -0.956
REMARK SMILES O=c1c(O[C@H]2O[C@H](CO)[C@@H](O)[C@H](O)[C@H]2O)c(-c2ccc(O)c(O)c2)oc2cc(O)cc(O)c12
REMARK SMILES IDX 4 1 3 2 16 3 25 4 2 5 26 6 1 7 33 8 27 9 31 10 28 11 30 12
REMARK SMILES IDX 17 13 18 14 19 15 20 16 24 17 22 18 21 19 23 21 32 23 29 25
REMARK SMILES IDX 5 27 14 28 6 29 12 30 7 31 10 32 15 33 13 35 8 37 9 38 11 40
REMARK H PARENT 21 20 23 22 32 24 29 26 15 34 13 36 9 39 11 41
REMARK Flexibility Score: inf
ROOT
ATOM      1  O   UNL     1      -6.162   6.084  14.183  1.00  0.00    -0.454 OA
ENDROOT
BRANCH   1   2
ATOM      2  C   UNL     1      -5.099   5.333  14.709  1.00  0.00     0.214 A 
ATOM      3  C   UNL     1      -3.769   5.683  14.404  1.00  0.00     0.180 A 
ATOM      4  O   UNL     1      -2.762   5.028  14.977  1.00  0.00    -0.452 OA
ATOM      5  C   UNL     1      -5.330   4.220  15.538  1.00  0.00     0.239 A 
ATOM      6  C   UNL     1      -2.937   4.011  15.814  1.00  0.00     0.146 A 
ATOM      7  O   UNL     1      -6.510   3.822  15.730  1.00  0.00    -0.285 OA
ATOM      8  C   UNL     1      -4.237   3.548  16.124  1.00  0.00     0.111 A 
ATOM      9  C   UNL     1      -1.817   3.401  16.386  1.00  0.00     0.094 A 
ATOM     10  C   UNL     1      -4.385   2.451  17.006  1.00  0.00     0.134 A 
ATOM     11  C   UNL     1      -1.972   2.331  17.272  1.00  0.00     0.123 A 
ATOM     12  C   UNL     1      -3.250   1.857  17.573  1.00  0.00     0.093 A 
BRANCH   3  13
ATOM     13  C   UNL     1      -3.446   6.796  13.486  1.00  0.00     0.025 A 
ATOM     14  C   UNL     1      -4.287   7.054  12.393  1.00  0.00     0.016 A 
ATOM     15  C   UNL     1      -3.979   8.077  11.493  1.00  0.00     0.051 A 
ATOM     16  C   UNL     1      -2.832   8.857  11.672  1.00  0.00     0.157 A 
ATOM     17  C   UNL     1      -2.319   7.613  13.695  1.00  0.00     0.062 A 
ATOM     18  C   UNL     1      -1.997   8.626  12.780  1.00  0.00     0.158 A 
BRANCH  16  19
ATOM     19  O   UNL     1      -2.538   9.851  10.740  1.00  0.00    -0.504 OA
ATOM     20  H   UNL     1      -1.993  10.672  10.977  1.00  0.00     0.293 HD
ENDBRANCH  16  19
BRANCH  18  21
ATOM     21  O   UNL     1      -0.847   9.397  12.963  1.00  0.00    -0.504 OA
ATOM     22  H   UNL     1      -0.002   9.002  13.363  1.00  0.00     0.293 HD
ENDBRANCH  18  21
ENDBRANCH   3  13
BRANCH  10  23
ATOM     23  O   UNL     1      -5.649   1.955  17.330  1.00  0.00    -0.507 OA
ATOM     24  H   UNL     1      -6.137   2.247  18.170  1.00  0.00     0.293 HD
ENDBRANCH  10  23
BRANCH  11  25
ATOM     25  O   UNL     1      -0.860   1.728  17.857  1.00  0.00    -0.508 OA
ATOM     26  H   UNL     1      -0.038   1.486  17.313  1.00  0.00     0.293 HD
ENDBRANCH  11  25
ENDBRANCH   1   2
BRANCH   1  27
ATOM     27  C   UNL     1      -7.543   5.734  14.342  1.00  0.00     0.339 C 
ATOM     28  C   UNL     1      -8.045   4.945  13.121  1.00  0.00     0.214 C 
ATOM     29  O   UNL     1      -8.343   6.884  14.574  1.00  0.00    -0.332 OA
ATOM     30  C   UNL     1      -8.057   5.856  11.883  1.00  0.00     0.180 C 
ATOM     31  C   UNL     1      -8.291   7.807  13.494  1.00  0.00     0.179 C 
ATOM     32  C   UNL     1      -8.815   7.167  12.179  1.00  0.00     0.177 C 
BRANCH  28  33
ATOM     33  O   UNL     1      -7.211   3.842  12.878  1.00  0.00    -0.384 OA
ATOM     34  H   UNL     1      -7.530   3.112  13.472  1.00  0.00     0.211 HD
ENDBRANCH  28  33
BRANCH  30  35
ATOM     35  O   UNL     1      -8.620   5.199  10.774  1.00  0.00    -0.387 OA
ATOM     36  H   UNL     1      -8.205   4.300  10.712  1.00  0.00     0.211 HD
ENDBRANCH  30  35
BRANCH  31  37
ATOM     37  C   UNL     1      -9.124   9.035  13.893  1.00  0.00     0.191 C 
BRANCH  37  38
ATOM     38  O   UNL     1      -8.919  10.097  13.000  1.00  0.00    -0.394 OA
ATOM     39  H   UNL     1      -7.939  10.173  12.856  1.00  0.00     0.210 HD
ENDBRANCH  37  38
ENDBRANCH  31  37
BRANCH  32  40
ATOM     40  O   UNL     1      -8.688   8.053  11.091  1.00  0.00    -0.387 OA
ATOM     41  H   UNL     1      -8.110   7.615  10.415  1.00  0.00     0.211 HD
ENDBRANCH  32  40
ENDBRANCH   1  27
TORSDOF 12
ENDMDL
MODEL 3
REMARK VINA RESULT:    -5.958      1.725      4.678
REMARK INTER + INTRA:          -9.701
REMARK INTER:                  -8.249
REMARK INTRA:                  -1.452
REMARK UNBOUND:                -0.956
REMARK SMILES O=c1c(O[C@H]2O[C@H](CO)[C@@H](O)[C@H](O)[C@H]2O)c(-c2ccc(O)c(O)c2)oc2cc(O)cc(O)c12
REMARK SMILES IDX 4 1 3 2 16 3 25 4 2 5 26 6 1 7 33 8 27 9 31 10 28 11 30 12
REMARK SMILES IDX 17 13 18 14 19 15 20 16 24 17 22 18 21 19 23 21 32 23 29 25
REMARK SMILES IDX 5 27 14 28 6 29 12 30 7 31 10 32 15 33 13 35 8 37 9 38 11 40
REMARK H PARENT 21 20 23 22 32 24 29 26 15 34 13 36 9 39 11 41
REMARK Flexibility Score: inf
ROOT
ATOM      1  O   UNL     1      -3.606   7.305  12.975  1.00  0.00    -0.454 OA
ENDROOT
BRANCH   1   2
ATOM      2  C   UNL     1      -4.083   6.332  13.868  1.00  0.00     0.214 A 
ATOM      3  C   UNL     1      -5.457   6.019  13.903  1.00  0.00     0.180 A 
ATOM      4  O   UNL     1      -5.894   5.034  14.683  1.00  0.00    -0.452 OA
ATOM      5  C   UNL     1      -3.217   5.657  14.746  1.00  0.00     0.239 A 
ATOM      6  C   UNL     1      -5.100   4.329  15.481  1.00  0.00     0.146 A 
ATOM      7  O   UNL     1      -2.006   6.000  14.811  1.00  0.00    -0.285 OA
ATOM      8  C   UNL     1      -3.717   4.619  15.560  1.00  0.00     0.111 A 
ATOM      9  C   UNL     1      -5.648   3.295  16.244  1.00  0.00     0.094 A 
ATOM     10  C   UNL     1      -2.904   3.860  16.435  1.00  0.00     0.134 A 
ATOM     11  C   UNL     1      -4.834   2.537  17.091  1.00  0.00     0.123 A 
ATOM     12  C   UNL     1      -3.471   2.824  17.189  1.00  0.00     0.093 A 
BRANCH   3  13
ATOM     13  C   UNL     1      -6.441   6.734  13.062  1.00  0.00     0.025 A 
ATOM     14  C   UNL     1      -6.725   6.254  11.774  1.00  0.00     0.016 A 
ATOM     15  C   UNL     1      -7.622   6.935  10.949  1.00  0.00     0.051 A 
ATOM     16  C   UNL     1      -8.251   8.101  11.399  1.00  0.00     0.157 A 
ATOM     17  C   UNL     1      -7.112   7.878  13.533  1.00  0.00     0.062 A 
ATOM     18  C   UNL     1      -7.998   8.575  12.698  1.00  0.00     0.158 A 
BRANCH  16  19
ATOM     19  O   UNL     1      -9.121   8.774  10.540  1.00  0.00    -0.504 OA
ATOM     20  H   UNL     1     -10.035   8.407  10.300  1.00  0.00     0.293 HD
ENDBRANCH  16  19
BRANCH  18  21
ATOM     21  O   UNL     1      -8.617   9.742  13.151  1.00  0.00    -0.504 OA
ATOM     22  H   UNL     1      -9.540   9.723  13.573  1.00  0.00     0.293 HD
ENDBRANCH  18  21
ENDBRANCH   3  13
BRANCH  10  23
ATOM     23  O   UNL     1      -1.538   4.120  16.553  1.00  0.00    -0.507 OA
ATOM     24  H   UNL     1      -0.840   3.415  16.338  1.00  0.00     0.293 HD
ENDBRANCH  10  23
BRANCH  11  25
ATOM     25  O   UNL     1      -5.372   1.494  17.845  1.00  0.00    -0.508 OA
ATOM     26  H   UNL     1      -4.870   0.622  17.979  1.00  0.00     0.293 HD
ENDBRANCH  11  25
ENDBRANCH   1   2
BRANCH   1  27
ATOM     27  C   UNL     1      -3.690   8.716  13.214  1.00  0.00     0.339 C 
ATOM     28  C   UNL     1      -3.751   9.487  11.885  1.00  0.00     0.214 C 
ATOM     29  O   UNL     1      -2.610   9.167  14.018  1.00  0.00    -0.332 OA
ATOM     30  C   UNL     1      -2.419   9.338  11.134  1.00  0.00     0.180 C 
ATOM     31  C   UNL     1      -1.347   8.943  13.405  1.00  0.00     0.179 C 
ATOM     32  C   UNL     1      -1.234   9.702  12.054  1.00  0.00     0.177 C 
BRANCH  28  33
ATOM     33  O   UNL     1      -4.793   8.992  11.083  1.00  0.00    -0.384 OA
ATOM     34  H   UNL     1      -4.367   8.612  10.270  1.00  0.00     0.211 HD
ENDBRANCH  28  33
BRANCH  30  35
ATOM     35  O   UNL     1      -2.400  10.125   9.969  1.00  0.00    -0.387 OA
ATOM     36  H   UNL     1      -2.825   9.600   9.242  1.00  0.00     0.211 HD
ENDBRANCH  30  35
BRANCH  31  37
ATOM     37  C   UNL     1      -0.263   9.394  14.396  1.00  0.00     0.191 C 
BRANCH  37  38
ATOM     38  O   UNL     1       0.199   8.317  15.166  1.00  0.00    -0.394 OA
ATOM     39  H   UNL     1       1.009   7.961  14.713  1.00  0.00     0.210 HD
ENDBRANCH  37  38
ENDBRANCH  31  37
BRANCH  32  40
ATOM     40  O   UNL     1      -0.016   9.416  11.406  1.00  0.00    -0.387 OA
ATOM     41  H   UNL     1       0.297   8.533  11.733  1.00  0.00     0.211 HD
ENDBRANCH  32  40
ENDBRANCH   1  27
TORSDOF 12
ENDMDL
MODEL 4
REMARK VINA RESULT:    -5.754      1.999      5.766
REMARK INTER + INTRA:          -9.401
REMARK INTER:                  -9.515
REMARK INTRA:                   0.114
REMARK UNBOUND:                -0.956
REMARK SMILES O=c1c(O[C@H]2O[C@H](CO)[C@@H](O)[C@H](O)[C@H]2O)c(-c2ccc(O)c(O)c2)oc2cc(O)cc(O)c12
REMARK SMILES IDX 4 1 3 2 16 3 25 4 2 5 26 6 1 7 33 8 27 9 31 10 28 11 30 12
REMARK SMILES IDX 17 13 18 14 19 15 20 16 24 17 22 18 21 19 23 21 32 23 29 25
REMARK SMILES IDX 5 27 14 28 6 29 12 30 7 31 10 32 15 33 13 35 8 37 9 38 11 40
REMARK H PARENT 21 20 23 22 32 24 29 26 15 34 13 36 9 39 11 41
REMARK Flexibility Score: inf
ROOT
ATOM      1  O   UNL     1      -5.730   5.164  12.692  1.00  0.00    -0.454 OA
ENDROOT
BRANCH   1   2
ATOM      2  C   UNL     1      -4.680   6.070  12.907  1.00  0.00     0.214 A 
ATOM      3  C   UNL     1      -4.017   6.100  14.151  1.00  0.00     0.180 A 
ATOM      4  O   UNL     1      -2.963   6.895  14.323  1.00  0.00    -0.452 OA
ATOM      5  C   UNL     1      -4.271   6.967  11.905  1.00  0.00     0.239 A 
ATOM      6  C   UNL     1      -2.506   7.712  13.381  1.00  0.00     0.146 A 
ATOM      7  O   UNL     1      -4.922   7.036  10.828  1.00  0.00    -0.285 OA
ATOM      8  C   UNL     1      -3.151   7.797  12.124  1.00  0.00     0.111 A 
ATOM      9  C   UNL     1      -1.376   8.490  13.646  1.00  0.00     0.094 A 
ATOM     10  C   UNL     1      -2.646   8.691  11.150  1.00  0.00     0.134 A 
ATOM     11  C   UNL     1      -0.872   9.357  12.673  1.00  0.00     0.123 A 
ATOM     12  C   UNL     1      -1.509   9.460  11.435  1.00  0.00     0.093 A 
BRANCH   3  13
ATOM     13  C   UNL     1      -4.434   5.238  15.277  1.00  0.00     0.025 A 
ATOM     14  C   UNL     1      -4.235   3.852  15.195  1.00  0.00     0.016 A 
ATOM     15  C   UNL     1      -4.655   3.016  16.232  1.00  0.00     0.051 A 
ATOM     16  C   UNL     1      -5.276   3.552  17.365  1.00  0.00     0.157 A 
ATOM     17  C   UNL     1      -5.012   5.782  16.439  1.00  0.00     0.062 A 
ATOM     18  C   UNL     1      -5.455   4.942  17.472  1.00  0.00     0.158 A 
BRANCH  16  19
ATOM     19  O   UNL     1      -5.710   2.687  18.370  1.00  0.00    -0.504 OA
ATOM     20  H   UNL     1      -5.709   2.951  19.349  1.00  0.00     0.293 HD
ENDBRANCH  16  19
BRANCH  18  21
ATOM     21  O   UNL     1      -6.079   5.484  18.598  1.00  0.00    -0.504 OA
ATOM     22  H   UNL     1      -6.099   4.988  19.483  1.00  0.00     0.293 HD
ENDBRANCH  18  21
ENDBRANCH   3  13
BRANCH  10  23
ATOM     23  O   UNL     1      -3.259   8.815   9.903  1.00  0.00    -0.507 OA
ATOM     24  H   UNL     1      -4.267   8.860   9.806  1.00  0.00     0.293 HD
ENDBRANCH  10  23
BRANCH  11  25
ATOM     25  O   UNL     1       0.264  10.125  12.926  1.00  0.00    -0.508 OA
ATOM     26  H   UNL     1       0.237  11.139  12.895  1.00  0.00     0.293 HD
ENDBRANCH  11  25
ENDBRANCH   1   2
BRANCH   1  27
ATOM     27  C   UNL     1      -7.041   5.314  13.252  1.00  0.00     0.339 C 
ATOM     28  C   UNL     1      -8.118   5.026  12.192  1.00  0.00     0.214 C 
ATOM     29  O   UNL     1      -7.214   6.604  13.820  1.00  0.00    -0.332 OA
ATOM     30  C   UNL     1      -8.077   6.108  11.102  1.00  0.00     0.180 C 
ATOM     31  C   UNL     1      -7.071   7.643  12.860  1.00  0.00     0.179 C 
ATOM     32  C   UNL     1      -8.131   7.516  11.731  1.00  0.00     0.177 C 
BRANCH  28  33
ATOM     33  O   UNL     1      -7.900   3.768  11.607  1.00  0.00    -0.384 OA
ATOM     34  H   UNL     1      -6.952   3.533  11.790  1.00  0.00     0.211 HD
ENDBRANCH  28  33
BRANCH  30  35
ATOM     35  O   UNL     1      -9.125   5.939  10.178  1.00  0.00    -0.387 OA
ATOM     36  H   UNL     1      -9.107   6.712   9.556  1.00  0.00     0.211 HD
ENDBRANCH  30  35
BRANCH  31  37
ATOM     37  C   UNL     1      -7.198   8.982  13.603  1.00  0.00     0.191 C 
BRANCH  37  38
ATOM     38  O   UNL     1      -8.507   9.479  13.530  1.00  0.00    -0.394 OA
ATOM     39  H   UNL     1      -8.562  10.250  14.155  1.00  0.00     0.210 HD
ENDBRANCH  37  38
ENDBRANCH  31  37
BRANCH  32  40
ATOM     40  O   UNL     1      -7.940   8.496  10.736  1.00  0.00    -0.387 OA
ATOM     41  H   UNL     1      -7.932   9.380  11.185  1.00  0.00     0.211 HD
ENDBRANCH  32  40
ENDBRANCH   1  27
TORSDOF 12
ENDMDL
MODEL 5
REMARK VINA RESULT:    -5.517     10.522     16.406
REMARK INTER + INTRA:          -9.053
REMARK INTER:                  -8.397
REMARK INTRA:                  -0.656
REMARK UNBOUND:                -0.956
REMARK SMILES O=c1c(O[C@H]2O[C@H](CO)[C@@H](O)[C@H](O)[C@H]2O)c(-c2ccc(O)c(O)c2)oc2cc(O)cc(O)c12
REMARK SMILES IDX 4 1 3 2 16 3 25 4 2 5 26 6 1 7 33 8 27 9 31 10 28 11 30 12
REMARK SMILES IDX 17 13 18 14 19 15 20 16 24 17 22 18 21 19 23 21 32 23 29 25
REMARK SMILES IDX 5 27 14 28 6 29 12 30 7 31 10 32 15 33 13 35 8 37 9 38 11 40
REMARK H PARENT 21 20 23 22 32 24 29 26 15 34 13 36 9 39 11 41
REMARK Flexibility Score: inf
ROOT
ATOM      1  O   UNL     1      -6.853  -7.442  20.968  1.00  0.00    -0.454 OA
ENDROOT
BRANCH   1   2
ATOM      2  C   UNL     1      -7.390  -6.145  20.968  1.00  0.00     0.214 A 
ATOM      3  C   UNL     1      -8.075  -5.666  22.103  1.00  0.00     0.180 A 
ATOM      4  O   UNL     1      -8.503  -4.407  22.137  1.00  0.00    -0.452 OA
ATOM      5  C   UNL     1      -7.267  -5.302  19.850  1.00  0.00     0.239 A 
ATOM      6  C   UNL     1      -8.352  -3.558  21.127  1.00  0.00     0.146 A 
ATOM      7  O   UNL     1      -6.759  -5.749  18.787  1.00  0.00    -0.285 OA
ATOM      8  C   UNL     1      -7.736  -3.973  19.923  1.00  0.00     0.111 A 
ATOM      9  C   UNL     1      -8.812  -2.246  21.266  1.00  0.00     0.094 A 
ATOM     10  C   UNL     1      -7.608  -3.048  18.860  1.00  0.00     0.134 A 
ATOM     11  C   UNL     1      -8.665  -1.332  20.219  1.00  0.00     0.123 A 
ATOM     12  C   UNL     1      -8.072  -1.735  19.021  1.00  0.00     0.093 A 
BRANCH   3  13
ATOM     13  C   UNL     1      -8.306  -6.516  23.291  1.00  0.00     0.025 A 
ATOM     14  C   UNL     1      -8.820  -7.810  23.124  1.00  0.00     0.016 A 
ATOM     15  C   UNL     1      -9.080  -8.615  24.236  1.00  0.00     0.051 A 
ATOM     16  C   UNL     1      -8.828  -8.140  25.527  1.00  0.00     0.157 A 
ATOM     17  C   UNL     1      -8.004  -6.057  24.587  1.00  0.00     0.062 A 
ATOM     18  C   UNL     1      -8.284  -6.856  25.706  1.00  0.00     0.158 A 
BRANCH  16  19
ATOM     19  O   UNL     1      -9.125  -8.958  26.617  1.00  0.00    -0.504 OA
ATOM     20  H   UNL     1      -8.480  -9.088  27.388  1.00  0.00     0.293 HD
ENDBRANCH  16  19
BRANCH  18  21
ATOM     21  O   UNL     1      -8.035  -6.373  26.992  1.00  0.00    -0.504 OA
ATOM     22  H   UNL     1      -8.295  -5.431  27.265  1.00  0.00     0.293 HD
ENDBRANCH  18  21
ENDBRANCH   3  13
BRANCH  10  23
ATOM     23  O   UNL     1      -7.017  -3.418  17.651  1.00  0.00    -0.507 OA
ATOM     24  H   UNL     1      -6.337  -2.827  17.187  1.00  0.00     0.293 HD
ENDBRANCH  10  23
BRANCH  11  25
ATOM     25  O   UNL     1      -9.109  -0.017  20.357  1.00  0.00    -0.508 OA
ATOM     26  H   UNL     1      -9.821   0.370  19.747  1.00  0.00     0.293 HD
ENDBRANCH  11  25
ENDBRANCH   1   2
BRANCH   1  27
ATOM     27  C   UNL     1      -5.453  -7.726  20.841  1.00  0.00     0.339 C 
ATOM     28  C   UNL     1      -5.101  -9.041  21.557  1.00  0.00     0.214 C 
ATOM     29  O   UNL     1      -4.664  -6.651  21.328  1.00  0.00    -0.332 OA
ATOM     30  C   UNL     1      -5.288  -8.874  23.073  1.00  0.00     0.180 C 
ATOM     31  C   UNL     1      -4.892  -6.390  22.707  1.00  0.00     0.179 C 
ATOM     32  C   UNL     1      -4.536  -7.626  23.580  1.00  0.00     0.177 C 
BRANCH  28  33
ATOM     33  O   UNL     1      -5.927 -10.080  21.098  1.00  0.00    -0.384 OA
ATOM     34  H   UNL     1      -5.370 -10.635  20.490  1.00  0.00     0.211 HD
ENDBRANCH  28  33
BRANCH  30  35
ATOM     35  O   UNL     1      -4.864 -10.022  23.767  1.00  0.00    -0.387 OA
ATOM     36  H   UNL     1      -4.924 -10.792  23.144  1.00  0.00     0.211 HD
ENDBRANCH  30  35
BRANCH  31  37
ATOM     37  C   UNL     1      -4.049  -5.166  23.094  1.00  0.00     0.191 C 
BRANCH  37  38
ATOM     38  O   UNL     1      -4.667  -4.429  24.115  1.00  0.00    -0.394 OA
ATOM     39  H   UNL     1      -5.604  -4.261  23.828  1.00  0.00     0.210 HD
ENDBRANCH  37  38
ENDBRANCH  31  37
BRANCH  32  40
ATOM     40  O   UNL     1      -4.839  -7.399  24.937  1.00  0.00    -0.387 OA
ATOM     41  H   UNL     1      -5.772  -7.065  24.983  1.00  0.00     0.211 HD
ENDBRANCH  32  40
ENDBRANCH   1  27
TORSDOF 12
ENDMDL
MODEL 6
REMARK VINA RESULT:    -5.327      2.956      6.328
REMARK INTER + INTRA:          -8.775
REMARK INTER:                  -8.100
REMARK INTRA:                  -0.675
REMARK UNBOUND:                -0.956
REMARK SMILES O=c1c(O[C@H]2O[C@H](CO)[C@@H](O)[C@H](O)[C@H]2O)c(-c2ccc(O)c(O)c2)oc2cc(O)cc(O)c12
REMARK SMILES IDX 4 1 3 2 16 3 25 4 2 5 26 6 1 7 33 8 27 9 31 10 28 11 30 12
REMARK SMILES IDX 17 13 18 14 19 15 20 16 24 17 22 18 21 19 23 21 32 23 29 25
REMARK SMILES IDX 5 27 14 28 6 29 12 30 7 31 10 32 15 33 13 35 8 37 9 38 11 40
REMARK H PARENT 21 20 23 22 32 24 29 26 15 34 13 36 9 39 11 41
REMARK Flexibility Score: inf
ROOT
ATOM      1  O   UNL     1      -5.645   7.660  11.871  1.00  0.00    -0.454 OA
ENDROOT
BRANCH   1   2
ATOM      2  C   UNL     1      -4.511   8.154  12.534  1.00  0.00     0.214 A 
ATOM      3  C   UNL     1      -4.455   8.141  13.942  1.00  0.00     0.180 A 
ATOM      4  O   UNL     1      -3.344   8.523  14.566  1.00  0.00    -0.452 OA
ATOM      5  C   UNL     1      -3.416   8.676  11.822  1.00  0.00     0.239 A 
ATOM      6  C   UNL     1      -2.264   8.964  13.929  1.00  0.00     0.146 A 
ATOM      7  O   UNL     1      -3.491   8.802  10.570  1.00  0.00    -0.285 OA
ATOM      8  C   UNL     1      -2.256   9.074  12.518  1.00  0.00     0.111 A 
ATOM      9  C   UNL     1      -1.135   9.318  14.670  1.00  0.00     0.094 A 
ATOM     10  C   UNL     1      -1.095   9.564  11.874  1.00  0.00     0.134 A 
ATOM     11  C   UNL     1       0.015   9.783  14.025  1.00  0.00     0.123 A 
ATOM     12  C   UNL     1       0.030   9.911  12.635  1.00  0.00     0.093 A 
BRANCH   3  13
ATOM     13  C   UNL     1      -5.592   7.673  14.763  1.00  0.00     0.025 A 
ATOM     14  C   UNL     1      -6.897   8.056  14.416  1.00  0.00     0.016 A 
ATOM     15  C   UNL     1      -7.981   7.656  15.200  1.00  0.00     0.051 A 
ATOM     16  C   UNL     1      -7.779   6.866  16.337  1.00  0.00     0.157 A 
ATOM     17  C   UNL     1      -5.394   6.837  15.878  1.00  0.00     0.062 A 
ATOM     18  C   UNL     1      -6.480   6.452  16.678  1.00  0.00     0.158 A 
BRANCH  16  19
ATOM     19  O   UNL     1      -8.881   6.507  17.114  1.00  0.00    -0.504 OA
ATOM     20  H   UNL     1      -8.980   5.583  17.518  1.00  0.00     0.293 HD
ENDBRANCH  16  19
BRANCH  18  21
ATOM     21  O   UNL     1      -6.270   5.669  17.815  1.00  0.00    -0.504 OA
ATOM     22  H   UNL     1      -6.418   6.039  18.749  1.00  0.00     0.293 HD
ENDBRANCH  18  21
ENDBRANCH   3  13
BRANCH  10  23
ATOM     23  O   UNL     1      -1.047   9.701  10.486  1.00  0.00    -0.507 OA
ATOM     24  H   UNL     1      -0.567   9.026   9.900  1.00  0.00     0.293 HD
ENDBRANCH  10  23
BRANCH  11  25
ATOM     25  O   UNL     1       1.151  10.125  14.758  1.00  0.00    -0.508 OA
ATOM     26  H   UNL     1       2.007  10.423  14.302  1.00  0.00     0.293 HD
ENDBRANCH  11  25
ENDBRANCH   1   2
BRANCH   1  27
ATOM     27  C   UNL     1      -5.593   6.693  10.814  1.00  0.00     0.339 C 
ATOM     28  C   UNL     1      -7.000   6.430  10.252  1.00  0.00     0.214 C 
ATOM     29  O   UNL     1      -4.981   5.488  11.248  1.00  0.00    -0.332 OA
ATOM     30  C   UNL     1      -7.865   5.737  11.317  1.00  0.00     0.180 C 
ATOM     31  C   UNL     1      -5.692   4.872  12.314  1.00  0.00     0.179 C 
ATOM     32  C   UNL     1      -7.139   4.499  11.885  1.00  0.00     0.177 C 
BRANCH  28  33
ATOM     33  O   UNL     1      -7.608   7.639   9.876  1.00  0.00    -0.384 OA
ATOM     34  H   UNL     1      -7.858   8.103  10.718  1.00  0.00     0.211 HD
ENDBRANCH  28  33
BRANCH  30  35
ATOM     35  O   UNL     1      -9.121   5.378  10.798  1.00  0.00    -0.387 OA
ATOM     36  H   UNL     1      -9.346   6.021  10.077  1.00  0.00     0.211 HD
ENDBRANCH  30  35
BRANCH  31  37
ATOM     37  C   UNL     1      -4.896   3.631  12.747  1.00  0.00     0.191 C 
BRANCH  37  38
ATOM     38  O   UNL     1      -4.467   3.744  14.078  1.00  0.00    -0.394 OA
ATOM     39  H   UNL     1      -4.990   4.481  14.492  1.00  0.00     0.210 HD
ENDBRANCH  37  38
ENDBRANCH  31  37
BRANCH  32  40
ATOM     40  O   UNL     1      -7.871   3.964  12.963  1.00  0.00    -0.387 OA
ATOM     41  H   UNL     1      -8.793   3.790  12.641  1.00  0.00     0.211 HD
ENDBRANCH  32  40
ENDBRANCH   1  27
TORSDOF 12
ENDMDL
MODEL 7
REMARK VINA RESULT:    -5.238      2.046      3.090
REMARK INTER + INTRA:          -8.643
REMARK INTER:                  -8.250
REMARK INTRA:                  -0.394
REMARK UNBOUND:                -0.956
REMARK SMILES O=c1c(O[C@H]2O[C@H](CO)[C@@H](O)[C@H](O)[C@H]2O)c(-c2ccc(O)c(O)c2)oc2cc(O)cc(O)c12
REMARK SMILES IDX 4 1 3 2 16 3 25 4 2 5 26 6 1 7 33 8 27 9 31 10 28 11 30 12
REMARK SMILES IDX 17 13 18 14 19 15 20 16 24 17 22 18 21 19 23 21 32 23 29 25
REMARK SMILES IDX 5 27 14 28 6 29 12 30 7 31 10 32 15 33 13 35 8 37 9 38 11 40
REMARK H PARENT 21 20 23 22 32 24 29 26 15 34 13 36 9 39 11 41
REMARK Flexibility Score: inf
ROOT
ATOM      1  O   UNL     1      -5.566   4.289  13.947  1.00  0.00    -0.454 OA
ENDROOT
BRANCH   1   2
ATOM      2  C   UNL     1      -4.348   4.685  14.520  1.00  0.00     0.214 A 
ATOM      3  C   UNL     1      -3.772   5.923  14.169  1.00  0.00     0.180 A 
ATOM      4  O   UNL     1      -2.666   6.338  14.781  1.00  0.00    -0.452 OA
ATOM      5  C   UNL     1      -3.672   3.866  15.442  1.00  0.00     0.239 A 
ATOM      6  C   UNL     1      -2.030   5.623  15.702  1.00  0.00     0.146 A 
ATOM      7  O   UNL     1      -4.110   2.709  15.683  1.00  0.00    -0.285 OA
ATOM      8  C   UNL     1      -2.500   4.339  16.068  1.00  0.00     0.111 A 
ATOM      9  C   UNL     1      -0.889   6.154  16.308  1.00  0.00     0.094 A 
ATOM     10  C   UNL     1      -1.787   3.597  17.040  1.00  0.00     0.134 A 
ATOM     11  C   UNL     1      -0.202   5.424  17.282  1.00  0.00     0.123 A 
ATOM     12  C   UNL     1      -0.647   4.150  17.640  1.00  0.00     0.093 A 
BRANCH   3  13
ATOM     13  C   UNL     1      -4.385   6.808  13.156  1.00  0.00     0.025 A 
ATOM     14  C   UNL     1      -4.429   8.192  13.385  1.00  0.00     0.016 A 
ATOM     15  C   UNL     1      -5.037   9.042  12.459  1.00  0.00     0.051 A 
ATOM     16  C   UNL     1      -5.607   8.523  11.291  1.00  0.00     0.157 A 
ATOM     17  C   UNL     1      -4.913   6.293  11.957  1.00  0.00     0.062 A 
ATOM     18  C   UNL     1      -5.543   7.142  11.036  1.00  0.00     0.158 A 
BRANCH  16  19
ATOM     19  O   UNL     1      -6.231   9.396  10.399  1.00  0.00    -0.504 OA
ATOM     20  H   UNL     1      -7.222   9.606  10.451  1.00  0.00     0.293 HD
ENDBRANCH  16  19
BRANCH  18  21
ATOM     21  O   UNL     1      -6.114   6.617   9.875  1.00  0.00    -0.504 OA
ATOM     22  H   UNL     1      -6.992   6.108   9.899  1.00  0.00     0.293 HD
ENDBRANCH  18  21
ENDBRANCH   3  13
BRANCH  10  23
ATOM     23  O   UNL     1      -2.208   2.322  17.422  1.00  0.00    -0.507 OA
ATOM     24  H   UNL     1      -2.134   2.001  18.381  1.00  0.00     0.293 HD
ENDBRANCH  10  23
BRANCH  11  25
ATOM     25  O   UNL     1       0.929   5.955  17.900  1.00  0.00    -0.508 OA
ATOM     26  H   UNL     1       1.088   6.956  17.948  1.00  0.00     0.293 HD
ENDBRANCH  11  25
ENDBRANCH   1   2
BRANCH   1  27
ATOM     27  C   UNL     1      -6.777   4.106  14.694  1.00  0.00     0.339 C 
ATOM     28  C   UNL     1      -7.996   4.530  13.859  1.00  0.00     0.214 C 
ATOM     29  O   UNL     1      -6.732   4.807  15.928  1.00  0.00    -0.332 OA
ATOM     30  C   UNL     1      -7.961   6.047  13.619  1.00  0.00     0.180 C 
ATOM     31  C   UNL     1      -6.584   6.210  15.750  1.00  0.00     0.179 C 
ATOM     32  C   UNL     1      -7.778   6.805  14.951  1.00  0.00     0.177 C 
BRANCH  28  33
ATOM     33  O   UNL     1      -7.995   3.864  12.623  1.00  0.00    -0.384 OA
ATOM     34  H   UNL     1      -7.058   3.577  12.458  1.00  0.00     0.211 HD
ENDBRANCH  28  33
BRANCH  30  35
ATOM     35  O   UNL     1      -9.122   6.485  12.957  1.00  0.00    -0.387 OA
ATOM     36  H   UNL     1      -9.230   7.454  13.144  1.00  0.00     0.211 HD
ENDBRANCH  30  35
BRANCH  31  37
ATOM     37  C   UNL     1      -6.468   6.846  17.144  1.00  0.00     0.191 C 
BRANCH  37  38
ATOM     38  O   UNL     1      -7.733   7.124  17.680  1.00  0.00    -0.394 OA
ATOM     39  H   UNL     1      -8.118   6.261  17.986  1.00  0.00     0.210 HD
ENDBRANCH  37  38
ENDBRANCH  31  37
BRANCH  32  40
ATOM     40  O   UNL     1      -7.593   8.179  14.702  1.00  0.00    -0.387 OA
ATOM     41  H   UNL     1      -6.704   8.289  14.276  1.00  0.00     0.211 HD
ENDBRANCH  32  40
ENDBRANCH   1  27
TORSDOF 12
ENDMDL
