MODEL 1
REMARK VINA RESULT:    -4.020      0.000      0.000
REMARK INTER + INTRA:          -7.857
REMARK INTER:                  -6.370
REMARK INTRA:                  -1.488
REMARK UNBOUND:                -1.488
REMARK SMILES CCCCCCCCCCCC(=O)[O-]
REMARK SMILES IDX 7 1 8 2 9 3 10 4 11 5 12 6 13 7 14 8 6 9 5 10 4 11 3 12 2 13
REMARK SMILES IDX 1 14
REMARK H PARENT
REMARK Flexibility Score: inf
ROOT
ATOM      1  C   UNL     1     -38.392  18.306 -30.278  1.00  0.00     0.000 C 
ENDROOT
BRANCH   1   2
ATOM      2  C   UNL     1     -37.799  16.886 -30.242  1.00  0.00     0.000 C 
BRANCH   2   3
ATOM      3  C   UNL     1     -36.267  16.877 -30.132  1.00  0.00     0.000 C 
BRANCH   3   4
ATOM      4  C   UNL     1     -35.719  18.305 -29.994  1.00  0.00     0.006 C 
BRANCH   4   5
ATOM      5  C   UNL     1     -34.796  18.457 -28.778  1.00  0.00     0.053 C 
BRANCH   5   6
ATOM      6  C   UNL     1     -35.506  19.085 -27.617  1.00  0.00     0.041 C 
ATOM      7  O   UNL     1     -36.622  18.640 -27.240  1.00  0.00    -0.550 OA
ATOM      8  O   UNL     1     -34.950  20.183 -26.975  1.00  0.00    -0.550 OA
ENDBRANCH   5   6
ENDBRANCH   4   5
ENDBRANCH   3   4
ENDBRANCH   2   3
ENDBRANCH   1   2
BRANCH   1   9
ATOM      9  C   UNL     1     -39.534  18.557 -29.277  1.00  0.00     0.000 C 
BRANCH   9  10
ATOM     10  C   UNL     1     -39.588  20.015 -28.786  1.00  0.00    -0.000 C 
BRANCH  10  11
ATOM     11  C   UNL     1     -38.679  20.946 -29.604  1.00  0.00    -0.000 C 
BRANCH  11  12
ATOM     12  C   UNL     1     -37.743  21.784 -28.721  1.00  0.00    -0.000 C 
BRANCH  12  13
ATOM     13  C   UNL     1     -36.529  22.275 -29.518  1.00  0.00    -0.003 C 
ATOM     14  C   UNL     1     -36.500  21.661 -30.915  1.00  0.00     0.004 C 
ENDBRANCH  12  13
ENDBRANCH  11  12
ENDBRANCH  10  11
ENDBRANCH   9  10
ENDBRANCH   1   9
TORSDOF 10
ENDMDL
MODEL 2
REMARK VINA RESULT:    -3.987      2.142      3.644
REMARK INTER + INTRA:          -7.805
REMARK INTER:                  -6.264
REMARK INTRA:                  -1.541
REMARK UNBOUND:                -1.488
REMARK SMILES CCCCCCCCCCCC(=O)[O-]
REMARK SMILES IDX 7 1 8 2 9 3 10 4 11 5 12 6 13 7 14 8 6 9 5 10 4 11 3 12 2 13
REMARK SMILES IDX 1 14
REMARK H PARENT
REMARK Flexibility Score: inf
ROOT
ATOM      1  C   UNL     1     -35.296  17.831 -30.001  1.00  0.00     0.000 C 
ENDROOT
BRANCH   1   2
ATOM      2  C   UNL     1     -36.617  17.431 -29.318  1.00  0.00     0.000 C 
BRANCH   2   3
ATOM      3  C   UNL     1     -37.735  17.104 -30.319  1.00  0.00     0.000 C 
BRANCH   3   4
ATOM      4  C   UNL     1     -38.921  18.065 -30.152  1.00  0.00     0.006 C 
BRANCH   4   5
ATOM      5  C   UNL     1     -38.922  18.752 -28.780  1.00  0.00     0.053 C 
BRANCH   5   6
ATOM      6  C   UNL     1     -40.141  19.602 -28.586  1.00  0.00     0.041 C 
ATOM      7  O   UNL     1     -40.197  20.755 -29.090  1.00  0.00    -0.550 OA
ATOM      8  O   UNL     1     -41.200  19.134 -27.821  1.00  0.00    -0.550 OA
ENDBRANCH   5   6
ENDBRANCH   4   5
ENDBRANCH   3   4
ENDBRANCH   2   3
ENDBRANCH   1   2
BRANCH   1   9
ATOM      9  C   UNL     1     -34.523  18.964 -29.303  1.00  0.00     0.000 C 
BRANCH   9  10
ATOM     10  C   UNL     1     -35.309  19.594 -28.140  1.00  0.00    -0.000 C 
BRANCH  10  11
ATOM     11  C   UNL     1     -35.419  21.122 -28.263  1.00  0.00    -0.000 C 
BRANCH  11  12
ATOM     12  C   UNL     1     -36.737  21.569 -28.911  1.00  0.00    -0.000 C 
BRANCH  12  13
ATOM     13  C   UNL     1     -36.516  22.002 -30.365  1.00  0.00    -0.003 C 
ATOM     14  C   UNL     1     -36.983  20.924 -31.339  1.00  0.00     0.004 C 
ENDBRANCH  12  13
ENDBRANCH  11  12
ENDBRANCH  10  11
ENDBRANCH   9  10
ENDBRANCH   1   9
TORSDOF 10
ENDMDL
MODEL 3
REMARK VINA RESULT:    -3.984     14.061     15.665
REMARK INTER + INTRA:          -7.801
REMARK INTER:                  -6.281
REMARK INTRA:                  -1.521
REMARK UNBOUND:                -1.488
REMARK SMILES CCCCCCCCCCCC(=O)[O-]
REMARK SMILES IDX 7 1 8 2 9 3 10 4 11 5 12 6 13 7 14 8 6 9 5 10 4 11 3 12 2 13
REMARK SMILES IDX 1 14
REMARK H PARENT
REMARK Flexibility Score: inf
ROOT
ATOM      1  C   UNL     1     -53.239  14.708 -28.694  1.00  0.00     0.000 C 
ENDROOT
BRANCH   1   2
ATOM      2  C   UNL     1     -53.384  14.912 -30.213  1.00  0.00     0.000 C 
BRANCH   2   3
ATOM      3  C   UNL     1     -52.109  14.552 -30.991  1.00  0.00     0.000 C 
BRANCH   3   4
ATOM      4  C   UNL     1     -50.865  15.139 -30.308  1.00  0.00     0.006 C 
BRANCH   4   5
ATOM      5  C   UNL     1     -49.662  14.189 -30.377  1.00  0.00     0.053 C 
BRANCH   5   6
ATOM      6  C   UNL     1     -49.967  12.862 -29.751  1.00  0.00     0.041 C 
ATOM      7  O   UNL     1     -50.121  12.768 -28.505  1.00  0.00    -0.550 OA
ATOM      8  O   UNL     1     -50.047  11.723 -30.542  1.00  0.00    -0.550 OA
ENDBRANCH   5   6
ENDBRANCH   4   5
ENDBRANCH   3   4
ENDBRANCH   2   3
ENDBRANCH   1   2
BRANCH   1   9
ATOM      9  C   UNL     1     -53.788  15.857 -27.831  1.00  0.00     0.000 C 
BRANCH   9  10
ATOM     10  C   UNL     1     -52.686  16.812 -27.337  1.00  0.00    -0.000 C 
BRANCH  10  11
ATOM     11  C   UNL     1     -52.397  17.945 -28.335  1.00  0.00    -0.000 C 
BRANCH  11  12
ATOM     12  C   UNL     1     -53.676  18.637 -28.829  1.00  0.00    -0.000 C 
BRANCH  12  13
ATOM     13  C   UNL     1     -53.749  18.627 -30.361  1.00  0.00    -0.003 C 
ATOM     14  C   UNL     1     -52.364  18.460 -30.979  1.00  0.00     0.004 C 
ENDBRANCH  12  13
ENDBRANCH  11  12
ENDBRANCH  10  11
ENDBRANCH   9  10
ENDBRANCH   1   9
TORSDOF 10
ENDMDL
MODEL 4
REMARK VINA RESULT:    -3.961      2.221      4.134
REMARK INTER + INTRA:          -7.764
REMARK INTER:                  -6.431
REMARK INTRA:                  -1.333
REMARK UNBOUND:                -1.488
REMARK SMILES CCCCCCCCCCCC(=O)[O-]
REMARK SMILES IDX 7 1 8 2 9 3 10 4 11 5 12 6 13 7 14 8 6 9 5 10 4 11 3 12 2 13
REMARK SMILES IDX 1 14
REMARK H PARENT
REMARK Flexibility Score: inf
ROOT
ATOM      1  C   UNL     1     -35.163  20.829 -28.587  1.00  0.00     0.000 C 
ENDROOT
BRANCH   1   2
ATOM      2  C   UNL     1     -35.269  19.620 -27.639  1.00  0.00     0.000 C 
BRANCH   2   3
ATOM      3  C   UNL     1     -36.506  18.752 -27.911  1.00  0.00     0.000 C 
BRANCH   3   4
ATOM      4  C   UNL     1     -36.497  18.218 -29.350  1.00  0.00     0.006 C 
BRANCH   4   5
ATOM      5  C   UNL     1     -37.571  17.146 -29.579  1.00  0.00     0.053 C 
BRANCH   5   6
ATOM      6  C   UNL     1     -38.485  17.509 -30.710  1.00  0.00     0.041 C 
ATOM      7  O   UNL     1     -38.391  18.635 -31.265  1.00  0.00    -0.550 OA
ATOM      8  O   UNL     1     -39.462  16.615 -31.127  1.00  0.00    -0.550 OA
ENDBRANCH   5   6
ENDBRANCH   4   5
ENDBRANCH   3   4
ENDBRANCH   2   3
ENDBRANCH   1   2
BRANCH   1   9
ATOM      9  C   UNL     1     -35.853  22.109 -28.084  1.00  0.00     0.000 C 
BRANCH   9  10
ATOM     10  C   UNL     1     -36.836  22.700 -29.110  1.00  0.00    -0.000 C 
BRANCH  10  11
ATOM     11  C   UNL     1     -37.891  21.681 -29.570  1.00  0.00    -0.000 C 
BRANCH  11  12
ATOM     12  C   UNL     1     -39.039  21.523 -28.564  1.00  0.00    -0.000 C 
BRANCH  12  13
ATOM     13  C   UNL     1     -40.129  20.596 -29.114  1.00  0.00    -0.003 C 
ATOM     14  C   UNL     1     -40.354  19.401 -28.192  1.00  0.00     0.004 C 
ENDBRANCH  12  13
ENDBRANCH  11  12
ENDBRANCH  10  11
ENDBRANCH   9  10
ENDBRANCH   1   9
TORSDOF 10
ENDMDL
MODEL 5
REMARK VINA RESULT:    -3.953      1.735      4.792
REMARK INTER + INTRA:          -7.752
REMARK INTER:                  -6.557
REMARK INTRA:                  -1.195
REMARK UNBOUND:                -1.488
REMARK SMILES CCCCCCCCCCCC(=O)[O-]
REMARK SMILES IDX 7 1 8 2 9 3 10 4 11 5 12 6 13 7 14 8 6 9 5 10 4 11 3 12 2 13
REMARK SMILES IDX 1 14
REMARK H PARENT
REMARK Flexibility Score: inf
ROOT
ATOM      1  C   UNL     1     -35.845  20.096 -30.401  1.00  0.00     0.000 C 
ENDROOT
BRANCH   1   2
ATOM      2  C   UNL     1     -37.092  20.987 -30.551  1.00  0.00     0.000 C 
BRANCH   2   3
ATOM      3  C   UNL     1     -37.284  21.954 -29.373  1.00  0.00     0.000 C 
BRANCH   3   4
ATOM      4  C   UNL     1     -38.684  21.805 -28.762  1.00  0.00     0.006 C 
BRANCH   4   5
ATOM      5  C   UNL     1     -39.479  20.660 -29.403  1.00  0.00     0.053 C 
BRANCH   5   6
ATOM      6  C   UNL     1     -39.812  19.590 -28.408  1.00  0.00     0.041 C 
ATOM      7  O   UNL     1     -38.893  18.987 -27.794  1.00  0.00    -0.550 OA
ATOM      8  O   UNL     1     -41.136  19.237 -28.185  1.00  0.00    -0.550 OA
ENDBRANCH   5   6
ENDBRANCH   4   5
ENDBRANCH   3   4
ENDBRANCH   2   3
ENDBRANCH   1   2
BRANCH   1   9
ATOM      9  C   UNL     1     -35.711  19.393 -29.039  1.00  0.00     0.000 C 
BRANCH   9  10
ATOM     10  C   UNL     1     -35.241  17.932 -29.165  1.00  0.00    -0.000 C 
BRANCH  10  11
ATOM     11  C   UNL     1     -35.936  17.187 -30.316  1.00  0.00    -0.000 C 
BRANCH  11  12
ATOM     12  C   UNL     1     -37.374  16.776 -29.970  1.00  0.00    -0.000 C 
BRANCH  12  13
ATOM     13  C   UNL     1     -38.381  17.467 -30.897  1.00  0.00    -0.003 C 
ATOM     14  C   UNL     1     -39.603  16.585 -31.139  1.00  0.00     0.004 C 
ENDBRANCH  12  13
ENDBRANCH  11  12
ENDBRANCH  10  11
ENDBRANCH   9  10
ENDBRANCH   1   9
TORSDOF 10
ENDMDL
MODEL 6
REMARK VINA RESULT:    -3.944     14.128     15.286
REMARK INTER + INTRA:          -7.737
REMARK INTER:                  -6.771
REMARK INTRA:                  -0.966
REMARK UNBOUND:                -1.488
REMARK SMILES CCCCCCCCCCCC(=O)[O-]
REMARK SMILES IDX 7 1 8 2 9 3 10 4 11 5 12 6 13 7 14 8 6 9 5 10 4 11 3 12 2 13
REMARK SMILES IDX 1 14
REMARK H PARENT
REMARK Flexibility Score: inf
ROOT
ATOM      1  C   UNL     1     -50.722  15.803 -30.999  1.00  0.00     0.000 C 
ENDROOT
BRANCH   1   2
ATOM      2  C   UNL     1     -50.049  14.569 -30.370  1.00  0.00     0.000 C 
BRANCH   2   3
ATOM      3  C   UNL     1     -50.643  14.191 -29.005  1.00  0.00     0.000 C 
BRANCH   3   4
ATOM      4  C   UNL     1     -50.835  12.672 -28.890  1.00  0.00     0.006 C 
BRANCH   4   5
ATOM      5  C   UNL     1     -49.978  11.901 -29.903  1.00  0.00     0.053 C 
BRANCH   5   6
ATOM      6  C   UNL     1     -49.115  10.876 -29.232  1.00  0.00     0.041 C 
ATOM      7  O   UNL     1     -48.452  11.179 -28.206  1.00  0.00    -0.550 OA
ATOM      8  O   UNL     1     -49.017   9.596 -29.762  1.00  0.00    -0.550 OA
ENDBRANCH   5   6
ENDBRANCH   4   5
ENDBRANCH   3   4
ENDBRANCH   2   3
ENDBRANCH   1   2
BRANCH   1   9
ATOM      9  C   UNL     1     -52.256  15.727 -31.089  1.00  0.00     0.000 C 
BRANCH   9  10
ATOM     10  C   UNL     1     -52.930  17.104 -30.947  1.00  0.00    -0.000 C 
BRANCH  10  11
ATOM     11  C   UNL     1     -52.304  17.955 -29.831  1.00  0.00    -0.000 C 
BRANCH  11  12
ATOM     12  C   UNL     1     -53.333  18.407 -28.786  1.00  0.00    -0.000 C 
BRANCH  12  13
ATOM     13  C   UNL     1     -53.753  17.239 -27.885  1.00  0.00    -0.003 C 
ATOM     14  C   UNL     1     -52.593  16.773 -27.009  1.00  0.00     0.004 C 
ENDBRANCH  12  13
ENDBRANCH  11  12
ENDBRANCH  10  11
ENDBRANCH   9  10
ENDBRANCH   1   9
TORSDOF 10
ENDMDL
MODEL 7
REMARK VINA RESULT:    -3.935      1.777      2.877
REMARK INTER + INTRA:          -7.723
REMARK INTER:                  -6.134
REMARK INTRA:                  -1.588
REMARK UNBOUND:                -1.488
REMARK SMILES CCCCCCCCCCCC(=O)[O-]
REMARK SMILES IDX 7 1 8 2 9 3 10 4 11 5 12 6 13 7 14 8 6 9 5 10 4 11 3 12 2 13
REMARK SMILES IDX 1 14
REMARK H PARENT
REMARK Flexibility Score: inf
ROOT
ATOM      1  C   UNL     1     -38.351  19.189 -30.939  1.00  0.00     0.000 C 
ENDROOT
BRANCH   1   2
ATOM      2  C   UNL     1     -38.962  18.770 -29.590  1.00  0.00     0.000 C 
BRANCH   2   3
ATOM      3  C   UNL     1     -38.183  19.314 -28.383  1.00  0.00     0.000 C 
BRANCH   3   4
ATOM      4  C   UNL     1     -37.157  18.286 -27.883  1.00  0.00     0.006 C 
BRANCH   4   5
ATOM      5  C   UNL     1     -35.715  18.710 -28.189  1.00  0.00     0.053 C 
BRANCH   5   6
ATOM      6  C   UNL     1     -35.220  18.112 -29.471  1.00  0.00     0.041 C 
ATOM      7  O   UNL     1     -34.308  18.682 -30.126  1.00  0.00    -0.550 OA
ATOM      8  O   UNL     1     -35.791  16.944 -29.959  1.00  0.00    -0.550 OA
ENDBRANCH   5   6
ENDBRANCH   4   5
ENDBRANCH   3   4
ENDBRANCH   2   3
ENDBRANCH   1   2
BRANCH   1   9
ATOM      9  C   UNL     1     -38.189  20.707 -31.133  1.00  0.00     0.000 C 
BRANCH   9  10
ATOM     10  C   UNL     1     -36.740  21.115 -31.457  1.00  0.00    -0.000 C 
BRANCH  10  11
ATOM     11  C   UNL     1     -36.039  21.791 -30.268  1.00  0.00    -0.000 C 
BRANCH  11  12
ATOM     12  C   UNL     1     -36.997  22.645 -29.424  1.00  0.00    -0.000 C 
BRANCH  12  13
ATOM     13  C   UNL     1     -36.389  22.960 -28.052  1.00  0.00    -0.003 C 
ATOM     14  C   UNL     1     -35.032  22.284 -27.882  1.00  0.00     0.004 C 
ENDBRANCH  12  13
ENDBRANCH  11  12
ENDBRANCH  10  11
ENDBRANCH   9  10
ENDBRANCH   1   9
TORSDOF 10
ENDMDL
MODEL 8
REMARK VINA RESULT:    -3.932      2.684      4.571
REMARK INTER + INTRA:          -7.719
REMARK INTER:                  -6.134
REMARK INTRA:                  -1.584
REMARK UNBOUND:                -1.488
REMARK SMILES CCCCCCCCCCCC(=O)[O-]
REMARK SMILES IDX 7 1 8 2 9 3 10 4 11 5 12 6 13 7 14 8 6 9 5 10 4 11 3 12 2 13
REMARK SMILES IDX 1 14
REMARK H PARENT
REMARK Flexibility Score: inf
ROOT
ATOM      1  C   UNL     1     -39.373  20.662 -29.624  1.00  0.00     0.000 C 
ENDROOT
BRANCH   1   2
ATOM      2  C   UNL     1     -38.339  21.467 -28.816  1.00  0.00     0.000 C 
BRANCH   2   3
ATOM      3  C   UNL     1     -37.143  21.927 -29.662  1.00  0.00     0.000 C 
BRANCH   3   4
ATOM      4  C   UNL     1     -37.122  21.210 -31.020  1.00  0.00     0.006 C 
BRANCH   4   5
ATOM      5  C   UNL     1     -35.699  21.047 -31.569  1.00  0.00     0.053 C 
BRANCH   5   6
ATOM      6  C   UNL     1     -35.385  22.076 -32.612  1.00  0.00     0.041 C 
ATOM      7  O   UNL     1     -34.610  23.032 -32.346  1.00  0.00    -0.550 OA
ATOM      8  O   UNL     1     -35.975  21.996 -33.866  1.00  0.00    -0.550 OA
ENDBRANCH   5   6
ENDBRANCH   4   5
ENDBRANCH   3   4
ENDBRANCH   2   3
ENDBRANCH   1   2
BRANCH   1   9
ATOM      9  C   UNL     1     -39.654  19.247 -29.088  1.00  0.00     0.000 C 
BRANCH   9  10
ATOM     10  C   UNL     1     -38.912  18.153 -29.877  1.00  0.00    -0.000 C 
BRANCH  10  11
ATOM     11  C   UNL     1     -37.660  17.644 -29.144  1.00  0.00    -0.000 C 
BRANCH  11  12
ATOM     12  C   UNL     1     -36.405  17.676 -30.028  1.00  0.00    -0.000 C 
BRANCH  12  13
ATOM     13  C   UNL     1     -35.187  18.167 -29.236  1.00  0.00    -0.003 C 
ATOM     14  C   UNL     1     -35.613  18.914 -27.975  1.00  0.00     0.004 C 
ENDBRANCH  12  13
ENDBRANCH  11  12
ENDBRANCH  10  11
ENDBRANCH   9  10
ENDBRANCH   1   9
TORSDOF 10
ENDMDL
MODEL 9
REMARK VINA RESULT:    -3.922      2.381      4.221
REMARK INTER + INTRA:          -7.702
REMARK INTER:                  -6.527
REMARK INTRA:                  -1.175
REMARK UNBOUND:                -1.488
REMARK SMILES CCCCCCCCCCCC(=O)[O-]
REMARK SMILES IDX 7 1 8 2 9 3 10 4 11 5 12 6 13 7 14 8 6 9 5 10 4 11 3 12 2 13
REMARK SMILES IDX 1 14
REMARK H PARENT
REMARK Flexibility Score: inf
ROOT
ATOM      1  C   UNL     1     -38.883  22.252 -28.508  1.00  0.00     0.000 C 
ENDROOT
BRANCH   1   2
ATOM      2  C   UNL     1     -39.643  21.212 -29.351  1.00  0.00     0.000 C 
BRANCH   2   3
ATOM      3  C   UNL     1     -40.124  20.008 -28.527  1.00  0.00     0.000 C 
BRANCH   3   4
ATOM      4  C   UNL     1     -39.219  18.789 -28.757  1.00  0.00     0.006 C 
BRANCH   4   5
ATOM      5  C   UNL     1     -38.827  18.626 -30.232  1.00  0.00     0.053 C 
BRANCH   5   6
ATOM      6  C   UNL     1     -38.685  17.184 -30.613  1.00  0.00     0.041 C 
ATOM      7  O   UNL     1     -39.449  16.678 -31.476  1.00  0.00    -0.550 OA
ATOM      8  O   UNL     1     -37.730  16.392 -29.990  1.00  0.00    -0.550 OA
ENDBRANCH   5   6
ENDBRANCH   4   5
ENDBRANCH   3   4
ENDBRANCH   2   3
ENDBRANCH   1   2
BRANCH   1   9
ATOM      9  C   UNL     1     -37.431  22.507 -28.949  1.00  0.00     0.000 C 
BRANCH   9  10
ATOM     10  C   UNL     1     -36.537  21.262 -28.805  1.00  0.00    -0.000 C 
BRANCH  10  11
ATOM     11  C   UNL     1     -35.792  20.917 -30.104  1.00  0.00    -0.000 C 
BRANCH  11  12
ATOM     12  C   UNL     1     -36.558  21.360 -31.359  1.00  0.00    -0.000 C 
BRANCH  12  13
ATOM     13  C   UNL     1     -35.591  21.738 -32.488  1.00  0.00    -0.003 C 
ATOM     14  C   UNL     1     -34.619  22.826 -32.041  1.00  0.00     0.004 C 
ENDBRANCH  12  13
ENDBRANCH  11  12
ENDBRANCH  10  11
ENDBRANCH   9  10
ENDBRANCH   1   9
TORSDOF 10
ENDMDL
