MODEL 1
REMARK VINA RESULT:    -5.435      0.000      0.000
REMARK INTER + INTRA:          -9.510
REMARK INTER:                  -8.612
REMARK INTRA:                  -0.898
REMARK UNBOUND:                -0.898
REMARK SMILES CCCCCCCCCCCC(=O)[O-]
REMARK SMILES IDX 7 1 8 2 9 3 10 4 11 5 12 6 13 7 14 8 6 9 5 10 4 11 3 12 2 13
REMARK SMILES IDX 1 14
REMARK H PARENT
REMARK Flexibility Score: inf
ROOT
ATOM      1  C   UNL     1      11.111 -15.187  37.031  1.00  0.00     0.000 C 
ENDROOT
BRANCH   1   2
ATOM      2  C   UNL     1      11.682 -13.982  36.264  1.00  0.00     0.000 C 
BRANCH   2   3
ATOM      3  C   UNL     1      12.881 -13.334  36.978  1.00  0.00     0.000 C 
BRANCH   3   4
ATOM      4  C   UNL     1      12.630 -11.859  37.333  1.00  0.00     0.006 C 
BRANCH   4   5
ATOM      5  C   UNL     1      13.620 -10.909  36.649  1.00  0.00     0.053 C 
BRANCH   5   6
ATOM      6  C   UNL     1      13.443 -10.950  35.164  1.00  0.00     0.041 C 
ATOM      7  O   UNL     1      14.441 -11.100  34.411  1.00  0.00    -0.550 OA
ATOM      8  O   UNL     1      12.182 -10.773  34.610  1.00  0.00    -0.550 OA
ENDBRANCH   5   6
ENDBRANCH   4   5
ENDBRANCH   3   4
ENDBRANCH   2   3
ENDBRANCH   1   2
BRANCH   1   9
ATOM      9  C   UNL     1      10.034 -14.848  38.084  1.00  0.00     0.000 C 
BRANCH   9  10
ATOM     10  C   UNL     1       9.255 -13.545  37.835  1.00  0.00    -0.000 C 
BRANCH  10  11
ATOM     11  C   UNL     1       7.742 -13.773  37.678  1.00  0.00    -0.000 C 
BRANCH  11  12
ATOM     12  C   UNL     1       7.230 -13.441  36.265  1.00  0.00    -0.000 C 
BRANCH  12  13
ATOM     13  C   UNL     1       8.312 -13.410  35.170  1.00  0.00    -0.003 C 
ATOM     14  C   UNL     1       7.734 -13.438  33.755  1.00  0.00     0.004 C 
ENDBRANCH  12  13
ENDBRANCH  11  12
ENDBRANCH  10  11
ENDBRANCH   9  10
ENDBRANCH   1   9
TORSDOF 10
ENDMDL
MODEL 2
REMARK VINA RESULT:    -5.378      2.296      3.063
REMARK INTER + INTRA:          -9.420
REMARK INTER:                  -8.334
REMARK INTRA:                  -1.086
REMARK UNBOUND:                -0.898
REMARK SMILES CCCCCCCCCCCC(=O)[O-]
REMARK SMILES IDX 7 1 8 2 9 3 10 4 11 5 12 6 13 7 14 8 6 9 5 10 4 11 3 12 2 13
REMARK SMILES IDX 1 14
REMARK H PARENT
REMARK Flexibility Score: inf
ROOT
ATOM      1  C   UNL     1      12.989 -13.999  37.047  1.00  0.00     0.000 C 
ENDROOT
BRANCH   1   2
ATOM      2  C   UNL     1      13.140 -13.212  35.734  1.00  0.00     0.000 C 
BRANCH   2   3
ATOM      3  C   UNL     1      12.502 -11.814  35.799  1.00  0.00     0.000 C 
BRANCH   3   4
ATOM      4  C   UNL     1      13.382 -10.797  36.544  1.00  0.00     0.006 C 
BRANCH   4   5
ATOM      5  C   UNL     1      12.563  -9.799  37.371  1.00  0.00     0.053 C 
BRANCH   5   6
ATOM      6  C   UNL     1      12.277 -10.357  38.730  1.00  0.00     0.041 C 
ATOM      7  O   UNL     1      13.146 -10.286  39.639  1.00  0.00    -0.550 OA
ATOM      8  O   UNL     1      11.071 -10.999  38.978  1.00  0.00    -0.550 OA
ENDBRANCH   5   6
ENDBRANCH   4   5
ENDBRANCH   3   4
ENDBRANCH   2   3
ENDBRANCH   1   2
BRANCH   1   9
ATOM      9  C   UNL     1      11.536 -14.228  37.516  1.00  0.00     0.000 C 
BRANCH   9  10
ATOM     10  C   UNL     1      10.666 -15.079  36.573  1.00  0.00    -0.000 C 
BRANCH  10  11
ATOM     11  C   UNL     1       9.532 -14.273  35.916  1.00  0.00    -0.000 C 
BRANCH  11  12
ATOM     12  C   UNL     1       8.944 -13.198  36.848  1.00  0.00    -0.000 C 
BRANCH  12  13
ATOM     13  C   UNL     1       7.550 -13.521  37.417  1.00  0.00    -0.003 C 
ATOM     14  C   UNL     1       7.603 -14.298  38.732  1.00  0.00     0.004 C 
ENDBRANCH  12  13
ENDBRANCH  11  12
ENDBRANCH  10  11
ENDBRANCH   9  10
ENDBRANCH   1   9
TORSDOF 10
ENDMDL
MODEL 3
REMARK VINA RESULT:    -5.359      1.866      2.187
REMARK INTER + INTRA:          -9.389
REMARK INTER:                  -7.756
REMARK INTRA:                  -1.633
REMARK UNBOUND:                -0.898
REMARK SMILES CCCCCCCCCCCC(=O)[O-]
REMARK SMILES IDX 7 1 8 2 9 3 10 4 11 5 12 6 13 7 14 8 6 9 5 10 4 11 3 12 2 13
REMARK SMILES IDX 1 14
REMARK H PARENT
REMARK Flexibility Score: inf
ROOT
ATOM      1  C   UNL     1      10.553 -15.005  37.175  1.00  0.00     0.000 C 
ENDROOT
BRANCH   1   2
ATOM      2  C   UNL     1      11.710 -13.997  37.071  1.00  0.00     0.000 C 
BRANCH   2   3
ATOM      3  C   UNL     1      11.548 -13.021  35.893  1.00  0.00     0.000 C 
BRANCH   3   4
ATOM      4  C   UNL     1      11.419 -11.559  36.351  1.00  0.00     0.006 C 
BRANCH   4   5
ATOM      5  C   UNL     1      11.592 -11.395  37.866  1.00  0.00     0.053 C 
BRANCH   5   6
ATOM      6  C   UNL     1      12.836 -10.621  38.168  1.00  0.00     0.041 C 
ATOM      7  O   UNL     1      13.592 -10.247  37.233  1.00  0.00    -0.550 OA
ATOM      8  O   UNL     1      13.186 -10.355  39.485  1.00  0.00    -0.550 OA
ENDBRANCH   5   6
ENDBRANCH   4   5
ENDBRANCH   3   4
ENDBRANCH   2   3
ENDBRANCH   1   2
BRANCH   1   9
ATOM      9  C   UNL     1       9.828 -15.040  38.537  1.00  0.00     0.000 C 
BRANCH   9  10
ATOM     10  C   UNL     1       8.400 -14.465  38.539  1.00  0.00    -0.000 C 
BRANCH  10  11
ATOM     11  C   UNL     1       8.375 -12.928  38.565  1.00  0.00    -0.000 C 
BRANCH  11  12
ATOM     12  C   UNL     1       7.872 -12.315  37.245  1.00  0.00    -0.000 C 
BRANCH  12  13
ATOM     13  C   UNL     1       7.226 -13.314  36.267  1.00  0.00    -0.003 C 
ATOM     14  C   UNL     1       7.940 -13.377  34.918  1.00  0.00     0.004 C 
ENDBRANCH  12  13
ENDBRANCH  11  12
ENDBRANCH  10  11
ENDBRANCH   9  10
ENDBRANCH   1   9
TORSDOF 10
ENDMDL
MODEL 4
REMARK VINA RESULT:    -5.312      1.825      5.034
REMARK INTER + INTRA:          -9.315
REMARK INTER:                  -8.412
REMARK INTRA:                  -0.903
REMARK UNBOUND:                -0.898
REMARK SMILES CCCCCCCCCCCC(=O)[O-]
REMARK SMILES IDX 7 1 8 2 9 3 10 4 11 5 12 6 13 7 14 8 6 9 5 10 4 11 3 12 2 13
REMARK SMILES IDX 1 14
REMARK H PARENT
REMARK Flexibility Score: inf
ROOT
ATOM      1  C   UNL     1      10.153 -14.718  38.048  1.00  0.00     0.000 C 
ENDROOT
BRANCH   1   2
ATOM      2  C   UNL     1       9.252 -13.471  38.043  1.00  0.00     0.000 C 
BRANCH   2   3
ATOM      3  C   UNL     1       7.763 -13.811  37.864  1.00  0.00     0.000 C 
BRANCH   3   4
ATOM      4  C   UNL     1       7.246 -13.477  36.455  1.00  0.00     0.006 C 
BRANCH   4   5
ATOM      5  C   UNL     1       8.030 -12.338  35.791  1.00  0.00     0.053 C 
BRANCH   5   6
ATOM      6  C   UNL     1       8.285 -12.650  34.350  1.00  0.00     0.041 C 
ATOM      7  O   UNL     1       9.127 -11.980  33.696  1.00  0.00    -0.550 OA
ATOM      8  O   UNL     1       7.556 -13.648  33.716  1.00  0.00    -0.550 OA
ENDBRANCH   5   6
ENDBRANCH   4   5
ENDBRANCH   3   4
ENDBRANCH   2   3
ENDBRANCH   1   2
BRANCH   1   9
ATOM      9  C   UNL     1      11.058 -14.883  36.808  1.00  0.00     0.000 C 
BRANCH   9  10
ATOM     10  C   UNL     1      11.520 -13.571  36.150  1.00  0.00    -0.000 C 
BRANCH  10  11
ATOM     11  C   UNL     1      12.911 -13.120  36.627  1.00  0.00    -0.000 C 
BRANCH  11  12
ATOM     12  C   UNL     1      12.929 -11.667  37.133  1.00  0.00    -0.000 C 
BRANCH  12  13
ATOM     13  C   UNL     1      13.704 -10.676  36.244  1.00  0.00    -0.003 C 
ATOM     14  C   UNL     1      14.103 -11.269  34.893  1.00  0.00     0.004 C 
ENDBRANCH  12  13
ENDBRANCH  11  12
ENDBRANCH  10  11
ENDBRANCH   9  10
ENDBRANCH   1   9
TORSDOF 10
ENDMDL
MODEL 5
REMARK VINA RESULT:    -5.306      3.118      5.535
REMARK INTER + INTRA:          -9.306
REMARK INTER:                  -7.786
REMARK INTRA:                  -1.520
REMARK UNBOUND:                -0.898
REMARK SMILES CCCCCCCCCCCC(=O)[O-]
REMARK SMILES IDX 7 1 8 2 9 3 10 4 11 5 12 6 13 7 14 8 6 9 5 10 4 11 3 12 2 13
REMARK SMILES IDX 1 14
REMARK H PARENT
REMARK Flexibility Score: inf
ROOT
ATOM      1  C   UNL     1      13.232 -13.142  35.597  1.00  0.00     0.000 C 
ENDROOT
BRANCH   1   2
ATOM      2  C   UNL     1      12.894 -13.448  37.067  1.00  0.00     0.000 C 
BRANCH   2   3
ATOM      3  C   UNL     1      11.553 -14.183  37.230  1.00  0.00     0.000 C 
BRANCH   3   4
ATOM      4  C   UNL     1      10.370 -13.388  36.654  1.00  0.00     0.006 C 
BRANCH   4   5
ATOM      5  C   UNL     1       9.589 -12.625  37.730  1.00  0.00     0.053 C 
BRANCH   5   6
ATOM      6  C   UNL     1       8.244 -13.248  37.939  1.00  0.00     0.041 C 
ATOM      7  O   UNL     1       8.016 -13.931  38.972  1.00  0.00    -0.550 OA
ATOM      8  O   UNL     1       7.259 -13.115  36.970  1.00  0.00    -0.550 OA
ENDBRANCH   5   6
ENDBRANCH   4   5
ENDBRANCH   3   4
ENDBRANCH   2   3
ENDBRANCH   1   2
BRANCH   1   9
ATOM      9  C   UNL     1      13.591 -11.671  35.296  1.00  0.00     0.000 C 
BRANCH   9  10
ATOM     10  C   UNL     1      12.463 -10.831  34.671  1.00  0.00    -0.000 C 
BRANCH  10  11
ATOM     11  C   UNL     1      11.706  -9.982  35.707  1.00  0.00    -0.000 C 
BRANCH  11  12
ATOM     12  C   UNL     1      12.579  -9.592  36.914  1.00  0.00    -0.000 C 
BRANCH  12  13
ATOM     13  C   UNL     1      11.994  -9.967  38.288  1.00  0.00    -0.003 C 
ATOM     14  C   UNL     1      13.060 -10.393  39.297  1.00  0.00     0.004 C 
ENDBRANCH  12  13
ENDBRANCH  11  12
ENDBRANCH  10  11
ENDBRANCH   9  10
ENDBRANCH   1   9
TORSDOF 10
ENDMDL
MODEL 6
REMARK VINA RESULT:    -5.302      3.022      5.354
REMARK INTER + INTRA:          -9.300
REMARK INTER:                  -7.842
REMARK INTRA:                  -1.458
REMARK UNBOUND:                -0.898
REMARK SMILES CCCCCCCCCCCC(=O)[O-]
REMARK SMILES IDX 7 1 8 2 9 3 10 4 11 5 12 6 13 7 14 8 6 9 5 10 4 11 3 12 2 13
REMARK SMILES IDX 1 14
REMARK H PARENT
REMARK Flexibility Score: inf
ROOT
ATOM      1  C   UNL     1      11.740 -14.594  36.694  1.00  0.00     0.000 C 
ENDROOT
BRANCH   1   2
ATOM      2  C   UNL     1      10.325 -14.057  36.972  1.00  0.00     0.000 C 
BRANCH   2   3
ATOM      3  C   UNL     1      10.291 -13.027  38.114  1.00  0.00     0.000 C 
BRANCH   3   4
ATOM      4  C   UNL     1       9.188 -11.972  37.925  1.00  0.00     0.006 C 
BRANCH   4   5
ATOM      5  C   UNL     1       8.821 -11.757  36.452  1.00  0.00     0.053 C 
BRANCH   5   6
ATOM      6  C   UNL     1       7.351 -11.948  36.247  1.00  0.00     0.041 C 
ATOM      7  O   UNL     1       6.853 -13.104  36.277  1.00  0.00    -0.550 OA
ATOM      8  O   UNL     1       6.540 -10.854  35.973  1.00  0.00    -0.550 OA
ENDBRANCH   5   6
ENDBRANCH   4   5
ENDBRANCH   3   4
ENDBRANCH   2   3
ENDBRANCH   1   2
BRANCH   1   9
ATOM      9  C   UNL     1      12.872 -13.550  36.790  1.00  0.00     0.000 C 
BRANCH   9  10
ATOM     10  C   UNL     1      13.194 -12.804  35.483  1.00  0.00    -0.000 C 
BRANCH  10  11
ATOM     11  C   UNL     1      12.751 -11.331  35.510  1.00  0.00    -0.000 C 
BRANCH  11  12
ATOM     12  C   UNL     1      13.453 -10.515  36.612  1.00  0.00    -0.000 C 
BRANCH  12  13
ATOM     13  C   UNL     1      12.519  -9.947  37.696  1.00  0.00    -0.003 C 
ATOM     14  C   UNL     1      12.856 -10.447  39.100  1.00  0.00     0.004 C 
ENDBRANCH  12  13
ENDBRANCH  11  12
ENDBRANCH  10  11
ENDBRANCH   9  10
ENDBRANCH   1   9
TORSDOF 10
ENDMDL
MODEL 7
REMARK VINA RESULT:    -5.216      2.682      5.463
REMARK INTER + INTRA:          -9.163
REMARK INTER:                  -7.963
REMARK INTRA:                  -1.200
REMARK UNBOUND:                -0.898
REMARK SMILES CCCCCCCCCCCC(=O)[O-]
REMARK SMILES IDX 7 1 8 2 9 3 10 4 11 5 12 6 13 7 14 8 6 9 5 10 4 11 3 12 2 13
REMARK SMILES IDX 1 14
REMARK H PARENT
REMARK Flexibility Score: inf
ROOT
ATOM      1  C   UNL     1      11.360 -10.891  38.876  1.00  0.00     0.000 C 
ENDROOT
BRANCH   1   2
ATOM      2  C   UNL     1      10.409 -11.396  37.778  1.00  0.00     0.000 C 
BRANCH   2   3
ATOM      3  C   UNL     1       9.801 -12.771  38.101  1.00  0.00     0.000 C 
BRANCH   3   4
ATOM      4  C   UNL     1       9.306 -13.509  36.846  1.00  0.00     0.006 C 
BRANCH   4   5
ATOM      5  C   UNL     1       7.781 -13.462  36.694  1.00  0.00     0.053 C 
BRANCH   5   6
ATOM      6  C   UNL     1       7.388 -12.437  35.677  1.00  0.00     0.041 C 
ATOM      7  O   UNL     1       7.586 -12.652  34.452  1.00  0.00    -0.550 OA
ATOM      8  O   UNL     1       6.849 -11.224  36.086  1.00  0.00    -0.550 OA
ENDBRANCH   5   6
ENDBRANCH   4   5
ENDBRANCH   3   4
ENDBRANCH   2   3
ENDBRANCH   1   2
BRANCH   1   9
ATOM      9  C   UNL     1      12.715 -10.346  38.376  1.00  0.00     0.000 C 
BRANCH   9  10
ATOM     10  C   UNL     1      12.735  -9.874  36.911  1.00  0.00    -0.000 C 
BRANCH  10  11
ATOM     11  C   UNL     1      13.638 -10.739  36.017  1.00  0.00    -0.000 C 
BRANCH  11  12
ATOM     12  C   UNL     1      12.857 -11.812  35.237  1.00  0.00    -0.000 C 
BRANCH  12  13
ATOM     13  C   UNL     1      13.338 -13.258  35.458  1.00  0.00    -0.003 C 
ATOM     14  C   UNL     1      13.111 -13.754  36.885  1.00  0.00     0.004 C 
ENDBRANCH  12  13
ENDBRANCH  11  12
ENDBRANCH  10  11
ENDBRANCH   9  10
ENDBRANCH   1   9
TORSDOF 10
ENDMDL
MODEL 8
REMARK VINA RESULT:    -5.186      1.519      3.268
REMARK INTER + INTRA:          -9.116
REMARK INTER:                  -7.612
REMARK INTRA:                  -1.504
REMARK UNBOUND:                -0.898
REMARK SMILES CCCCCCCCCCCC(=O)[O-]
REMARK SMILES IDX 7 1 8 2 9 3 10 4 11 5 12 6 13 7 14 8 6 9 5 10 4 11 3 12 2 13
REMARK SMILES IDX 1 14
REMARK H PARENT
REMARK Flexibility Score: inf
ROOT
ATOM      1  C   UNL     1       7.364 -13.092  36.043  1.00  0.00     0.000 C 
ENDROOT
BRANCH   1   2
ATOM      2  C   UNL     1       8.511 -13.341  35.049  1.00  0.00     0.000 C 
BRANCH   2   3
ATOM      3  C   UNL     1       9.359 -12.085  34.789  1.00  0.00     0.000 C 
BRANCH   3   4
ATOM      4  C   UNL     1      10.833 -12.276  35.183  1.00  0.00     0.006 C 
BRANCH   4   5
ATOM      5  C   UNL     1      11.358 -11.147  36.079  1.00  0.00     0.053 C 
BRANCH   5   6
ATOM      6  C   UNL     1      12.800 -11.371  36.411  1.00  0.00     0.041 C 
ATOM      7  O   UNL     1      13.132 -11.752  37.564  1.00  0.00    -0.550 OA
ATOM      8  O   UNL     1      13.780 -11.110  35.462  1.00  0.00    -0.550 OA
ENDBRANCH   5   6
ENDBRANCH   4   5
ENDBRANCH   3   4
ENDBRANCH   2   3
ENDBRANCH   1   2
BRANCH   1   9
ATOM      9  C   UNL     1       7.675 -12.084  37.170  1.00  0.00     0.000 C 
BRANCH   9  10
ATOM     10  C   UNL     1       8.429 -12.662  38.382  1.00  0.00    -0.000 C 
BRANCH  10  11
ATOM     11  C   UNL     1       8.028 -14.112  38.699  1.00  0.00    -0.000 C 
BRANCH  11  12
ATOM     12  C   UNL     1       9.237 -15.062  38.787  1.00  0.00    -0.000 C 
BRANCH  12  13
ATOM     13  C   UNL     1      10.495 -14.586  38.037  1.00  0.00    -0.003 C 
ATOM     14  C   UNL     1      10.881 -15.499  36.873  1.00  0.00     0.004 C 
ENDBRANCH  12  13
ENDBRANCH  11  12
ENDBRANCH  10  11
ENDBRANCH   9  10
ENDBRANCH   1   9
TORSDOF 10
ENDMDL
MODEL 9
REMARK VINA RESULT:    -5.095      1.264      1.658
REMARK INTER + INTRA:          -8.970
REMARK INTER:                  -7.667
REMARK INTRA:                  -1.303
REMARK UNBOUND:                -0.898
REMARK SMILES CCCCCCCCCCCC(=O)[O-]
REMARK SMILES IDX 7 1 8 2 9 3 10 4 11 5 12 6 13 7 14 8 6 9 5 10 4 11 3 12 2 13
REMARK SMILES IDX 1 14
REMARK H PARENT
REMARK Flexibility Score: inf
ROOT
ATOM      1  C   UNL     1       9.700 -14.735  38.184  1.00  0.00     0.000 C 
ENDROOT
BRANCH   1   2
ATOM      2  C   UNL     1      10.461 -14.597  36.853  1.00  0.00     0.000 C 
BRANCH   2   3
ATOM      3  C   UNL     1      11.691 -13.681  36.961  1.00  0.00     0.000 C 
BRANCH   3   4
ATOM      4  C   UNL     1      11.407 -12.251  36.473  1.00  0.00     0.006 C 
BRANCH   4   5
ATOM      5  C   UNL     1      12.097 -11.933  35.141  1.00  0.00     0.053 C 
BRANCH   5   6
ATOM      6  C   UNL     1      13.403 -11.242  35.382  1.00  0.00     0.041 C 
ATOM      7  O   UNL     1      13.673 -10.778  36.521  1.00  0.00    -0.550 OA
ATOM      8  O   UNL     1      14.300 -11.067  34.336  1.00  0.00    -0.550 OA
ENDBRANCH   5   6
ENDBRANCH   4   5
ENDBRANCH   3   4
ENDBRANCH   2   3
ENDBRANCH   1   2
BRANCH   1   9
ATOM      9  C   UNL     1       8.332 -14.023  38.239  1.00  0.00     0.000 C 
BRANCH   9  10
ATOM     10  C   UNL     1       8.388 -12.508  38.504  1.00  0.00    -0.000 C 
BRANCH  10  11
ATOM     11  C   UNL     1       7.892 -11.673  37.311  1.00  0.00    -0.000 C 
BRANCH  11  12
ATOM     12  C   UNL     1       7.203 -12.525  36.230  1.00  0.00    -0.000 C 
BRANCH  12  13
ATOM     13  C   UNL     1       7.674 -12.253  34.789  1.00  0.00    -0.003 C 
ATOM     14  C   UNL     1       7.906 -13.531  33.983  1.00  0.00     0.004 C 
ENDBRANCH  12  13
ENDBRANCH  11  12
ENDBRANCH  10  11
ENDBRANCH   9  10
ENDBRANCH   1   9
TORSDOF 10
ENDMDL
