MODEL 1
REMARK VINA RESULT:    -4.914      0.000      0.000
REMARK INTER + INTRA:         -14.499
REMARK INTER:                 -11.233
REMARK INTRA:                  -3.265
REMARK UNBOUND:                -3.265
REMARK SMILES CCCCCCCCCCCCCCCCCCCCCCCC(=O)[O-]
REMARK SMILES IDX 13 1 14 2 15 3 16 4 17 5 18 6 19 7 20 8 21 9 22 10 23 11
REMARK SMILES IDX 24 12 25 13 26 14 12 15 11 16 10 17 9 18 8 19 7 20 6 21 5 22
REMARK SMILES IDX 4 23 3 24 2 25 1 26
REMARK H PARENT
REMARK Flexibility Score: inf
ROOT
ATOM      1  C   UNL     1     -23.511  -5.999  18.425  1.00  0.00     0.000 C 
ENDROOT
BRANCH   1   2
ATOM      2  C   UNL     1     -22.296  -6.925  18.253  1.00  0.00     0.000 C 
BRANCH   2   3
ATOM      3  C   UNL     1     -21.305  -6.422  17.185  1.00  0.00     0.000 C 
BRANCH   3   4
ATOM      4  C   UNL     1     -21.402  -4.920  16.854  1.00  0.00     0.000 C 
BRANCH   4   5
ATOM      5  C   UNL     1     -21.061  -4.608  15.387  1.00  0.00     0.000 C 
BRANCH   5   6
ATOM      6  C   UNL     1     -20.351  -5.774  14.675  1.00  0.00     0.000 C 
BRANCH   6   7
ATOM      7  C   UNL     1     -18.828  -5.611  14.505  1.00  0.00     0.000 C 
BRANCH   7   8
ATOM      8  C   UNL     1     -18.028  -6.928  14.489  1.00  0.00     0.000 C 
BRANCH   8   9
ATOM      9  C   UNL     1     -18.647  -8.076  15.309  1.00  0.00     0.000 C 
BRANCH   9  10
ATOM     10  C   UNL     1     -18.085  -8.236  16.733  1.00  0.00     0.006 C 
BRANCH  10  11
ATOM     11  C   UNL     1     -18.810  -9.319  17.543  1.00  0.00     0.053 C 
BRANCH  11  12
ATOM     12  C   UNL     1     -17.861  -9.983  18.489  1.00  0.00     0.041 C 
ATOM     13  O   UNL     1     -18.118 -11.129  18.945  1.00  0.00    -0.550 OA
ATOM     14  O   UNL     1     -16.665  -9.362  18.822  1.00  0.00    -0.550 OA
ENDBRANCH  11  12
ENDBRANCH  10  11
ENDBRANCH   9  10
ENDBRANCH   8   9
ENDBRANCH   7   8
ENDBRANCH   6   7
ENDBRANCH   5   6
ENDBRANCH   4   5
ENDBRANCH   3   4
ENDBRANCH   2   3
ENDBRANCH   1   2
BRANCH   1  15
ATOM     15  C   UNL     1     -24.719  -6.704  19.070  1.00  0.00     0.000 C 
BRANCH  15  16
ATOM     16  C   UNL     1     -25.967  -5.821  19.270  1.00  0.00     0.000 C 
BRANCH  16  17
ATOM     17  C   UNL     1     -27.114  -6.062  18.268  1.00  0.00     0.000 C 
BRANCH  17  18
ATOM     18  C   UNL     1     -27.387  -4.897  17.298  1.00  0.00    -0.000 C 
BRANCH  18  19
ATOM     19  C   UNL     1     -27.767  -5.374  15.886  1.00  0.00    -0.000 C 
BRANCH  19  20
ATOM     20  C   UNL     1     -27.279  -6.804  15.599  1.00  0.00    -0.000 C 
BRANCH  20  21
ATOM     21  C   UNL     1     -26.006  -6.831  14.736  1.00  0.00    -0.000 C 
BRANCH  21  22
ATOM     22  C   UNL     1     -24.806  -7.463  15.464  1.00  0.00    -0.000 C 
BRANCH  22  23
ATOM     23  C   UNL     1     -23.571  -7.727  14.581  1.00  0.00    -0.000 C 
BRANCH  23  24
ATOM     24  C   UNL     1     -22.781  -9.006  14.925  1.00  0.00    -0.000 C 
BRANCH  24  25
ATOM     25  C   UNL     1     -22.900  -9.465  16.389  1.00  0.00    -0.003 C 
ATOM     26  C   UNL     1     -23.607 -10.811  16.536  1.00  0.00     0.004 C 
ENDBRANCH  24  25
ENDBRANCH  23  24
ENDBRANCH  22  23
ENDBRANCH  21  22
ENDBRANCH  20  21
ENDBRANCH  19  20
ENDBRANCH  18  19
ENDBRANCH  17  18
ENDBRANCH  16  17
ENDBRANCH  15  16
ENDBRANCH   1  15
TORSDOF 22
ENDMDL
MODEL 2
REMARK VINA RESULT:    -4.760      4.323      8.167
REMARK INTER + INTRA:         -14.148
REMARK INTER:                 -11.688
REMARK INTRA:                  -2.459
REMARK UNBOUND:                -3.265
REMARK SMILES CCCCCCCCCCCCCCCCCCCCCCCC(=O)[O-]
REMARK SMILES IDX 13 1 14 2 15 3 16 4 17 5 18 6 19 7 20 8 21 9 22 10 23 11
REMARK SMILES IDX 24 12 25 13 26 14 12 15 11 16 10 17 9 18 8 19 7 20 6 21 5 22
REMARK SMILES IDX 4 23 3 24 2 25 1 26
REMARK H PARENT
REMARK Flexibility Score: inf
ROOT
ATOM      1  C   UNL     1     -23.912  -8.635  16.805  1.00  0.00     0.000 C 
ENDROOT
BRANCH   1   2
ATOM      2  C   UNL     1     -25.086  -8.499  17.788  1.00  0.00     0.000 C 
BRANCH   2   3
ATOM      3  C   UNL     1     -26.009  -7.310  17.458  1.00  0.00     0.000 C 
BRANCH   3   4
ATOM      4  C   UNL     1     -25.961  -6.142  18.462  1.00  0.00     0.000 C 
BRANCH   4   5
ATOM      5  C   UNL     1     -25.020  -6.411  19.648  1.00  0.00     0.000 C 
BRANCH   5   6
ATOM      6  C   UNL     1     -25.466  -5.701  20.939  1.00  0.00     0.000 C 
BRANCH   6   7
ATOM      7  C   UNL     1     -26.861  -5.047  20.881  1.00  0.00     0.000 C 
BRANCH   7   8
ATOM      8  C   UNL     1     -27.280  -4.288  22.155  1.00  0.00     0.000 C 
BRANCH   8   9
ATOM      9  C   UNL     1     -27.368  -2.756  22.002  1.00  0.00     0.000 C 
BRANCH   9  10
ATOM     10  C   UNL     1     -26.392  -1.957  22.884  1.00  0.00     0.006 C 
BRANCH  10  11
ATOM     11  C   UNL     1     -25.286  -2.828  23.494  1.00  0.00     0.053 C 
BRANCH  11  12
ATOM     12  C   UNL     1     -25.328  -2.752  24.987  1.00  0.00     0.041 C 
ATOM     13  O   UNL     1     -26.329  -3.183  25.617  1.00  0.00    -0.550 OA
ATOM     14  O   UNL     1     -24.235  -2.259  25.687  1.00  0.00    -0.550 OA
ENDBRANCH  11  12
ENDBRANCH  10  11
ENDBRANCH   9  10
ENDBRANCH   8   9
ENDBRANCH   7   8
ENDBRANCH   6   7
ENDBRANCH   5   6
ENDBRANCH   4   5
ENDBRANCH   3   4
ENDBRANCH   2   3
ENDBRANCH   1   2
BRANCH   1  15
ATOM     15  C   UNL     1     -22.546  -8.737  17.509  1.00  0.00     0.000 C 
BRANCH  15  16
ATOM     16  C   UNL     1     -21.906  -7.391  17.904  1.00  0.00     0.000 C 
BRANCH  16  17
ATOM     17  C   UNL     1     -22.408  -6.164  17.116  1.00  0.00     0.000 C 
BRANCH  17  18
ATOM     18  C   UNL     1     -21.380  -5.029  16.954  1.00  0.00    -0.000 C 
BRANCH  18  19
ATOM     19  C   UNL     1     -20.835  -4.919  15.519  1.00  0.00    -0.000 C 
BRANCH  19  20
ATOM     20  C   UNL     1     -20.617  -6.295  14.867  1.00  0.00    -0.000 C 
BRANCH  20  21
ATOM     21  C   UNL     1     -19.132  -6.693  14.813  1.00  0.00    -0.000 C 
BRANCH  21  22
ATOM     22  C   UNL     1     -18.886  -8.140  15.274  1.00  0.00    -0.000 C 
BRANCH  22  23
ATOM     23  C   UNL     1     -18.214  -8.281  16.653  1.00  0.00    -0.000 C 
BRANCH  23  24
ATOM     24  C   UNL     1     -18.838  -9.345  17.580  1.00  0.00    -0.000 C 
BRANCH  24  25
ATOM     25  C   UNL     1     -17.879  -9.928  18.633  1.00  0.00    -0.003 C 
ATOM     26  C   UNL     1     -16.577  -9.137  18.756  1.00  0.00     0.004 C 
ENDBRANCH  24  25
ENDBRANCH  23  24
ENDBRANCH  22  23
ENDBRANCH  21  22
ENDBRANCH  20  21
ENDBRANCH  19  20
ENDBRANCH  18  19
ENDBRANCH  17  18
ENDBRANCH  16  17
ENDBRANCH  15  16
ENDBRANCH   1  15
TORSDOF 22
ENDMDL
MODEL 3
REMARK VINA RESULT:    -4.735      0.490      1.333
REMARK INTER + INTRA:         -14.089
REMARK INTER:                 -10.832
REMARK INTRA:                  -3.257
REMARK UNBOUND:                -3.265
REMARK SMILES CCCCCCCCCCCCCCCCCCCCCCCC(=O)[O-]
REMARK SMILES IDX 13 1 14 2 15 3 16 4 17 5 18 6 19 7 20 8 21 9 22 10 23 11
REMARK SMILES IDX 24 12 25 13 26 14 12 15 11 16 10 17 9 18 8 19 7 20 6 21 5 22
REMARK SMILES IDX 4 23 3 24 2 25 1 26
REMARK H PARENT
REMARK Flexibility Score: inf
ROOT
ATOM      1  C   UNL     1     -22.477  -7.083  18.224  1.00  0.00     0.000 C 
ENDROOT
BRANCH   1   2
ATOM      2  C   UNL     1     -21.402  -6.535  17.272  1.00  0.00     0.000 C 
BRANCH   2   3
ATOM      3  C   UNL     1     -21.545  -5.023  17.012  1.00  0.00     0.000 C 
BRANCH   3   4
ATOM      4  C   UNL     1     -21.344  -4.586  15.549  1.00  0.00     0.000 C 
BRANCH   4   5
ATOM      5  C   UNL     1     -20.442  -5.547  14.756  1.00  0.00     0.000 C 
BRANCH   5   6
ATOM      6  C   UNL     1     -18.946  -5.201  14.876  1.00  0.00     0.000 C 
BRANCH   6   7
ATOM      7  C   UNL     1     -17.978  -6.360  14.564  1.00  0.00     0.000 C 
BRANCH   7   8
ATOM      8  C   UNL     1     -18.654  -7.686  14.165  1.00  0.00     0.000 C 
BRANCH   8   9
ATOM      9  C   UNL     1     -19.013  -8.614  15.343  1.00  0.00     0.000 C 
BRANCH   9  10
ATOM     10  C   UNL     1     -18.238  -8.344  16.644  1.00  0.00     0.006 C 
BRANCH  10  11
ATOM     11  C   UNL     1     -18.774  -9.148  17.836  1.00  0.00     0.053 C 
BRANCH  11  12
ATOM     12  C   UNL     1     -17.654  -9.849  18.537  1.00  0.00     0.041 C 
ATOM     13  O   UNL     1     -17.810 -11.023  18.965  1.00  0.00    -0.550 OA
ATOM     14  O   UNL     1     -16.419  -9.228  18.665  1.00  0.00    -0.550 OA
ENDBRANCH  11  12
ENDBRANCH  10  11
ENDBRANCH   9  10
ENDBRANCH   8   9
ENDBRANCH   7   8
ENDBRANCH   6   7
ENDBRANCH   5   6
ENDBRANCH   4   5
ENDBRANCH   3   4
ENDBRANCH   2   3
ENDBRANCH   1   2
BRANCH   1  15
ATOM     15  C   UNL     1     -23.641  -6.100  18.447  1.00  0.00     0.000 C 
BRANCH  15  16
ATOM     16  C   UNL     1     -24.875  -6.690  19.160  1.00  0.00     0.000 C 
BRANCH  16  17
ATOM     17  C   UNL     1     -25.881  -5.657  19.703  1.00  0.00     0.000 C 
BRANCH  17  18
ATOM     18  C   UNL     1     -27.239  -5.626  18.978  1.00  0.00    -0.000 C 
BRANCH  18  19
ATOM     19  C   UNL     1     -27.157  -4.972  17.588  1.00  0.00    -0.000 C 
BRANCH  19  20
ATOM     20  C   UNL     1     -27.870  -5.801  16.506  1.00  0.00    -0.000 C 
BRANCH  20  21
ATOM     21  C   UNL     1     -27.134  -7.114  16.189  1.00  0.00    -0.000 C 
BRANCH  21  22
ATOM     22  C   UNL     1     -26.106  -6.960  15.053  1.00  0.00    -0.000 C 
BRANCH  22  23
ATOM     23  C   UNL     1     -24.639  -7.196  15.462  1.00  0.00    -0.000 C 
BRANCH  23  24
ATOM     24  C   UNL     1     -23.773  -7.915  14.408  1.00  0.00    -0.000 C 
BRANCH  24  25
ATOM     25  C   UNL     1     -22.635  -8.776  14.984  1.00  0.00    -0.003 C 
ATOM     26  C   UNL     1     -23.115  -9.761  16.050  1.00  0.00     0.004 C 
ENDBRANCH  24  25
ENDBRANCH  23  24
ENDBRANCH  22  23
ENDBRANCH  21  22
ENDBRANCH  20  21
ENDBRANCH  19  20
ENDBRANCH  18  19
ENDBRANCH  17  18
ENDBRANCH  16  17
ENDBRANCH  15  16
ENDBRANCH   1  15
TORSDOF 22
ENDMDL
MODEL 4
REMARK VINA RESULT:    -4.732      0.712      3.315
REMARK INTER + INTRA:         -14.083
REMARK INTER:                 -11.103
REMARK INTRA:                  -2.980
REMARK UNBOUND:                -3.265
REMARK SMILES CCCCCCCCCCCCCCCCCCCCCCCC(=O)[O-]
REMARK SMILES IDX 13 1 14 2 15 3 16 4 17 5 18 6 19 7 20 8 21 9 22 10 23 11
REMARK SMILES IDX 24 12 25 13 26 14 12 15 11 16 10 17 9 18 8 19 7 20 6 21 5 22
REMARK SMILES IDX 4 23 3 24 2 25 1 26
REMARK H PARENT
REMARK Flexibility Score: inf
ROOT
ATOM      1  C   UNL     1     -21.971  -7.508  17.880  1.00  0.00     0.000 C 
ENDROOT
BRANCH   1   2
ATOM      2  C   UNL     1     -22.106  -5.979  17.804  1.00  0.00     0.000 C 
BRANCH   2   3
ATOM      3  C   UNL     1     -21.064  -5.331  16.871  1.00  0.00     0.000 C 
BRANCH   3   4
ATOM      4  C   UNL     1     -21.546  -5.067  15.432  1.00  0.00     0.000 C 
BRANCH   4   5
ATOM      5  C   UNL     1     -20.397  -5.056  14.409  1.00  0.00     0.000 C 
BRANCH   5   6
ATOM      6  C   UNL     1     -19.007  -5.108  15.069  1.00  0.00     0.000 C 
BRANCH   6   7
ATOM      7  C   UNL     1     -18.046  -6.168  14.494  1.00  0.00     0.000 C 
BRANCH   7   8
ATOM      8  C   UNL     1     -18.684  -7.543  14.212  1.00  0.00     0.000 C 
BRANCH   8   9
ATOM      9  C   UNL     1     -19.300  -8.240  15.441  1.00  0.00     0.000 C 
BRANCH   9  10
ATOM     10  C   UNL     1     -18.355  -8.391  16.646  1.00  0.00     0.006 C 
BRANCH  10  11
ATOM     11  C   UNL     1     -18.896  -9.350  17.714  1.00  0.00     0.053 C 
BRANCH  11  12
ATOM     12  C   UNL     1     -17.772  -9.915  18.524  1.00  0.00     0.041 C 
ATOM     13  O   UNL     1     -17.879 -11.053  19.050  1.00  0.00    -0.550 OA
ATOM     14  O   UNL     1     -16.584  -9.208  18.649  1.00  0.00    -0.550 OA
ENDBRANCH  11  12
ENDBRANCH  10  11
ENDBRANCH   9  10
ENDBRANCH   8   9
ENDBRANCH   7   8
ENDBRANCH   6   7
ENDBRANCH   5   6
ENDBRANCH   4   5
ENDBRANCH   3   4
ENDBRANCH   2   3
ENDBRANCH   1   2
BRANCH   1  15
ATOM     15  C   UNL     1     -23.330  -8.233  17.880  1.00  0.00     0.000 C 
BRANCH  15  16
ATOM     16  C   UNL     1     -23.526  -9.264  16.750  1.00  0.00     0.000 C 
BRANCH  16  17
ATOM     17  C   UNL     1     -22.920  -8.875  15.388  1.00  0.00     0.000 C 
BRANCH  17  18
ATOM     18  C   UNL     1     -23.697  -7.794  14.613  1.00  0.00    -0.000 C 
BRANCH  18  19
ATOM     19  C   UNL     1     -24.861  -7.201  15.426  1.00  0.00    -0.000 C 
BRANCH  19  20
ATOM     20  C   UNL     1     -26.114  -6.961  14.566  1.00  0.00    -0.000 C 
BRANCH  20  21
ATOM     21  C   UNL     1     -27.409  -6.964  15.397  1.00  0.00    -0.000 C 
BRANCH  21  22
ATOM     22  C   UNL     1     -27.892  -5.546  15.752  1.00  0.00    -0.000 C 
BRANCH  22  23
ATOM     23  C   UNL     1     -27.354  -4.986  17.083  1.00  0.00    -0.000 C 
BRANCH  23  24
ATOM     24  C   UNL     1     -27.099  -6.039  18.180  1.00  0.00    -0.000 C 
BRANCH  24  25
ATOM     25  C   UNL     1     -25.838  -5.797  19.029  1.00  0.00    -0.003 C 
ATOM     26  C   UNL     1     -26.157  -5.374  20.462  1.00  0.00     0.004 C 
ENDBRANCH  24  25
ENDBRANCH  23  24
ENDBRANCH  22  23
ENDBRANCH  21  22
ENDBRANCH  20  21
ENDBRANCH  19  20
ENDBRANCH  18  19
ENDBRANCH  17  18
ENDBRANCH  16  17
ENDBRANCH  15  16
ENDBRANCH   1  15
TORSDOF 22
ENDMDL
MODEL 5
REMARK VINA RESULT:    -4.634      0.954      4.539
REMARK INTER + INTRA:         -13.858
REMARK INTER:                 -10.974
REMARK INTRA:                  -2.884
REMARK UNBOUND:                -3.265
REMARK SMILES CCCCCCCCCCCCCCCCCCCCCCCC(=O)[O-]
REMARK SMILES IDX 13 1 14 2 15 3 16 4 17 5 18 6 19 7 20 8 21 9 22 10 23 11
REMARK SMILES IDX 24 12 25 13 26 14 12 15 11 16 10 17 9 18 8 19 7 20 6 21 5 22
REMARK SMILES IDX 4 23 3 24 2 25 1 26
REMARK H PARENT
REMARK Flexibility Score: inf
ROOT
ATOM      1  C   UNL     1     -27.127  -6.689  17.646  1.00  0.00     0.000 C 
ENDROOT
BRANCH   1   2
ATOM      2  C   UNL     1     -27.551  -6.075  16.303  1.00  0.00     0.000 C 
BRANCH   2   3
ATOM      3  C   UNL     1     -26.551  -6.367  15.167  1.00  0.00     0.000 C 
BRANCH   3   4
ATOM      4  C   UNL     1     -25.338  -7.228  15.565  1.00  0.00     0.000 C 
BRANCH   4   5
ATOM      5  C   UNL     1     -24.358  -7.457  14.401  1.00  0.00     0.000 C 
BRANCH   5   6
ATOM      6  C   UNL     1     -23.008  -8.038  14.860  1.00  0.00     0.000 C 
BRANCH   6   7
ATOM      7  C   UNL     1     -23.084  -9.424  15.531  1.00  0.00     0.000 C 
BRANCH   7   8
ATOM      8  C   UNL     1     -22.096  -9.641  16.693  1.00  0.00     0.000 C 
BRANCH   8   9
ATOM      9  C   UNL     1     -20.750  -8.903  16.551  1.00  0.00     0.000 C 
BRANCH   9  10
ATOM     10  C   UNL     1     -19.804  -9.035  17.758  1.00  0.00     0.006 C 
BRANCH  10  11
ATOM     11  C   UNL     1     -18.323  -8.982  17.364  1.00  0.00     0.053 C 
BRANCH  11  12
ATOM     12  C   UNL     1     -17.480  -9.622  18.422  1.00  0.00     0.041 C 
ATOM     13  O   UNL     1     -17.869 -10.675  18.993  1.00  0.00    -0.550 OA
ATOM     14  O   UNL     1     -16.237  -9.089  18.735  1.00  0.00    -0.550 OA
ENDBRANCH  11  12
ENDBRANCH  10  11
ENDBRANCH   9  10
ENDBRANCH   8   9
ENDBRANCH   7   8
ENDBRANCH   6   7
ENDBRANCH   5   6
ENDBRANCH   4   5
ENDBRANCH   3   4
ENDBRANCH   2   3
ENDBRANCH   1   2
BRANCH   1  15
ATOM     15  C   UNL     1     -26.840  -5.631  18.728  1.00  0.00     0.000 C 
BRANCH  15  16
ATOM     16  C   UNL     1     -25.478  -5.766  19.438  1.00  0.00     0.000 C 
BRANCH  16  17
ATOM     17  C   UNL     1     -24.819  -7.157  19.343  1.00  0.00     0.000 C 
BRANCH  17  18
ATOM     18  C   UNL     1     -23.582  -7.231  18.428  1.00  0.00    -0.000 C 
BRANCH  18  19
ATOM     19  C   UNL     1     -22.904  -5.864  18.231  1.00  0.00    -0.000 C 
BRANCH  19  20
ATOM     20  C   UNL     1     -21.716  -5.934  17.257  1.00  0.00    -0.000 C 
BRANCH  20  21
ATOM     21  C   UNL     1     -21.481  -4.605  16.517  1.00  0.00    -0.000 C 
BRANCH  21  22
ATOM     22  C   UNL     1     -20.895  -4.804  15.108  1.00  0.00    -0.000 C 
BRANCH  22  23
ATOM     23  C   UNL     1     -19.946  -6.009  14.959  1.00  0.00    -0.000 C 
BRANCH  23  24
ATOM     24  C   UNL     1     -18.445  -5.679  15.082  1.00  0.00    -0.000 C 
BRANCH  24  25
ATOM     25  C   UNL     1     -17.550  -6.330  14.012  1.00  0.00    -0.003 C 
ATOM     26  C   UNL     1     -16.776  -5.308  13.181  1.00  0.00     0.004 C 
ENDBRANCH  24  25
ENDBRANCH  23  24
ENDBRANCH  22  23
ENDBRANCH  21  22
ENDBRANCH  20  21
ENDBRANCH  19  20
ENDBRANCH  18  19
ENDBRANCH  17  18
ENDBRANCH  16  17
ENDBRANCH  15  16
ENDBRANCH   1  15
TORSDOF 22
ENDMDL
MODEL 6
REMARK VINA RESULT:    -4.624      1.532      3.881
REMARK INTER + INTRA:         -13.837
REMARK INTER:                 -10.753
REMARK INTRA:                  -3.084
REMARK UNBOUND:                -3.265
REMARK SMILES CCCCCCCCCCCCCCCCCCCCCCCC(=O)[O-]
REMARK SMILES IDX 13 1 14 2 15 3 16 4 17 5 18 6 19 7 20 8 21 9 22 10 23 11
REMARK SMILES IDX 24 12 25 13 26 14 12 15 11 16 10 17 9 18 8 19 7 20 6 21 5 22
REMARK SMILES IDX 4 23 3 24 2 25 1 26
REMARK H PARENT
REMARK Flexibility Score: inf
ROOT
ATOM      1  C   UNL     1     -23.690  -8.005  17.467  1.00  0.00     0.000 C 
ENDROOT
BRANCH   1   2
ATOM      2  C   UNL     1     -23.160  -6.825  18.298  1.00  0.00     0.000 C 
BRANCH   2   3
ATOM      3  C   UNL     1     -21.740  -6.390  17.885  1.00  0.00     0.000 C 
BRANCH   3   4
ATOM      4  C   UNL     1     -21.674  -5.174  16.941  1.00  0.00     0.000 C 
BRANCH   4   5
ATOM      5  C   UNL     1     -20.928  -5.475  15.630  1.00  0.00     0.000 C 
BRANCH   5   6
ATOM      6  C   UNL     1     -21.574  -6.615  14.821  1.00  0.00     0.000 C 
BRANCH   6   7
ATOM      7  C   UNL     1     -20.644  -7.802  14.501  1.00  0.00     0.000 C 
BRANCH   7   8
ATOM      8  C   UNL     1     -19.151  -7.560  14.799  1.00  0.00     0.000 C 
BRANCH   8   9
ATOM      9  C   UNL     1     -18.588  -8.353  15.994  1.00  0.00     0.000 C 
BRANCH   9  10
ATOM     10  C   UNL     1     -19.648  -8.984  16.914  1.00  0.00     0.006 C 
BRANCH  10  11
ATOM     11  C   UNL     1     -19.181  -9.103  18.371  1.00  0.00     0.053 C 
BRANCH  11  12
ATOM     12  C   UNL     1     -17.998 -10.013  18.465  1.00  0.00     0.041 C 
ATOM     13  O   UNL     1     -16.859  -9.548  18.736  1.00  0.00    -0.550 OA
ATOM     14  O   UNL     1     -18.162 -11.383  18.311  1.00  0.00    -0.550 OA
ENDBRANCH  11  12
ENDBRANCH  10  11
ENDBRANCH   9  10
ENDBRANCH   8   9
ENDBRANCH   7   8
ENDBRANCH   6   7
ENDBRANCH   5   6
ENDBRANCH   4   5
ENDBRANCH   3   4
ENDBRANCH   2   3
ENDBRANCH   1   2
BRANCH   1  15
ATOM     15  C   UNL     1     -25.108  -8.443  17.878  1.00  0.00     0.000 C 
BRANCH  15  16
ATOM     16  C   UNL     1     -26.229  -8.049  16.896  1.00  0.00     0.000 C 
BRANCH  16  17
ATOM     17  C   UNL     1     -25.799  -7.128  15.737  1.00  0.00     0.000 C 
BRANCH  17  18
ATOM     18  C   UNL     1     -26.876  -6.135  15.260  1.00  0.00    -0.000 C 
BRANCH  18  19
ATOM     19  C   UNL     1     -27.910  -5.807  16.351  1.00  0.00    -0.000 C 
BRANCH  19  20
ATOM     20  C   UNL     1     -27.931  -4.311  16.708  1.00  0.00    -0.000 C 
BRANCH  20  21
ATOM     21  C   UNL     1     -27.837  -4.065  18.224  1.00  0.00    -0.000 C 
BRANCH  21  22
ATOM     22  C   UNL     1     -27.505  -5.344  19.015  1.00  0.00    -0.000 C 
BRANCH  22  23
ATOM     23  C   UNL     1     -26.108  -5.365  19.665  1.00  0.00    -0.000 C 
BRANCH  23  24
ATOM     24  C   UNL     1     -26.102  -5.523  21.199  1.00  0.00    -0.000 C 
BRANCH  24  25
ATOM     25  C   UNL     1     -27.199  -4.732  21.935  1.00  0.00    -0.003 C 
ATOM     26  C   UNL     1     -26.871  -3.246  22.072  1.00  0.00     0.004 C 
ENDBRANCH  24  25
ENDBRANCH  23  24
ENDBRANCH  22  23
ENDBRANCH  21  22
ENDBRANCH  20  21
ENDBRANCH  19  20
ENDBRANCH  18  19
ENDBRANCH  17  18
ENDBRANCH  16  17
ENDBRANCH  15  16
ENDBRANCH   1  15
TORSDOF 22
ENDMDL
MODEL 7
REMARK VINA RESULT:    -4.437      2.098      4.685
REMARK INTER + INTRA:         -13.408
REMARK INTER:                 -11.063
REMARK INTRA:                  -2.345
REMARK UNBOUND:                -3.265
REMARK SMILES CCCCCCCCCCCCCCCCCCCCCCCC(=O)[O-]
REMARK SMILES IDX 13 1 14 2 15 3 16 4 17 5 18 6 19 7 20 8 21 9 22 10 23 11
REMARK SMILES IDX 24 12 25 13 26 14 12 15 11 16 10 17 9 18 8 19 7 20 6 21 5 22
REMARK SMILES IDX 4 23 3 24 2 25 1 26
REMARK H PARENT
REMARK Flexibility Score: inf
ROOT
ATOM      1  C   UNL     1     -22.400  -7.501  18.219  1.00  0.00     0.000 C 
ENDROOT
BRANCH   1   2
ATOM      2  C   UNL     1     -22.396  -6.028  17.778  1.00  0.00     0.000 C 
BRANCH   2   3
ATOM      3  C   UNL     1     -22.023  -5.848  16.293  1.00  0.00     0.000 C 
BRANCH   3   4
ATOM      4  C   UNL     1     -20.879  -4.854  16.019  1.00  0.00     0.000 C 
BRANCH   4   5
ATOM      5  C   UNL     1     -20.168  -5.113  14.680  1.00  0.00     0.000 C 
BRANCH   5   6
ATOM      6  C   UNL     1     -18.657  -5.359  14.842  1.00  0.00     0.000 C 
BRANCH   6   7
ATOM      7  C   UNL     1     -18.110  -6.595  14.100  1.00  0.00     0.000 C 
BRANCH   7   8
ATOM      8  C   UNL     1     -19.034  -7.829  14.117  1.00  0.00     0.000 C 
BRANCH   8   9
ATOM      9  C   UNL     1     -19.512  -8.266  15.515  1.00  0.00     0.000 C 
BRANCH   9  10
ATOM     10  C   UNL     1     -18.390  -8.515  16.539  1.00  0.00     0.006 C 
BRANCH  10  11
ATOM     11  C   UNL     1     -18.897  -9.153  17.838  1.00  0.00     0.053 C 
BRANCH  11  12
ATOM     12  C   UNL     1     -17.797  -9.912  18.510  1.00  0.00     0.041 C 
ATOM     13  O   UNL     1     -16.694  -9.354  18.747  1.00  0.00    -0.550 OA
ATOM     14  O   UNL     1     -18.011 -11.219  18.927  1.00  0.00    -0.550 OA
ENDBRANCH  11  12
ENDBRANCH  10  11
ENDBRANCH   9  10
ENDBRANCH   8   9
ENDBRANCH   7   8
ENDBRANCH   6   7
ENDBRANCH   5   6
ENDBRANCH   4   5
ENDBRANCH   3   4
ENDBRANCH   2   3
ENDBRANCH   1   2
BRANCH   1  15
ATOM     15  C   UNL     1     -22.721  -8.474  17.069  1.00  0.00     0.000 C 
BRANCH  15  16
ATOM     16  C   UNL     1     -23.981  -9.340  17.272  1.00  0.00     0.000 C 
BRANCH  16  17
ATOM     17  C   UNL     1     -25.285  -8.560  17.531  1.00  0.00     0.000 C 
BRANCH  17  18
ATOM     18  C   UNL     1     -25.591  -7.446  16.512  1.00  0.00    -0.000 C 
BRANCH  18  19
ATOM     19  C   UNL     1     -26.299  -6.237  17.147  1.00  0.00    -0.000 C 
BRANCH  19  20
ATOM     20  C   UNL     1     -25.938  -6.058  18.631  1.00  0.00    -0.000 C 
BRANCH  20  21
ATOM     21  C   UNL     1     -27.089  -5.447  19.449  1.00  0.00    -0.000 C 
BRANCH  21  22
ATOM     22  C   UNL     1     -26.597  -4.692  20.697  1.00  0.00    -0.000 C 
BRANCH  22  23
ATOM     23  C   UNL     1     -27.621  -3.723  21.320  1.00  0.00    -0.000 C 
BRANCH  23  24
ATOM     24  C   UNL     1     -27.082  -2.855  22.475  1.00  0.00    -0.000 C 
BRANCH  24  25
ATOM     25  C   UNL     1     -25.740  -3.325  23.066  1.00  0.00    -0.003 C 
ATOM     26  C   UNL     1     -25.513  -2.832  24.494  1.00  0.00     0.004 C 
ENDBRANCH  24  25
ENDBRANCH  23  24
ENDBRANCH  22  23
ENDBRANCH  21  22
ENDBRANCH  20  21
ENDBRANCH  19  20
ENDBRANCH  18  19
ENDBRANCH  17  18
ENDBRANCH  16  17
ENDBRANCH  15  16
ENDBRANCH   1  15
TORSDOF 22
ENDMDL
MODEL 8
REMARK VINA RESULT:    -4.408      2.876      6.958
REMARK INTER + INTRA:         -13.342
REMARK INTER:                 -10.627
REMARK INTRA:                  -2.714
REMARK UNBOUND:                -3.265
REMARK SMILES CCCCCCCCCCCCCCCCCCCCCCCC(=O)[O-]
REMARK SMILES IDX 13 1 14 2 15 3 16 4 17 5 18 6 19 7 20 8 21 9 22 10 23 11
REMARK SMILES IDX 24 12 25 13 26 14 12 15 11 16 10 17 9 18 8 19 7 20 6 21 5 22
REMARK SMILES IDX 4 23 3 24 2 25 1 26
REMARK H PARENT
REMARK Flexibility Score: inf
ROOT
ATOM      1  C   UNL     1     -23.593  -8.246  17.871  1.00  0.00     0.000 C 
ENDROOT
BRANCH   1   2
ATOM      2  C   UNL     1     -23.861  -9.282  16.768  1.00  0.00     0.000 C 
BRANCH   2   3
ATOM      3  C   UNL     1     -23.094  -8.983  15.465  1.00  0.00     0.000 C 
BRANCH   3   4
ATOM      4  C   UNL     1     -23.632  -7.796  14.643  1.00  0.00     0.000 C 
BRANCH   4   5
ATOM      5  C   UNL     1     -24.953  -7.235  15.197  1.00  0.00     0.000 C 
BRANCH   5   6
ATOM      6  C   UNL     1     -26.030  -7.058  14.111  1.00  0.00     0.000 C 
BRANCH   6   7
ATOM      7  C   UNL     1     -27.202  -6.132  14.493  1.00  0.00     0.000 C 
BRANCH   7   8
ATOM      8  C   UNL     1     -27.734  -6.310  15.928  1.00  0.00     0.000 C 
BRANCH   8   9
ATOM      9  C   UNL     1     -27.738  -5.029  16.786  1.00  0.00     0.000 C 
BRANCH   9  10
ATOM     10  C   UNL     1     -27.630  -5.261  18.303  1.00  0.00     0.006 C 
BRANCH  10  11
ATOM     11  C   UNL     1     -26.230  -5.707  18.741  1.00  0.00     0.053 C 
BRANCH  11  12
ATOM     12  C   UNL     1     -26.035  -5.452  20.202  1.00  0.00     0.041 C 
ATOM     13  O   UNL     1     -26.666  -4.525  20.774  1.00  0.00    -0.550 OA
ATOM     14  O   UNL     1     -25.199  -6.275  20.945  1.00  0.00    -0.550 OA
ENDBRANCH  11  12
ENDBRANCH  10  11
ENDBRANCH   9  10
ENDBRANCH   8   9
ENDBRANCH   7   8
ENDBRANCH   6   7
ENDBRANCH   5   6
ENDBRANCH   4   5
ENDBRANCH   3   4
ENDBRANCH   2   3
ENDBRANCH   1   2
BRANCH   1  15
ATOM     15  C   UNL     1     -22.108  -7.854  17.982  1.00  0.00     0.000 C 
BRANCH  15  16
ATOM     16  C   UNL     1     -21.835  -6.349  18.171  1.00  0.00     0.000 C 
BRANCH  16  17
ATOM     17  C   UNL     1     -22.104  -5.469  16.934  1.00  0.00     0.000 C 
BRANCH  17  18
ATOM     18  C   UNL     1     -20.851  -4.836  16.300  1.00  0.00    -0.000 C 
BRANCH  18  19
ATOM     19  C   UNL     1     -20.467  -5.490  14.961  1.00  0.00    -0.000 C 
BRANCH  19  20
ATOM     20  C   UNL     1     -18.971  -5.331  14.638  1.00  0.00    -0.000 C 
BRANCH  20  21
ATOM     21  C   UNL     1     -18.185  -6.640  14.828  1.00  0.00    -0.000 C 
BRANCH  21  22
ATOM     22  C   UNL     1     -19.062  -7.892  14.650  1.00  0.00    -0.000 C 
BRANCH  22  23
ATOM     23  C   UNL     1     -19.420  -8.630  15.955  1.00  0.00    -0.000 C 
BRANCH  23  24
ATOM     24  C   UNL     1     -18.324  -8.610  17.040  1.00  0.00    -0.000 C 
BRANCH  24  25
ATOM     25  C   UNL     1     -18.664  -9.399  18.317  1.00  0.00    -0.003 C 
ATOM     26  C   UNL     1     -17.675 -10.529  18.600  1.00  0.00     0.004 C 
ENDBRANCH  24  25
ENDBRANCH  23  24
ENDBRANCH  22  23
ENDBRANCH  21  22
ENDBRANCH  20  21
ENDBRANCH  19  20
ENDBRANCH  18  19
ENDBRANCH  17  18
ENDBRANCH  16  17
ENDBRANCH  15  16
ENDBRANCH   1  15
TORSDOF 22
ENDMDL
MODEL 9
REMARK VINA RESULT:    -4.311      2.195      5.854
REMARK INTER + INTRA:         -13.120
REMARK INTER:                  -9.776
REMARK INTRA:                  -3.344
REMARK UNBOUND:                -3.265
REMARK SMILES CCCCCCCCCCCCCCCCCCCCCCCC(=O)[O-]
REMARK SMILES IDX 13 1 14 2 15 3 16 4 17 5 18 6 19 7 20 8 21 9 22 10 23 11
REMARK SMILES IDX 24 12 25 13 26 14 12 15 11 16 10 17 9 18 8 19 7 20 6 21 5 22
REMARK SMILES IDX 4 23 3 24 2 25 1 26
REMARK H PARENT
REMARK Flexibility Score: inf
ROOT
ATOM      1  C   UNL     1     -25.088  -7.057  19.292  1.00  0.00     0.000 C 
ENDROOT
BRANCH   1   2
ATOM      2  C   UNL     1     -25.517  -5.614  19.601  1.00  0.00     0.000 C 
BRANCH   2   3
ATOM      3  C   UNL     1     -26.949  -5.299  19.128  1.00  0.00     0.000 C 
BRANCH   3   4
ATOM      4  C   UNL     1     -27.146  -5.273  17.600  1.00  0.00     0.000 C 
BRANCH   4   5
ATOM      5  C   UNL     1     -27.940  -6.483  17.079  1.00  0.00     0.000 C 
BRANCH   5   6
ATOM      6  C   UNL     1     -27.175  -7.286  16.011  1.00  0.00     0.000 C 
BRANCH   6   7
ATOM      7  C   UNL     1     -25.708  -6.862  15.796  1.00  0.00     0.000 C 
BRANCH   7   8
ATOM      8  C   UNL     1     -25.013  -7.509  14.582  1.00  0.00     0.000 C 
BRANCH   8   9
ATOM      9  C   UNL     1     -23.487  -7.678  14.719  1.00  0.00     0.000 C 
BRANCH   9  10
ATOM     10  C   UNL     1     -23.017  -9.102  15.062  1.00  0.00     0.006 C 
BRANCH  10  11
ATOM     11  C   UNL     1     -23.064  -9.401  16.566  1.00  0.00     0.053 C 
BRANCH  11  12
ATOM     12  C   UNL     1     -24.210 -10.309  16.882  1.00  0.00     0.041 C 
ATOM     13  O   UNL     1     -24.171 -11.521  16.545  1.00  0.00    -0.550 OA
ATOM     14  O   UNL     1     -25.297  -9.830  17.601  1.00  0.00    -0.550 OA
ENDBRANCH  11  12
ENDBRANCH  10  11
ENDBRANCH   9  10
ENDBRANCH   8   9
ENDBRANCH   7   8
ENDBRANCH   6   7
ENDBRANCH   5   6
ENDBRANCH   4   5
ENDBRANCH   3   4
ENDBRANCH   2   3
ENDBRANCH   1   2
BRANCH   1  15
ATOM     15  C   UNL     1     -23.646  -7.157  18.763  1.00  0.00     0.000 C 
BRANCH  15  16
ATOM     16  C   UNL     1     -23.149  -5.933  17.968  1.00  0.00     0.000 C 
BRANCH  16  17
ATOM     17  C   UNL     1     -21.717  -6.046  17.408  1.00  0.00     0.000 C 
BRANCH  17  18
ATOM     18  C   UNL     1     -21.190  -4.780  16.706  1.00  0.00    -0.000 C 
BRANCH  18  19
ATOM     19  C   UNL     1     -21.080  -4.947  15.181  1.00  0.00    -0.000 C 
BRANCH  19  20
ATOM     20  C   UNL     1     -20.473  -6.302  14.781  1.00  0.00    -0.000 C 
BRANCH  20  21
ATOM     21  C   UNL     1     -18.935  -6.291  14.810  1.00  0.00    -0.000 C 
BRANCH  21  22
ATOM     22  C   UNL     1     -18.345  -7.477  15.592  1.00  0.00    -0.000 C 
BRANCH  22  23
ATOM     23  C   UNL     1     -19.357  -8.575  15.977  1.00  0.00    -0.000 C 
BRANCH  23  24
ATOM     24  C   UNL     1     -19.385  -8.944  17.474  1.00  0.00    -0.000 C 
BRANCH  24  25
ATOM     25  C   UNL     1     -18.019  -9.326  18.071  1.00  0.00    -0.003 C 
ATOM     26  C   UNL     1     -17.995 -10.742  18.645  1.00  0.00     0.004 C 
ENDBRANCH  24  25
ENDBRANCH  23  24
ENDBRANCH  22  23
ENDBRANCH  21  22
ENDBRANCH  20  21
ENDBRANCH  19  20
ENDBRANCH  18  19
ENDBRANCH  17  18
ENDBRANCH  16  17
ENDBRANCH  15  16
ENDBRANCH   1  15
TORSDOF 22
ENDMDL
