MODEL 1
REMARK VINA RESULT:    -3.808      0.000      0.000
REMARK INTER + INTRA:          -4.792
REMARK INTER:                  -4.476
REMARK INTRA:                  -0.317
REMARK UNBOUND:                -0.317
REMARK SMILES O=c1cc(-c2ccc(O)c(O)c2)oc2cc(O)cc(O)c12
REMARK SMILES IDX 4 1 3 2 2 3 1 4 21 5 19 6 18 7 16 8 15 9 14 10 13 11 5 12
REMARK SMILES IDX 6 13 7 14 8 15 12 16 10 17 9 18 11 20 20 22 17 24
REMARK H PARENT 9 19 11 21 20 23 17 25
REMARK Flexibility Score: inf
ROOT
ATOM      1  C   UNL     1      31.022  65.280  20.279  1.00  0.00     0.138 A 
ATOM      2  C   UNL     1      31.945  64.846  19.316  1.00  0.00     0.100 A 
ATOM      3  C   UNL     1      31.544  64.711  17.987  1.00  0.00     0.197 A 
ATOM      4  O   UNL     1      32.410  64.380  17.135  1.00  0.00    -0.289 OA
ATOM      5  C   UNL     1      30.202  64.981  17.625  1.00  0.00     0.107 A 
ATOM      6  C   UNL     1      29.670  64.837  16.310  1.00  0.00     0.134 A 
ATOM      7  C   UNL     1      28.356  65.246  16.048  1.00  0.00     0.093 A 
ATOM      8  C   UNL     1      27.537  65.736  17.068  1.00  0.00     0.123 A 
ATOM      9  C   UNL     1      28.030  65.829  18.367  1.00  0.00     0.094 A 
ATOM     10  C   UNL     1      29.347  65.461  18.653  1.00  0.00     0.146 A 
ATOM     11  O   UNL     1      29.783  65.579  19.904  1.00  0.00    -0.456 OA
ENDROOT
BRANCH   1  12
ATOM     12  C   UNL     1      31.396  65.440  21.706  1.00  0.00     0.021 A 
ATOM     13  C   UNL     1      32.747  65.357  22.079  1.00  0.00     0.016 A 
ATOM     14  C   UNL     1      33.125  65.511  23.414  1.00  0.00     0.051 A 
ATOM     15  C   UNL     1      32.169  65.760  24.404  1.00  0.00     0.157 A 
ATOM     16  C   UNL     1      30.434  65.704  22.699  1.00  0.00     0.062 A 
ATOM     17  C   UNL     1      30.806  65.863  24.040  1.00  0.00     0.158 A 
BRANCH  15  18
ATOM     18  O   UNL     1      32.612  65.897  25.720  1.00  0.00    -0.504 OA
ATOM     19  H   UNL     1      32.530  65.177  26.422  1.00  0.00     0.293 HD
ENDBRANCH  15  18
BRANCH  17  20
ATOM     20  O   UNL     1      29.796  66.125  24.969  1.00  0.00    -0.504 OA
ATOM     21  H   UNL     1      29.327  65.412  25.509  1.00  0.00     0.293 HD
ENDBRANCH  17  20
ENDBRANCH   1  12
BRANCH   6  22
ATOM     22  O   UNL     1      30.375  64.281  15.238  1.00  0.00    -0.507 OA
ATOM     23  H   UNL     1      30.008  64.164  14.306  1.00  0.00     0.293 HD
ENDBRANCH   6  22
BRANCH   8  24
ATOM     24  O   UNL     1      26.226  66.125  16.802  1.00  0.00    -0.508 OA
ATOM     25  H   UNL     1      25.591  66.390  17.545  1.00  0.00     0.293 HD
ENDBRANCH   8  24
TORSDOF 5
ENDMDL
MODEL 2
REMARK VINA RESULT:    -2.885     12.758     17.935
REMARK INTER + INTRA:          -3.708
REMARK INTER:                  -3.390
REMARK INTRA:                  -0.318
REMARK UNBOUND:                -0.317
REMARK SMILES O=c1cc(-c2ccc(O)c(O)c2)oc2cc(O)cc(O)c12
REMARK SMILES IDX 4 1 3 2 2 3 1 4 21 5 19 6 18 7 16 8 15 9 14 10 13 11 5 12
REMARK SMILES IDX 6 13 7 14 8 15 12 16 10 17 9 18 11 20 20 22 17 24
REMARK H PARENT 9 19 11 21 20 23 17 25
REMARK Flexibility Score: inf
ROOT
ATOM      1  C   UNL     1      15.021  65.691  12.854  1.00  0.00     0.138 A 
ATOM      2  C   UNL     1      14.074  65.487  13.868  1.00  0.00     0.100 A 
ATOM      3  C   UNL     1      14.493  65.400  15.196  1.00  0.00     0.197 A 
ATOM      4  O   UNL     1      13.615  65.279  16.090  1.00  0.00    -0.289 OA
ATOM      5  C   UNL     1      15.871  65.485  15.507  1.00  0.00     0.107 A 
ATOM      6  C   UNL     1      16.417  65.368  16.819  1.00  0.00     0.134 A 
ATOM      7  C   UNL     1      17.787  65.586  17.019  1.00  0.00     0.093 A 
ATOM      8  C   UNL     1      18.638  65.856  15.945  1.00  0.00     0.123 A 
ATOM      9  C   UNL     1      18.122  65.918  14.653  1.00  0.00     0.094 A 
ATOM     10  C   UNL     1      16.756  65.739  14.425  1.00  0.00     0.146 A 
ATOM     11  O   UNL     1      16.303  65.821  13.178  1.00  0.00    -0.456 OA
ENDROOT
BRANCH   1  12
ATOM     12  C   UNL     1      14.630  65.790  11.426  1.00  0.00     0.021 A 
ATOM     13  C   UNL     1      13.269  65.799  11.082  1.00  0.00     0.016 A 
ATOM     14  C   UNL     1      12.875  65.899   9.747  1.00  0.00     0.051 A 
ATOM     15  C   UNL     1      13.826  66.001   8.727  1.00  0.00     0.157 A 
ATOM     16  C   UNL     1      15.588  65.907  10.402  1.00  0.00     0.062 A 
ATOM     17  C   UNL     1      15.201  66.010   9.060  1.00  0.00     0.158 A 
BRANCH  15  18
ATOM     18  O   UNL     1      13.366  66.091   7.411  1.00  0.00    -0.504 OA
ATOM     19  H   UNL     1      13.961  66.270   6.616  1.00  0.00     0.293 HD
ENDBRANCH  15  18
BRANCH  17  20
ATOM     20  O   UNL     1      16.208  66.125   8.098  1.00  0.00    -0.504 OA
ATOM     21  H   UNL     1      16.059  66.001   7.107  1.00  0.00     0.293 HD
ENDBRANCH  17  20
ENDBRANCH   1  12
BRANCH   6  22
ATOM     22  O   UNL     1      15.670  65.018  17.949  1.00  0.00    -0.507 OA
ATOM     23  H   UNL     1      15.672  65.526  18.820  1.00  0.00     0.293 HD
ENDBRANCH   6  22
BRANCH   8  24
ATOM     24  O   UNL     1      20.000  66.056  16.151  1.00  0.00    -0.508 OA
ATOM     25  H   UNL     1      20.692  65.723  15.488  1.00  0.00     0.293 HD
ENDBRANCH   8  24
TORSDOF 5
ENDMDL
MODEL 3
REMARK VINA RESULT:    -1.024      2.763      7.590
REMARK INTER + INTRA:          -1.520
REMARK INTER:                  -1.251
REMARK INTRA:                  -0.269
REMARK UNBOUND:                -0.317
REMARK SMILES O=c1cc(-c2ccc(O)c(O)c2)oc2cc(O)cc(O)c12
REMARK SMILES IDX 4 1 3 2 2 3 1 4 21 5 19 6 18 7 16 8 15 9 14 10 13 11 5 12
REMARK SMILES IDX 6 13 7 14 8 15 12 16 10 17 9 18 11 20 20 22 17 24
REMARK H PARENT 9 19 11 21 20 23 17 25
REMARK Flexibility Score: inf
ROOT
ATOM      1  C   UNL     1      32.445  63.697  19.562  1.00  0.00     0.138 A 
ATOM      2  C   UNL     1      32.612  64.941  20.187  1.00  0.00     0.100 A 
ATOM      3  C   UNL     1      32.826  64.999  21.565  1.00  0.00     0.197 A 
ATOM      4  O   UNL     1      33.034  66.125  22.088  1.00  0.00    -0.289 OA
ATOM      5  C   UNL     1      32.842  63.805  22.325  1.00  0.00     0.107 A 
ATOM      6  C   UNL     1      33.010  63.745  23.740  1.00  0.00     0.134 A 
ATOM      7  C   UNL     1      33.125  62.498  24.369  1.00  0.00     0.093 A 
ATOM      8  C   UNL     1      33.017  61.311  23.641  1.00  0.00     0.123 A 
ATOM      9  C   UNL     1      32.798  61.359  22.267  1.00  0.00     0.094 A 
ATOM     10  C   UNL     1      32.713  62.587  21.605  1.00  0.00     0.146 A 
ATOM     11  O   UNL     1      32.518  62.588  20.290  1.00  0.00    -0.456 OA
ENDROOT
BRANCH   1  12
ATOM     12  C   UNL     1      32.214  63.580  18.100  1.00  0.00     0.021 A 
ATOM     13  C   UNL     1      33.108  62.833  17.318  1.00  0.00     0.016 A 
ATOM     14  C   UNL     1      32.908  62.701  15.943  1.00  0.00     0.051 A 
ATOM     15  C   UNL     1      31.810  63.302  15.319  1.00  0.00     0.157 A 
ATOM     16  C   UNL     1      31.100  64.173  17.477  1.00  0.00     0.062 A 
ATOM     17  C   UNL     1      30.891  64.043  16.099  1.00  0.00     0.158 A 
BRANCH  15  18
ATOM     18  O   UNL     1      31.671  63.137  13.940  1.00  0.00    -0.504 OA
ATOM     19  H   UNL     1      30.846  63.397  13.420  1.00  0.00     0.293 HD
ENDBRANCH  15  18
BRANCH  17  20
ATOM     20  O   UNL     1      29.763  64.658  15.549  1.00  0.00    -0.504 OA
ATOM     21  H   UNL     1      29.227  64.275  14.784  1.00  0.00     0.293 HD
ENDBRANCH  17  20
ENDBRANCH   1  12
BRANCH   6  22
ATOM     22  O   UNL     1      33.045  64.869  24.571  1.00  0.00    -0.507 OA
ATOM     23  H   UNL     1      33.491  65.743  24.339  1.00  0.00     0.293 HD
ENDBRANCH   6  22
BRANCH   8  24
ATOM     24  O   UNL     1      33.117  60.076  24.278  1.00  0.00    -0.508 OA
ATOM     25  H   UNL     1      33.515  59.989  25.205  1.00  0.00     0.293 HD
ENDBRANCH   8  24
TORSDOF 5
ENDMDL
