MODEL 1
REMARK VINA RESULT:     5.970      0.000      0.000
REMARK INTER + INTRA:           6.689
REMARK INTER:                   6.843
REMARK INTRA:                  -0.154
REMARK UNBOUND:                -0.154
REMARK SMILES O=C([O-])C=Cc1ccc(O)cc1
REMARK SMILES IDX 6 1 7 2 12 3 8 4 11 5 9 6 5 7 4 8 2 9 1 10 3 11 10 12
REMARK H PARENT 10 13
REMARK Flexibility Score: inf
ROOT
ATOM      1  C   UNL     1     -31.260  40.885 -24.889  1.00  0.00    -0.025 A 
ATOM      2  C   UNL     1     -32.000  41.102 -23.715  1.00  0.00     0.012 A 
ATOM      3  C   UNL     1     -31.952  40.642 -26.094  1.00  0.00     0.012 A 
ATOM      4  C   UNL     1     -33.397  41.056 -23.735  1.00  0.00     0.047 A 
ATOM      5  C   UNL     1     -33.349  40.598 -26.110  1.00  0.00     0.047 A 
ATOM      6  C   UNL     1     -34.075  40.801 -24.930  1.00  0.00     0.115 A 
ENDROOT
BRANCH   1   7
ATOM      7  C   UNL     1     -29.779  40.954 -24.818  1.00  0.00     0.010 C 
ATOM      8  C   UNL     1     -29.089  40.998 -23.669  1.00  0.00     0.025 C 
BRANCH   8   9
ATOM      9  C   UNL     1     -27.620  41.077 -23.648  1.00  0.00     0.064 C 
ATOM     10  O   UNL     1     -26.985  41.111 -24.734  1.00  0.00    -0.545 OA
ATOM     11  O   UNL     1     -26.920  41.118 -22.448  1.00  0.00    -0.545 OA
ENDBRANCH   8   9
ENDBRANCH   1   7
BRANCH   6  12
ATOM     12  O   UNL     1     -35.468  40.758 -24.935  1.00  0.00    -0.508 OA
ATOM     13  H   UNL     1     -35.976  40.029 -24.446  1.00  0.00     0.293 HD
ENDBRANCH   6  12
TORSDOF 3
ENDMDL
