MODEL 1
REMARK VINA RESULT:    -6.813      0.000      0.000
REMARK INTER + INTRA:          -8.117
REMARK INTER:                  -8.207
REMARK INTRA:                   0.090
REMARK UNBOUND:                 0.090
REMARK SMILES O=c1c(O)c(-c2ccc(O)c(O)c2)oc2cc(O)cc(O)c12
REMARK SMILES IDX 5 1 3 2 2 3 1 4 22 5 20 6 19 7 17 8 16 9 15 10 14 11 6 12
REMARK SMILES IDX 7 13 8 14 9 15 13 16 11 17 10 18 12 20 4 22 21 24 18 26
REMARK H PARENT 10 19 12 21 4 23 21 25 18 27
REMARK Flexibility Score: inf
ROOT
ATOM      1  C   UNL     1     116.849 116.853  99.857  1.00  0.00     0.180 A 
ATOM      2  C   UNL     1     116.441 116.889  98.511  1.00  0.00     0.208 A 
ATOM      3  C   UNL     1     115.480 115.967  98.066  1.00  0.00     0.238 A 
ATOM      4  O   UNL     1     115.079 116.040  96.875  1.00  0.00    -0.285 OA
ATOM      5  C   UNL     1     114.952 115.009  98.964  1.00  0.00     0.111 A 
ATOM      6  C   UNL     1     114.004 114.002  98.612  1.00  0.00     0.134 A 
ATOM      7  C   UNL     1     113.452 113.193  99.612  1.00  0.00     0.093 A 
ATOM      8  C   UNL     1     113.863 113.310 100.942  1.00  0.00     0.123 A 
ATOM      9  C   UNL     1     114.832 114.250 101.287  1.00  0.00     0.094 A 
ATOM     10  C   UNL     1     115.374 115.096 100.317  1.00  0.00     0.146 A 
ATOM     11  O   UNL     1     116.286 115.985 100.691  1.00  0.00    -0.452 OA
ENDROOT
BRANCH   1  12
ATOM     12  C   UNL     1     117.874 117.775 100.394  1.00  0.00     0.025 A 
ATOM     13  C   UNL     1     117.672 118.477 101.595  1.00  0.00     0.016 A 
ATOM     14  C   UNL     1     118.644 119.360 102.070  1.00  0.00     0.051 A 
ATOM     15  C   UNL     1     119.825 119.567 101.346  1.00  0.00     0.157 A 
ATOM     16  C   UNL     1     119.052 118.003  99.661  1.00  0.00     0.062 A 
ATOM     17  C   UNL     1     120.028 118.888 100.137  1.00  0.00     0.158 A 
BRANCH  15  18
ATOM     18  O   UNL     1     120.798 120.446 101.817  1.00  0.00    -0.504 OA
ATOM     19  H   UNL     1     121.783 120.207 101.797  1.00  0.00     0.293 HD
ENDBRANCH  15  18
BRANCH  17  20
ATOM     20  O   UNL     1     121.201 119.101  99.415  1.00  0.00    -0.504 OA
ATOM     21  H   UNL     1     121.503 118.458  98.692  1.00  0.00     0.293 HD
ENDBRANCH  17  20
ENDBRANCH   1  12
BRANCH   2  22
ATOM     22  O   UNL     1     116.960 117.856  97.646  1.00  0.00    -0.502 OA
ATOM     23  H   UNL     1     116.383 118.576  97.227  1.00  0.00     0.293 HD
ENDBRANCH   2  22
BRANCH   6  24
ATOM     24  O   UNL     1     113.596 113.741  97.301  1.00  0.00    -0.507 OA
ATOM     25  H   UNL     1     114.219 113.542  96.533  1.00  0.00     0.293 HD
ENDBRANCH   6  24
BRANCH   8  26
ATOM     26  O   UNL     1     113.320 112.489 101.929  1.00  0.00    -0.508 OA
ATOM     27  H   UNL     1     113.902 112.048 102.631  1.00  0.00     0.293 HD
ENDBRANCH   8  26
TORSDOF 6
ENDMDL
MODEL 2
REMARK VINA RESULT:    -6.421     13.260     15.746
REMARK INTER + INTRA:          -7.644
REMARK INTER:                  -7.356
REMARK INTRA:                  -0.288
REMARK UNBOUND:                 0.090
REMARK SMILES O=c1c(O)c(-c2ccc(O)c(O)c2)oc2cc(O)cc(O)c12
REMARK SMILES IDX 5 1 3 2 2 3 1 4 22 5 20 6 19 7 17 8 16 9 15 10 14 11 6 12
REMARK SMILES IDX 7 13 8 14 9 15 13 16 11 17 10 18 12 20 4 22 21 24 18 26
REMARK H PARENT 10 19 12 21 4 23 21 25 18 27
REMARK Flexibility Score: inf
ROOT
ATOM      1  C   UNL     1     108.331 112.553 110.646  1.00  0.00     0.180 A 
ATOM      2  C   UNL     1     109.676 112.924 110.476  1.00  0.00     0.208 A 
ATOM      3  C   UNL     1     110.200 113.963 111.262  1.00  0.00     0.238 A 
ATOM      4  O   UNL     1     111.420 114.253 111.144  1.00  0.00    -0.285 OA
ATOM      5  C   UNL     1     109.370 114.630 112.193  1.00  0.00     0.111 A 
ATOM      6  C   UNL     1     109.784 115.724 113.012  1.00  0.00     0.134 A 
ATOM      7  C   UNL     1     108.917 116.220 113.992  1.00  0.00     0.093 A 
ATOM      8  C   UNL     1     107.626 115.707 114.138  1.00  0.00     0.123 A 
ATOM      9  C   UNL     1     107.191 114.679 113.305  1.00  0.00     0.094 A 
ATOM     10  C   UNL     1     108.047 114.139 112.342  1.00  0.00     0.146 A 
ATOM     11  O   UNL     1     107.596 113.153 111.575  1.00  0.00    -0.452 OA
ENDROOT
BRANCH   1  12
ATOM     12  C   UNL     1     107.700 111.484 109.838  1.00  0.00     0.025 A 
ATOM     13  C   UNL     1     107.914 110.125 110.127  1.00  0.00     0.016 A 
ATOM     14  C   UNL     1     107.327 109.133 109.336  1.00  0.00     0.051 A 
ATOM     15  C   UNL     1     106.533 109.485 108.238  1.00  0.00     0.157 A 
ATOM     16  C   UNL     1     106.920 111.830 108.722  1.00  0.00     0.062 A 
ATOM     17  C   UNL     1     106.331 110.836 107.929  1.00  0.00     0.158 A 
BRANCH  15  18
ATOM     18  O   UNL     1     105.945 108.500 107.447  1.00  0.00    -0.504 OA
ATOM     19  H   UNL     1     106.398 107.607 107.289  1.00  0.00     0.293 HD
ENDBRANCH  15  18
BRANCH  17  20
ATOM     20  O   UNL     1     105.545 111.183 106.831  1.00  0.00    -0.504 OA
ATOM     21  H   UNL     1     105.738 112.012 106.281  1.00  0.00     0.293 HD
ENDBRANCH  17  20
ENDBRANCH   1  12
BRANCH   2  22
ATOM     22  O   UNL     1     110.484 112.238 109.565  1.00  0.00    -0.502 OA
ATOM     23  H   UNL     1     110.212 111.351 109.157  1.00  0.00     0.293 HD
ENDBRANCH   2  22
BRANCH   6  24
ATOM     24  O   UNL     1     111.017 116.369 112.885  1.00  0.00    -0.507 OA
ATOM     25  H   UNL     1     111.414 116.686 112.013  1.00  0.00     0.293 HD
ENDBRANCH   6  24
BRANCH   8  26
ATOM     26  O   UNL     1     106.763 116.218 115.106  1.00  0.00    -0.508 OA
ATOM     27  H   UNL     1     106.474 117.189 115.099  1.00  0.00     0.293 HD
ENDBRANCH   8  26
TORSDOF 6
ENDMDL
MODEL 3
REMARK VINA RESULT:    -6.297     10.262     12.475
REMARK INTER + INTRA:          -7.496
REMARK INTER:                  -7.208
REMARK INTRA:                  -0.288
REMARK UNBOUND:                 0.090
REMARK SMILES O=c1c(O)c(-c2ccc(O)c(O)c2)oc2cc(O)cc(O)c12
REMARK SMILES IDX 5 1 3 2 2 3 1 4 22 5 20 6 19 7 17 8 16 9 15 10 14 11 6 12
REMARK SMILES IDX 7 13 8 14 9 15 13 16 11 17 10 18 12 20 4 22 21 24 18 26
REMARK H PARENT 10 19 12 21 4 23 21 25 18 27
REMARK Flexibility Score: inf
ROOT
ATOM      1  C   UNL     1     114.465 114.809 110.711  1.00  0.00     0.180 A 
ATOM      2  C   UNL     1     114.090 113.462 110.559  1.00  0.00     0.208 A 
ATOM      3  C   UNL     1     114.709 112.489 111.360  1.00  0.00     0.238 A 
ATOM      4  O   UNL     1     114.330 111.292 111.258  1.00  0.00    -0.285 OA
ATOM      5  C   UNL     1     115.706 112.869 112.289  1.00  0.00     0.111 A 
ATOM      6  C   UNL     1     116.427 111.962 113.122  1.00  0.00     0.134 A 
ATOM      7  C   UNL     1     117.297 112.464 114.098  1.00  0.00     0.093 A 
ATOM      8  C   UNL     1     117.522 113.837 114.225  1.00  0.00     0.123 A 
ATOM      9  C   UNL     1     116.868 114.727 113.377  1.00  0.00     0.094 A 
ATOM     10  C   UNL     1     115.966 114.259 112.418  1.00  0.00     0.146 A 
ATOM     11  O   UNL     1     115.356 115.142 111.638  1.00  0.00    -0.452 OA
ENDROOT
BRANCH   1  12
ATOM     12  C   UNL     1     113.876 115.888 109.886  1.00  0.00     0.025 A 
ATOM     13  C   UNL     1     112.600 116.409 110.164  1.00  0.00     0.016 A 
ATOM     14  C   UNL     1     112.054 117.411 109.358  1.00  0.00     0.051 A 
ATOM     15  C   UNL     1     112.769 117.896 108.255  1.00  0.00     0.157 A 
ATOM     16  C   UNL     1     114.578 116.364 108.766  1.00  0.00     0.062 A 
ATOM     17  C   UNL     1     114.032 117.370 107.957  1.00  0.00     0.158 A 
BRANCH  15  18
ATOM     18  O   UNL     1     112.229 118.896 107.449  1.00  0.00    -0.504 OA
ATOM     19  H   UNL     1     112.611 119.835 107.441  1.00  0.00     0.293 HD
ENDBRANCH  15  18
BRANCH  17  20
ATOM     20  O   UNL     1     114.737 117.850 106.855  1.00  0.00    -0.504 OA
ATOM     21  H   UNL     1     115.733 117.694 106.754  1.00  0.00     0.293 HD
ENDBRANCH  17  20
ENDBRANCH   1  12
BRANCH   2  22
ATOM     22  O   UNL     1     113.088 113.110 109.650  1.00  0.00    -0.502 OA
ATOM     23  H   UNL     1     112.562 113.800 109.127  1.00  0.00     0.293 HD
ENDBRANCH   2  22
BRANCH   6  24
ATOM     24  O   UNL     1     116.345 110.571 113.014  1.00  0.00    -0.507 OA
ATOM     25  H   UNL     1     115.822 110.079 112.306  1.00  0.00     0.293 HD
ENDBRANCH   6  24
BRANCH   8  26
ATOM     26  O   UNL     1     118.402 114.326 115.188  1.00  0.00    -0.508 OA
ATOM     27  H   UNL     1     118.164 115.121 115.770  1.00  0.00     0.293 HD
ENDBRANCH   8  26
TORSDOF 6
ENDMDL
MODEL 4
REMARK VINA RESULT:    -6.150      7.650      9.889
REMARK INTER + INTRA:          -7.318
REMARK INTER:                  -7.009
REMARK INTRA:                  -0.309
REMARK UNBOUND:                 0.090
REMARK SMILES O=c1c(O)c(-c2ccc(O)c(O)c2)oc2cc(O)cc(O)c12
REMARK SMILES IDX 5 1 3 2 2 3 1 4 22 5 20 6 19 7 17 8 16 9 15 10 14 11 6 12
REMARK SMILES IDX 7 13 8 14 9 15 13 16 11 17 10 18 12 20 4 22 21 24 18 26
REMARK H PARENT 10 19 12 21 4 23 21 25 18 27
REMARK Flexibility Score: inf
ROOT
ATOM      1  C   UNL     1     114.476 113.133 106.761  1.00  0.00     0.180 A 
ATOM      2  C   UNL     1     113.100 113.168 106.474  1.00  0.00     0.208 A 
ATOM      3  C   UNL     1     112.453 114.412 106.391  1.00  0.00     0.238 A 
ATOM      4  O   UNL     1     111.234 114.439 106.079  1.00  0.00    -0.285 OA
ATOM      5  C   UNL     1     113.184 115.603 106.615  1.00  0.00     0.111 A 
ATOM      6  C   UNL     1     112.622 116.915 106.597  1.00  0.00     0.134 A 
ATOM      7  C   UNL     1     113.464 118.028 106.700  1.00  0.00     0.093 A 
ATOM      8  C   UNL     1     114.840 117.876 106.888  1.00  0.00     0.123 A 
ATOM      9  C   UNL     1     115.391 116.599 106.966  1.00  0.00     0.094 A 
ATOM     10  C   UNL     1     114.581 115.469 106.830  1.00  0.00     0.146 A 
ATOM     11  O   UNL     1     115.148 114.271 106.900  1.00  0.00    -0.452 OA
ENDROOT
BRANCH   1  12
ATOM     12  C   UNL     1     115.222 111.861 106.888  1.00  0.00     0.025 A 
ATOM     13  C   UNL     1     115.721 111.188 105.759  1.00  0.00     0.016 A 
ATOM     14  C   UNL     1     116.402 109.975 105.902  1.00  0.00     0.051 A 
ATOM     15  C   UNL     1     116.580 109.412 107.171  1.00  0.00     0.157 A 
ATOM     16  C   UNL     1     115.387 111.279 108.157  1.00  0.00     0.062 A 
ATOM     17  C   UNL     1     116.069 110.064 108.300  1.00  0.00     0.158 A 
BRANCH  15  18
ATOM     18  O   UNL     1     117.259 108.204 107.318  1.00  0.00    -0.504 OA
ATOM     19  H   UNL     1     118.225 108.100 107.027  1.00  0.00     0.293 HD
ENDBRANCH  15  18
BRANCH  17  20
ATOM     20  O   UNL     1     116.243 109.497 109.562  1.00  0.00    -0.504 OA
ATOM     21  H   UNL     1     115.469 109.390 110.207  1.00  0.00     0.293 HD
ENDBRANCH  17  20
ENDBRANCH   1  12
BRANCH   2  22
ATOM     22  O   UNL     1     112.403 111.981 106.235  1.00  0.00    -0.502 OA
ATOM     23  H   UNL     1     111.401 111.960 106.082  1.00  0.00     0.293 HD
ENDBRANCH   2  22
BRANCH   6  24
ATOM     24  O   UNL     1     111.252 117.174 106.507  1.00  0.00    -0.507 OA
ATOM     25  H   UNL     1     110.673 116.944 105.713  1.00  0.00     0.293 HD
ENDBRANCH   6  24
BRANCH   8  26
ATOM     26  O   UNL     1     115.669 118.990 107.006  1.00  0.00    -0.508 OA
ATOM     27  H   UNL     1     115.409 119.888 106.616  1.00  0.00     0.293 HD
ENDBRANCH   8  26
TORSDOF 6
ENDMDL
MODEL 5
REMARK VINA RESULT:    -6.146     10.905     12.589
REMARK INTER + INTRA:          -7.314
REMARK INTER:                  -6.992
REMARK INTRA:                  -0.322
REMARK UNBOUND:                 0.090
REMARK SMILES O=c1c(O)c(-c2ccc(O)c(O)c2)oc2cc(O)cc(O)c12
REMARK SMILES IDX 5 1 3 2 2 3 1 4 22 5 20 6 19 7 17 8 16 9 15 10 14 11 6 12
REMARK SMILES IDX 7 13 8 14 9 15 13 16 11 17 10 18 12 20 4 22 21 24 18 26
REMARK H PARENT 10 19 12 21 4 23 21 25 18 27
REMARK Flexibility Score: inf
ROOT
ATOM      1  C   UNL     1     111.270 109.012 106.978  1.00  0.00     0.180 A 
ATOM      2  C   UNL     1     111.111 110.362 106.617  1.00  0.00     0.208 A 
ATOM      3  C   UNL     1     109.818 110.907 106.573  1.00  0.00     0.238 A 
ATOM      4  O   UNL     1     109.686 112.129 106.303  1.00  0.00    -0.285 OA
ATOM      5  C   UNL     1     108.699 110.093 106.871  1.00  0.00     0.111 A 
ATOM      6  C   UNL     1     107.341 110.529 106.818  1.00  0.00     0.134 A 
ATOM      7  C   UNL     1     106.323 109.676 107.261  1.00  0.00     0.093 A 
ATOM      8  C   UNL     1     106.609 108.379 107.693  1.00  0.00     0.123 A 
ATOM      9  C   UNL     1     107.925 107.922 107.693  1.00  0.00     0.094 A 
ATOM     10  C   UNL     1     108.965 108.763 107.291  1.00  0.00     0.146 A 
ATOM     11  O   UNL     1     110.206 108.293 107.316  1.00  0.00    -0.452 OA
ENDROOT
BRANCH   1  12
ATOM     12  C   UNL     1     112.599 108.361 107.024  1.00  0.00     0.025 A 
ATOM     13  C   UNL     1     113.205 107.852 105.861  1.00  0.00     0.016 A 
ATOM     14  C   UNL     1     114.449 107.219 105.932  1.00  0.00     0.051 A 
ATOM     15  C   UNL     1     115.097 107.073 107.165  1.00  0.00     0.157 A 
ATOM     16  C   UNL     1     113.244 108.192 108.260  1.00  0.00     0.062 A 
ATOM     17  C   UNL     1     114.492 107.558 108.332  1.00  0.00     0.158 A 
BRANCH  15  18
ATOM     18  O   UNL     1     116.339 106.444 107.240  1.00  0.00    -0.504 OA
ATOM     19  H   UNL     1     117.088 106.817 107.812  1.00  0.00     0.293 HD
ENDBRANCH  15  18
BRANCH  17  20
ATOM     20  O   UNL     1     115.137 107.405 109.558  1.00  0.00    -0.504 OA
ATOM     21  H   UNL     1     114.899 106.651 110.192  1.00  0.00     0.293 HD
ENDBRANCH  17  20
ENDBRANCH   1  12
BRANCH   2  22
ATOM     22  O   UNL     1     112.231 111.153 106.348  1.00  0.00    -0.502 OA
ATOM     23  H   UNL     1     113.133 110.757 106.111  1.00  0.00     0.293 HD
ENDBRANCH   2  22
BRANCH   6  24
ATOM     24  O   UNL     1     106.941 111.771 106.317  1.00  0.00    -0.507 OA
ATOM     25  H   UNL     1     107.554 112.436 105.869  1.00  0.00     0.293 HD
ENDBRANCH   6  24
BRANCH   8  26
ATOM     26  O   UNL     1     105.588 107.530 108.117  1.00  0.00    -0.508 OA
ATOM     27  H   UNL     1     105.602 107.100 109.034  1.00  0.00     0.293 HD
ENDBRANCH   8  26
TORSDOF 6
ENDMDL
MODEL 6
REMARK VINA RESULT:    -6.120      8.340     12.217
REMARK INTER + INTRA:          -7.282
REMARK INTER:                  -6.956
REMARK INTRA:                  -0.326
REMARK UNBOUND:                 0.090
REMARK SMILES O=c1c(O)c(-c2ccc(O)c(O)c2)oc2cc(O)cc(O)c12
REMARK SMILES IDX 5 1 3 2 2 3 1 4 22 5 20 6 19 7 17 8 16 9 15 10 14 11 6 12
REMARK SMILES IDX 7 13 8 14 9 15 13 16 11 17 10 18 12 20 4 22 21 24 18 26
REMARK H PARENT 10 19 12 21 4 23 21 25 18 27
REMARK Flexibility Score: inf
ROOT
ATOM      1  C   UNL     1     109.952 114.107 107.037  1.00  0.00     0.180 A 
ATOM      2  C   UNL     1     111.232 113.575 106.801  1.00  0.00     0.208 A 
ATOM      3  C   UNL     1     112.342 114.435 106.820  1.00  0.00     0.238 A 
ATOM      4  O   UNL     1     113.490 113.943 106.664  1.00  0.00    -0.285 OA
ATOM      5  C   UNL     1     112.158 115.818 107.056  1.00  0.00     0.111 A 
ATOM      6  C   UNL     1     113.206 116.787 107.057  1.00  0.00     0.134 A 
ATOM      7  C   UNL     1     112.926 118.106 107.432  1.00  0.00     0.093 A 
ATOM      8  C   UNL     1     111.624 118.506 107.742  1.00  0.00     0.123 A 
ATOM      9  C   UNL     1     110.584 117.581 107.687  1.00  0.00     0.094 A 
ATOM     10  C   UNL     1     110.838 116.250 107.351  1.00  0.00     0.146 A 
ATOM     11  O   UNL     1     109.820 115.398 107.320  1.00  0.00    -0.452 OA
ENDROOT
BRANCH   1  12
ATOM     12  C   UNL     1     108.733 113.269 107.008  1.00  0.00     0.025 A 
ATOM     13  C   UNL     1     108.080 112.966 105.800  1.00  0.00     0.016 A 
ATOM     14  C   UNL     1     106.916 112.192 105.801  1.00  0.00     0.051 A 
ATOM     15  C   UNL     1     106.381 111.723 107.007  1.00  0.00     0.157 A 
ATOM     16  C   UNL     1     108.179 112.813 108.216  1.00  0.00     0.062 A 
ATOM     17  C   UNL     1     107.012 112.036 108.217  1.00  0.00     0.158 A 
BRANCH  15  18
ATOM     18  O   UNL     1     105.221 110.950 107.011  1.00  0.00    -0.504 OA
ATOM     19  H   UNL     1     105.260 109.937 107.007  1.00  0.00     0.293 HD
ENDBRANCH  15  18
BRANCH  17  20
ATOM     20  O   UNL     1     106.473 111.573 109.416  1.00  0.00    -0.504 OA
ATOM     21  H   UNL     1     105.747 112.085 109.904  1.00  0.00     0.293 HD
ENDBRANCH  17  20
ENDBRANCH   1  12
BRANCH   2  22
ATOM     22  O   UNL     1     111.393 112.202 106.592  1.00  0.00    -0.502 OA
ATOM     23  H   UNL     1     110.909 111.507 107.147  1.00  0.00     0.293 HD
ENDBRANCH   2  22
BRANCH   6  24
ATOM     24  O   UNL     1     114.522 116.513 106.674  1.00  0.00    -0.507 OA
ATOM     25  H   UNL     1     114.972 116.887 105.853  1.00  0.00     0.293 HD
ENDBRANCH   6  24
BRANCH   8  26
ATOM     26  O   UNL     1     111.352 119.826 108.099  1.00  0.00    -0.508 OA
ATOM     27  H   UNL     1     111.082 120.517 107.409  1.00  0.00     0.293 HD
ENDBRANCH   8  26
TORSDOF 6
ENDMDL
MODEL 7
REMARK VINA RESULT:    -6.117      7.432      9.235
REMARK INTER + INTRA:          -7.278
REMARK INTER:                  -6.953
REMARK INTRA:                  -0.325
REMARK UNBOUND:                 0.090
REMARK SMILES O=c1c(O)c(-c2ccc(O)c(O)c2)oc2cc(O)cc(O)c12
REMARK SMILES IDX 5 1 3 2 2 3 1 4 22 5 20 6 19 7 17 8 16 9 15 10 14 11 6 12
REMARK SMILES IDX 7 13 8 14 9 15 13 16 11 17 10 18 12 20 4 22 21 24 18 26
REMARK H PARENT 10 19 12 21 4 23 21 25 18 27
REMARK Flexibility Score: inf
ROOT
ATOM      1  C   UNL     1     114.612 112.815 106.784  1.00  0.00     0.180 A 
ATOM      2  C   UNL     1     113.541 111.995 106.386  1.00  0.00     0.208 A 
ATOM      3  C   UNL     1     113.737 110.607 106.312  1.00  0.00     0.238 A 
ATOM      4  O   UNL     1     112.760 109.874 106.008  1.00  0.00    -0.285 OA
ATOM      5  C   UNL     1     115.004 110.056 106.618  1.00  0.00     0.111 A 
ATOM      6  C   UNL     1     115.327 108.668 106.537  1.00  0.00     0.134 A 
ATOM      7  C   UNL     1     116.574 108.221 106.991  1.00  0.00     0.093 A 
ATOM      8  C   UNL     1     117.534 109.121 107.460  1.00  0.00     0.123 A 
ATOM      9  C   UNL     1     117.251 110.484 107.488  1.00  0.00     0.094 A 
ATOM     10  C   UNL     1     116.002 110.956 107.076  1.00  0.00     0.146 A 
ATOM     11  O   UNL     1     115.770 112.262 107.129  1.00  0.00    -0.452 OA
ENDROOT
BRANCH   1  12
ATOM     12  C   UNL     1     114.490 114.288 106.862  1.00  0.00     0.025 A 
ATOM     13  C   UNL     1     114.653 115.098 105.724  1.00  0.00     0.016 A 
ATOM     14  C   UNL     1     114.557 116.489 105.827  1.00  0.00     0.051 A 
ATOM     15  C   UNL     1     114.311 117.089 107.068  1.00  0.00     0.157 A 
ATOM     16  C   UNL     1     114.265 114.899 108.107  1.00  0.00     0.062 A 
ATOM     17  C   UNL     1     114.168 116.293 108.211  1.00  0.00     0.158 A 
BRANCH  15  18
ATOM     18  O   UNL     1     114.213 118.475 107.174  1.00  0.00    -0.504 OA
ATOM     19  H   UNL     1     113.947 119.050 106.383  1.00  0.00     0.293 HD
ENDBRANCH  15  18
BRANCH  17  20
ATOM     20  O   UNL     1     113.930 116.894 109.446  1.00  0.00    -0.504 OA
ATOM     21  H   UNL     1     113.470 116.396 110.199  1.00  0.00     0.293 HD
ENDBRANCH  17  20
ENDBRANCH   1  12
BRANCH   2  22
ATOM     22  O   UNL     1     112.292 112.558 106.108  1.00  0.00    -0.502 OA
ATOM     23  H   UNL     1     111.494 111.999 105.832  1.00  0.00     0.293 HD
ENDBRANCH   2  22
BRANCH   6  24
ATOM     24  O   UNL     1     114.475 107.700 105.999  1.00  0.00    -0.507 OA
ATOM     25  H   UNL     1     114.466 106.728 106.267  1.00  0.00     0.293 HD
ENDBRANCH   6  24
BRANCH   8  26
ATOM     26  O   UNL     1     118.779 108.669 107.895  1.00  0.00    -0.508 OA
ATOM     27  H   UNL     1     119.544 108.519 107.248  1.00  0.00     0.293 HD
ENDBRANCH   8  26
TORSDOF 6
ENDMDL
MODEL 8
REMARK VINA RESULT:    -6.113      8.637     10.778
REMARK INTER + INTRA:          -7.274
REMARK INTER:                  -6.976
REMARK INTRA:                  -0.299
REMARK UNBOUND:                 0.090
REMARK SMILES O=c1c(O)c(-c2ccc(O)c(O)c2)oc2cc(O)cc(O)c12
REMARK SMILES IDX 5 1 3 2 2 3 1 4 22 5 20 6 19 7 17 8 16 9 15 10 14 11 6 12
REMARK SMILES IDX 7 13 8 14 9 15 13 16 11 17 10 18 12 20 4 22 21 24 18 26
REMARK H PARENT 10 19 12 21 4 23 21 25 18 27
REMARK Flexibility Score: inf
ROOT
ATOM      1  C   UNL     1     109.821 113.604 106.695  1.00  0.00     0.180 A 
ATOM      2  C   UNL     1     110.491 112.414 106.362  1.00  0.00     0.208 A 
ATOM      3  C   UNL     1     109.755 111.222 106.265  1.00  0.00     0.238 A 
ATOM      4  O   UNL     1     110.351 110.171 105.913  1.00  0.00    -0.285 OA
ATOM      5  C   UNL     1     108.363 111.230 106.519  1.00  0.00     0.111 A 
ATOM      6  C   UNL     1     107.526 110.075 106.489  1.00  0.00     0.134 A 
ATOM      7  C   UNL     1     106.140 110.221 106.627  1.00  0.00     0.093 A 
ATOM      8  C   UNL     1     105.569 111.475 106.859  1.00  0.00     0.123 A 
ATOM      9  C   UNL     1     106.383 112.601 106.950  1.00  0.00     0.094 A 
ATOM     10  C   UNL     1     107.765 112.491 106.780  1.00  0.00     0.146 A 
ATOM     11  O   UNL     1     108.503 113.591 106.863  1.00  0.00    -0.452 OA
ENDROOT
BRANCH   1  12
ATOM     12  C   UNL     1     110.532 114.894 106.841  1.00  0.00     0.025 A 
ATOM     13  C   UNL     1     110.869 115.676 105.721  1.00  0.00     0.016 A 
ATOM     14  C   UNL     1     111.562 116.879 105.881  1.00  0.00     0.051 A 
ATOM     15  C   UNL     1     111.939 117.311 107.159  1.00  0.00     0.157 A 
ATOM     16  C   UNL     1     110.933 115.323 108.117  1.00  0.00     0.062 A 
ATOM     17  C   UNL     1     111.627 116.530 108.279  1.00  0.00     0.158 A 
BRANCH  15  18
ATOM     18  O   UNL     1     112.629 118.510 107.323  1.00  0.00    -0.504 OA
ATOM     19  H   UNL     1     113.258 118.862 106.610  1.00  0.00     0.293 HD
ENDBRANCH  15  18
BRANCH  17  20
ATOM     20  O   UNL     1     112.010 116.960 109.548  1.00  0.00    -0.504 OA
ATOM     21  H   UNL     1     112.072 117.945 109.778  1.00  0.00     0.293 HD
ENDBRANCH  17  20
ENDBRANCH   1  12
BRANCH   2  22
ATOM     22  O   UNL     1     111.863 112.432 106.095  1.00  0.00    -0.502 OA
ATOM     23  H   UNL     1     112.543 112.005 106.713  1.00  0.00     0.293 HD
ENDBRANCH   2  22
BRANCH   6  24
ATOM     24  O   UNL     1     108.005 108.769 106.355  1.00  0.00    -0.507 OA
ATOM     25  H   UNL     1     108.311 108.354 105.488  1.00  0.00     0.293 HD
ENDBRANCH   6  24
BRANCH   8  26
ATOM     26  O   UNL     1     104.190 111.609 107.011  1.00  0.00    -0.508 OA
ATOM     27  H   UNL     1     103.654 112.257 106.445  1.00  0.00     0.293 HD
ENDBRANCH   8  26
TORSDOF 6
ENDMDL
MODEL 9
REMARK VINA RESULT:    -6.112      9.757     12.876
REMARK INTER + INTRA:          -7.273
REMARK INTER:                  -6.972
REMARK INTRA:                  -0.300
REMARK UNBOUND:                 0.090
REMARK SMILES O=c1c(O)c(-c2ccc(O)c(O)c2)oc2cc(O)cc(O)c12
REMARK SMILES IDX 5 1 3 2 2 3 1 4 22 5 20 6 19 7 17 8 16 9 15 10 14 11 6 12
REMARK SMILES IDX 7 13 8 14 9 15 13 16 11 17 10 18 12 20 4 22 21 24 18 26
REMARK H PARENT 10 19 12 21 4 23 21 25 18 27
REMARK Flexibility Score: inf
ROOT
ATOM      1  C   UNL     1     111.635 109.190 106.736  1.00  0.00     0.180 A 
ATOM      2  C   UNL     1     112.307 110.393 106.456  1.00  0.00     0.208 A 
ATOM      3  C   UNL     1     113.709 110.388 106.383  1.00  0.00     0.238 A 
ATOM      4  O   UNL     1     114.302 111.456 106.078  1.00  0.00    -0.285 OA
ATOM      5  C   UNL     1     114.423 109.187 106.609  1.00  0.00     0.111 A 
ATOM      6  C   UNL     1     115.846 109.074 106.600  1.00  0.00     0.134 A 
ATOM      7  C   UNL     1     116.440 107.811 106.706  1.00  0.00     0.093 A 
ATOM      8  C   UNL     1     115.664 106.663 106.885  1.00  0.00     0.123 A 
ATOM      9  C   UNL     1     114.277 106.769 106.955  1.00  0.00     0.094 A 
ATOM     10  C   UNL     1     113.654 108.012 106.816  1.00  0.00     0.146 A 
ATOM     11  O   UNL     1     112.329 108.067 106.878  1.00  0.00    -0.452 OA
ENDROOT
BRANCH   1  12
ATOM     12  C   UNL     1     110.160 109.121 106.853  1.00  0.00     0.025 A 
ATOM     13  C   UNL     1     109.338 109.035 105.715  1.00  0.00     0.016 A 
ATOM     14  C   UNL     1     107.948 108.995 105.849  1.00  0.00     0.051 A 
ATOM     15  C   UNL     1     107.360 109.055 107.119  1.00  0.00     0.157 A 
ATOM     16  C   UNL     1     109.563 109.202 108.122  1.00  0.00     0.062 A 
ATOM     17  C   UNL     1     108.168 109.161 108.257  1.00  0.00     0.158 A 
BRANCH  15  18
ATOM     18  O   UNL     1     105.973 109.014 107.257  1.00  0.00    -0.504 OA
ATOM     19  H   UNL     1     105.367 108.826 106.466  1.00  0.00     0.293 HD
ENDBRANCH  15  18
BRANCH  17  20
ATOM     20  O   UNL     1     107.579 109.228 109.519  1.00  0.00    -0.504 OA
ATOM     21  H   UNL     1     106.686 108.789 109.710  1.00  0.00     0.293 HD
ENDBRANCH  17  20
ENDBRANCH   1  12
BRANCH   2  22
ATOM     22  O   UNL     1     111.582 111.563 106.215  1.00  0.00    -0.502 OA
ATOM     23  H   UNL     1     111.518 112.313 106.894  1.00  0.00     0.293 HD
ENDBRANCH   2  22
BRANCH   6  24
ATOM     24  O   UNL     1     116.713 110.167 106.519  1.00  0.00    -0.507 OA
ATOM     25  H   UNL     1     117.704 110.104 106.341  1.00  0.00     0.293 HD
ENDBRANCH   6  24
BRANCH   8  26
ATOM     26  O   UNL     1     116.264 105.411 107.005  1.00  0.00    -0.508 OA
ATOM     27  H   UNL     1     116.965 105.225 107.713  1.00  0.00     0.293 HD
ENDBRANCH   8  26
TORSDOF 6
ENDMDL
