MODEL 1
REMARK VINA RESULT:    -6.188      0.000      0.000
REMARK INTER + INTRA:          -7.515
REMARK INTER:                  -7.273
REMARK INTRA:                  -0.243
REMARK UNBOUND:                -0.243
REMARK SMILES O=c1c(O)c(-c2ccc(O)cc2)oc2cc(O)cc(O)c12
REMARK SMILES IDX 5 1 3 2 2 3 1 4 21 5 19 6 18 7 16 8 15 9 14 10 13 11 6 12
REMARK SMILES IDX 7 13 8 14 9 15 12 16 11 17 10 18 4 20 20 22 17 24
REMARK H PARENT 10 19 4 21 20 23 17 25
REMARK Flexibility Score: inf
ROOT
ATOM      1  C   UNL     1      15.180 -23.492  -6.757  1.00  0.00     0.180 A 
ATOM      2  C   UNL     1      14.934 -24.249  -5.599  1.00  0.00     0.208 A 
ATOM      3  C   UNL     1      13.650 -24.227  -5.031  1.00  0.00     0.238 A 
ATOM      4  O   UNL     1      13.449 -24.863  -3.964  1.00  0.00    -0.285 OA
ATOM      5  C   UNL     1      12.625 -23.460  -5.636  1.00  0.00     0.111 A 
ATOM      6  C   UNL     1      11.277 -23.396  -5.170  1.00  0.00     0.134 A 
ATOM      7  C   UNL     1      10.380 -22.503  -5.770  1.00  0.00     0.093 A 
ATOM      8  C   UNL     1      10.765 -21.722  -6.862  1.00  0.00     0.123 A 
ATOM      9  C   UNL     1      12.060 -21.821  -7.363  1.00  0.00     0.094 A 
ATOM     10  C   UNL     1      12.988 -22.675  -6.762  1.00  0.00     0.146 A 
ATOM     11  O   UNL     1      14.216 -22.732  -7.264  1.00  0.00    -0.452 OA
ENDROOT
BRANCH   1  12
ATOM     12  C   UNL     1      16.500 -23.486  -7.429  1.00  0.00     0.021 A 
ATOM     13  C   UNL     1      17.582 -22.750  -6.913  1.00  0.00     0.016 A 
ATOM     14  C   UNL     1      18.826 -22.778  -7.552  1.00  0.00     0.047 A 
ATOM     15  C   UNL     1      19.007 -23.552  -8.705  1.00  0.00     0.115 A 
ATOM     16  C   UNL     1      16.697 -24.276  -8.574  1.00  0.00     0.016 A 
ATOM     17  C   UNL     1      17.941 -24.302  -9.212  1.00  0.00     0.047 A 
BRANCH  15  18
ATOM     18  O   UNL     1      20.241 -23.586  -9.350  1.00  0.00    -0.508 OA
ATOM     19  H   UNL     1      20.624 -22.766  -9.805  1.00  0.00     0.293 HD
ENDBRANCH  15  18
ENDBRANCH   1  12
BRANCH   2  20
ATOM     20  O   UNL     1      15.966 -24.982  -5.005  1.00  0.00    -0.502 OA
ATOM     21  H   UNL     1      16.258 -25.888  -5.351  1.00  0.00     0.293 HD
ENDBRANCH   2  20
BRANCH   6  22
ATOM     22  O   UNL     1      10.767 -24.200  -4.146  1.00  0.00    -0.507 OA
ATOM     23  H   UNL     1      10.164 -24.996  -4.287  1.00  0.00     0.293 HD
ENDBRANCH   6  22
BRANCH   8  24
ATOM     24  O   UNL     1       9.862 -20.847  -7.463  1.00  0.00    -0.508 OA
ATOM     25  H   UNL     1       9.855 -20.700  -8.466  1.00  0.00     0.293 HD
ENDBRANCH   8  24
TORSDOF 5
ENDMDL
MODEL 2
REMARK VINA RESULT:    -5.976      1.963      3.572
REMARK INTER + INTRA:          -7.267
REMARK INTER:                  -6.977
REMARK INTRA:                  -0.290
REMARK UNBOUND:                -0.243
REMARK SMILES O=c1c(O)c(-c2ccc(O)cc2)oc2cc(O)cc(O)c12
REMARK SMILES IDX 5 1 3 2 2 3 1 4 21 5 19 6 18 7 16 8 15 9 14 10 13 11 6 12
REMARK SMILES IDX 7 13 8 14 9 15 12 16 11 17 10 18 4 20 20 22 17 24
REMARK H PARENT 10 19 4 21 20 23 17 25
REMARK Flexibility Score: inf
ROOT
ATOM      1  C   UNL     1      14.942 -24.135  -5.912  1.00  0.00     0.180 A 
ATOM      2  C   UNL     1      14.211 -22.987  -5.561  1.00  0.00     0.208 A 
ATOM      3  C   UNL     1      13.126 -23.114  -4.679  1.00  0.00     0.238 A 
ATOM      4  O   UNL     1      12.442 -22.092  -4.411  1.00  0.00    -0.285 OA
ATOM      5  C   UNL     1      12.795 -24.383  -4.148  1.00  0.00     0.111 A 
ATOM      6  C   UNL     1      11.741 -24.622  -3.215  1.00  0.00     0.134 A 
ATOM      7  C   UNL     1      11.419 -25.938  -2.857  1.00  0.00     0.093 A 
ATOM      8  C   UNL     1      12.157 -27.018  -3.347  1.00  0.00     0.123 A 
ATOM      9  C   UNL     1      13.226 -26.791  -4.211  1.00  0.00     0.094 A 
ATOM     10  C   UNL     1      13.547 -25.493  -4.615  1.00  0.00     0.146 A 
ATOM     11  O   UNL     1      14.567 -25.322  -5.448  1.00  0.00    -0.452 OA
ENDROOT
BRANCH   1  12
ATOM     12  C   UNL     1      16.114 -24.078  -6.815  1.00  0.00     0.021 A 
ATOM     13  C   UNL     1      15.972 -24.191  -8.209  1.00  0.00     0.016 A 
ATOM     14  C   UNL     1      17.092 -24.110  -9.044  1.00  0.00     0.047 A 
ATOM     15  C   UNL     1      18.364 -23.901  -8.495  1.00  0.00     0.115 A 
ATOM     16  C   UNL     1      17.392 -23.848  -6.276  1.00  0.00     0.016 A 
ATOM     17  C   UNL     1      18.510 -23.769  -7.111  1.00  0.00     0.047 A 
BRANCH  15  18
ATOM     18  O   UNL     1      19.487 -23.821  -9.317  1.00  0.00    -0.508 OA
ATOM     19  H   UNL     1      19.788 -22.940  -9.718  1.00  0.00     0.293 HD
ENDBRANCH  15  18
ENDBRANCH   1  12
BRANCH   2  20
ATOM     20  O   UNL     1      14.542 -21.746  -6.114  1.00  0.00    -0.502 OA
ATOM     21  H   UNL     1      15.339 -21.207  -5.800  1.00  0.00     0.293 HD
ENDBRANCH   2  20
BRANCH   6  22
ATOM     22  O   UNL     1      11.003 -23.609  -2.596  1.00  0.00    -0.507 OA
ATOM     23  H   UNL     1      10.175 -23.759  -2.039  1.00  0.00     0.293 HD
ENDBRANCH   6  22
BRANCH   8  24
ATOM     24  O   UNL     1      11.841 -28.322  -2.974  1.00  0.00    -0.508 OA
ATOM     25  H   UNL     1      11.049 -28.811  -3.377  1.00  0.00     0.293 HD
ENDBRANCH   8  24
TORSDOF 5
ENDMDL
MODEL 3
REMARK VINA RESULT:    -5.946      3.394      7.136
REMARK INTER + INTRA:          -7.232
REMARK INTER:                  -6.937
REMARK INTRA:                  -0.294
REMARK UNBOUND:                -0.243
REMARK SMILES O=c1c(O)c(-c2ccc(O)cc2)oc2cc(O)cc(O)c12
REMARK SMILES IDX 5 1 3 2 2 3 1 4 21 5 19 6 18 7 16 8 15 9 14 10 13 11 6 12
REMARK SMILES IDX 7 13 8 14 9 15 12 16 11 17 10 18 4 20 20 22 17 24
REMARK H PARENT 10 19 4 21 20 23 17 25
REMARK Flexibility Score: inf
ROOT
ATOM      1  C   UNL     1      12.879 -24.836  -2.976  1.00  0.00     0.180 A 
ATOM      2  C   UNL     1      11.891 -23.973  -3.481  1.00  0.00     0.208 A 
ATOM      3  C   UNL     1      12.055 -23.427  -4.764  1.00  0.00     0.238 A 
ATOM      4  O   UNL     1      11.195 -22.613  -5.190  1.00  0.00    -0.285 OA
ATOM      5  C   UNL     1      13.197 -23.762  -5.531  1.00  0.00     0.111 A 
ATOM      6  C   UNL     1      13.446 -23.299  -6.859  1.00  0.00     0.134 A 
ATOM      7  C   UNL     1      14.670 -23.589  -7.473  1.00  0.00     0.093 A 
ATOM      8  C   UNL     1      15.627 -24.381  -6.834  1.00  0.00     0.123 A 
ATOM      9  C   UNL     1      15.368 -24.888  -5.563  1.00  0.00     0.094 A 
ATOM     10  C   UNL     1      14.171 -24.585  -4.909  1.00  0.00     0.146 A 
ATOM     11  O   UNL     1      13.969 -25.080  -3.694  1.00  0.00    -0.452 OA
ENDROOT
BRANCH   1  12
ATOM     12  C   UNL     1      12.764 -25.472  -1.644  1.00  0.00     0.021 A 
ATOM     13  C   UNL     1      12.050 -26.670  -1.462  1.00  0.00     0.016 A 
ATOM     14  C   UNL     1      11.974 -27.265  -0.198  1.00  0.00     0.047 A 
ATOM     15  C   UNL     1      12.623 -26.676   0.895  1.00  0.00     0.115 A 
ATOM     16  C   UNL     1      13.427 -24.900  -0.545  1.00  0.00     0.016 A 
ATOM     17  C   UNL     1      13.350 -25.495   0.718  1.00  0.00     0.047 A 
BRANCH  15  18
ATOM     18  O   UNL     1      12.553 -27.259   2.159  1.00  0.00    -0.508 OA
ATOM     19  H   UNL     1      11.774 -27.080   2.782  1.00  0.00     0.293 HD
ENDBRANCH  15  18
ENDBRANCH   1  12
BRANCH   2  20
ATOM     20  O   UNL     1      10.782 -23.639  -2.698  1.00  0.00    -0.502 OA
ATOM     21  H   UNL     1      10.569 -22.683  -2.439  1.00  0.00     0.293 HD
ENDBRANCH   2  20
BRANCH   6  22
ATOM     22  O   UNL     1      12.521 -22.578  -7.620  1.00  0.00    -0.507 OA
ATOM     23  H   UNL     1      12.309 -22.759  -8.590  1.00  0.00     0.293 HD
ENDBRANCH   6  22
BRANCH   8  24
ATOM     24  O   UNL     1      16.836 -24.678  -7.459  1.00  0.00    -0.508 OA
ATOM     25  H   UNL     1      17.424 -25.440  -7.140  1.00  0.00     0.293 HD
ENDBRANCH   8  24
TORSDOF 5
ENDMDL
MODEL 4
REMARK VINA RESULT:    -5.915      3.353      7.720
REMARK INTER + INTRA:          -7.194
REMARK INTER:                  -6.966
REMARK INTRA:                  -0.228
REMARK UNBOUND:                -0.243
REMARK SMILES O=c1c(O)c(-c2ccc(O)cc2)oc2cc(O)cc(O)c12
REMARK SMILES IDX 5 1 3 2 2 3 1 4 21 5 19 6 18 7 16 8 15 9 14 10 13 11 6 12
REMARK SMILES IDX 7 13 8 14 9 15 12 16 11 17 10 18 4 20 20 22 17 24
REMARK H PARENT 10 19 4 21 20 23 17 25
REMARK Flexibility Score: inf
ROOT
ATOM      1  C   UNL     1      18.508 -23.372  -6.343  1.00  0.00     0.180 A 
ATOM      2  C   UNL     1      19.586 -24.173  -6.759  1.00  0.00     0.208 A 
ATOM      3  C   UNL     1      20.894 -23.772  -6.444  1.00  0.00     0.238 A 
ATOM      4  O   UNL     1      21.857 -24.464  -6.865  1.00  0.00    -0.285 OA
ATOM      5  C   UNL     1      21.107 -22.584  -5.704  1.00  0.00     0.111 A 
ATOM      6  C   UNL     1      22.387 -22.103  -5.294  1.00  0.00     0.134 A 
ATOM      7  C   UNL     1      22.490 -20.849  -4.680  1.00  0.00     0.093 A 
ATOM      8  C   UNL     1      21.352 -20.088  -4.401  1.00  0.00     0.123 A 
ATOM      9  C   UNL     1      20.093 -20.576  -4.742  1.00  0.00     0.094 A 
ATOM     10  C   UNL     1      19.962 -21.807  -5.390  1.00  0.00     0.146 A 
ATOM     11  O   UNL     1      18.744 -22.230  -5.708  1.00  0.00    -0.452 OA
ENDROOT
BRANCH   1  12
ATOM     12  C   UNL     1      17.101 -23.742  -6.615  1.00  0.00     0.021 A 
ATOM     13  C   UNL     1      16.541 -23.606  -7.898  1.00  0.00     0.016 A 
ATOM     14  C   UNL     1      15.215 -23.984  -8.136  1.00  0.00     0.047 A 
ATOM     15  C   UNL     1      14.438 -24.515  -7.098  1.00  0.00     0.115 A 
ATOM     16  C   UNL     1      16.320 -24.294  -5.586  1.00  0.00     0.016 A 
ATOM     17  C   UNL     1      14.994 -24.671  -5.825  1.00  0.00     0.047 A 
BRANCH  15  18
ATOM     18  O   UNL     1      13.117 -24.894  -7.323  1.00  0.00    -0.508 OA
ATOM     19  H   UNL     1      12.341 -24.327  -7.001  1.00  0.00     0.293 HD
ENDBRANCH  15  18
ENDBRANCH   1  12
BRANCH   2  20
ATOM     20  O   UNL     1      19.354 -25.331  -7.507  1.00  0.00    -0.502 OA
ATOM     21  H   UNL     1      18.877 -26.138  -7.124  1.00  0.00     0.293 HD
ENDBRANCH   2  20
BRANCH   6  22
ATOM     22  O   UNL     1      23.576 -22.824  -5.443  1.00  0.00    -0.507 OA
ATOM     23  H   UNL     1      24.116 -23.205  -4.681  1.00  0.00     0.293 HD
ENDBRANCH   6  22
BRANCH   8  24
ATOM     24  O   UNL     1      21.462 -18.848  -3.775  1.00  0.00    -0.508 OA
ATOM     25  H   UNL     1      22.351 -18.504  -3.433  1.00  0.00     0.293 HD
ENDBRANCH   8  24
TORSDOF 5
ENDMDL
MODEL 5
REMARK VINA RESULT:    -5.842      2.443      4.738
REMARK INTER + INTRA:          -7.109
REMARK INTER:                  -6.820
REMARK INTRA:                  -0.288
REMARK UNBOUND:                -0.243
REMARK SMILES O=c1c(O)c(-c2ccc(O)cc2)oc2cc(O)cc(O)c12
REMARK SMILES IDX 5 1 3 2 2 3 1 4 21 5 19 6 18 7 16 8 15 9 14 10 13 11 6 12
REMARK SMILES IDX 7 13 8 14 9 15 12 16 11 17 10 18 4 20 20 22 17 24
REMARK H PARENT 10 19 4 21 20 23 17 25
REMARK Flexibility Score: inf
ROOT
ATOM      1  C   UNL     1      18.606 -23.148  -6.634  1.00  0.00     0.180 A 
ATOM      2  C   UNL     1      18.076 -23.302  -7.927  1.00  0.00     0.208 A 
ATOM      3  C   UNL     1      16.730 -23.673  -8.071  1.00  0.00     0.238 A 
ATOM      4  O   UNL     1      16.275 -23.863  -9.230  1.00  0.00    -0.285 OA
ATOM      5  C   UNL     1      15.926 -23.871  -6.922  1.00  0.00     0.111 A 
ATOM      6  C   UNL     1      14.539 -24.208  -6.951  1.00  0.00     0.134 A 
ATOM      7  C   UNL     1      13.876 -24.507  -5.754  1.00  0.00     0.093 A 
ATOM      8  C   UNL     1      14.532 -24.415  -4.525  1.00  0.00     0.123 A 
ATOM      9  C   UNL     1      15.869 -24.027  -4.481  1.00  0.00     0.094 A 
ATOM     10  C   UNL     1      16.568 -23.759  -5.661  1.00  0.00     0.146 A 
ATOM     11  O   UNL     1      17.844 -23.403  -5.576  1.00  0.00    -0.452 OA
ENDROOT
BRANCH   1  12
ATOM     12  C   UNL     1      20.008 -22.733  -6.401  1.00  0.00     0.021 A 
ATOM     13  C   UNL     1      21.040 -23.679  -6.266  1.00  0.00     0.016 A 
ATOM     14  C   UNL     1      22.360 -23.263  -6.070  1.00  0.00     0.047 A 
ATOM     15  C   UNL     1      22.667 -21.897  -6.020  1.00  0.00     0.115 A 
ATOM     16  C   UNL     1      20.329 -21.365  -6.370  1.00  0.00     0.016 A 
ATOM     17  C   UNL     1      21.650 -20.951  -6.173  1.00  0.00     0.047 A 
BRANCH  15  18
ATOM     18  O   UNL     1      23.979 -21.471  -5.824  1.00  0.00    -0.508 OA
ATOM     19  H   UNL     1      24.189 -20.617  -5.320  1.00  0.00     0.293 HD
ENDBRANCH  15  18
ENDBRANCH   1  12
BRANCH   2  20
ATOM     20  O   UNL     1      18.893 -23.124  -9.047  1.00  0.00    -0.502 OA
ATOM     21  H   UNL     1      19.889 -23.306  -9.027  1.00  0.00     0.293 HD
ENDBRANCH   2  20
BRANCH   6  22
ATOM     22  O   UNL     1      13.768 -24.239  -8.117  1.00  0.00    -0.507 OA
ATOM     23  H   UNL     1      13.201 -25.020  -8.410  1.00  0.00     0.293 HD
ENDBRANCH   6  22
BRANCH   8  24
ATOM     24  O   UNL     1      13.861 -24.699  -3.337  1.00  0.00    -0.508 OA
ATOM     25  H   UNL     1      14.319 -24.615  -2.437  1.00  0.00     0.293 HD
ENDBRANCH   8  24
TORSDOF 5
ENDMDL
MODEL 6
REMARK VINA RESULT:    -5.798     11.033     12.842
REMARK INTER + INTRA:          -7.058
REMARK INTER:                  -6.768
REMARK INTRA:                  -0.289
REMARK UNBOUND:                -0.243
REMARK SMILES O=c1c(O)c(-c2ccc(O)cc2)oc2cc(O)cc(O)c12
REMARK SMILES IDX 5 1 3 2 2 3 1 4 21 5 19 6 18 7 16 8 15 9 14 10 13 11 6 12
REMARK SMILES IDX 7 13 8 14 9 15 12 16 11 17 10 18 4 20 20 22 17 24
REMARK H PARENT 10 19 4 21 20 23 17 25
REMARK Flexibility Score: inf
ROOT
ATOM      1  C   UNL     1      19.297 -30.224   2.753  1.00  0.00     0.180 A 
ATOM      2  C   UNL     1      19.203 -30.139   4.153  1.00  0.00     0.208 A 
ATOM      3  C   UNL     1      18.995 -28.884   4.747  1.00  0.00     0.238 A 
ATOM      4  O   UNL     1      18.966 -28.806   6.003  1.00  0.00    -0.285 OA
ATOM      5  C   UNL     1      18.867 -27.732   3.934  1.00  0.00     0.111 A 
ATOM      6  C   UNL     1      18.614 -26.416   4.425  1.00  0.00     0.134 A 
ATOM      7  C   UNL     1      18.637 -25.331   3.540  1.00  0.00     0.093 A 
ATOM      8  C   UNL     1      18.838 -25.523   2.172  1.00  0.00     0.123 A 
ATOM      9  C   UNL     1      19.026 -26.810   1.673  1.00  0.00     0.094 A 
ATOM     10  C   UNL     1      19.046 -27.908   2.536  1.00  0.00     0.146 A 
ATOM     11  O   UNL     1      19.238 -29.117   2.021  1.00  0.00    -0.452 OA
ENDROOT
BRANCH   1  12
ATOM     12  C   UNL     1      19.489 -31.514   2.053  1.00  0.00     0.021 A 
ATOM     13  C   UNL     1      18.404 -32.361   1.766  1.00  0.00     0.016 A 
ATOM     14  C   UNL     1      18.607 -33.565   1.082  1.00  0.00     0.047 A 
ATOM     15  C   UNL     1      19.894 -33.928   0.665  1.00  0.00     0.115 A 
ATOM     16  C   UNL     1      20.773 -31.877   1.613  1.00  0.00     0.016 A 
ATOM     17  C   UNL     1      20.975 -33.081   0.931  1.00  0.00     0.047 A 
BRANCH  15  18
ATOM     18  O   UNL     1      20.109 -35.125  -0.015  1.00  0.00    -0.508 OA
ATOM     19  H   UNL     1      20.872 -35.231  -0.673  1.00  0.00     0.293 HD
ENDBRANCH  15  18
ENDBRANCH   1  12
BRANCH   2  20
ATOM     20  O   UNL     1      19.354 -31.286   4.938  1.00  0.00    -0.502 OA
ATOM     21  H   UNL     1      19.801 -32.125   4.592  1.00  0.00     0.293 HD
ENDBRANCH   2  20
BRANCH   6  22
ATOM     22  O   UNL     1      18.312 -26.127   5.760  1.00  0.00    -0.507 OA
ATOM     23  H   UNL     1      17.657 -26.645   6.326  1.00  0.00     0.293 HD
ENDBRANCH   6  22
BRANCH   8  24
ATOM     24  O   UNL     1      18.844 -24.440   1.295  1.00  0.00    -0.508 OA
ATOM     25  H   UNL     1      19.655 -24.222   0.728  1.00  0.00     0.293 HD
ENDBRANCH   8  24
TORSDOF 5
ENDMDL
MODEL 7
REMARK VINA RESULT:    -5.792      2.120      7.188
REMARK INTER + INTRA:          -7.050
REMARK INTER:                  -6.793
REMARK INTRA:                  -0.257
REMARK UNBOUND:                -0.243
REMARK SMILES O=c1c(O)c(-c2ccc(O)cc2)oc2cc(O)cc(O)c12
REMARK SMILES IDX 5 1 3 2 2 3 1 4 21 5 19 6 18 7 16 8 15 9 14 10 13 11 6 12
REMARK SMILES IDX 7 13 8 14 9 15 12 16 11 17 10 18 4 20 20 22 17 24
REMARK H PARENT 10 19 4 21 20 23 17 25
REMARK Flexibility Score: inf
ROOT
ATOM      1  C   UNL     1      16.418 -23.607  -6.224  1.00  0.00     0.180 A 
ATOM      2  C   UNL     1      16.881 -24.108  -7.453  1.00  0.00     0.208 A 
ATOM      3  C   UNL     1      18.161 -23.742  -7.899  1.00  0.00     0.238 A 
ATOM      4  O   UNL     1      18.549 -24.149  -9.025  1.00  0.00    -0.285 OA
ATOM      5  C   UNL     1      18.968 -22.893  -7.104  1.00  0.00     0.111 A 
ATOM      6  C   UNL     1      20.296 -22.490  -7.437  1.00  0.00     0.134 A 
ATOM      7  C   UNL     1      20.952 -21.543  -6.641  1.00  0.00     0.093 A 
ATOM      8  C   UNL     1      20.353 -21.036  -5.486  1.00  0.00     0.123 A 
ATOM      9  C   UNL     1      19.081 -21.468  -5.118  1.00  0.00     0.094 A 
ATOM     10  C   UNL     1      18.387 -22.383  -5.913  1.00  0.00     0.146 A 
ATOM     11  O   UNL     1      17.172 -22.761  -5.532  1.00  0.00    -0.452 OA
ENDROOT
BRANCH   1  12
ATOM     12  C   UNL     1      15.091 -23.969  -5.675  1.00  0.00     0.021 A 
ATOM     13  C   UNL     1      13.914 -23.354  -6.138  1.00  0.00     0.016 A 
ATOM     14  C   UNL     1      12.669 -23.729  -5.621  1.00  0.00     0.047 A 
ATOM     15  C   UNL     1      12.586 -24.732  -4.646  1.00  0.00     0.115 A 
ATOM     16  C   UNL     1      14.995 -24.988  -4.712  1.00  0.00     0.016 A 
ATOM     17  C   UNL     1      13.750 -25.360  -4.196  1.00  0.00     0.047 A 
BRANCH  15  18
ATOM     18  O   UNL     1      11.351 -25.112  -4.123  1.00  0.00    -0.508 OA
ATOM     19  H   UNL     1      10.974 -26.039  -4.278  1.00  0.00     0.293 HD
ENDBRANCH  15  18
ENDBRANCH   1  12
BRANCH   2  20
ATOM     20  O   UNL     1      16.059 -24.927  -8.233  1.00  0.00    -0.502 OA
ATOM     21  H   UNL     1      16.388 -25.792  -8.645  1.00  0.00     0.293 HD
ENDBRANCH   2  20
BRANCH   6  22
ATOM     22  O   UNL     1      21.019 -23.005  -8.518  1.00  0.00    -0.507 OA
ATOM     23  H   UNL     1      20.617 -23.266  -9.406  1.00  0.00     0.293 HD
ENDBRANCH   6  22
BRANCH   8  24
ATOM     24  O   UNL     1      21.019 -20.106  -4.689  1.00  0.00    -0.508 OA
ATOM     25  H   UNL     1      21.962 -19.804  -4.904  1.00  0.00     0.293 HD
ENDBRANCH   8  24
TORSDOF 5
ENDMDL
MODEL 8
REMARK VINA RESULT:    -5.754     12.210     13.918
REMARK INTER + INTRA:          -7.006
REMARK INTER:                  -6.730
REMARK INTRA:                  -0.276
REMARK UNBOUND:                -0.243
REMARK SMILES O=c1c(O)c(-c2ccc(O)cc2)oc2cc(O)cc(O)c12
REMARK SMILES IDX 5 1 3 2 2 3 1 4 21 5 19 6 18 7 16 8 15 9 14 10 13 11 6 12
REMARK SMILES IDX 7 13 8 14 9 15 12 16 11 17 10 18 4 20 20 22 17 24
REMARK H PARENT 10 19 4 21 20 23 17 25
REMARK Flexibility Score: inf
ROOT
ATOM      1  C   UNL     1      19.173 -30.452   3.029  1.00  0.00     0.180 A 
ATOM      2  C   UNL     1      18.042 -29.632   2.869  1.00  0.00     0.208 A 
ATOM      3  C   UNL     1      17.933 -28.464   3.639  1.00  0.00     0.238 A 
ATOM      4  O   UNL     1      16.893 -27.763   3.531  1.00  0.00    -0.285 OA
ATOM      5  C   UNL     1      18.962 -28.122   4.549  1.00  0.00     0.111 A 
ATOM      6  C   UNL     1      18.975 -26.941   5.351  1.00  0.00     0.134 A 
ATOM      7  C   UNL     1      19.980 -26.769   6.312  1.00  0.00     0.093 A 
ATOM      8  C   UNL     1      21.009 -27.703   6.452  1.00  0.00     0.123 A 
ATOM      9  C   UNL     1      21.039 -28.828   5.632  1.00  0.00     0.094 A 
ATOM     10  C   UNL     1      20.030 -29.046   4.691  1.00  0.00     0.146 A 
ATOM     11  O   UNL     1      20.090 -30.137   3.937  1.00  0.00    -0.452 OA
ENDROOT
BRANCH   1  12
ATOM     12  C   UNL     1      19.372 -31.685   2.234  1.00  0.00     0.021 A 
ATOM     13  C   UNL     1      18.780 -32.904   2.610  1.00  0.00     0.016 A 
ATOM     14  C   UNL     1      18.963 -34.050   1.831  1.00  0.00     0.047 A 
ATOM     15  C   UNL     1      19.728 -33.989   0.658  1.00  0.00     0.115 A 
ATOM     16  C   UNL     1      20.121 -31.629   1.046  1.00  0.00     0.016 A 
ATOM     17  C   UNL     1      20.304 -32.776   0.268  1.00  0.00     0.047 A 
BRANCH  15  18
ATOM     18  O   UNL     1      19.919 -35.125  -0.125  1.00  0.00    -0.508 OA
ATOM     19  H   UNL     1      19.993 -36.047   0.288  1.00  0.00     0.293 HD
ENDBRANCH  15  18
ENDBRANCH   1  12
BRANCH   2  20
ATOM     20  O   UNL     1      17.027 -30.001   1.981  1.00  0.00    -0.502 OA
ATOM     21  H   UNL     1      16.047 -29.851   2.184  1.00  0.00     0.293 HD
ENDBRANCH   2  20
BRANCH   6  22
ATOM     22  O   UNL     1      18.046 -25.903   5.228  1.00  0.00    -0.507 OA
ATOM     23  H   UNL     1      18.203 -25.050   4.713  1.00  0.00     0.293 HD
ENDBRANCH   6  22
BRANCH   8  24
ATOM     24  O   UNL     1      22.014 -27.517   7.399  1.00  0.00    -0.508 OA
ATOM     25  H   UNL     1      21.802 -27.227   8.347  1.00  0.00     0.293 HD
ENDBRANCH   8  24
TORSDOF 5
ENDMDL
MODEL 9
REMARK VINA RESULT:    -5.538      2.873      6.956
REMARK INTER + INTRA:          -6.752
REMARK INTER:                  -6.461
REMARK INTRA:                  -0.290
REMARK UNBOUND:                -0.243
REMARK SMILES O=c1c(O)c(-c2ccc(O)cc2)oc2cc(O)cc(O)c12
REMARK SMILES IDX 5 1 3 2 2 3 1 4 21 5 19 6 18 7 16 8 15 9 14 10 13 11 6 12
REMARK SMILES IDX 7 13 8 14 9 15 12 16 11 17 10 18 4 20 20 22 17 24
REMARK H PARENT 10 19 4 21 20 23 17 25
REMARK Flexibility Score: inf
ROOT
ATOM      1  C   UNL     1      15.970 -23.353  -4.638  1.00  0.00     0.180 A 
ATOM      2  C   UNL     1      15.235 -23.987  -5.655  1.00  0.00     0.208 A 
ATOM      3  C   UNL     1      15.836 -24.186  -6.908  1.00  0.00     0.238 A 
ATOM      4  O   UNL     1      15.155 -24.705  -7.830  1.00  0.00    -0.285 OA
ATOM      5  C   UNL     1      17.170 -23.762  -7.124  1.00  0.00     0.111 A 
ATOM      6  C   UNL     1      17.893 -23.948  -8.341  1.00  0.00     0.134 A 
ATOM      7  C   UNL     1      19.161 -23.372  -8.487  1.00  0.00     0.093 A 
ATOM      8  C   UNL     1      19.759 -22.674  -7.436  1.00  0.00     0.123 A 
ATOM      9  C   UNL     1      19.088 -22.538  -6.224  1.00  0.00     0.094 A 
ATOM     10  C   UNL     1      17.806 -23.069  -6.061  1.00  0.00     0.146 A 
ATOM     11  O   UNL     1      17.196 -22.908  -4.892  1.00  0.00    -0.452 OA
ENDROOT
BRANCH   1  12
ATOM     12  C   UNL     1      15.414 -23.132  -3.284  1.00  0.00     0.021 A 
ATOM     13  C   UNL     1      15.633 -24.052  -2.243  1.00  0.00     0.016 A 
ATOM     14  C   UNL     1      15.117 -23.810  -0.965  1.00  0.00     0.047 A 
ATOM     15  C   UNL     1      14.389 -22.640  -0.710  1.00  0.00     0.115 A 
ATOM     16  C   UNL     1      14.701 -21.952  -3.013  1.00  0.00     0.016 A 
ATOM     17  C   UNL     1      14.185 -21.712  -1.736  1.00  0.00     0.047 A 
BRANCH  15  18
ATOM     18  O   UNL     1      13.870 -22.390   0.558  1.00  0.00    -0.508 OA
ATOM     19  H   UNL     1      14.292 -22.784   1.391  1.00  0.00     0.293 HD
ENDBRANCH  15  18
ENDBRANCH   1  12
BRANCH   2  20
ATOM     20  O   UNL     1      13.912 -24.378  -5.426  1.00  0.00    -0.502 OA
ATOM     21  H   UNL     1      13.138 -23.727  -5.472  1.00  0.00     0.293 HD
ENDBRANCH   2  20
BRANCH   6  22
ATOM     22  O   UNL     1      17.423 -24.706  -9.419  1.00  0.00    -0.507 OA
ATOM     23  H   UNL     1      17.967 -24.943 -10.234  1.00  0.00     0.293 HD
ENDBRANCH   6  22
BRANCH   8  24
ATOM     24  O   UNL     1      21.028 -22.117  -7.584  1.00  0.00    -0.508 OA
ATOM     25  H   UNL     1      21.183 -21.120  -7.492  1.00  0.00     0.293 HD
ENDBRANCH   8  24
TORSDOF 5
ENDMDL
