MODEL 1
REMARK VINA RESULT:    -4.973      0.000      0.000
REMARK INTER + INTRA:         -16.178
REMARK INTER:                 -12.532
REMARK INTRA:                  -3.646
REMARK UNBOUND:                -3.646
REMARK SMILES CCCCCCCCCCCCCCCCCCCCCCCCCCCC(=O)[O-]
REMARK SMILES IDX 15 1 16 2 17 3 18 4 19 5 20 6 21 7 22 8 23 9 24 10 25 11
REMARK SMILES IDX 26 12 27 13 28 14 29 15 30 16 14 17 13 18 12 19 11 20 10 21
REMARK SMILES IDX 9 22 8 23 7 24 6 25 5 26 4 27 3 28 2 29 1 30
REMARK H PARENT
REMARK Flexibility Score: inf
ROOT
ATOM      1  C   UNL     1      23.988 120.341 299.235  1.00  0.00     0.000 C 
ENDROOT
BRANCH   1   2
ATOM      2  C   UNL     1      25.285 120.609 298.443  1.00  0.00     0.000 C 
BRANCH   2   3
ATOM      3  C   UNL     1      26.081 119.355 298.037  1.00  0.00     0.000 C 
BRANCH   3   4
ATOM      4  C   UNL     1      27.603 119.558 298.130  1.00  0.00     0.000 C 
BRANCH   4   5
ATOM      5  C   UNL     1      28.311 119.315 296.788  1.00  0.00     0.000 C 
BRANCH   5   6
ATOM      6  C   UNL     1      28.353 120.573 295.903  1.00  0.00     0.000 C 
BRANCH   6   7
ATOM      7  C   UNL     1      28.094 120.255 294.416  1.00  0.00     0.000 C 
BRANCH   7   8
ATOM      8  C   UNL     1      26.908 121.026 293.802  1.00  0.00     0.000 C 
BRANCH   8   9
ATOM      9  C   UNL     1      25.752 121.296 294.788  1.00  0.00     0.000 C 
BRANCH   9  10
ATOM     10  C   UNL     1      24.528 120.390 294.551  1.00  0.00     0.000 C 
BRANCH  10  11
ATOM     11  C   UNL     1      24.774 118.950 295.033  1.00  0.00     0.000 C 
BRANCH  11  12
ATOM     12  C   UNL     1      24.542 117.907 293.928  1.00  0.00     0.006 C 
BRANCH  12  13
ATOM     13  C   UNL     1      24.312 118.542 292.551  1.00  0.00     0.053 C 
BRANCH  13  14
ATOM     14  C   UNL     1      25.456 118.238 291.636  1.00  0.00     0.041 C 
ATOM     15  O   UNL     1      25.317 118.349 290.389  1.00  0.00    -0.550 OA
ATOM     16  O   UNL     1      26.688 117.868 292.161  1.00  0.00    -0.550 OA
ENDBRANCH  13  14
ENDBRANCH  12  13
ENDBRANCH  11  12
ENDBRANCH  10  11
ENDBRANCH   9  10
ENDBRANCH   8   9
ENDBRANCH   7   8
ENDBRANCH   6   7
ENDBRANCH   5   6
ENDBRANCH   4   5
ENDBRANCH   3   4
ENDBRANCH   2   3
ENDBRANCH   1   2
BRANCH   1  17
ATOM     17  C   UNL     1      23.933 118.994 299.977  1.00  0.00     0.000 C 
BRANCH  17  18
ATOM     18  C   UNL     1      22.502 118.451 300.125  1.00  0.00     0.000 C 
BRANCH  18  19
ATOM     19  C   UNL     1      21.713 118.468 298.802  1.00  0.00     0.000 C 
BRANCH  19  20
ATOM     20  C   UNL     1      22.290 117.582 297.683  1.00  0.00     0.000 C 
BRANCH  20  21
ATOM     21  C   UNL     1      21.584 117.782 296.334  1.00  0.00     0.000 C 
BRANCH  21  22
ATOM     22  C   UNL     1      21.297 119.266 296.077  1.00  0.00    -0.000 C 
BRANCH  22  23
ATOM     23  C   UNL     1      19.880 119.463 295.520  1.00  0.00    -0.000 C 
BRANCH  23  24
ATOM     24  C   UNL     1      19.596 118.578 294.296  1.00  0.00    -0.000 C 
BRANCH  24  25
ATOM     25  C   UNL     1      18.450 117.585 294.534  1.00  0.00    -0.000 C 
BRANCH  25  26
ATOM     26  C   UNL     1      17.286 117.852 293.571  1.00  0.00    -0.000 C 
BRANCH  26  27
ATOM     27  C   UNL     1      17.171 116.736 292.522  1.00  0.00    -0.000 C 
BRANCH  27  28
ATOM     28  C   UNL     1      18.519 116.401 291.864  1.00  0.00    -0.000 C 
BRANCH  28  29
ATOM     29  C   UNL     1      18.372 115.442 290.673  1.00  0.00    -0.003 C 
ATOM     30  C   UNL     1      17.045 114.688 290.736  1.00  0.00     0.004 C 
ENDBRANCH  28  29
ENDBRANCH  27  28
ENDBRANCH  26  27
ENDBRANCH  25  26
ENDBRANCH  24  25
ENDBRANCH  23  24
ENDBRANCH  22  23
ENDBRANCH  21  22
ENDBRANCH  20  21
ENDBRANCH  19  20
ENDBRANCH  18  19
ENDBRANCH  17  18
ENDBRANCH   1  17
TORSDOF 26
ENDMDL
MODEL 2
REMARK VINA RESULT:    -4.960      2.085      4.844
REMARK INTER + INTRA:         -16.146
REMARK INTER:                 -12.477
REMARK INTRA:                  -3.669
REMARK UNBOUND:                -3.646
REMARK SMILES CCCCCCCCCCCCCCCCCCCCCCCCCCCC(=O)[O-]
REMARK SMILES IDX 15 1 16 2 17 3 18 4 19 5 20 6 21 7 22 8 23 9 24 10 25 11
REMARK SMILES IDX 26 12 27 13 28 14 29 15 30 16 14 17 13 18 12 19 11 20 10 21
REMARK SMILES IDX 9 22 8 23 7 24 6 25 5 26 4 27 3 28 2 29 1 30
REMARK H PARENT
REMARK Flexibility Score: inf
ROOT
ATOM      1  C   UNL     1      20.971 116.590 296.975  1.00  0.00     0.000 C 
ENDROOT
BRANCH   1   2
ATOM      2  C   UNL     1      20.198 117.537 297.917  1.00  0.00     0.000 C 
BRANCH   2   3
ATOM      3  C   UNL     1      21.060 118.296 298.942  1.00  0.00     0.000 C 
BRANCH   3   4
ATOM      4  C   UNL     1      20.438 119.637 299.367  1.00  0.00     0.000 C 
BRANCH   4   5
ATOM      5  C   UNL     1      21.127 120.239 300.602  1.00  0.00     0.000 C 
BRANCH   5   6
ATOM      6  C   UNL     1      22.098 121.378 300.242  1.00  0.00     0.000 C 
BRANCH   6   7
ATOM      7  C   UNL     1      23.033 121.745 301.412  1.00  0.00     0.000 C 
BRANCH   7   8
ATOM      8  C   UNL     1      24.535 121.652 301.074  1.00  0.00     0.000 C 
BRANCH   8   9
ATOM      9  C   UNL     1      24.936 120.359 300.334  1.00  0.00     0.000 C 
BRANCH   9  10
ATOM     10  C   UNL     1      25.579 120.620 298.959  1.00  0.00     0.000 C 
BRANCH  10  11
ATOM     11  C   UNL     1      26.836 119.760 298.736  1.00  0.00     0.000 C 
BRANCH  11  12
ATOM     12  C   UNL     1      27.049 119.395 297.259  1.00  0.00     0.006 C 
BRANCH  12  13
ATOM     13  C   UNL     1      27.064 120.622 296.339  1.00  0.00     0.053 C 
BRANCH  13  14
ATOM     14  C   UNL     1      28.406 120.781 295.698  1.00  0.00     0.041 C 
ATOM     15  O   UNL     1      29.454 120.690 296.390  1.00  0.00    -0.550 OA
ATOM     16  O   UNL     1      28.503 120.993 294.327  1.00  0.00    -0.550 OA
ENDBRANCH  13  14
ENDBRANCH  12  13
ENDBRANCH  11  12
ENDBRANCH  10  11
ENDBRANCH   9  10
ENDBRANCH   8   9
ENDBRANCH   7   8
ENDBRANCH   6   7
ENDBRANCH   5   6
ENDBRANCH   4   5
ENDBRANCH   3   4
ENDBRANCH   2   3
ENDBRANCH   1   2
BRANCH   1  17
ATOM     17  C   UNL     1      22.482 116.859 296.862  1.00  0.00     0.000 C 
BRANCH  17  18
ATOM     18  C   UNL     1      22.843 117.753 295.665  1.00  0.00     0.000 C 
BRANCH  18  19
ATOM     19  C   UNL     1      23.639 119.008 296.071  1.00  0.00     0.000 C 
BRANCH  19  20
ATOM     20  C   UNL     1      23.116 120.333 295.488  1.00  0.00     0.000 C 
BRANCH  20  21
ATOM     21  C   UNL     1      21.744 120.193 294.813  1.00  0.00     0.000 C 
BRANCH  21  22
ATOM     22  C   UNL     1      20.616 120.603 295.768  1.00  0.00    -0.000 C 
BRANCH  22  23
ATOM     23  C   UNL     1      19.287 119.951 295.359  1.00  0.00    -0.000 C 
BRANCH  23  24
ATOM     24  C   UNL     1      19.469 118.837 294.316  1.00  0.00    -0.000 C 
BRANCH  24  25
ATOM     25  C   UNL     1      18.466 117.687 294.493  1.00  0.00    -0.000 C 
BRANCH  25  26
ATOM     26  C   UNL     1      17.328 117.792 293.471  1.00  0.00    -0.000 C 
BRANCH  26  27
ATOM     27  C   UNL     1      17.195 116.495 292.658  1.00  0.00    -0.000 C 
BRANCH  27  28
ATOM     28  C   UNL     1      18.386 116.265 291.714  1.00  0.00    -0.000 C 
BRANCH  28  29
ATOM     29  C   UNL     1      17.953 115.755 290.332  1.00  0.00    -0.003 C 
ATOM     30  C   UNL     1      17.228 114.416 290.443  1.00  0.00     0.004 C 
ENDBRANCH  28  29
ENDBRANCH  27  28
ENDBRANCH  26  27
ENDBRANCH  25  26
ENDBRANCH  24  25
ENDBRANCH  23  24
ENDBRANCH  22  23
ENDBRANCH  21  22
ENDBRANCH  20  21
ENDBRANCH  19  20
ENDBRANCH  18  19
ENDBRANCH  17  18
ENDBRANCH   1  17
TORSDOF 26
ENDMDL
MODEL 3
REMARK VINA RESULT:    -4.858      2.480      4.686
REMARK INTER + INTRA:         -15.889
REMARK INTER:                 -11.597
REMARK INTRA:                  -4.292
REMARK UNBOUND:                -3.646
REMARK SMILES CCCCCCCCCCCCCCCCCCCCCCCCCCCC(=O)[O-]
REMARK SMILES IDX 15 1 16 2 17 3 18 4 19 5 20 6 21 7 22 8 23 9 24 10 25 11
REMARK SMILES IDX 26 12 27 13 28 14 29 15 30 16 14 17 13 18 12 19 11 20 10 21
REMARK SMILES IDX 9 22 8 23 7 24 6 25 5 26 4 27 3 28 2 29 1 30
REMARK H PARENT
REMARK Flexibility Score: inf
ROOT
ATOM      1  C   UNL     1      21.035 120.464 300.789  1.00  0.00     0.000 C 
ENDROOT
BRANCH   1   2
ATOM      2  C   UNL     1      20.319 121.134 299.598  1.00  0.00     0.000 C 
BRANCH   2   3
ATOM      3  C   UNL     1      18.943 120.545 299.239  1.00  0.00     0.000 C 
BRANCH   3   4
ATOM      4  C   UNL     1      18.736 120.393 297.722  1.00  0.00     0.000 C 
BRANCH   4   5
ATOM      5  C   UNL     1      19.982 120.791 296.916  1.00  0.00     0.000 C 
BRANCH   5   6
ATOM      6  C   UNL     1      19.677 121.011 295.423  1.00  0.00     0.000 C 
BRANCH   6   7
ATOM      7  C   UNL     1      20.911 120.770 294.529  1.00  0.00     0.000 C 
BRANCH   7   8
ATOM      8  C   UNL     1      21.437 119.320 294.555  1.00  0.00     0.000 C 
BRANCH   8   9
ATOM      9  C   UNL     1      22.963 119.200 294.367  1.00  0.00     0.000 C 
BRANCH   9  10
ATOM     10  C   UNL     1      23.768 119.806 295.534  1.00  0.00     0.000 C 
BRANCH  10  11
ATOM     11  C   UNL     1      24.763 120.876 295.054  1.00  0.00     0.000 C 
BRANCH  11  12
ATOM     12  C   UNL     1      26.026 120.944 295.927  1.00  0.00     0.006 C 
BRANCH  12  13
ATOM     13  C   UNL     1      26.517 119.560 296.372  1.00  0.00     0.053 C 
BRANCH  13  14
ATOM     14  C   UNL     1      26.796 119.551 297.842  1.00  0.00     0.041 C 
ATOM     15  O   UNL     1      26.198 120.354 298.606  1.00  0.00    -0.550 OA
ATOM     16  O   UNL     1      27.690 118.630 298.374  1.00  0.00    -0.550 OA
ENDBRANCH  13  14
ENDBRANCH  12  13
ENDBRANCH  11  12
ENDBRANCH  10  11
ENDBRANCH   9  10
ENDBRANCH   8   9
ENDBRANCH   7   8
ENDBRANCH   6   7
ENDBRANCH   5   6
ENDBRANCH   4   5
ENDBRANCH   3   4
ENDBRANCH   2   3
ENDBRANCH   1   2
BRANCH   1  17
ATOM     17  C   UNL     1      22.529 120.161 300.576  1.00  0.00     0.000 C 
BRANCH  17  18
ATOM     18  C   UNL     1      22.836 119.621 299.171  1.00  0.00     0.000 C 
BRANCH  18  19
ATOM     19  C   UNL     1      22.564 118.111 299.035  1.00  0.00     0.000 C 
BRANCH  19  20
ATOM     20  C   UNL     1      21.920 117.678 297.706  1.00  0.00     0.000 C 
BRANCH  20  21
ATOM     21  C   UNL     1      20.518 117.078 297.884  1.00  0.00     0.000 C 
BRANCH  21  22
ATOM     22  C   UNL     1      19.713 117.162 296.581  1.00  0.00    -0.000 C 
BRANCH  22  23
ATOM     23  C   UNL     1      18.516 116.200 296.612  1.00  0.00    -0.000 C 
BRANCH  23  24
ATOM     24  C   UNL     1      17.368 116.655 295.697  1.00  0.00    -0.000 C 
BRANCH  24  25
ATOM     25  C   UNL     1      17.602 118.050 295.099  1.00  0.00    -0.000 C 
BRANCH  25  26
ATOM     26  C   UNL     1      17.196 118.087 293.621  1.00  0.00    -0.000 C 
BRANCH  26  27
ATOM     27  C   UNL     1      18.131 117.215 292.770  1.00  0.00    -0.000 C 
BRANCH  27  28
ATOM     28  C   UNL     1      17.405 116.025 292.123  1.00  0.00    -0.000 C 
BRANCH  28  29
ATOM     29  C   UNL     1      18.156 115.467 290.905  1.00  0.00    -0.003 C 
ATOM     30  C   UNL     1      17.296 114.462 290.142  1.00  0.00     0.004 C 
ENDBRANCH  28  29
ENDBRANCH  27  28
ENDBRANCH  26  27
ENDBRANCH  25  26
ENDBRANCH  24  25
ENDBRANCH  23  24
ENDBRANCH  22  23
ENDBRANCH  21  22
ENDBRANCH  20  21
ENDBRANCH  19  20
ENDBRANCH  18  19
ENDBRANCH  17  18
ENDBRANCH   1  17
TORSDOF 26
ENDMDL
MODEL 4
REMARK VINA RESULT:    -4.843      1.540      2.512
REMARK INTER + INTRA:         -15.850
REMARK INTER:                 -12.783
REMARK INTRA:                  -3.067
REMARK UNBOUND:                -3.646
REMARK SMILES CCCCCCCCCCCCCCCCCCCCCCCCCCCC(=O)[O-]
REMARK SMILES IDX 15 1 16 2 17 3 18 4 19 5 20 6 21 7 22 8 23 9 24 10 25 11
REMARK SMILES IDX 26 12 27 13 28 14 29 15 30 16 14 17 13 18 12 19 11 20 10 21
REMARK SMILES IDX 9 22 8 23 7 24 6 25 5 26 4 27 3 28 2 29 1 30
REMARK H PARENT
REMARK Flexibility Score: inf
ROOT
ATOM      1  C   UNL     1      22.265 121.990 300.629  1.00  0.00     0.000 C 
ENDROOT
BRANCH   1   2
ATOM      2  C   UNL     1      23.783 121.800 300.838  1.00  0.00     0.000 C 
BRANCH   2   3
ATOM      3  C   UNL     1      24.177 120.802 301.941  1.00  0.00     0.000 C 
BRANCH   3   4
ATOM      4  C   UNL     1      25.666 120.419 301.895  1.00  0.00     0.000 C 
BRANCH   4   5
ATOM      5  C   UNL     1      26.291 120.654 300.511  1.00  0.00     0.000 C 
BRANCH   5   6
ATOM      6  C   UNL     1      26.584 119.341 299.762  1.00  0.00     0.000 C 
BRANCH   6   7
ATOM      7  C   UNL     1      26.301 119.452 298.250  1.00  0.00     0.000 C 
BRANCH   7   8
ATOM      8  C   UNL     1      25.452 120.677 297.853  1.00  0.00     0.000 C 
BRANCH   8   9
ATOM      9  C   UNL     1      25.820 121.281 296.481  1.00  0.00     0.000 C 
BRANCH   9  10
ATOM     10  C   UNL     1      24.864 120.849 295.352  1.00  0.00     0.000 C 
BRANCH  10  11
ATOM     11  C   UNL     1      25.618 120.230 294.163  1.00  0.00     0.000 C 
BRANCH  11  12
ATOM     12  C   UNL     1      25.250 118.756 293.930  1.00  0.00     0.006 C 
BRANCH  12  13
ATOM     13  C   UNL     1      24.198 118.573 292.828  1.00  0.00     0.053 C 
BRANCH  13  14
ATOM     14  C   UNL     1      24.848 118.151 291.548  1.00  0.00     0.041 C 
ATOM     15  O   UNL     1      24.246 118.299 290.452  1.00  0.00    -0.550 OA
ATOM     16  O   UNL     1      26.136 117.627 291.561  1.00  0.00    -0.550 OA
ENDBRANCH  13  14
ENDBRANCH  12  13
ENDBRANCH  11  12
ENDBRANCH  10  11
ENDBRANCH   9  10
ENDBRANCH   8   9
ENDBRANCH   7   8
ENDBRANCH   6   7
ENDBRANCH   5   6
ENDBRANCH   4   5
ENDBRANCH   3   4
ENDBRANCH   2   3
ENDBRANCH   1   2
BRANCH   1  17
ATOM     17  C   UNL     1      21.436 120.694 300.597  1.00  0.00     0.000 C 
BRANCH  17  18
ATOM     18  C   UNL     1      21.647 119.880 299.311  1.00  0.00     0.000 C 
BRANCH  18  19
ATOM     19  C   UNL     1      22.255 118.490 299.573  1.00  0.00     0.000 C 
BRANCH  19  20
ATOM     20  C   UNL     1      23.096 117.914 298.419  1.00  0.00     0.000 C 
BRANCH  20  21
ATOM     21  C   UNL     1      22.404 118.034 297.053  1.00  0.00     0.000 C 
BRANCH  21  22
ATOM     22  C   UNL     1      21.511 116.817 296.780  1.00  0.00    -0.000 C 
BRANCH  22  23
ATOM     23  C   UNL     1      20.025 117.204 296.830  1.00  0.00    -0.000 C 
BRANCH  23  24
ATOM     24  C   UNL     1      19.551 117.901 295.545  1.00  0.00    -0.000 C 
BRANCH  24  25
ATOM     25  C   UNL     1      18.267 118.718 295.751  1.00  0.00    -0.000 C 
BRANCH  25  26
ATOM     26  C   UNL     1      17.141 118.205 294.843  1.00  0.00    -0.000 C 
BRANCH  26  27
ATOM     27  C   UNL     1      17.532 116.877 294.177  1.00  0.00    -0.000 C 
BRANCH  27  28
ATOM     28  C   UNL     1      17.776 117.023 292.666  1.00  0.00    -0.000 C 
BRANCH  28  29
ATOM     29  C   UNL     1      17.471 115.732 291.892  1.00  0.00    -0.003 C 
ATOM     30  C   UNL     1      18.197 115.712 290.549  1.00  0.00     0.004 C 
ENDBRANCH  28  29
ENDBRANCH  27  28
ENDBRANCH  26  27
ENDBRANCH  25  26
ENDBRANCH  24  25
ENDBRANCH  23  24
ENDBRANCH  22  23
ENDBRANCH  21  22
ENDBRANCH  20  21
ENDBRANCH  19  20
ENDBRANCH  18  19
ENDBRANCH  17  18
ENDBRANCH   1  17
TORSDOF 26
ENDMDL
MODEL 5
REMARK VINA RESULT:    -4.777      3.496      8.551
REMARK INTER + INTRA:         -15.684
REMARK INTER:                 -12.044
REMARK INTRA:                  -3.640
REMARK UNBOUND:                -3.646
REMARK SMILES CCCCCCCCCCCCCCCCCCCCCCCCCCCC(=O)[O-]
REMARK SMILES IDX 15 1 16 2 17 3 18 4 19 5 20 6 21 7 22 8 23 9 24 10 25 11
REMARK SMILES IDX 26 12 27 13 28 14 29 15 30 16 14 17 13 18 12 19 11 20 10 21
REMARK SMILES IDX 9 22 8 23 7 24 6 25 5 26 4 27 3 28 2 29 1 30
REMARK H PARENT
REMARK Flexibility Score: inf
ROOT
ATOM      1  C   UNL     1      22.955 117.451 297.935  1.00  0.00     0.000 C 
ENDROOT
BRANCH   1   2
ATOM      2  C   UNL     1      21.987 116.942 296.845  1.00  0.00     0.000 C 
BRANCH   2   3
ATOM      3  C   UNL     1      20.529 116.747 297.296  1.00  0.00     0.000 C 
BRANCH   3   4
ATOM      4  C   UNL     1      19.523 117.492 296.402  1.00  0.00     0.000 C 
BRANCH   4   5
ATOM      5  C   UNL     1      20.210 118.301 295.291  1.00  0.00     0.000 C 
BRANCH   5   6
ATOM      6  C   UNL     1      20.130 119.820 295.528  1.00  0.00     0.000 C 
BRANCH   6   7
ATOM      7  C   UNL     1      19.083 120.501 294.624  1.00  0.00     0.000 C 
BRANCH   7   8
ATOM      8  C   UNL     1      17.626 120.326 295.099  1.00  0.00     0.000 C 
BRANCH   8   9
ATOM      9  C   UNL     1      16.584 120.360 293.962  1.00  0.00     0.000 C 
BRANCH   9  10
ATOM     10  C   UNL     1      16.110 118.959 293.531  1.00  0.00     0.000 C 
BRANCH  10  11
ATOM     11  C   UNL     1      16.596 117.863 294.495  1.00  0.00     0.000 C 
BRANCH  11  12
ATOM     12  C   UNL     1      17.102 116.610 293.763  1.00  0.00     0.006 C 
BRANCH  12  13
ATOM     13  C   UNL     1      18.003 116.944 292.567  1.00  0.00     0.053 C 
BRANCH  13  14
ATOM     14  C   UNL     1      17.957 115.845 291.553  1.00  0.00     0.041 C 
ATOM     15  O   UNL     1      18.842 115.769 290.660  1.00  0.00    -0.550 OA
ATOM     16  O   UNL     1      16.957 114.882 291.615  1.00  0.00    -0.550 OA
ENDBRANCH  13  14
ENDBRANCH  12  13
ENDBRANCH  11  12
ENDBRANCH  10  11
ENDBRANCH   9  10
ENDBRANCH   8   9
ENDBRANCH   7   8
ENDBRANCH   6   7
ENDBRANCH   5   6
ENDBRANCH   4   5
ENDBRANCH   3   4
ENDBRANCH   2   3
ENDBRANCH   1   2
BRANCH   1  17
ATOM     17  C   UNL     1      23.110 118.980 298.018  1.00  0.00     0.000 C 
BRANCH  17  18
ATOM     18  C   UNL     1      22.358 119.594 299.209  1.00  0.00     0.000 C 
BRANCH  18  19
ATOM     19  C   UNL     1      21.023 120.246 298.805  1.00  0.00     0.000 C 
BRANCH  19  20
ATOM     20  C   UNL     1      20.443 121.242 299.826  1.00  0.00     0.000 C 
BRANCH  20  21
ATOM     21  C   UNL     1      21.526 121.977 300.630  1.00  0.00     0.000 C 
BRANCH  21  22
ATOM     22  C   UNL     1      21.360 121.727 302.134  1.00  0.00    -0.000 C 
BRANCH  22  23
ATOM     23  C   UNL     1      22.646 121.144 302.738  1.00  0.00    -0.000 C 
BRANCH  23  24
ATOM     24  C   UNL     1      23.917 121.720 302.094  1.00  0.00    -0.000 C 
BRANCH  24  25
ATOM     25  C   UNL     1      24.880 120.630 301.602  1.00  0.00    -0.000 C 
BRANCH  25  26
ATOM     26  C   UNL     1      26.339 121.044 301.830  1.00  0.00    -0.000 C 
BRANCH  26  27
ATOM     27  C   UNL     1      27.273 120.356 300.823  1.00  0.00    -0.000 C 
BRANCH  27  28
ATOM     28  C   UNL     1      26.599 120.113 299.463  1.00  0.00    -0.000 C 
BRANCH  28  29
ATOM     29  C   UNL     1      26.573 118.627 299.075  1.00  0.00    -0.003 C 
ATOM     30  C   UNL     1      27.872 117.932 299.476  1.00  0.00     0.004 C 
ENDBRANCH  28  29
ENDBRANCH  27  28
ENDBRANCH  26  27
ENDBRANCH  25  26
ENDBRANCH  24  25
ENDBRANCH  23  24
ENDBRANCH  22  23
ENDBRANCH  21  22
ENDBRANCH  20  21
ENDBRANCH  19  20
ENDBRANCH  18  19
ENDBRANCH  17  18
ENDBRANCH   1  17
TORSDOF 26
ENDMDL
MODEL 6
REMARK VINA RESULT:    -4.769      2.524      5.675
REMARK INTER + INTRA:         -15.663
REMARK INTER:                 -11.722
REMARK INTRA:                  -3.941
REMARK UNBOUND:                -3.646
REMARK SMILES CCCCCCCCCCCCCCCCCCCCCCCCCCCC(=O)[O-]
REMARK SMILES IDX 15 1 16 2 17 3 18 4 19 5 20 6 21 7 22 8 23 9 24 10 25 11
REMARK SMILES IDX 26 12 27 13 28 14 29 15 30 16 14 17 13 18 12 19 11 20 10 21
REMARK SMILES IDX 9 22 8 23 7 24 6 25 5 26 4 27 3 28 2 29 1 30
REMARK H PARENT
REMARK Flexibility Score: inf
ROOT
ATOM      1  C   UNL     1      19.625 121.448 295.114  1.00  0.00     0.000 C 
ENDROOT
BRANCH   1   2
ATOM      2  C   UNL     1      19.411 119.944 294.846  1.00  0.00     0.000 C 
BRANCH   2   3
ATOM      3  C   UNL     1      19.142 119.083 296.094  1.00  0.00     0.000 C 
BRANCH   3   4
ATOM      4  C   UNL     1      19.645 117.638 295.941  1.00  0.00     0.000 C 
BRANCH   4   5
ATOM      5  C   UNL     1      20.216 117.072 297.251  1.00  0.00     0.000 C 
BRANCH   5   6
ATOM      6  C   UNL     1      20.844 118.158 298.142  1.00  0.00     0.000 C 
BRANCH   6   7
ATOM      7  C   UNL     1      22.273 117.795 298.593  1.00  0.00     0.000 C 
BRANCH   7   8
ATOM      8  C   UNL     1      23.388 118.422 297.731  1.00  0.00     0.000 C 
BRANCH   8   9
ATOM      9  C   UNL     1      22.932 119.639 296.899  1.00  0.00     0.000 C 
BRANCH   9  10
ATOM     10  C   UNL     1      22.851 119.345 295.389  1.00  0.00     0.000 C 
BRANCH  10  11
ATOM     11  C   UNL     1      23.401 117.950 295.041  1.00  0.00     0.000 C 
BRANCH  11  12
ATOM     12  C   UNL     1      24.524 118.000 293.993  1.00  0.00     0.006 C 
BRANCH  12  13
ATOM     13  C   UNL     1      24.820 119.424 293.506  1.00  0.00     0.053 C 
BRANCH  13  14
ATOM     14  C   UNL     1      26.274 119.580 293.196  1.00  0.00     0.041 C 
ATOM     15  O   UNL     1      26.978 118.570 292.931  1.00  0.00    -0.550 OA
ATOM     16  O   UNL     1      26.847 120.847 293.162  1.00  0.00    -0.550 OA
ENDBRANCH  13  14
ENDBRANCH  12  13
ENDBRANCH  11  12
ENDBRANCH  10  11
ENDBRANCH   9  10
ENDBRANCH   8   9
ENDBRANCH   7   8
ENDBRANCH   6   7
ENDBRANCH   5   6
ENDBRANCH   4   5
ENDBRANCH   3   4
ENDBRANCH   2   3
ENDBRANCH   1   2
BRANCH   1  17
ATOM     17  C   UNL     1      19.325 122.380 293.926  1.00  0.00     0.000 C 
BRANCH  17  18
ATOM     18  C   UNL     1      18.458 123.588 294.317  1.00  0.00     0.000 C 
BRANCH  18  19
ATOM     19  C   UNL     1      17.438 123.971 293.230  1.00  0.00     0.000 C 
BRANCH  19  20
ATOM     20  C   UNL     1      16.813 122.787 292.470  1.00  0.00     0.000 C 
BRANCH  20  21
ATOM     21  C   UNL     1      15.311 122.621 292.744  1.00  0.00     0.000 C 
BRANCH  21  22
ATOM     22  C   UNL     1      14.965 121.159 293.049  1.00  0.00    -0.000 C 
BRANCH  22  23
ATOM     23  C   UNL     1      16.166 120.428 293.669  1.00  0.00    -0.000 C 
BRANCH  23  24
ATOM     24  C   UNL     1      15.746 119.374 294.706  1.00  0.00    -0.000 C 
BRANCH  24  25
ATOM     25  C   UNL     1      16.052 117.939 294.251  1.00  0.00    -0.000 C 
BRANCH  25  26
ATOM     26  C   UNL     1      17.095 117.932 293.127  1.00  0.00    -0.000 C 
BRANCH  26  27
ATOM     27  C   UNL     1      17.570 116.503 292.823  1.00  0.00    -0.000 C 
BRANCH  27  28
ATOM     28  C   UNL     1      18.581 116.448 291.667  1.00  0.00    -0.000 C 
BRANCH  28  29
ATOM     29  C   UNL     1      18.334 115.262 290.723  1.00  0.00    -0.003 C 
ATOM     30  C   UNL     1      16.892 114.769 290.828  1.00  0.00     0.004 C 
ENDBRANCH  28  29
ENDBRANCH  27  28
ENDBRANCH  26  27
ENDBRANCH  25  26
ENDBRANCH  24  25
ENDBRANCH  23  24
ENDBRANCH  22  23
ENDBRANCH  21  22
ENDBRANCH  20  21
ENDBRANCH  19  20
ENDBRANCH  18  19
ENDBRANCH  17  18
ENDBRANCH   1  17
TORSDOF 26
ENDMDL
MODEL 7
REMARK VINA RESULT:    -4.705      3.411      5.904
REMARK INTER + INTRA:         -15.503
REMARK INTER:                 -12.118
REMARK INTRA:                  -3.385
REMARK UNBOUND:                -3.646
REMARK SMILES CCCCCCCCCCCCCCCCCCCCCCCCCCCC(=O)[O-]
REMARK SMILES IDX 15 1 16 2 17 3 18 4 19 5 20 6 21 7 22 8 23 9 24 10 25 11
REMARK SMILES IDX 26 12 27 13 28 14 29 15 30 16 14 17 13 18 12 19 11 20 10 21
REMARK SMILES IDX 9 22 8 23 7 24 6 25 5 26 4 27 3 28 2 29 1 30
REMARK H PARENT
REMARK Flexibility Score: inf
ROOT
ATOM      1  C   UNL     1      20.755 119.170 300.350  1.00  0.00     0.000 C 
ENDROOT
BRANCH   1   2
ATOM      2  C   UNL     1      20.796 119.435 301.870  1.00  0.00     0.000 C 
BRANCH   2   3
ATOM      3  C   UNL     1      21.031 120.900 302.279  1.00  0.00     0.000 C 
BRANCH   3   4
ATOM      4  C   UNL     1      21.954 121.038 303.502  1.00  0.00     0.000 C 
BRANCH   4   5
ATOM      5  C   UNL     1      22.730 119.746 303.801  1.00  0.00     0.000 C 
BRANCH   5   6
ATOM      6  C   UNL     1      23.929 119.979 304.738  1.00  0.00     0.000 C 
BRANCH   6   7
ATOM      7  C   UNL     1      24.469 121.421 304.655  1.00  0.00     0.000 C 
BRANCH   7   8
ATOM      8  C   UNL     1      25.928 121.523 304.165  1.00  0.00     0.000 C 
BRANCH   8   9
ATOM      9  C   UNL     1      26.176 120.878 302.785  1.00  0.00     0.000 C 
BRANCH   9  10
ATOM     10  C   UNL     1      25.378 121.548 301.650  1.00  0.00     0.000 C 
BRANCH  10  11
ATOM     11  C   UNL     1      24.724 120.515 300.716  1.00  0.00     0.000 C 
BRANCH  11  12
ATOM     12  C   UNL     1      25.540 119.217 300.605  1.00  0.00     0.006 C 
BRANCH  12  13
ATOM     13  C   UNL     1      25.929 118.881 299.159  1.00  0.00     0.053 C 
BRANCH  13  14
ATOM     14  C   UNL     1      27.337 119.302 298.884  1.00  0.00     0.041 C 
ATOM     15  O   UNL     1      27.869 119.049 297.770  1.00  0.00    -0.550 OA
ATOM     16  O   UNL     1      28.054 120.006 299.845  1.00  0.00    -0.550 OA
ENDBRANCH  13  14
ENDBRANCH  12  13
ENDBRANCH  11  12
ENDBRANCH  10  11
ENDBRANCH   9  10
ENDBRANCH   8   9
ENDBRANCH   7   8
ENDBRANCH   6   7
ENDBRANCH   5   6
ENDBRANCH   4   5
ENDBRANCH   3   4
ENDBRANCH   2   3
ENDBRANCH   1   2
BRANCH   1  17
ATOM     17  C   UNL     1      21.387 120.265 299.472  1.00  0.00     0.000 C 
BRANCH  17  18
ATOM     18  C   UNL     1      21.878 119.735 298.116  1.00  0.00     0.000 C 
BRANCH  18  19
ATOM     19  C   UNL     1      22.510 118.334 298.211  1.00  0.00     0.000 C 
BRANCH  19  20
ATOM     20  C   UNL     1      21.972 117.303 297.202  1.00  0.00     0.000 C 
BRANCH  20  21
ATOM     21  C   UNL     1      20.591 116.751 297.584  1.00  0.00     0.000 C 
BRANCH  21  22
ATOM     22  C   UNL     1      19.501 117.312 296.662  1.00  0.00    -0.000 C 
BRANCH  22  23
ATOM     23  C   UNL     1      18.324 116.332 296.544  1.00  0.00    -0.000 C 
BRANCH  23  24
ATOM     24  C   UNL     1      17.262 116.801 295.537  1.00  0.00    -0.000 C 
BRANCH  24  25
ATOM     25  C   UNL     1      17.611 118.150 294.891  1.00  0.00    -0.000 C 
BRANCH  25  26
ATOM     26  C   UNL     1      17.930 117.977 293.400  1.00  0.00    -0.000 C 
BRANCH  26  27
ATOM     27  C   UNL     1      17.252 116.720 292.834  1.00  0.00    -0.000 C 
BRANCH  27  28
ATOM     28  C   UNL     1      18.043 116.092 291.675  1.00  0.00    -0.000 C 
BRANCH  28  29
ATOM     29  C   UNL     1      17.144 115.691 290.497  1.00  0.00    -0.003 C 
ATOM     30  C   UNL     1      17.324 114.216 290.147  1.00  0.00     0.004 C 
ENDBRANCH  28  29
ENDBRANCH  27  28
ENDBRANCH  26  27
ENDBRANCH  25  26
ENDBRANCH  24  25
ENDBRANCH  23  24
ENDBRANCH  22  23
ENDBRANCH  21  22
ENDBRANCH  20  21
ENDBRANCH  19  20
ENDBRANCH  18  19
ENDBRANCH  17  18
ENDBRANCH   1  17
TORSDOF 26
ENDMDL
MODEL 8
REMARK VINA RESULT:    -4.678      2.708      5.382
REMARK INTER + INTRA:         -15.435
REMARK INTER:                 -11.364
REMARK INTRA:                  -4.072
REMARK UNBOUND:                -3.646
REMARK SMILES CCCCCCCCCCCCCCCCCCCCCCCCCCCC(=O)[O-]
REMARK SMILES IDX 15 1 16 2 17 3 18 4 19 5 20 6 21 7 22 8 23 9 24 10 25 11
REMARK SMILES IDX 26 12 27 13 28 14 29 15 30 16 14 17 13 18 12 19 11 20 10 21
REMARK SMILES IDX 9 22 8 23 7 24 6 25 5 26 4 27 3 28 2 29 1 30
REMARK H PARENT
REMARK Flexibility Score: inf
ROOT
ATOM      1  C   UNL     1      19.899 121.972 301.674  1.00  0.00     0.000 C 
ENDROOT
BRANCH   1   2
ATOM      2  C   UNL     1      18.416 121.813 301.276  1.00  0.00     0.000 C 
BRANCH   2   3
ATOM      3  C   UNL     1      17.870 120.375 301.325  1.00  0.00     0.000 C 
BRANCH   3   4
ATOM      4  C   UNL     1      17.332 119.894 299.967  1.00  0.00     0.000 C 
BRANCH   4   5
ATOM      5  C   UNL     1      17.260 121.025 298.929  1.00  0.00     0.000 C 
BRANCH   5   6
ATOM      6  C   UNL     1      17.555 120.537 297.499  1.00  0.00     0.000 C 
BRANCH   6   7
ATOM      7  C   UNL     1      18.747 121.278 296.859  1.00  0.00     0.000 C 
BRANCH   7   8
ATOM      8  C   UNL     1      18.489 121.765 295.418  1.00  0.00     0.000 C 
BRANCH   8   9
ATOM      9  C   UNL     1      19.729 121.708 294.502  1.00  0.00     0.000 C 
BRANCH   9  10
ATOM     10  C   UNL     1      20.401 120.322 294.475  1.00  0.00     0.000 C 
BRANCH  10  11
ATOM     11  C   UNL     1      21.836 120.365 295.028  1.00  0.00     0.000 C 
BRANCH  11  12
ATOM     12  C   UNL     1      22.724 119.247 294.459  1.00  0.00     0.006 C 
BRANCH  12  13
ATOM     13  C   UNL     1      23.861 118.850 295.410  1.00  0.00     0.053 C 
BRANCH  13  14
ATOM     14  C   UNL     1      25.163 119.411 294.933  1.00  0.00     0.041 C 
ATOM     15  O   UNL     1      25.201 120.144 293.910  1.00  0.00    -0.550 OA
ATOM     16  O   UNL     1      26.332 119.154 295.640  1.00  0.00    -0.550 OA
ENDBRANCH  13  14
ENDBRANCH  12  13
ENDBRANCH  11  12
ENDBRANCH  10  11
ENDBRANCH   9  10
ENDBRANCH   8   9
ENDBRANCH   7   8
ENDBRANCH   6   7
ENDBRANCH   5   6
ENDBRANCH   4   5
ENDBRANCH   3   4
ENDBRANCH   2   3
ENDBRANCH   1   2
BRANCH   1  17
ATOM     17  C   UNL     1      20.876 122.198 300.506  1.00  0.00     0.000 C 
BRANCH  17  18
ATOM     18  C   UNL     1      21.047 120.953 299.621  1.00  0.00     0.000 C 
BRANCH  18  19
ATOM     19  C   UNL     1      21.509 119.714 300.410  1.00  0.00     0.000 C 
BRANCH  19  20
ATOM     20  C   UNL     1      21.385 118.375 299.660  1.00  0.00     0.000 C 
BRANCH  20  21
ATOM     21  C   UNL     1      20.330 118.406 298.544  1.00  0.00     0.000 C 
BRANCH  21  22
ATOM     22  C   UNL     1      20.788 117.587 297.331  1.00  0.00    -0.000 C 
BRANCH  22  23
ATOM     23  C   UNL     1      19.598 116.882 296.664  1.00  0.00    -0.000 C 
BRANCH  23  24
ATOM     24  C   UNL     1      19.109 117.612 295.402  1.00  0.00    -0.000 C 
BRANCH  24  25
ATOM     25  C   UNL     1      17.605 117.429 295.155  1.00  0.00    -0.000 C 
BRANCH  25  26
ATOM     26  C   UNL     1      17.246 117.753 293.699  1.00  0.00    -0.000 C 
BRANCH  26  27
ATOM     27  C   UNL     1      17.252 116.484 292.834  1.00  0.00    -0.000 C 
BRANCH  27  28
ATOM     28  C   UNL     1      18.484 116.398 291.918  1.00  0.00    -0.000 C 
BRANCH  28  29
ATOM     29  C   UNL     1      18.169 115.739 290.567  1.00  0.00    -0.003 C 
ATOM     30  C   UNL     1      17.228 114.550 290.742  1.00  0.00     0.004 C 
ENDBRANCH  28  29
ENDBRANCH  27  28
ENDBRANCH  26  27
ENDBRANCH  25  26
ENDBRANCH  24  25
ENDBRANCH  23  24
ENDBRANCH  22  23
ENDBRANCH  21  22
ENDBRANCH  20  21
ENDBRANCH  19  20
ENDBRANCH  18  19
ENDBRANCH  17  18
ENDBRANCH   1  17
TORSDOF 26
ENDMDL
MODEL 9
REMARK VINA RESULT:    -4.662      3.573      6.391
REMARK INTER + INTRA:         -15.393
REMARK INTER:                 -10.024
REMARK INTRA:                  -5.370
REMARK UNBOUND:                -3.646
REMARK SMILES CCCCCCCCCCCCCCCCCCCCCCCCCCCC(=O)[O-]
REMARK SMILES IDX 15 1 16 2 17 3 18 4 19 5 20 6 21 7 22 8 23 9 24 10 25 11
REMARK SMILES IDX 26 12 27 13 28 14 29 15 30 16 14 17 13 18 12 19 11 20 10 21
REMARK SMILES IDX 9 22 8 23 7 24 6 25 5 26 4 27 3 28 2 29 1 30
REMARK H PARENT
REMARK Flexibility Score: inf
ROOT
ATOM      1  C   UNL     1      26.995 118.808 300.940  1.00  0.00     0.000 C 
ENDROOT
BRANCH   1   2
ATOM      2  C   UNL     1      26.872 118.241 299.509  1.00  0.00     0.000 C 
BRANCH   2   3
ATOM      3  C   UNL     1      27.079 119.261 298.375  1.00  0.00     0.000 C 
BRANCH   3   4
ATOM      4  C   UNL     1      25.874 119.347 297.423  1.00  0.00     0.000 C 
BRANCH   4   5
ATOM      5  C   UNL     1      25.621 120.777 296.921  1.00  0.00     0.000 C 
BRANCH   5   6
ATOM      6  C   UNL     1      25.227 120.823 295.434  1.00  0.00     0.000 C 
BRANCH   6   7
ATOM      7  C   UNL     1      25.867 119.680 294.621  1.00  0.00     0.000 C 
BRANCH   7   8
ATOM      8  C   UNL     1      24.850 118.760 293.914  1.00  0.00     0.000 C 
BRANCH   8   9
ATOM      9  C   UNL     1      23.413 119.321 293.875  1.00  0.00     0.000 C 
BRANCH   9  10
ATOM     10  C   UNL     1      22.362 118.334 294.417  1.00  0.00     0.000 C 
BRANCH  10  11
ATOM     11  C   UNL     1      22.962 117.355 295.441  1.00  0.00     0.000 C 
BRANCH  11  12
ATOM     12  C   UNL     1      22.515 117.656 296.881  1.00  0.00     0.006 C 
BRANCH  12  13
ATOM     13  C   UNL     1      21.135 118.323 296.948  1.00  0.00     0.053 C 
BRANCH  13  14
ATOM     14  C   UNL     1      20.058 117.290 297.050  1.00  0.00     0.041 C 
ATOM     15  O   UNL     1      20.348 116.096 297.328  1.00  0.00    -0.550 OA
ATOM     16  O   UNL     1      18.728 117.652 296.875  1.00  0.00    -0.550 OA
ENDBRANCH  13  14
ENDBRANCH  12  13
ENDBRANCH  11  12
ENDBRANCH  10  11
ENDBRANCH   9  10
ENDBRANCH   8   9
ENDBRANCH   7   8
ENDBRANCH   6   7
ENDBRANCH   5   6
ENDBRANCH   4   5
ENDBRANCH   3   4
ENDBRANCH   2   3
ENDBRANCH   1   2
BRANCH   1  17
ATOM     17  C   UNL     1      27.167 120.335 301.032  1.00  0.00     0.000 C 
BRANCH  17  18
ATOM     18  C   UNL     1      26.232 120.981 302.068  1.00  0.00     0.000 C 
BRANCH  18  19
ATOM     19  C   UNL     1      24.742 120.775 301.742  1.00  0.00     0.000 C 
BRANCH  19  20
ATOM     20  C   UNL     1      24.297 121.283 300.359  1.00  0.00     0.000 C 
BRANCH  20  21
ATOM     21  C   UNL     1      23.194 120.422 299.727  1.00  0.00     0.000 C 
BRANCH  21  22
ATOM     22  C   UNL     1      23.322 118.957 300.164  1.00  0.00    -0.000 C 
BRANCH  22  23
ATOM     23  C   UNL     1      21.968 118.405 300.637  1.00  0.00    -0.000 C 
BRANCH  23  24
ATOM     24  C   UNL     1      21.771 118.543 302.156  1.00  0.00    -0.000 C 
BRANCH  24  25
ATOM     25  C   UNL     1      20.531 119.372 302.521  1.00  0.00    -0.000 C 
BRANCH  25  26
ATOM     26  C   UNL     1      20.887 120.858 302.655  1.00  0.00    -0.000 C 
BRANCH  26  27
ATOM     27  C   UNL     1      19.835 121.741 301.966  1.00  0.00    -0.000 C 
BRANCH  27  28
ATOM     28  C   UNL     1      20.314 122.281 300.609  1.00  0.00    -0.000 C 
BRANCH  28  29
ATOM     29  C   UNL     1      19.787 121.455 299.427  1.00  0.00    -0.003 C 
ATOM     30  C   UNL     1      18.494 120.731 299.796  1.00  0.00     0.004 C 
ENDBRANCH  28  29
ENDBRANCH  27  28
ENDBRANCH  26  27
ENDBRANCH  25  26
ENDBRANCH  24  25
ENDBRANCH  23  24
ENDBRANCH  22  23
ENDBRANCH  21  22
ENDBRANCH  20  21
ENDBRANCH  19  20
ENDBRANCH  18  19
ENDBRANCH  17  18
ENDBRANCH   1  17
TORSDOF 26
ENDMDL
