MODEL 1
REMARK VINA RESULT:    -3.960      0.000      0.000
REMARK INTER + INTRA:          -6.969
REMARK INTER:                  -6.275
REMARK INTRA:                  -0.695
REMARK UNBOUND:                -0.695
REMARK SMILES CCCCCCCCCCCC(=O)[O-]
REMARK SMILES IDX 7 1 8 2 9 3 10 4 11 5 12 6 13 7 14 8 6 9 5 10 4 11 3 12 2 13
REMARK SMILES IDX 1 14
REMARK H PARENT
REMARK Flexibility Score: inf
ROOT
ATOM      1  C   UNL     1      26.755  10.912  22.900  1.00  0.00     0.000 C 
ENDROOT
BRANCH   1   2
ATOM      2  C   UNL     1      26.082  12.062  22.133  1.00  0.00     0.000 C 
BRANCH   2   3
ATOM      3  C   UNL     1      25.602  11.638  20.733  1.00  0.00     0.000 C 
BRANCH   3   4
ATOM      4  C   UNL     1      24.159  11.109  20.739  1.00  0.00     0.006 C 
BRANCH   4   5
ATOM      5  C   UNL     1      23.127  12.215  20.995  1.00  0.00     0.053 C 
BRANCH   5   6
ATOM      6  C   UNL     1      23.153  13.218  19.885  1.00  0.00     0.041 C 
ATOM      7  O   UNL     1      23.715  14.333  20.052  1.00  0.00    -0.550 OA
ATOM      8  O   UNL     1      22.601  12.904  18.650  1.00  0.00    -0.550 OA
ENDBRANCH   5   6
ENDBRANCH   4   5
ENDBRANCH   3   4
ENDBRANCH   2   3
ENDBRANCH   1   2
BRANCH   1   9
ATOM      9  C   UNL     1      27.500   9.940  21.973  1.00  0.00     0.000 C 
BRANCH   9  10
ATOM     10  C   UNL     1      29.015  10.029  22.189  1.00  0.00    -0.000 C 
BRANCH  10  11
ATOM     11  C   UNL     1      29.777   9.327  21.054  1.00  0.00    -0.000 C 
BRANCH  11  12
ATOM     12  C   UNL     1      28.897   9.116  19.804  1.00  0.00    -0.000 C 
BRANCH  12  13
ATOM     13  C   UNL     1      29.686   9.142  18.484  1.00  0.00    -0.003 C 
ATOM     14  C   UNL     1      31.177   8.876  18.673  1.00  0.00     0.004 C 
ENDBRANCH  12  13
ENDBRANCH  11  12
ENDBRANCH  10  11
ENDBRANCH   9  10
ENDBRANCH   1   9
TORSDOF 10
ENDMDL
MODEL 2
REMARK VINA RESULT:    -3.937      2.215      3.349
REMARK INTER + INTRA:          -6.933
REMARK INTER:                  -5.805
REMARK INTRA:                  -1.129
REMARK UNBOUND:                -0.695
REMARK SMILES CCCCCCCCCCCC(=O)[O-]
REMARK SMILES IDX 7 1 8 2 9 3 10 4 11 5 12 6 13 7 14 8 6 9 5 10 4 11 3 12 2 13
REMARK SMILES IDX 1 14
REMARK H PARENT
REMARK Flexibility Score: inf
ROOT
ATOM      1  C   UNL     1      25.512  11.887  20.683  1.00  0.00     0.000 C 
ENDROOT
BRANCH   1   2
ATOM      2  C   UNL     1      24.283  12.575  20.067  1.00  0.00     0.000 C 
BRANCH   2   3
ATOM      3  C   UNL     1      23.000  11.738  20.215  1.00  0.00     0.000 C 
BRANCH   3   4
ATOM      4  C   UNL     1      23.212  10.481  21.074  1.00  0.00     0.006 C 
BRANCH   4   5
ATOM      5  C   UNL     1      22.401  10.514  22.376  1.00  0.00     0.053 C 
BRANCH   5   6
ATOM      6  C   UNL     1      23.137  11.282  23.428  1.00  0.00     0.041 C 
ATOM      7  O   UNL     1      22.867  12.495  23.633  1.00  0.00    -0.550 OA
ATOM      8  O   UNL     1      24.087  10.646  24.217  1.00  0.00    -0.550 OA
ENDBRANCH   5   6
ENDBRANCH   4   5
ENDBRANCH   3   4
ENDBRANCH   2   3
ENDBRANCH   1   2
BRANCH   1   9
ATOM      9  C   UNL     1      26.101  12.674  21.862  1.00  0.00     0.000 C 
BRANCH   9  10
ATOM     10  C   UNL     1      27.093  11.814  22.655  1.00  0.00    -0.000 C 
BRANCH  10  11
ATOM     11  C   UNL     1      27.036  10.347  22.201  1.00  0.00    -0.000 C 
BRANCH  11  12
ATOM     12  C   UNL     1      28.144   9.492  22.851  1.00  0.00    -0.000 C 
BRANCH  12  13
ATOM     13  C   UNL     1      29.349   9.240  21.929  1.00  0.00    -0.003 C 
ATOM     14  C   UNL     1      28.965   9.159  20.453  1.00  0.00     0.004 C 
ENDBRANCH  12  13
ENDBRANCH  11  12
ENDBRANCH  10  11
ENDBRANCH   9  10
ENDBRANCH   1   9
TORSDOF 10
ENDMDL
MODEL 3
REMARK VINA RESULT:    -3.914      0.922      1.634
REMARK INTER + INTRA:          -6.897
REMARK INTER:                  -6.254
REMARK INTRA:                  -0.643
REMARK UNBOUND:                -0.695
REMARK SMILES CCCCCCCCCCCC(=O)[O-]
REMARK SMILES IDX 7 1 8 2 9 3 10 4 11 5 12 6 13 7 14 8 6 9 5 10 4 11 3 12 2 13
REMARK SMILES IDX 1 14
REMARK H PARENT
REMARK Flexibility Score: inf
ROOT
ATOM      1  C   UNL     1      25.804  11.420  21.530  1.00  0.00     0.000 C 
ENDROOT
BRANCH   1   2
ATOM      2  C   UNL     1      24.621  11.131  22.468  1.00  0.00     0.000 C 
BRANCH   2   3
ATOM      3  C   UNL     1      23.342  10.744  21.705  1.00  0.00     0.000 C 
BRANCH   3   4
ATOM      4  C   UNL     1      23.327  11.285  20.266  1.00  0.00     0.006 C 
BRANCH   4   5
ATOM      5  C   UNL     1      22.504  12.573  20.130  1.00  0.00     0.053 C 
BRANCH   5   6
ATOM      6  C   UNL     1      23.409  13.761  20.029  1.00  0.00     0.041 C 
ATOM      7  O   UNL     1      23.840  14.135  18.907  1.00  0.00    -0.550 OA
ATOM      8  O   UNL     1      23.737  14.484  21.169  1.00  0.00    -0.550 OA
ENDBRANCH   5   6
ENDBRANCH   4   5
ENDBRANCH   3   4
ENDBRANCH   2   3
ENDBRANCH   1   2
BRANCH   1   9
ATOM      9  C   UNL     1      27.158  11.363  22.253  1.00  0.00     0.000 C 
BRANCH   9  10
ATOM     10  C   UNL     1      27.739   9.944  22.217  1.00  0.00    -0.000 C 
BRANCH  10  11
ATOM     11  C   UNL     1      29.248   9.972  21.927  1.00  0.00    -0.000 C 
BRANCH  11  12
ATOM     12  C   UNL     1      29.672   8.875  20.928  1.00  0.00    -0.000 C 
BRANCH  12  13
ATOM     13  C   UNL     1      29.013   9.014  19.545  1.00  0.00    -0.003 C 
ATOM     14  C   UNL     1      30.026   9.085  18.405  1.00  0.00     0.004 C 
ENDBRANCH  12  13
ENDBRANCH  11  12
ENDBRANCH  10  11
ENDBRANCH   9  10
ENDBRANCH   1   9
TORSDOF 10
ENDMDL
MODEL 4
REMARK VINA RESULT:    -3.862     15.330     17.261
REMARK INTER + INTRA:          -6.814
REMARK INTER:                  -5.625
REMARK INTRA:                  -1.189
REMARK UNBOUND:                -0.695
REMARK SMILES CCCCCCCCCCCC(=O)[O-]
REMARK SMILES IDX 7 1 8 2 9 3 10 4 11 5 12 6 13 7 14 8 6 9 5 10 4 11 3 12 2 13
REMARK SMILES IDX 1 14
REMARK H PARENT
REMARK Flexibility Score: inf
ROOT
ATOM      1  C   UNL     1      25.274  26.042  24.558  1.00  0.00     0.000 C 
ENDROOT
BRANCH   1   2
ATOM      2  C   UNL     1      25.697  25.157  23.375  1.00  0.00     0.000 C 
BRANCH   2   3
ATOM      3  C   UNL     1      26.824  25.787  22.538  1.00  0.00     0.000 C 
BRANCH   3   4
ATOM      4  C   UNL     1      27.014  27.284  22.835  1.00  0.00     0.006 C 
BRANCH   4   5
ATOM      5  C   UNL     1      28.492  27.686  22.909  1.00  0.00     0.053 C 
BRANCH   5   6
ATOM      6  C   UNL     1      28.843  28.592  21.770  1.00  0.00     0.041 C 
ATOM      7  O   UNL     1      27.937  29.061  21.033  1.00  0.00    -0.550 OA
ATOM      8  O   UNL     1      30.166  28.956  21.552  1.00  0.00    -0.550 OA
ENDBRANCH   5   6
ENDBRANCH   4   5
ENDBRANCH   3   4
ENDBRANCH   2   3
ENDBRANCH   1   2
BRANCH   1   9
ATOM      9  C   UNL     1      24.120  25.434  25.368  1.00  0.00     0.000 C 
BRANCH   9  10
ATOM     10  C   UNL     1      22.810  26.189  25.110  1.00  0.00    -0.000 C 
BRANCH  10  11
ATOM     11  C   UNL     1      23.085  27.616  24.612  1.00  0.00    -0.000 C 
BRANCH  11  12
ATOM     12  C   UNL     1      22.158  28.016  23.446  1.00  0.00    -0.000 C 
BRANCH  12  13
ATOM     13  C   UNL     1      22.299  27.113  22.210  1.00  0.00    -0.003 C 
ATOM     14  C   UNL     1      23.512  27.461  21.350  1.00  0.00     0.004 C 
ENDBRANCH  12  13
ENDBRANCH  11  12
ENDBRANCH  10  11
ENDBRANCH   9  10
ENDBRANCH   1   9
TORSDOF 10
ENDMDL
MODEL 5
REMARK VINA RESULT:    -3.858      2.946      4.249
REMARK INTER + INTRA:          -6.808
REMARK INTER:                  -5.722
REMARK INTRA:                  -1.086
REMARK UNBOUND:                -0.695
REMARK SMILES CCCCCCCCCCCC(=O)[O-]
REMARK SMILES IDX 7 1 8 2 9 3 10 4 11 5 12 6 13 7 14 8 6 9 5 10 4 11 3 12 2 13
REMARK SMILES IDX 1 14
REMARK H PARENT
REMARK Flexibility Score: inf
ROOT
ATOM      1  C   UNL     1      24.152  12.663  19.994  1.00  0.00     0.000 C 
ENDROOT
BRANCH   1   2
ATOM      2  C   UNL     1      22.855  11.941  20.393  1.00  0.00     0.000 C 
BRANCH   2   3
ATOM      3  C   UNL     1      23.090  10.469  20.775  1.00  0.00     0.000 C 
BRANCH   3   4
ATOM      4  C   UNL     1      22.511  10.117  22.154  1.00  0.00     0.006 C 
BRANCH   4   5
ATOM      5  C   UNL     1      22.921  11.121  23.239  1.00  0.00     0.053 C 
BRANCH   5   6
ATOM      6  C   UNL     1      23.325  10.402  24.488  1.00  0.00     0.041 C 
ATOM      7  O   UNL     1      24.466  10.590  24.986  1.00  0.00    -0.550 OA
ATOM      8  O   UNL     1      22.423   9.563  25.130  1.00  0.00    -0.550 OA
ENDBRANCH   5   6
ENDBRANCH   4   5
ENDBRANCH   3   4
ENDBRANCH   2   3
ENDBRANCH   1   2
BRANCH   1   9
ATOM      9  C   UNL     1      25.408  11.959  20.530  1.00  0.00     0.000 C 
BRANCH   9  10
ATOM     10  C   UNL     1      25.958  12.684  21.764  1.00  0.00    -0.000 C 
BRANCH  10  11
ATOM     11  C   UNL     1      26.793  11.733  22.636  1.00  0.00    -0.000 C 
BRANCH  11  12
ATOM     12  C   UNL     1      27.113  10.408  21.913  1.00  0.00    -0.000 C 
BRANCH  12  13
ATOM     13  C   UNL     1      28.464   9.795  22.321  1.00  0.00    -0.003 C 
ATOM     14  C   UNL     1      29.280   9.298  21.130  1.00  0.00     0.004 C 
ENDBRANCH  12  13
ENDBRANCH  11  12
ENDBRANCH  10  11
ENDBRANCH   9  10
ENDBRANCH   1   9
TORSDOF 10
ENDMDL
MODEL 6
REMARK VINA RESULT:    -3.843      4.244      6.870
REMARK INTER + INTRA:          -6.785
REMARK INTER:                  -5.873
REMARK INTRA:                  -0.913
REMARK UNBOUND:                -0.695
REMARK SMILES CCCCCCCCCCCC(=O)[O-]
REMARK SMILES IDX 7 1 8 2 9 3 10 4 11 5 12 6 13 7 14 8 6 9 5 10 4 11 3 12 2 13
REMARK SMILES IDX 1 14
REMARK H PARENT
REMARK Flexibility Score: inf
ROOT
ATOM      1  C   UNL     1      26.173  12.063  21.757  1.00  0.00     0.000 C 
ENDROOT
BRANCH   1   2
ATOM      2  C   UNL     1      26.577  10.839  22.594  1.00  0.00     0.000 C 
BRANCH   2   3
ATOM      3  C   UNL     1      27.794  10.099  22.011  1.00  0.00     0.000 C 
BRANCH   3   4
ATOM      4  C   UNL     1      28.260   8.935  22.901  1.00  0.00     0.006 C 
BRANCH   4   5
ATOM      5  C   UNL     1      27.731   9.044  24.337  1.00  0.00     0.053 C 
BRANCH   5   6
ATOM      6  C   UNL     1      28.858   9.294  25.290  1.00  0.00     0.041 C 
ATOM      7  O   UNL     1      28.663   9.231  26.532  1.00  0.00    -0.550 OA
ATOM      8  O   UNL     1      30.135   9.548  24.805  1.00  0.00    -0.550 OA
ENDBRANCH   5   6
ENDBRANCH   4   5
ENDBRANCH   3   4
ENDBRANCH   2   3
ENDBRANCH   1   2
BRANCH   1   9
ATOM      9  C   UNL     1      25.350  11.686  20.517  1.00  0.00     0.000 C 
BRANCH   9  10
ATOM     10  C   UNL     1      24.123  12.595  20.376  1.00  0.00    -0.000 C 
BRANCH  10  11
ATOM     11  C   UNL     1      22.824  11.774  20.385  1.00  0.00    -0.000 C 
BRANCH  11  12
ATOM     12  C   UNL     1      23.014  10.388  21.035  1.00  0.00    -0.000 C 
BRANCH  12  13
ATOM     13  C   UNL     1      22.229  10.210  22.346  1.00  0.00    -0.003 C 
ATOM     14  C   UNL     1      22.958  10.778  23.562  1.00  0.00     0.004 C 
ENDBRANCH  12  13
ENDBRANCH  11  12
ENDBRANCH  10  11
ENDBRANCH   9  10
ENDBRANCH   1   9
TORSDOF 10
ENDMDL
MODEL 7
REMARK VINA RESULT:    -3.801      3.691      6.565
REMARK INTER + INTRA:          -6.717
REMARK INTER:                  -5.434
REMARK INTRA:                  -1.283
REMARK UNBOUND:                -0.695
REMARK SMILES CCCCCCCCCCCC(=O)[O-]
REMARK SMILES IDX 7 1 8 2 9 3 10 4 11 5 12 6 13 7 14 8 6 9 5 10 4 11 3 12 2 13
REMARK SMILES IDX 1 14
REMARK H PARENT
REMARK Flexibility Score: inf
ROOT
ATOM      1  C   UNL     1      25.269  12.230  20.380  1.00  0.00     0.000 C 
ENDROOT
BRANCH   1   2
ATOM      2  C   UNL     1      25.548  12.725  21.809  1.00  0.00     0.000 C 
BRANCH   2   3
ATOM      3  C   UNL     1      26.790  12.062  22.431  1.00  0.00     0.000 C 
BRANCH   3   4
ATOM      4  C   UNL     1      26.859  10.553  22.147  1.00  0.00     0.006 C 
BRANCH   4   5
ATOM      5  C   UNL     1      28.295  10.013  22.176  1.00  0.00     0.053 C 
BRANCH   5   6
ATOM      6  C   UNL     1      28.632   9.505  23.542  1.00  0.00     0.041 C 
ATOM      7  O   UNL     1      29.826   9.513  23.944  1.00  0.00    -0.550 OA
ATOM      8  O   UNL     1      27.624   9.067  24.391  1.00  0.00    -0.550 OA
ENDBRANCH   5   6
ENDBRANCH   4   5
ENDBRANCH   3   4
ENDBRANCH   2   3
ENDBRANCH   1   2
BRANCH   1   9
ATOM      9  C   UNL     1      23.769  12.067  20.095  1.00  0.00     0.000 C 
BRANCH   9  10
ATOM     10  C   UNL     1      23.237  10.755  20.685  1.00  0.00    -0.000 C 
BRANCH  10  11
ATOM     11  C   UNL     1      22.223  11.026  21.807  1.00  0.00    -0.000 C 
BRANCH  11  12
ATOM     12  C   UNL     1      22.566  10.260  23.102  1.00  0.00    -0.000 C 
BRANCH  12  13
ATOM     13  C   UNL     1      23.117  11.160  24.222  1.00  0.00    -0.003 C 
ATOM     14  C   UNL     1      24.353  10.577  24.904  1.00  0.00     0.004 C 
ENDBRANCH  12  13
ENDBRANCH  11  12
ENDBRANCH  10  11
ENDBRANCH   9  10
ENDBRANCH   1   9
TORSDOF 10
ENDMDL
MODEL 8
REMARK VINA RESULT:    -3.757      3.717      6.059
REMARK INTER + INTRA:          -6.648
REMARK INTER:                  -5.017
REMARK INTRA:                  -1.631
REMARK UNBOUND:                -0.695
REMARK SMILES CCCCCCCCCCCC(=O)[O-]
REMARK SMILES IDX 7 1 8 2 9 3 10 4 11 5 12 6 13 7 14 8 6 9 5 10 4 11 3 12 2 13
REMARK SMILES IDX 1 14
REMARK H PARENT
REMARK Flexibility Score: inf
ROOT
ATOM      1  C   UNL     1      23.191  11.623  23.668  1.00  0.00     0.000 C 
ENDROOT
BRANCH   1   2
ATOM      2  C   UNL     1      24.655  11.154  23.660  1.00  0.00     0.000 C 
BRANCH   2   3
ATOM      3  C   UNL     1      25.651  12.326  23.692  1.00  0.00     0.000 C 
BRANCH   3   4
ATOM      4  C   UNL     1      26.716  12.228  22.587  1.00  0.00     0.006 C 
BRANCH   4   5
ATOM      5  C   UNL     1      26.921  10.790  22.094  1.00  0.00     0.053 C 
BRANCH   5   6
ATOM      6  C   UNL     1      28.124  10.182  22.746  1.00  0.00     0.041 C 
ATOM      7  O   UNL     1      27.998   9.505  23.800  1.00  0.00    -0.550 OA
ATOM      8  O   UNL     1      29.376  10.324  22.164  1.00  0.00    -0.550 OA
ENDBRANCH   5   6
ENDBRANCH   4   5
ENDBRANCH   3   4
ENDBRANCH   2   3
ENDBRANCH   1   2
BRANCH   1   9
ATOM      9  C   UNL     1      22.287  10.750  22.785  1.00  0.00     0.000 C 
BRANCH   9  10
ATOM     10  C   UNL     1      23.002  10.357  21.487  1.00  0.00    -0.000 C 
BRANCH  10  11
ATOM     11  C   UNL     1      22.817  11.435  20.407  1.00  0.00    -0.000 C 
BRANCH  11  12
ATOM     12  C   UNL     1      24.156  12.081  19.992  1.00  0.00    -0.000 C 
BRANCH  12  13
ATOM     13  C   UNL     1      24.083  13.611  19.852  1.00  0.00    -0.003 C 
ATOM     14  C   UNL     1      23.744  14.316  21.163  1.00  0.00     0.004 C 
ENDBRANCH  12  13
ENDBRANCH  11  12
ENDBRANCH  10  11
ENDBRANCH   9  10
ENDBRANCH   1   9
TORSDOF 10
ENDMDL
MODEL 9
REMARK VINA RESULT:    -3.678      3.822      6.276
REMARK INTER + INTRA:          -6.523
REMARK INTER:                  -5.259
REMARK INTRA:                  -1.264
REMARK UNBOUND:                -0.695
REMARK SMILES CCCCCCCCCCCC(=O)[O-]
REMARK SMILES IDX 7 1 8 2 9 3 10 4 11 5 12 6 13 7 14 8 6 9 5 10 4 11 3 12 2 13
REMARK SMILES IDX 1 14
REMARK H PARENT
REMARK Flexibility Score: inf
ROOT
ATOM      1  C   UNL     1      24.563  13.766  23.469  1.00  0.00     0.000 C 
ENDROOT
BRANCH   1   2
ATOM      2  C   UNL     1      25.962  13.350  23.954  1.00  0.00     0.000 C 
BRANCH   2   3
ATOM      3  C   UNL     1      26.772  12.622  22.867  1.00  0.00     0.000 C 
BRANCH   3   4
ATOM      4  C   UNL     1      26.366  11.147  22.716  1.00  0.00     0.006 C 
BRANCH   4   5
ATOM      5  C   UNL     1      27.471  10.294  22.079  1.00  0.00     0.053 C 
BRANCH   5   6
ATOM      6  C   UNL     1      28.391   9.762  23.133  1.00  0.00     0.041 C 
ATOM      7  O   UNL     1      29.596   9.521  22.859  1.00  0.00    -0.550 OA
ATOM      8  O   UNL     1      27.929   9.578  24.430  1.00  0.00    -0.550 OA
ENDBRANCH   5   6
ENDBRANCH   4   5
ENDBRANCH   3   4
ENDBRANCH   2   3
ENDBRANCH   1   2
BRANCH   1   9
ATOM      9  C   UNL     1      24.614  14.698  22.250  1.00  0.00     0.000 C 
BRANCH   9  10
ATOM     10  C   UNL     1      23.585  14.277  21.194  1.00  0.00    -0.000 C 
BRANCH  10  11
ATOM     11  C   UNL     1      24.132  13.144  20.312  1.00  0.00    -0.000 C 
BRANCH  11  12
ATOM     12  C   UNL     1      23.066  12.068  20.015  1.00  0.00    -0.000 C 
BRANCH  12  13
ATOM     13  C   UNL     1      23.329  10.729  20.725  1.00  0.00    -0.003 C 
ATOM     14  C   UNL     1      22.598  10.606  22.060  1.00  0.00     0.004 C 
ENDBRANCH  12  13
ENDBRANCH  11  12
ENDBRANCH  10  11
ENDBRANCH   9  10
ENDBRANCH   1   9
TORSDOF 10
ENDMDL
