MODEL 1
REMARK VINA RESULT:    -7.281      0.000      0.000
REMARK INTER + INTRA:          -8.623
REMARK INTER:                  -8.771
REMARK INTRA:                   0.148
REMARK UNBOUND:                 0.148
REMARK SMILES O=c1c(O)c(-c2ccc(O)c(O)c2)oc2cc(O)cc(O)c12
REMARK SMILES IDX 5 1 3 2 2 3 1 4 22 5 20 6 19 7 17 8 16 9 15 10 14 11 6 12
REMARK SMILES IDX 7 13 8 14 9 15 13 16 11 17 10 18 12 20 4 22 21 24 18 26
REMARK H PARENT 10 19 12 21 4 23 21 25 18 27
REMARK Flexibility Score: inf
ROOT
ATOM      1  C   UNL     1      49.806 -39.288  -3.367  1.00  0.00     0.180 A 
ATOM      2  C   UNL     1      49.547 -38.334  -4.366  1.00  0.00     0.208 A 
ATOM      3  C   UNL     1      48.216 -37.991  -4.653  1.00  0.00     0.238 A 
ATOM      4  O   UNL     1      47.995 -37.083  -5.495  1.00  0.00    -0.285 OA
ATOM      5  C   UNL     1      47.158 -38.647  -3.976  1.00  0.00     0.111 A 
ATOM      6  C   UNL     1      45.770 -38.412  -4.218  1.00  0.00     0.134 A 
ATOM      7  C   UNL     1      44.814 -39.042  -3.413  1.00  0.00     0.093 A 
ATOM      8  C   UNL     1      45.191 -39.948  -2.419  1.00  0.00     0.123 A 
ATOM      9  C   UNL     1      46.539 -40.225  -2.212  1.00  0.00     0.094 A 
ATOM     10  C   UNL     1      47.520 -39.583  -2.972  1.00  0.00     0.146 A 
ATOM     11  O   UNL     1      48.794 -39.862  -2.726  1.00  0.00    -0.452 OA
ENDROOT
BRANCH   1  12
ATOM     12  C   UNL     1      51.183 -39.690  -2.998  1.00  0.00     0.025 A 
ATOM     13  C   UNL     1      52.233 -38.756  -2.958  1.00  0.00     0.016 A 
ATOM     14  C   UNL     1      53.519 -39.154  -2.584  1.00  0.00     0.051 A 
ATOM     15  C   UNL     1      53.771 -40.487  -2.231  1.00  0.00     0.157 A 
ATOM     16  C   UNL     1      51.436 -41.020  -2.625  1.00  0.00     0.062 A 
ATOM     17  C   UNL     1      52.727 -41.421  -2.249  1.00  0.00     0.158 A 
BRANCH  15  18
ATOM     18  O   UNL     1      55.052 -40.888  -1.859  1.00  0.00    -0.504 OA
ATOM     19  H   UNL     1      55.269 -41.157  -0.907  1.00  0.00     0.293 HD
ENDBRANCH  15  18
BRANCH  17  20
ATOM     20  O   UNL     1      52.978 -42.744  -1.891  1.00  0.00    -0.504 OA
ATOM     21  H   UNL     1      52.587 -43.150  -1.049  1.00  0.00     0.293 HD
ENDBRANCH  17  20
ENDBRANCH   1  12
BRANCH   2  22
ATOM     22  O   UNL     1      50.603 -37.754  -5.076  1.00  0.00    -0.502 OA
ATOM     23  H   UNL     1      51.568 -37.835  -4.779  1.00  0.00     0.293 HD
ENDBRANCH   2  22
BRANCH   6  24
ATOM     24  O   UNL     1      45.281 -37.596  -5.243  1.00  0.00    -0.507 OA
ATOM     25  H   UNL     1      45.817 -37.283  -6.037  1.00  0.00     0.293 HD
ENDBRANCH   6  24
BRANCH   8  26
ATOM     26  O   UNL     1      44.230 -40.582  -1.635  1.00  0.00    -0.508 OA
ATOM     27  H   UNL     1      44.107 -40.352  -0.656  1.00  0.00     0.293 HD
ENDBRANCH   8  26
TORSDOF 6
ENDMDL
MODEL 2
REMARK VINA RESULT:    -7.242      1.390      2.983
REMARK INTER + INTRA:          -8.576
REMARK INTER:                  -9.091
REMARK INTRA:                   0.515
REMARK UNBOUND:                 0.148
REMARK SMILES O=c1c(O)c(-c2ccc(O)c(O)c2)oc2cc(O)cc(O)c12
REMARK SMILES IDX 5 1 3 2 2 3 1 4 22 5 20 6 19 7 17 8 16 9 15 10 14 11 6 12
REMARK SMILES IDX 7 13 8 14 9 15 13 16 11 17 10 18 12 20 4 22 21 24 18 26
REMARK H PARENT 10 19 12 21 4 23 21 25 18 27
REMARK Flexibility Score: inf
ROOT
ATOM      1  C   UNL     1      49.911 -39.389  -3.570  1.00  0.00     0.180 A 
ATOM      2  C   UNL     1      48.844 -40.280  -3.362  1.00  0.00     0.208 A 
ATOM      3  C   UNL     1      47.568 -39.937  -3.834  1.00  0.00     0.238 A 
ATOM      4  O   UNL     1      46.634 -40.771  -3.710  1.00  0.00    -0.285 OA
ATOM      5  C   UNL     1      47.361 -38.683  -4.460  1.00  0.00     0.111 A 
ATOM      6  C   UNL     1      46.101 -38.211  -4.939  1.00  0.00     0.134 A 
ATOM      7  C   UNL     1      46.037 -36.999  -5.636  1.00  0.00     0.093 A 
ATOM      8  C   UNL     1      47.177 -36.211  -5.817  1.00  0.00     0.123 A 
ATOM      9  C   UNL     1      48.400 -36.635  -5.307  1.00  0.00     0.094 A 
ATOM     10  C   UNL     1      48.503 -37.859  -4.640  1.00  0.00     0.146 A 
ATOM     11  O   UNL     1      49.694 -38.235  -4.189  1.00  0.00    -0.452 OA
ENDROOT
BRANCH   1  12
ATOM     12  C   UNL     1      51.288 -39.687  -3.114  1.00  0.00     0.025 A 
ATOM     13  C   UNL     1      52.277 -38.689  -3.070  1.00  0.00     0.016 A 
ATOM     14  C   UNL     1      53.564 -38.988  -2.613  1.00  0.00     0.051 A 
ATOM     15  C   UNL     1      53.876 -40.285  -2.182  1.00  0.00     0.157 A 
ATOM     16  C   UNL     1      51.601 -40.979  -2.662  1.00  0.00     0.062 A 
ATOM     17  C   UNL     1      52.892 -41.281  -2.204  1.00  0.00     0.158 A 
BRANCH  15  18
ATOM     18  O   UNL     1      55.158 -40.587  -1.728  1.00  0.00    -0.504 OA
ATOM     19  H   UNL     1      55.889 -39.886  -1.695  1.00  0.00     0.293 HD
ENDBRANCH  15  18
BRANCH  17  20
ATOM     20  O   UNL     1      53.203 -42.568  -1.768  1.00  0.00    -0.504 OA
ATOM     21  H   UNL     1      54.162 -42.876  -1.663  1.00  0.00     0.293 HD
ENDBRANCH  17  20
ENDBRANCH   1  12
BRANCH   2  22
ATOM     22  O   UNL     1      49.052 -41.479  -2.673  1.00  0.00    -0.502 OA
ATOM     23  H   UNL     1      48.344 -42.201  -2.612  1.00  0.00     0.293 HD
ENDBRANCH   2  22
BRANCH   6  24
ATOM     24  O   UNL     1      44.887 -38.875  -4.734  1.00  0.00    -0.507 OA
ATOM     25  H   UNL     1      44.617 -39.736  -5.185  1.00  0.00     0.293 HD
ENDBRANCH   6  24
BRANCH   8  26
ATOM     26  O   UNL     1      47.100 -34.998  -6.499  1.00  0.00    -0.508 OA
ATOM     27  H   UNL     1      47.293 -34.117  -6.038  1.00  0.00     0.293 HD
ENDBRANCH   8  26
TORSDOF 6
ENDMDL
MODEL 3
REMARK VINA RESULT:    -7.035      2.925      3.601
REMARK INTER + INTRA:          -8.327
REMARK INTER:                  -8.106
REMARK INTRA:                  -0.221
REMARK UNBOUND:                 0.148
REMARK SMILES O=c1c(O)c(-c2ccc(O)c(O)c2)oc2cc(O)cc(O)c12
REMARK SMILES IDX 5 1 3 2 2 3 1 4 22 5 20 6 19 7 17 8 16 9 15 10 14 11 6 12
REMARK SMILES IDX 7 13 8 14 9 15 13 16 11 17 10 18 12 20 4 22 21 24 18 26
REMARK H PARENT 10 19 12 21 4 23 21 25 18 27
REMARK Flexibility Score: inf
ROOT
ATOM      1  C   UNL     1      50.965 -38.202  -4.093  1.00  0.00     0.180 A 
ATOM      2  C   UNL     1      51.377 -37.746  -5.357  1.00  0.00     0.208 A 
ATOM      3  C   UNL     1      50.688 -36.678  -5.954  1.00  0.00     0.238 A 
ATOM      4  O   UNL     1      51.109 -36.227  -7.050  1.00  0.00    -0.285 OA
ATOM      5  C   UNL     1      49.561 -36.116  -5.305  1.00  0.00     0.111 A 
ATOM      6  C   UNL     1      48.759 -35.061  -5.838  1.00  0.00     0.134 A 
ATOM      7  C   UNL     1      47.733 -34.513  -5.060  1.00  0.00     0.093 A 
ATOM      8  C   UNL     1      47.436 -35.026  -3.794  1.00  0.00     0.123 A 
ATOM      9  C   UNL     1      48.175 -36.091  -3.289  1.00  0.00     0.094 A 
ATOM     10  C   UNL     1      49.232 -36.633  -4.025  1.00  0.00     0.146 A 
ATOM     11  O   UNL     1      49.924 -37.634  -3.494  1.00  0.00    -0.452 OA
ENDROOT
BRANCH   1  12
ATOM     12  C   UNL     1      51.650 -39.313  -3.393  1.00  0.00     0.025 A 
ATOM     13  C   UNL     1      51.056 -40.581  -3.275  1.00  0.00     0.016 A 
ATOM     14  C   UNL     1      51.732 -41.621  -2.630  1.00  0.00     0.051 A 
ATOM     15  C   UNL     1      53.016 -41.411  -2.107  1.00  0.00     0.157 A 
ATOM     16  C   UNL     1      52.944 -39.114  -2.885  1.00  0.00     0.062 A 
ATOM     17  C   UNL     1      53.624 -40.157  -2.238  1.00  0.00     0.158 A 
BRANCH  15  18
ATOM     18  O   UNL     1      53.692 -42.445  -1.463  1.00  0.00    -0.504 OA
ATOM     19  H   UNL     1      54.597 -42.768  -1.783  1.00  0.00     0.293 HD
ENDBRANCH  15  18
BRANCH  17  20
ATOM     20  O   UNL     1      54.903 -39.953  -1.724  1.00  0.00    -0.504 OA
ATOM     21  H   UNL     1      55.475 -39.170  -2.019  1.00  0.00     0.293 HD
ENDBRANCH  17  20
ENDBRANCH   1  12
BRANCH   2  22
ATOM     22  O   UNL     1      52.444 -38.364  -6.015  1.00  0.00    -0.502 OA
ATOM     23  H   UNL     1      53.311 -38.597  -5.545  1.00  0.00     0.293 HD
ENDBRANCH   2  22
BRANCH   6  24
ATOM     24  O   UNL     1      48.912 -34.535  -7.125  1.00  0.00    -0.507 OA
ATOM     25  H   UNL     1      49.696 -34.713  -7.732  1.00  0.00     0.293 HD
ENDBRANCH   6  24
BRANCH   8  26
ATOM     26  O   UNL     1      46.401 -34.485  -3.034  1.00  0.00    -0.508 OA
ATOM     27  H   UNL     1      45.560 -34.120  -3.466  1.00  0.00     0.293 HD
ENDBRANCH   8  26
TORSDOF 6
ENDMDL
MODEL 4
REMARK VINA RESULT:    -6.872      2.521      6.843
REMARK INTER + INTRA:          -8.130
REMARK INTER:                  -7.808
REMARK INTRA:                  -0.323
REMARK UNBOUND:                 0.148
REMARK SMILES O=c1c(O)c(-c2ccc(O)c(O)c2)oc2cc(O)cc(O)c12
REMARK SMILES IDX 5 1 3 2 2 3 1 4 22 5 20 6 19 7 17 8 16 9 15 10 14 11 6 12
REMARK SMILES IDX 7 13 8 14 9 15 13 16 11 17 10 18 12 20 4 22 21 24 18 26
REMARK H PARENT 10 19 12 21 4 23 21 25 18 27
REMARK Flexibility Score: inf
ROOT
ATOM      1  C   UNL     1      50.215 -37.899  -4.127  1.00  0.00     0.180 A 
ATOM      2  C   UNL     1      49.412 -39.050  -4.210  1.00  0.00     0.208 A 
ATOM      3  C   UNL     1      49.923 -40.272  -3.745  1.00  0.00     0.238 A 
ATOM      4  O   UNL     1      49.173 -41.282  -3.754  1.00  0.00    -0.285 OA
ATOM      5  C   UNL     1      51.250 -40.340  -3.254  1.00  0.00     0.111 A 
ATOM      6  C   UNL     1      51.888 -41.534  -2.798  1.00  0.00     0.134 A 
ATOM      7  C   UNL     1      53.167 -41.462  -2.234  1.00  0.00     0.093 A 
ATOM      8  C   UNL     1      53.859 -40.249  -2.169  1.00  0.00     0.123 A 
ATOM      9  C   UNL     1      53.268 -39.089  -2.661  1.00  0.00     0.094 A 
ATOM     10  C   UNL     1      51.976 -39.122  -3.193  1.00  0.00     0.146 A 
ATOM     11  O   UNL     1      51.444 -37.987  -3.631  1.00  0.00    -0.452 OA
ENDROOT
BRANCH   1  12
ATOM     12  C   UNL     1      49.741 -36.572  -4.583  1.00  0.00     0.025 A 
ATOM     13  C   UNL     1      49.946 -36.136  -5.903  1.00  0.00     0.016 A 
ATOM     14  C   UNL     1      49.469 -34.888  -6.317  1.00  0.00     0.051 A 
ATOM     15  C   UNL     1      48.770 -34.067  -5.421  1.00  0.00     0.157 A 
ATOM     16  C   UNL     1      49.023 -35.754  -3.696  1.00  0.00     0.062 A 
ATOM     17  C   UNL     1      48.544 -34.502  -4.110  1.00  0.00     0.158 A 
BRANCH  15  18
ATOM     18  O   UNL     1      48.295 -32.823  -5.830  1.00  0.00    -0.504 OA
ATOM     19  H   UNL     1      47.639 -32.731  -6.597  1.00  0.00     0.293 HD
ENDBRANCH  15  18
BRANCH  17  20
ATOM     20  O   UNL     1      47.842 -33.687  -3.224  1.00  0.00    -0.504 OA
ATOM     21  H   UNL     1      48.047 -32.699  -3.135  1.00  0.00     0.293 HD
ENDBRANCH  17  20
ENDBRANCH   1  12
BRANCH   2  22
ATOM     22  O   UNL     1      48.133 -38.977  -4.769  1.00  0.00    -0.502 OA
ATOM     23  H   UNL     1      47.950 -38.508  -5.648  1.00  0.00     0.293 HD
ENDBRANCH   2  22
BRANCH   6  24
ATOM     24  O   UNL     1      51.324 -42.810  -2.898  1.00  0.00    -0.507 OA
ATOM     25  H   UNL     1      50.971 -43.220  -3.748  1.00  0.00     0.293 HD
ENDBRANCH   6  24
BRANCH   8  26
ATOM     26  O   UNL     1      55.139 -40.191  -1.622  1.00  0.00    -0.508 OA
ATOM     27  H   UNL     1      55.326 -39.686  -0.763  1.00  0.00     0.293 HD
ENDBRANCH   8  26
TORSDOF 6
ENDMDL
MODEL 5
REMARK VINA RESULT:    -6.802      2.042      7.014
REMARK INTER + INTRA:          -8.046
REMARK INTER:                  -8.005
REMARK INTRA:                  -0.041
REMARK UNBOUND:                 0.148
REMARK SMILES O=c1c(O)c(-c2ccc(O)c(O)c2)oc2cc(O)cc(O)c12
REMARK SMILES IDX 5 1 3 2 2 3 1 4 22 5 20 6 19 7 17 8 16 9 15 10 14 11 6 12
REMARK SMILES IDX 7 13 8 14 9 15 13 16 11 17 10 18 12 20 4 22 21 24 18 26
REMARK H PARENT 10 19 12 21 4 23 21 25 18 27
REMARK Flexibility Score: inf
ROOT
ATOM      1  C   UNL     1      49.631 -38.939  -3.917  1.00  0.00     0.180 A 
ATOM      2  C   UNL     1      49.223 -40.284  -3.899  1.00  0.00     0.208 A 
ATOM      3  C   UNL     1      50.115 -41.260  -3.430  1.00  0.00     0.238 A 
ATOM      4  O   UNL     1      49.717 -42.451  -3.347  1.00  0.00    -0.285 OA
ATOM      5  C   UNL     1      51.424 -40.888  -3.036  1.00  0.00     0.111 A 
ATOM      6  C   UNL     1      52.427 -41.800  -2.585  1.00  0.00     0.134 A 
ATOM      7  C   UNL     1      53.651 -41.304  -2.121  1.00  0.00     0.093 A 
ATOM      8  C   UNL     1      53.933 -39.936  -2.150  1.00  0.00     0.123 A 
ATOM      9  C   UNL     1      52.983 -39.045  -2.638  1.00  0.00     0.094 A 
ATOM     10  C   UNL     1      51.737 -39.504  -3.073  1.00  0.00     0.146 A 
ATOM     11  O   UNL     1      50.853 -38.616  -3.510  1.00  0.00    -0.452 OA
ENDROOT
BRANCH   1  12
ATOM     12  C   UNL     1      48.741 -37.851  -4.384  1.00  0.00     0.025 A 
ATOM     13  C   UNL     1      47.440 -37.699  -3.874  1.00  0.00     0.016 A 
ATOM     14  C   UNL     1      46.627 -36.650  -4.313  1.00  0.00     0.051 A 
ATOM     15  C   UNL     1      47.108 -35.731  -5.256  1.00  0.00     0.157 A 
ATOM     16  C   UNL     1      49.224 -36.916  -5.314  1.00  0.00     0.062 A 
ATOM     17  C   UNL     1      48.409 -35.863  -5.755  1.00  0.00     0.158 A 
BRANCH  15  18
ATOM     18  O   UNL     1      46.299 -34.686  -5.697  1.00  0.00    -0.504 OA
ATOM     19  H   UNL     1      46.693 -33.850  -6.115  1.00  0.00     0.293 HD
ENDBRANCH  15  18
BRANCH  17  20
ATOM     20  O   UNL     1      48.887 -34.944  -6.687  1.00  0.00    -0.504 OA
ATOM     21  H   UNL     1      49.264 -34.047  -6.403  1.00  0.00     0.293 HD
ENDBRANCH  17  20
ENDBRANCH   1  12
BRANCH   2  22
ATOM     22  O   UNL     1      47.954 -40.641  -4.365  1.00  0.00    -0.502 OA
ATOM     23  H   UNL     1      47.102 -40.278  -3.955  1.00  0.00     0.293 HD
ENDBRANCH   2  22
BRANCH   6  24
ATOM     24  O   UNL     1      52.284 -43.191  -2.598  1.00  0.00    -0.507 OA
ATOM     25  H   UNL     1      52.218 -43.757  -3.429  1.00  0.00     0.293 HD
ENDBRANCH   6  24
BRANCH   8  26
ATOM     26  O   UNL     1      55.161 -39.455  -1.701  1.00  0.00    -0.508 OA
ATOM     27  H   UNL     1      55.350 -38.462  -1.635  1.00  0.00     0.293 HD
ENDBRANCH   8  26
TORSDOF 6
ENDMDL
MODEL 6
REMARK VINA RESULT:    -6.488     12.156     13.754
REMARK INTER + INTRA:          -7.667
REMARK INTER:                  -7.400
REMARK INTRA:                  -0.268
REMARK UNBOUND:                 0.148
REMARK SMILES O=c1c(O)c(-c2ccc(O)c(O)c2)oc2cc(O)cc(O)c12
REMARK SMILES IDX 5 1 3 2 2 3 1 4 22 5 20 6 19 7 17 8 16 9 15 10 14 11 6 12
REMARK SMILES IDX 7 13 8 14 9 15 13 16 11 17 10 18 12 20 4 22 21 24 18 26
REMARK H PARENT 10 19 12 21 4 23 21 25 18 27
REMARK Flexibility Score: inf
ROOT
ATOM      1  C   UNL     1      48.231 -37.488   8.804  1.00  0.00     0.180 A 
ATOM      2  C   UNL     1      49.424 -37.042   9.399  1.00  0.00     0.208 A 
ATOM      3  C   UNL     1      49.899 -37.696  10.546  1.00  0.00     0.238 A 
ATOM      4  O   UNL     1      51.005 -37.339  11.030  1.00  0.00    -0.285 OA
ATOM      5  C   UNL     1      49.148 -38.753  11.118  1.00  0.00     0.111 A 
ATOM      6  C   UNL     1      49.511 -39.458  12.305  1.00  0.00     0.134 A 
ATOM      7  C   UNL     1      48.746 -40.556  12.717  1.00  0.00     0.093 A 
ATOM      8  C   UNL     1      47.595 -40.935  12.021  1.00  0.00     0.123 A 
ATOM      9  C   UNL     1      47.202 -40.220  10.894  1.00  0.00     0.094 A 
ATOM     10  C   UNL     1      47.966 -39.143  10.435  1.00  0.00     0.146 A 
ATOM     11  O   UNL     1      47.566 -38.504   9.343  1.00  0.00    -0.452 OA
ENDROOT
BRANCH   1  12
ATOM     12  C   UNL     1      47.675 -36.860   7.584  1.00  0.00     0.025 A 
ATOM     13  C   UNL     1      46.591 -35.967   7.650  1.00  0.00     0.016 A 
ATOM     14  C   UNL     1      46.098 -35.368   6.487  1.00  0.00     0.051 A 
ATOM     15  C   UNL     1      46.688 -35.642   5.246  1.00  0.00     0.157 A 
ATOM     16  C   UNL     1      48.275 -37.115   6.341  1.00  0.00     0.062 A 
ATOM     17  C   UNL     1      47.781 -36.514   5.173  1.00  0.00     0.158 A 
BRANCH  15  18
ATOM     18  O   UNL     1      46.198 -35.047   4.086  1.00  0.00    -0.504 OA
ATOM     19  H   UNL     1      46.765 -34.415   3.533  1.00  0.00     0.293 HD
ENDBRANCH  15  18
BRANCH  17  20
ATOM     20  O   UNL     1      48.371 -36.779   3.939  1.00  0.00    -0.504 OA
ATOM     21  H   UNL     1      47.996 -36.399   3.078  1.00  0.00     0.293 HD
ENDBRANCH  17  20
ENDBRANCH   1  12
BRANCH   2  22
ATOM     22  O   UNL     1      50.110 -35.948   8.864  1.00  0.00    -0.502 OA
ATOM     23  H   UNL     1      49.805 -34.992   9.007  1.00  0.00     0.293 HD
ENDBRANCH   2  22
BRANCH   6  24
ATOM     24  O   UNL     1      50.589 -39.109  13.125  1.00  0.00    -0.507 OA
ATOM     25  H   UNL     1      50.508 -38.691  14.038  1.00  0.00     0.293 HD
ENDBRANCH   6  24
BRANCH   8  26
ATOM     26  O   UNL     1      46.832 -42.019  12.449  1.00  0.00    -0.508 OA
ATOM     27  H   UNL     1      46.995 -42.955  12.098  1.00  0.00     0.293 HD
ENDBRANCH   8  26
TORSDOF 6
ENDMDL
MODEL 7
REMARK VINA RESULT:    -6.472      2.795      6.291
REMARK INTER + INTRA:          -7.649
REMARK INTER:                  -7.557
REMARK INTRA:                  -0.091
REMARK UNBOUND:                 0.148
REMARK SMILES O=c1c(O)c(-c2ccc(O)c(O)c2)oc2cc(O)cc(O)c12
REMARK SMILES IDX 5 1 3 2 2 3 1 4 22 5 20 6 19 7 17 8 16 9 15 10 14 11 6 12
REMARK SMILES IDX 7 13 8 14 9 15 13 16 11 17 10 18 12 20 4 22 21 24 18 26
REMARK H PARENT 10 19 12 21 4 23 21 25 18 27
REMARK Flexibility Score: inf
ROOT
ATOM      1  C   UNL     1      47.991 -38.121  -3.935  1.00  0.00     0.180 A 
ATOM      2  C   UNL     1      49.238 -38.693  -4.237  1.00  0.00     0.208 A 
ATOM      3  C   UNL     1      50.149 -37.967  -5.020  1.00  0.00     0.238 A 
ATOM      4  O   UNL     1      51.291 -38.454  -5.225  1.00  0.00    -0.285 OA
ATOM      5  C   UNL     1      49.781 -36.701  -5.538  1.00  0.00     0.111 A 
ATOM      6  C   UNL     1      50.606 -35.895  -6.380  1.00  0.00     0.134 A 
ATOM      7  C   UNL     1      50.179 -34.614  -6.745  1.00  0.00     0.093 A 
ATOM      8  C   UNL     1      48.927 -34.132  -6.351  1.00  0.00     0.123 A 
ATOM      9  C   UNL     1      48.092 -34.931  -5.576  1.00  0.00     0.094 A 
ATOM     10  C   UNL     1      48.507 -36.199  -5.163  1.00  0.00     0.146 A 
ATOM     11  O   UNL     1      47.686 -36.918  -4.407  1.00  0.00    -0.452 OA
ENDROOT
BRANCH   1  12
ATOM     12  C   UNL     1      46.984 -38.819  -3.103  1.00  0.00     0.025 A 
ATOM     13  C   UNL     1      45.718 -39.155  -3.613  1.00  0.00     0.016 A 
ATOM     14  C   UNL     1      44.792 -39.835  -2.816  1.00  0.00     0.051 A 
ATOM     15  C   UNL     1      45.124 -40.199  -1.504  1.00  0.00     0.157 A 
ATOM     16  C   UNL     1      47.317 -39.204  -1.794  1.00  0.00     0.062 A 
ATOM     17  C   UNL     1      46.389 -39.886  -0.993  1.00  0.00     0.158 A 
BRANCH  15  18
ATOM     18  O   UNL     1      44.203 -40.875  -0.706  1.00  0.00    -0.504 OA
ATOM     19  H   UNL     1      43.324 -40.450  -0.433  1.00  0.00     0.293 HD
ENDBRANCH  15  18
BRANCH  17  20
ATOM     20  O   UNL     1      46.719 -40.255   0.310  1.00  0.00    -0.504 OA
ATOM     21  H   UNL     1      47.671 -40.204   0.651  1.00  0.00     0.293 HD
ENDBRANCH  17  20
ENDBRANCH   1  12
BRANCH   2  22
ATOM     22  O   UNL     1      49.554 -39.976  -3.781  1.00  0.00    -0.502 OA
ATOM     23  H   UNL     1      50.388 -40.469  -4.076  1.00  0.00     0.293 HD
ENDBRANCH   2  22
BRANCH   6  24
ATOM     24  O   UNL     1      51.834 -36.313  -6.904  1.00  0.00    -0.507 OA
ATOM     25  H   UNL     1      51.982 -36.625  -7.850  1.00  0.00     0.293 HD
ENDBRANCH   6  24
BRANCH   8  26
ATOM     26  O   UNL     1      48.504 -32.861  -6.734  1.00  0.00    -0.508 OA
ATOM     27  H   UNL     1      48.790 -32.448  -7.614  1.00  0.00     0.293 HD
ENDBRANCH   8  26
TORSDOF 6
ENDMDL
MODEL 8
REMARK VINA RESULT:    -6.396      2.993      6.321
REMARK INTER + INTRA:          -7.557
REMARK INTER:                  -7.404
REMARK INTRA:                  -0.153
REMARK UNBOUND:                 0.148
REMARK SMILES O=c1c(O)c(-c2ccc(O)c(O)c2)oc2cc(O)cc(O)c12
REMARK SMILES IDX 5 1 3 2 2 3 1 4 22 5 20 6 19 7 17 8 16 9 15 10 14 11 6 12
REMARK SMILES IDX 7 13 8 14 9 15 13 16 11 17 10 18 12 20 4 22 21 24 18 26
REMARK H PARENT 10 19 12 21 4 23 21 25 18 27
REMARK Flexibility Score: inf
ROOT
ATOM      1  C   UNL     1      47.590 -37.783  -3.960  1.00  0.00     0.180 A 
ATOM      2  C   UNL     1      47.248 -36.495  -4.405  1.00  0.00     0.208 A 
ATOM      3  C   UNL     1      48.148 -35.796  -5.225  1.00  0.00     0.238 A 
ATOM      4  O   UNL     1      47.804 -34.674  -5.680  1.00  0.00    -0.285 OA
ATOM      5  C   UNL     1      49.403 -36.371  -5.545  1.00  0.00     0.111 A 
ATOM      6  C   UNL     1      50.411 -35.736  -6.332  1.00  0.00     0.134 A 
ATOM      7  C   UNL     1      51.570 -36.444  -6.672  1.00  0.00     0.093 A 
ATOM      8  C   UNL     1      51.786 -37.741  -6.202  1.00  0.00     0.123 A 
ATOM      9  C   UNL     1      50.834 -38.349  -5.389  1.00  0.00     0.094 A 
ATOM     10  C   UNL     1      49.650 -37.683  -5.063  1.00  0.00     0.146 A 
ATOM     11  O   UNL     1      48.760 -38.310  -4.303  1.00  0.00    -0.452 OA
ENDROOT
BRANCH   1  12
ATOM     12  C   UNL     1      46.688 -38.587  -3.104  1.00  0.00     0.025 A 
ATOM     13  C   UNL     1      45.412 -38.976  -3.548  1.00  0.00     0.016 A 
ATOM     14  C   UNL     1      44.587 -39.755  -2.733  1.00  0.00     0.051 A 
ATOM     15  C   UNL     1      45.030 -40.168  -1.469  1.00  0.00     0.157 A 
ATOM     16  C   UNL     1      47.135 -39.021  -1.846  1.00  0.00     0.062 A 
ATOM     17  C   UNL     1      46.307 -39.803  -1.026  1.00  0.00     0.158 A 
BRANCH  15  18
ATOM     18  O   UNL     1      44.210 -40.944  -0.652  1.00  0.00    -0.504 OA
ATOM     19  H   UNL     1      43.323 -41.307  -0.982  1.00  0.00     0.293 HD
ENDBRANCH  15  18
BRANCH  17  20
ATOM     20  O   UNL     1      46.749 -40.221   0.228  1.00  0.00    -0.504 OA
ATOM     21  H   UNL     1      47.342 -41.035   0.338  1.00  0.00     0.293 HD
ENDBRANCH  17  20
ENDBRANCH   1  12
BRANCH   2  22
ATOM     22  O   UNL     1      46.039 -35.913  -4.014  1.00  0.00    -0.502 OA
ATOM     23  H   UNL     1      45.427 -36.338  -3.328  1.00  0.00     0.293 HD
ENDBRANCH   2  22
BRANCH   6  24
ATOM     24  O   UNL     1      50.337 -34.412  -6.779  1.00  0.00    -0.507 OA
ATOM     25  H   UNL     1      51.001 -33.688  -6.553  1.00  0.00     0.293 HD
ENDBRANCH   6  24
BRANCH   8  26
ATOM     26  O   UNL     1      52.950 -38.431  -6.532  1.00  0.00    -0.508 OA
ATOM     27  H   UNL     1      53.506 -38.903  -5.828  1.00  0.00     0.293 HD
ENDBRANCH   8  26
TORSDOF 6
ENDMDL
MODEL 9
REMARK VINA RESULT:    -6.391      4.490      7.372
REMARK INTER + INTRA:          -7.551
REMARK INTER:                  -7.293
REMARK INTRA:                  -0.258
REMARK UNBOUND:                 0.148
REMARK SMILES O=c1c(O)c(-c2ccc(O)c(O)c2)oc2cc(O)cc(O)c12
REMARK SMILES IDX 5 1 3 2 2 3 1 4 22 5 20 6 19 7 17 8 16 9 15 10 14 11 6 12
REMARK SMILES IDX 7 13 8 14 9 15 13 16 11 17 10 18 12 20 4 22 21 24 18 26
REMARK H PARENT 10 19 12 21 4 23 21 25 18 27
REMARK Flexibility Score: inf
ROOT
ATOM      1  C   UNL     1      48.064 -35.478  -1.903  1.00  0.00     0.180 A 
ATOM      2  C   UNL     1      47.084 -36.382  -1.460  1.00  0.00     0.208 A 
ATOM      3  C   UNL     1      47.310 -37.760  -1.611  1.00  0.00     0.238 A 
ATOM      4  O   UNL     1      46.462 -38.564  -1.144  1.00  0.00    -0.285 OA
ATOM      5  C   UNL     1      48.487 -38.215  -2.254  1.00  0.00     0.111 A 
ATOM      6  C   UNL     1      48.799 -39.587  -2.502  1.00  0.00     0.134 A 
ATOM      7  C   UNL     1      50.042 -39.924  -3.050  1.00  0.00     0.093 A 
ATOM      8  C   UNL     1      50.959 -38.936  -3.419  1.00  0.00     0.123 A 
ATOM      9  C   UNL     1      50.641 -37.594  -3.233  1.00  0.00     0.094 A 
ATOM     10  C   UNL     1      49.425 -37.227  -2.652  1.00  0.00     0.146 A 
ATOM     11  O   UNL     1      49.173 -35.936  -2.473  1.00  0.00    -0.452 OA
ENDROOT
BRANCH   1  12
ATOM     12  C   UNL     1      47.906 -34.013  -1.765  1.00  0.00     0.025 A 
ATOM     13  C   UNL     1      48.016 -33.379  -0.515  1.00  0.00     0.016 A 
ATOM     14  C   UNL     1      47.886 -31.991  -0.413  1.00  0.00     0.051 A 
ATOM     15  C   UNL     1      47.658 -31.216  -1.559  1.00  0.00     0.157 A 
ATOM     16  C   UNL     1      47.697 -33.230  -2.912  1.00  0.00     0.062 A 
ATOM     17  C   UNL     1      47.566 -31.836  -2.811  1.00  0.00     0.158 A 
BRANCH  15  18
ATOM     18  O   UNL     1      47.526 -29.833  -1.460  1.00  0.00    -0.504 OA
ATOM     19  H   UNL     1      47.304 -29.382  -0.580  1.00  0.00     0.293 HD
ENDBRANCH  15  18
BRANCH  17  20
ATOM     20  O   UNL     1      47.346 -31.064  -3.949  1.00  0.00    -0.504 OA
ATOM     21  H   UNL     1      47.236 -31.486  -4.864  1.00  0.00     0.293 HD
ENDBRANCH  17  20
ENDBRANCH   1  12
BRANCH   2  22
ATOM     22  O   UNL     1      45.894 -35.911  -0.897  1.00  0.00    -0.502 OA
ATOM     23  H   UNL     1      45.454 -36.358  -0.102  1.00  0.00     0.293 HD
ENDBRANCH   2  22
BRANCH   6  24
ATOM     24  O   UNL     1      47.921 -40.647  -2.253  1.00  0.00    -0.507 OA
ATOM     25  H   UNL     1      47.428 -41.166  -2.963  1.00  0.00     0.293 HD
ENDBRANCH   6  24
BRANCH   8  26
ATOM     26  O   UNL     1      52.186 -39.281  -3.980  1.00  0.00    -0.508 OA
ATOM     27  H   UNL     1      52.466 -40.249  -4.092  1.00  0.00     0.293 HD
ENDBRANCH   8  26
TORSDOF 6
ENDMDL
