MODEL 1
REMARK VINA RESULT:     0.000      0.000      0.000
REMARK INTER + INTRA:          -1.857
REMARK INTER:                   0.000
REMARK INTRA:                  -1.857
REMARK UNBOUND:                -1.857
REMARK SMILES CCCCCCCCCCCC(=O)[O-]
REMARK SMILES IDX 7 1 8 2 9 3 10 4 11 5 12 6 13 7 14 8 6 9 5 10 4 11 3 12 2 13
REMARK SMILES IDX 1 14
REMARK H PARENT
REMARK Flexibility Score: inf
ROOT
ATOM      1  C   UNL     1     178.452 176.829 182.466  1.00  0.00     0.000 C 
ENDROOT
BRANCH   1   2
ATOM      2  C   UNL     1     179.079 176.963 181.067  1.00  0.00     0.000 C 
BRANCH   2   3
ATOM      3  C   UNL     1     179.756 178.336 180.862  1.00  0.00     0.000 C 
BRANCH   3   4
ATOM      4  C   UNL     1     179.926 179.138 182.164  1.00  0.00     0.006 C 
BRANCH   4   5
ATOM      5  C   UNL     1     181.378 179.180 182.653  1.00  0.00     0.053 C 
BRANCH   5   6
ATOM      6  C   UNL     1     181.446 178.869 184.115  1.00  0.00     0.041 C 
ATOM      7  O   UNL     1     180.388 178.708 184.779  1.00  0.00    -0.550 OA
ATOM      8  O   UNL     1     182.678 178.707 184.735  1.00  0.00    -0.550 OA
ENDBRANCH   5   6
ENDBRANCH   4   5
ENDBRANCH   3   4
ENDBRANCH   2   3
ENDBRANCH   1   2
BRANCH   1   9
ATOM      9  C   UNL     1     179.077 175.695 183.293  1.00  0.00     0.000 C 
BRANCH   9  10
ATOM     10  C   UNL     1     180.317 175.084 182.616  1.00  0.00    -0.000 C 
BRANCH  10  11
ATOM     11  C   UNL     1     181.595 175.267 183.450  1.00  0.00    -0.000 C 
BRANCH  11  12
ATOM     12  C   UNL     1     182.797 175.716 182.604  1.00  0.00    -0.000 C 
BRANCH  12  13
ATOM     13  C   UNL     1     182.495 175.578 181.107  1.00  0.00    -0.003 C 
ATOM     14  C   UNL     1     183.076 176.747 180.318  1.00  0.00     0.004 C 
ENDBRANCH  12  13
ENDBRANCH  11  12
ENDBRANCH  10  11
ENDBRANCH   9  10
ENDBRANCH   1   9
TORSDOF 10
ENDMDL
MODEL 2
REMARK VINA RESULT:     0.000      5.086      6.927
REMARK INTER + INTRA:          -1.857
REMARK INTER:                   0.000
REMARK INTRA:                  -1.857
REMARK UNBOUND:                -1.857
REMARK SMILES CCCCCCCCCCCC(=O)[O-]
REMARK SMILES IDX 7 1 8 2 9 3 10 4 11 5 12 6 13 7 14 8 6 9 5 10 4 11 3 12 2 13
REMARK SMILES IDX 1 14
REMARK H PARENT
REMARK Flexibility Score: inf
ROOT
ATOM      1  C   UNL     1     184.315 181.384 179.087  1.00  0.00     0.000 C 
ENDROOT
BRANCH   1   2
ATOM      2  C   UNL     1     183.810 180.048 179.660  1.00  0.00     0.000 C 
BRANCH   2   3
ATOM      3  C   UNL     1     182.506 180.218 180.468  1.00  0.00     0.000 C 
BRANCH   3   4
ATOM      4  C   UNL     1     181.866 181.609 180.319  1.00  0.00     0.006 C 
BRANCH   4   5
ATOM      5  C   UNL     1     180.582 181.589 179.483  1.00  0.00     0.053 C 
BRANCH   5   6
ATOM      6  C   UNL     1     180.606 182.681 178.461  1.00  0.00     0.041 C 
ATOM      7  O   UNL     1     181.556 183.507 178.438  1.00  0.00    -0.550 OA
ATOM      8  O   UNL     1     179.604 182.758 177.502  1.00  0.00    -0.550 OA
ENDBRANCH   5   6
ENDBRANCH   4   5
ENDBRANCH   3   4
ENDBRANCH   2   3
ENDBRANCH   1   2
BRANCH   1   9
ATOM      9  C   UNL     1     184.370 181.392 177.551  1.00  0.00     0.000 C 
BRANCH   9  10
ATOM     10  C   UNL     1     183.661 180.176 176.929  1.00  0.00    -0.000 C 
BRANCH  10  11
ATOM     11  C   UNL     1     182.434 180.573 176.092  1.00  0.00    -0.000 C 
BRANCH  11  12
ATOM     12  C   UNL     1     181.226 179.655 176.338  1.00  0.00    -0.000 C 
BRANCH  12  13
ATOM     13  C   UNL     1     181.630 178.426 177.161  1.00  0.00    -0.003 C 
ATOM     14  C   UNL     1     180.544 178.055 178.166  1.00  0.00     0.004 C 
ENDBRANCH  12  13
ENDBRANCH  11  12
ENDBRANCH  10  11
ENDBRANCH   9  10
ENDBRANCH   1   9
TORSDOF 10
ENDMDL
MODEL 3
REMARK VINA RESULT:     0.002      3.402      4.733
REMARK INTER + INTRA:          -1.854
REMARK INTER:                   0.000
REMARK INTRA:                  -1.854
REMARK UNBOUND:                -1.857
REMARK SMILES CCCCCCCCCCCC(=O)[O-]
REMARK SMILES IDX 7 1 8 2 9 3 10 4 11 5 12 6 13 7 14 8 6 9 5 10 4 11 3 12 2 13
REMARK SMILES IDX 1 14
REMARK H PARENT
REMARK Flexibility Score: inf
ROOT
ATOM      1  C   UNL     1     180.507 177.519 178.477  1.00  0.00     0.000 C 
ENDROOT
BRANCH   1   2
ATOM      2  C   UNL     1     180.476 176.264 177.587  1.00  0.00     0.000 C 
BRANCH   2   3
ATOM      3  C   UNL     1     181.732 176.151 176.698  1.00  0.00     0.000 C 
BRANCH   3   4
ATOM      4  C   UNL     1     182.863 177.111 177.104  1.00  0.00     0.006 C 
BRANCH   4   5
ATOM      5  C   UNL     1     184.020 176.403 177.817  1.00  0.00     0.053 C 
BRANCH   5   6
ATOM      6  C   UNL     1     184.414 177.154 179.049  1.00  0.00     0.041 C 
ATOM      7  O   UNL     1     183.898 178.275 179.301  1.00  0.00    -0.550 OA
ATOM      8  O   UNL     1     185.315 176.595 179.946  1.00  0.00    -0.550 OA
ENDBRANCH   5   6
ENDBRANCH   4   5
ENDBRANCH   3   4
ENDBRANCH   2   3
ENDBRANCH   1   2
BRANCH   1   9
ATOM      9  C   UNL     1     180.535 177.186 179.977  1.00  0.00     0.000 C 
BRANCH   9  10
ATOM     10  C   UNL     1     180.657 175.676 180.245  1.00  0.00    -0.000 C 
BRANCH  10  11
ATOM     11  C   UNL     1     181.916 175.319 181.053  1.00  0.00    -0.000 C 
BRANCH  11  12
ATOM     12  C   UNL     1     182.690 174.135 180.455  1.00  0.00    -0.000 C 
BRANCH  12  13
ATOM     13  C   UNL     1     181.823 173.363 179.453  1.00  0.00    -0.003 C 
ATOM     14  C   UNL     1     182.645 172.902 178.254  1.00  0.00     0.004 C 
ENDBRANCH  12  13
ENDBRANCH  11  12
ENDBRANCH  10  11
ENDBRANCH   9  10
ENDBRANCH   1   9
TORSDOF 10
ENDMDL
MODEL 4
REMARK VINA RESULT:     0.003      7.212      9.425
REMARK INTER + INTRA:          -1.852
REMARK INTER:                   0.000
REMARK INTRA:                  -1.852
REMARK UNBOUND:                -1.857
REMARK SMILES CCCCCCCCCCCC(=O)[O-]
REMARK SMILES IDX 7 1 8 2 9 3 10 4 11 5 12 6 13 7 14 8 6 9 5 10 4 11 3 12 2 13
REMARK SMILES IDX 1 14
REMARK H PARENT
REMARK Flexibility Score: inf
ROOT
ATOM      1  C   UNL     1     184.570 182.501 174.775  1.00  0.00     0.000 C 
ENDROOT
BRANCH   1   2
ATOM      2  C   UNL     1     184.318 182.586 176.290  1.00  0.00     0.000 C 
BRANCH   2   3
ATOM      3  C   UNL     1     184.821 181.331 177.035  1.00  0.00     0.000 C 
BRANCH   3   4
ATOM      4  C   UNL     1     185.191 180.167 176.099  1.00  0.00     0.006 C 
BRANCH   4   5
ATOM      5  C   UNL     1     184.159 179.035 176.120  1.00  0.00     0.053 C 
BRANCH   5   6
ATOM      6  C   UNL     1     183.794 178.634 174.725  1.00  0.00     0.041 C 
ATOM      7  O   UNL     1     184.434 179.097 173.744  1.00  0.00    -0.550 OA
ATOM      8  O   UNL     1     182.778 177.712 174.510  1.00  0.00    -0.550 OA
ENDBRANCH   5   6
ENDBRANCH   4   5
ENDBRANCH   3   4
ENDBRANCH   2   3
ENDBRANCH   1   2
BRANCH   1   9
ATOM      9  C   UNL     1     183.272 182.522 173.952  1.00  0.00     0.000 C 
BRANCH   9  10
ATOM     10  C   UNL     1     182.014 182.436 174.833  1.00  0.00    -0.000 C 
BRANCH  10  11
ATOM     11  C   UNL     1     181.168 181.187 174.534  1.00  0.00    -0.000 C 
BRANCH  11  12
ATOM     12  C   UNL     1     180.707 180.463 175.809  1.00  0.00    -0.000 C 
BRANCH  12  13
ATOM     13  C   UNL     1     180.930 181.338 177.047  1.00  0.00    -0.003 C 
ATOM     14  C   UNL     1     181.399 180.504 178.235  1.00  0.00     0.004 C 
ENDBRANCH  12  13
ENDBRANCH  11  12
ENDBRANCH  10  11
ENDBRANCH   9  10
ENDBRANCH   1   9
TORSDOF 10
ENDMDL
MODEL 5
REMARK VINA RESULT:     0.004      6.709      8.615
REMARK INTER + INTRA:          -1.851
REMARK INTER:                   0.000
REMARK INTRA:                  -1.851
REMARK UNBOUND:                -1.857
REMARK SMILES CCCCCCCCCCCC(=O)[O-]
REMARK SMILES IDX 7 1 8 2 9 3 10 4 11 5 12 6 13 7 14 8 6 9 5 10 4 11 3 12 2 13
REMARK SMILES IDX 1 14
REMARK H PARENT
REMARK Flexibility Score: inf
ROOT
ATOM      1  C   UNL     1     183.386 178.954 175.297  1.00  0.00     0.000 C 
ENDROOT
BRANCH   1   2
ATOM      2  C   UNL     1     182.201 178.264 175.996  1.00  0.00     0.000 C 
BRANCH   2   3
ATOM      3  C   UNL     1     182.649 177.443 177.224  1.00  0.00     0.000 C 
BRANCH   3   4
ATOM      4  C   UNL     1     184.175 177.285 177.336  1.00  0.00     0.006 C 
BRANCH   4   5
ATOM      5  C   UNL     1     184.654 175.867 177.004  1.00  0.00     0.053 C 
BRANCH   5   6
ATOM      6  C   UNL     1     185.803 175.914 176.047  1.00  0.00     0.041 C 
ATOM      7  O   UNL     1     186.337 177.016 175.752  1.00  0.00    -0.550 OA
ATOM      8  O   UNL     1     186.317 174.737 175.520  1.00  0.00    -0.550 OA
ENDBRANCH   5   6
ENDBRANCH   4   5
ENDBRANCH   3   4
ENDBRANCH   2   3
ENDBRANCH   1   2
BRANCH   1   9
ATOM      9  C   UNL     1     183.583 178.479 173.849  1.00  0.00     0.000 C 
BRANCH   9  10
ATOM     10  C   UNL     1     182.720 177.252 173.507  1.00  0.00    -0.000 C 
BRANCH  10  11
ATOM     11  C   UNL     1     183.564 176.013 173.164  1.00  0.00    -0.000 C 
BRANCH  11  12
ATOM     12  C   UNL     1     183.033 174.732 173.825  1.00  0.00    -0.000 C 
BRANCH  12  13
ATOM     13  C   UNL     1     181.646 174.964 174.435  1.00  0.00    -0.003 C 
ATOM     14  C   UNL     1     181.495 174.221 175.759  1.00  0.00     0.004 C 
ENDBRANCH  12  13
ENDBRANCH  11  12
ENDBRANCH  10  11
ENDBRANCH   9  10
ENDBRANCH   1   9
TORSDOF 10
ENDMDL
MODEL 6
REMARK VINA RESULT:     0.004      6.754      8.858
REMARK INTER + INTRA:          -1.851
REMARK INTER:                   0.000
REMARK INTRA:                  -1.851
REMARK UNBOUND:                -1.857
REMARK SMILES CCCCCCCCCCCC(=O)[O-]
REMARK SMILES IDX 7 1 8 2 9 3 10 4 11 5 12 6 13 7 14 8 6 9 5 10 4 11 3 12 2 13
REMARK SMILES IDX 1 14
REMARK H PARENT
REMARK Flexibility Score: inf
ROOT
ATOM      1  C   UNL     1     182.651 187.613 181.468  1.00  0.00     0.000 C 
ENDROOT
BRANCH   1   2
ATOM      2  C   UNL     1     181.286 186.921 181.306  1.00  0.00     0.000 C 
BRANCH   2   3
ATOM      3  C   UNL     1     180.665 186.535 182.665  1.00  0.00     0.000 C 
BRANCH   3   4
ATOM      4  C   UNL     1     181.635 186.688 183.850  1.00  0.00     0.006 C 
BRANCH   4   5
ATOM      5  C   UNL     1     182.119 185.342 184.402  1.00  0.00     0.053 C 
BRANCH   5   6
ATOM      6  C   UNL     1     183.606 185.348 184.564  1.00  0.00     0.041 C 
ATOM      7  O   UNL     1     184.257 186.414 184.402  1.00  0.00    -0.550 OA
ATOM      8  O   UNL     1     184.268 184.188 184.943  1.00  0.00    -0.550 OA
ENDBRANCH   5   6
ENDBRANCH   4   5
ENDBRANCH   3   4
ENDBRANCH   2   3
ENDBRANCH   1   2
BRANCH   1   9
ATOM      9  C   UNL     1     183.799 186.826 180.816  1.00  0.00     0.000 C 
BRANCH   9  10
ATOM     10  C   UNL     1     183.368 185.420 180.362  1.00  0.00    -0.000 C 
BRANCH  10  11
ATOM     11  C   UNL     1     184.120 184.304 181.106  1.00  0.00    -0.000 C 
BRANCH  11  12
ATOM     12  C   UNL     1     183.196 183.158 181.547  1.00  0.00    -0.000 C 
BRANCH  12  13
ATOM     13  C   UNL     1     181.805 183.302 180.919  1.00  0.00    -0.003 C 
ATOM     14  C   UNL     1     180.711 182.899 181.902  1.00  0.00     0.004 C 
ENDBRANCH  12  13
ENDBRANCH  11  12
ENDBRANCH  10  11
ENDBRANCH   9  10
ENDBRANCH   1   9
TORSDOF 10
ENDMDL
MODEL 7
REMARK VINA RESULT:     0.005      3.191      4.907
REMARK INTER + INTRA:          -1.850
REMARK INTER:                   0.000
REMARK INTRA:                  -1.850
REMARK UNBOUND:                -1.857
REMARK SMILES CCCCCCCCCCCC(=O)[O-]
REMARK SMILES IDX 7 1 8 2 9 3 10 4 11 5 12 6 13 7 14 8 6 9 5 10 4 11 3 12 2 13
REMARK SMILES IDX 1 14
REMARK H PARENT
REMARK Flexibility Score: inf
ROOT
ATOM      1  C   UNL     1     177.607 176.300 182.691  1.00  0.00     0.000 C 
ENDROOT
BRANCH   1   2
ATOM      2  C   UNL     1     177.628 177.675 183.382  1.00  0.00     0.000 C 
BRANCH   2   3
ATOM      3  C   UNL     1     179.062 178.130 183.726  1.00  0.00     0.000 C 
BRANCH   3   4
ATOM      4  C   UNL     1     180.118 177.024 183.553  1.00  0.00     0.006 C 
BRANCH   4   5
ATOM      5  C   UNL     1     180.628 176.472 184.888  1.00  0.00     0.053 C 
BRANCH   5   6
ATOM      6  C   UNL     1     180.588 174.976 184.884  1.00  0.00     0.041 C 
ATOM      7  O   UNL     1     180.370 174.351 183.814  1.00  0.00    -0.550 OA
ATOM      8  O   UNL     1     180.841 174.272 186.054  1.00  0.00    -0.550 OA
ENDBRANCH   5   6
ENDBRANCH   4   5
ENDBRANCH   3   4
ENDBRANCH   2   3
ENDBRANCH   1   2
BRANCH   1   9
ATOM      9  C   UNL     1     176.871 175.231 183.514  1.00  0.00     0.000 C 
BRANCH   9  10
ATOM     10  C   UNL     1     176.465 175.735 184.910  1.00  0.00    -0.000 C 
BRANCH  10  11
ATOM     11  C   UNL     1     177.094 174.907 186.042  1.00  0.00    -0.000 C 
BRANCH  11  12
ATOM     12  C   UNL     1     177.714 175.781 187.144  1.00  0.00    -0.000 C 
BRANCH  12  13
ATOM     13  C   UNL     1     177.234 177.232 187.026  1.00  0.00    -0.003 C 
ATOM     14  C   UNL     1     178.353 178.212 187.367  1.00  0.00     0.004 C 
ENDBRANCH  12  13
ENDBRANCH  11  12
ENDBRANCH  10  11
ENDBRANCH   9  10
ENDBRANCH   1   9
TORSDOF 10
ENDMDL
MODEL 8
REMARK VINA RESULT:     0.005      2.664      4.439
REMARK INTER + INTRA:          -1.849
REMARK INTER:                   0.000
REMARK INTRA:                  -1.849
REMARK UNBOUND:                -1.857
REMARK SMILES CCCCCCCCCCCC(=O)[O-]
REMARK SMILES IDX 7 1 8 2 9 3 10 4 11 5 12 6 13 7 14 8 6 9 5 10 4 11 3 12 2 13
REMARK SMILES IDX 1 14
REMARK H PARENT
REMARK Flexibility Score: inf
ROOT
ATOM      1  C   UNL     1     178.825 176.126 179.818  1.00  0.00     0.000 C 
ENDROOT
BRANCH   1   2
ATOM      2  C   UNL     1     178.106 177.121 178.889  1.00  0.00     0.000 C 
BRANCH   2   3
ATOM      3  C   UNL     1     176.787 177.638 179.501  1.00  0.00     0.000 C 
BRANCH   3   4
ATOM      4  C   UNL     1     176.759 179.162 179.706  1.00  0.00     0.006 C 
BRANCH   4   5
ATOM      5  C   UNL     1     176.851 179.568 181.181  1.00  0.00     0.053 C 
BRANCH   5   6
ATOM      6  C   UNL     1     178.252 179.965 181.527  1.00  0.00     0.041 C 
ATOM      7  O   UNL     1     178.622 179.998 182.730  1.00  0.00    -0.550 OA
ATOM      8  O   UNL     1     179.163 180.250 180.518  1.00  0.00    -0.550 OA
ENDBRANCH   5   6
ENDBRANCH   4   5
ENDBRANCH   3   4
ENDBRANCH   2   3
ENDBRANCH   1   2
BRANCH   1   9
ATOM      9  C   UNL     1     179.969 176.773 180.613  1.00  0.00     0.000 C 
BRANCH   9  10
ATOM     10  C   UNL     1     179.774 176.651 182.134  1.00  0.00    -0.000 C 
BRANCH  10  11
ATOM     11  C   UNL     1     178.524 175.837 182.506  1.00  0.00    -0.000 C 
BRANCH  11  12
ATOM     12  C   UNL     1     177.521 176.640 183.349  1.00  0.00    -0.000 C 
BRANCH  12  13
ATOM     13  C   UNL     1     176.080 176.330 182.927  1.00  0.00    -0.003 C 
ATOM     14  C   UNL     1     176.013 175.061 182.083  1.00  0.00     0.004 C 
ENDBRANCH  12  13
ENDBRANCH  11  12
ENDBRANCH  10  11
ENDBRANCH   9  10
ENDBRANCH   1   9
TORSDOF 10
ENDMDL
MODEL 9
REMARK VINA RESULT:     0.005      6.418      8.150
REMARK INTER + INTRA:          -1.849
REMARK INTER:                   0.000
REMARK INTRA:                  -1.849
REMARK UNBOUND:                -1.857
REMARK SMILES CCCCCCCCCCCC(=O)[O-]
REMARK SMILES IDX 7 1 8 2 9 3 10 4 11 5 12 6 13 7 14 8 6 9 5 10 4 11 3 12 2 13
REMARK SMILES IDX 1 14
REMARK H PARENT
REMARK Flexibility Score: inf
ROOT
ATOM      1  C   UNL     1     186.441 174.165 178.096  1.00  0.00     0.000 C 
ENDROOT
BRANCH   1   2
ATOM      2  C   UNL     1     187.556 174.027 179.148  1.00  0.00     0.000 C 
BRANCH   2   3
ATOM      3  C   UNL     1     188.739 174.978 178.869  1.00  0.00     0.000 C 
BRANCH   3   4
ATOM      4  C   UNL     1     189.001 175.984 180.004  1.00  0.00     0.006 C 
BRANCH   4   5
ATOM      5  C   UNL     1     188.601 177.416 179.636  1.00  0.00     0.053 C 
BRANCH   5   6
ATOM      6  C   UNL     1     187.261 177.749 180.212  1.00  0.00     0.041 C 
ATOM      7  O   UNL     1     186.599 178.720 179.760  1.00  0.00    -0.550 OA
ATOM      8  O   UNL     1     186.720 176.957 181.216  1.00  0.00    -0.550 OA
ENDBRANCH   5   6
ENDBRANCH   4   5
ENDBRANCH   3   4
ENDBRANCH   2   3
ENDBRANCH   1   2
BRANCH   1   9
ATOM      9  C   UNL     1     185.270 175.034 178.579  1.00  0.00     0.000 C 
BRANCH   9  10
ATOM     10  C   UNL     1     185.027 176.254 177.674  1.00  0.00    -0.000 C 
BRANCH  10  11
ATOM     11  C   UNL     1     185.953 176.273 176.447  1.00  0.00    -0.000 C 
BRANCH  11  12
ATOM     12  C   UNL     1     186.827 177.535 176.381  1.00  0.00    -0.000 C 
BRANCH  12  13
ATOM     13  C   UNL     1     188.244 177.197 175.904  1.00  0.00    -0.003 C 
ATOM     14  C   UNL     1     188.295 175.813 175.264  1.00  0.00     0.004 C 
ENDBRANCH  12  13
ENDBRANCH  11  12
ENDBRANCH  10  11
ENDBRANCH   9  10
ENDBRANCH   1   9
TORSDOF 10
ENDMDL
