MODEL 1
REMARK VINA RESULT:    -4.256      0.000      0.000
REMARK INTER + INTRA:          -4.381
REMARK INTER:                  -4.381
REMARK INTRA:                   0.000
REMARK UNBOUND:                 0.000
REMARK SMILES O=c1ccc2ccc(O)cc2o1
REMARK SMILES IDX 6 1 7 2 8 3 10 4 11 5 5 6 4 7 3 8 2 9 1 10 12 11 9 12
REMARK H PARENT 9 13
REMARK Flexibility Score: inf
ROOT
ATOM      1  C   UNL     1     -28.913 -18.875 -30.231  1.00  0.00     0.016 A 
ATOM      2  C   UNL     1     -27.943 -18.878 -31.239  1.00  0.00     0.047 A 
ATOM      3  C   UNL     1     -28.321 -18.883 -32.587  1.00  0.00     0.119 A 
ATOM      4  C   UNL     1     -29.681 -18.884 -32.931  1.00  0.00     0.094 A 
ATOM      5  C   UNL     1     -30.659 -18.882 -31.930  1.00  0.00     0.142 A 
ATOM      6  C   UNL     1     -30.273 -18.878 -30.572  1.00  0.00     0.018 A 
ATOM      7  C   UNL     1     -31.274 -18.875 -29.595  1.00  0.00     0.019 A 
ATOM      8  C   UNL     1     -32.611 -18.877 -29.986  1.00  0.00     0.094 A 
ATOM      9  C   UNL     1     -32.920 -18.881 -31.350  1.00  0.00     0.336 A 
ATOM     10  O   UNL     1     -34.122 -18.884 -31.723  1.00  0.00    -0.246 OA
ATOM     11  O   UNL     1     -31.948 -18.885 -32.260  1.00  0.00    -0.423 OA
ENDROOT
BRANCH   3  12
ATOM     12  O   UNL     1     -27.340 -18.886 -33.575  1.00  0.00    -0.508 OA
ATOM     13  H   UNL     1     -26.414 -19.257 -33.401  1.00  0.00     0.293 HD
ENDBRANCH   3  12
TORSDOF 1
ENDMDL
MODEL 2
REMARK VINA RESULT:    -3.927      1.556      2.291
REMARK INTER + INTRA:          -4.042
REMARK INTER:                  -4.042
REMARK INTRA:                   0.000
REMARK UNBOUND:                 0.000
REMARK SMILES O=c1ccc2ccc(O)cc2o1
REMARK SMILES IDX 6 1 7 2 8 3 10 4 11 5 5 6 4 7 3 8 2 9 1 10 12 11 9 12
REMARK H PARENT 9 13
REMARK Flexibility Score: inf
ROOT
ATOM      1  C   UNL     1     -30.299 -18.875 -32.781  1.00  0.00     0.016 A 
ATOM      2  C   UNL     1     -28.926 -18.875 -32.513  1.00  0.00     0.047 A 
ATOM      3  C   UNL     1     -28.461 -18.875 -31.193  1.00  0.00     0.119 A 
ATOM      4  C   UNL     1     -29.377 -18.876 -30.130  1.00  0.00     0.094 A 
ATOM      5  C   UNL     1     -30.752 -18.876 -30.387  1.00  0.00     0.142 A 
ATOM      6  C   UNL     1     -31.217 -18.875 -31.720  1.00  0.00     0.018 A 
ATOM      7  C   UNL     1     -32.597 -18.875 -31.946  1.00  0.00     0.019 A 
ATOM      8  C   UNL     1     -33.467 -18.875 -30.857  1.00  0.00     0.094 A 
ATOM      9  C   UNL     1     -32.936 -18.877 -29.563  1.00  0.00     0.336 A 
ATOM     10  O   UNL     1     -33.706 -18.877 -28.567  1.00  0.00    -0.246 OA
ATOM     11  O   UNL     1     -31.618 -18.876 -29.376  1.00  0.00    -0.423 OA
ENDROOT
BRANCH   3  12
ATOM     12  O   UNL     1     -27.091 -18.875 -30.948  1.00  0.00    -0.508 OA
ATOM     13  H   UNL     1     -26.541 -19.724 -31.010  1.00  0.00     0.293 HD
ENDBRANCH   3  12
TORSDOF 1
ENDMDL
MODEL 3
REMARK VINA RESULT:    -3.904      1.583      4.717
REMARK INTER + INTRA:          -4.019
REMARK INTER:                  -4.019
REMARK INTRA:                   0.000
REMARK UNBOUND:                 0.000
REMARK SMILES O=c1ccc2ccc(O)cc2o1
REMARK SMILES IDX 6 1 7 2 8 3 10 4 11 5 5 6 4 7 3 8 2 9 1 10 12 11 9 12
REMARK H PARENT 9 13
REMARK Flexibility Score: inf
ROOT
ATOM      1  C   UNL     1     -32.696 -18.878 -31.970  1.00  0.00     0.016 A 
ATOM      2  C   UNL     1     -33.348 -18.879 -30.732  1.00  0.00     0.047 A 
ATOM      3  C   UNL     1     -32.610 -18.880 -29.543  1.00  0.00     0.119 A 
ATOM      4  C   UNL     1     -31.208 -18.880 -29.590  1.00  0.00     0.094 A 
ATOM      5  C   UNL     1     -30.546 -18.880 -30.823  1.00  0.00     0.142 A 
ATOM      6  C   UNL     1     -31.295 -18.879 -32.021  1.00  0.00     0.018 A 
ATOM      7  C   UNL     1     -30.605 -18.879 -33.238  1.00  0.00     0.019 A 
ATOM      8  C   UNL     1     -29.212 -18.880 -33.234  1.00  0.00     0.094 A 
ATOM      9  C   UNL     1     -28.536 -18.880 -32.009  1.00  0.00     0.336 A 
ATOM     10  O   UNL     1     -27.278 -18.881 -31.985  1.00  0.00    -0.246 OA
ATOM     11  O   UNL     1     -29.216 -18.881 -30.865  1.00  0.00    -0.423 OA
ENDROOT
BRANCH   3  12
ATOM     12  O   UNL     1     -33.277 -18.881 -28.321  1.00  0.00    -0.508 OA
ATOM     13  H   UNL     1     -34.026 -18.227 -28.126  1.00  0.00     0.293 HD
ENDBRANCH   3  12
TORSDOF 1
ENDMDL
MODEL 4
REMARK VINA RESULT:    -3.818      2.409      3.547
REMARK INTER + INTRA:          -3.929
REMARK INTER:                  -3.929
REMARK INTRA:                   0.000
REMARK UNBOUND:                 0.000
REMARK SMILES O=c1ccc2ccc(O)cc2o1
REMARK SMILES IDX 6 1 7 2 8 3 10 4 11 5 5 6 4 7 3 8 2 9 1 10 12 11 9 12
REMARK H PARENT 9 13
REMARK Flexibility Score: inf
ROOT
ATOM      1  C   UNL     1     -28.187 -19.246 -32.618  1.00  0.00     0.016 A 
ATOM      2  C   UNL     1     -28.056 -18.875 -31.275  1.00  0.00     0.047 A 
ATOM      3  C   UNL     1     -29.021 -19.258 -30.337  1.00  0.00     0.119 A 
ATOM      4  C   UNL     1     -30.128 -20.019 -30.743  1.00  0.00     0.094 A 
ATOM      5  C   UNL     1     -30.268 -20.394 -32.084  1.00  0.00     0.142 A 
ATOM      6  C   UNL     1     -29.292 -20.005 -33.027  1.00  0.00     0.018 A 
ATOM      7  C   UNL     1     -29.460 -20.396 -34.360  1.00  0.00     0.019 A 
ATOM      8  C   UNL     1     -30.576 -21.151 -34.716  1.00  0.00     0.094 A 
ATOM      9  C   UNL     1     -31.502 -21.500 -33.727  1.00  0.00     0.336 A 
ATOM     10  O   UNL     1     -32.517 -22.182 -34.029  1.00  0.00    -0.246 OA
ATOM     11  O   UNL     1     -31.319 -21.115 -32.466  1.00  0.00    -0.423 OA
ENDROOT
BRANCH   3  12
ATOM     12  O   UNL     1     -28.873 -18.879 -29.005  1.00  0.00    -0.508 OA
ATOM     13  H   UNL     1     -29.656 -18.880 -28.363  1.00  0.00     0.293 HD
ENDBRANCH   3  12
TORSDOF 1
ENDMDL
MODEL 5
REMARK VINA RESULT:    -3.801      2.150      2.952
REMARK INTER + INTRA:          -3.913
REMARK INTER:                  -3.913
REMARK INTRA:                   0.000
REMARK UNBOUND:                 0.000
REMARK SMILES O=c1ccc2ccc(O)cc2o1
REMARK SMILES IDX 6 1 7 2 8 3 10 4 11 5 5 6 4 7 3 8 2 9 1 10 12 11 9 12
REMARK H PARENT 9 13
REMARK Flexibility Score: inf
ROOT
ATOM      1  C   UNL     1     -29.108 -20.145 -32.996  1.00  0.00     0.016 A 
ATOM      2  C   UNL     1     -29.631 -20.741 -34.148  1.00  0.00     0.047 A 
ATOM      3  C   UNL     1     -31.003 -20.995 -34.254  1.00  0.00     0.119 A 
ATOM      4  C   UNL     1     -31.861 -20.651 -33.198  1.00  0.00     0.094 A 
ATOM      5  C   UNL     1     -31.347 -20.054 -32.041  1.00  0.00     0.142 A 
ATOM      6  C   UNL     1     -29.962 -19.800 -31.939  1.00  0.00     0.018 A 
ATOM      7  C   UNL     1     -29.478 -19.203 -30.770  1.00  0.00     0.019 A 
ATOM      8  C   UNL     1     -30.369 -18.879 -29.749  1.00  0.00     0.094 A 
ATOM      9  C   UNL     1     -31.729 -19.160 -29.920  1.00  0.00     0.336 A 
ATOM     10  O   UNL     1     -32.549 -18.875 -29.008  1.00  0.00    -0.246 OA
ATOM     11  O   UNL     1     -32.163 -19.729 -31.042  1.00  0.00    -0.423 OA
ENDROOT
BRANCH   3  12
ATOM     12  O   UNL     1     -31.505 -21.589 -35.409  1.00  0.00    -0.508 OA
ATOM     13  H   UNL     1     -30.970 -21.610 -36.269  1.00  0.00     0.293 HD
ENDBRANCH   3  12
TORSDOF 1
ENDMDL
MODEL 6
REMARK VINA RESULT:    -3.532      2.746      4.443
REMARK INTER + INTRA:          -3.635
REMARK INTER:                  -3.635
REMARK INTRA:                   0.000
REMARK UNBOUND:                 0.000
REMARK SMILES O=c1ccc2ccc(O)cc2o1
REMARK SMILES IDX 6 1 7 2 8 3 10 4 11 5 5 6 4 7 3 8 2 9 1 10 12 11 9 12
REMARK H PARENT 9 13
REMARK Flexibility Score: inf
ROOT
ATOM      1  C   UNL     1     -29.787 -20.688 -34.788  1.00  0.00     0.016 A 
ATOM      2  C   UNL     1     -30.838 -21.571 -35.057  1.00  0.00     0.047 A 
ATOM      3  C   UNL     1     -31.701 -21.977 -34.033  1.00  0.00     0.119 A 
ATOM      4  C   UNL     1     -31.512 -21.498 -32.728  1.00  0.00     0.094 A 
ATOM      5  C   UNL     1     -30.463 -20.615 -32.448  1.00  0.00     0.142 A 
ATOM      6  C   UNL     1     -29.595 -20.207 -33.485  1.00  0.00     0.018 A 
ATOM      7  C   UNL     1     -28.556 -19.324 -33.175  1.00  0.00     0.019 A 
ATOM      8  C   UNL     1     -28.408 -18.875 -31.864  1.00  0.00     0.094 A 
ATOM      9  C   UNL     1     -29.306 -19.321 -30.889  1.00  0.00     0.336 A 
ATOM     10  O   UNL     1     -29.189 -18.927 -29.699  1.00  0.00    -0.246 OA
ATOM     11  O   UNL     1     -30.286 -20.162 -31.210  1.00  0.00    -0.423 OA
ENDROOT
BRANCH   3  12
ATOM     12  O   UNL     1     -32.742 -22.857 -34.320  1.00  0.00    -0.508 OA
ATOM     13  H   UNL     1     -32.734 -23.432 -35.155  1.00  0.00     0.293 HD
ENDBRANCH   3  12
TORSDOF 1
ENDMDL
MODEL 7
REMARK VINA RESULT:    -3.263      6.444      7.499
REMARK INTER + INTRA:          -3.358
REMARK INTER:                  -3.358
REMARK INTRA:                   0.000
REMARK UNBOUND:                 0.000
REMARK SMILES O=c1ccc2ccc(O)cc2o1
REMARK SMILES IDX 6 1 7 2 8 3 10 4 11 5 5 6 4 7 3 8 2 9 1 10 12 11 9 12
REMARK H PARENT 9 13
REMARK Flexibility Score: inf
ROOT
ATOM      1  C   UNL     1     -32.797 -22.417 -39.124  1.00  0.00     0.016 A 
ATOM      2  C   UNL     1     -32.135 -23.638 -38.950  1.00  0.00     0.047 A 
ATOM      3  C   UNL     1     -31.816 -24.093 -37.665  1.00  0.00     0.119 A 
ATOM      4  C   UNL     1     -32.161 -23.323 -36.545  1.00  0.00     0.094 A 
ATOM      5  C   UNL     1     -32.822 -22.101 -36.708  1.00  0.00     0.142 A 
ATOM      6  C   UNL     1     -33.142 -21.645 -38.006  1.00  0.00     0.018 A 
ATOM      7  C   UNL     1     -33.803 -20.419 -38.138  1.00  0.00     0.019 A 
ATOM      8  C   UNL     1     -34.125 -19.690 -36.995  1.00  0.00     0.094 A 
ATOM      9  C   UNL     1     -33.777 -20.204 -35.741  1.00  0.00     0.336 A 
ATOM     10  O   UNL     1     -34.059 -19.559 -34.697  1.00  0.00    -0.246 OA
ATOM     11  O   UNL     1     -33.148 -21.372 -35.644  1.00  0.00    -0.423 OA
ENDROOT
BRANCH   3  12
ATOM     12  O   UNL     1     -31.158 -25.311 -37.513  1.00  0.00    -0.508 OA
ATOM     13  H   UNL     1     -30.260 -25.373 -37.047  1.00  0.00     0.293 HD
ENDBRANCH   3  12
TORSDOF 1
ENDMDL
MODEL 8
REMARK VINA RESULT:    -3.259      3.002      3.993
REMARK INTER + INTRA:          -3.354
REMARK INTER:                  -3.354
REMARK INTRA:                   0.000
REMARK UNBOUND:                 0.000
REMARK SMILES O=c1ccc2ccc(O)cc2o1
REMARK SMILES IDX 6 1 7 2 8 3 10 4 11 5 5 6 4 7 3 8 2 9 1 10 12 11 9 12
REMARK H PARENT 9 13
REMARK Flexibility Score: inf
ROOT
ATOM      1  C   UNL     1     -31.276 -19.170 -30.780  1.00  0.00     0.016 A 
ATOM      2  C   UNL     1     -30.793 -19.788 -29.622  1.00  0.00     0.047 A 
ATOM      3  C   UNL     1     -30.514 -21.160 -29.615  1.00  0.00     0.119 A 
ATOM      4  C   UNL     1     -30.717 -21.921 -30.776  1.00  0.00     0.094 A 
ATOM      5  C   UNL     1     -31.200 -21.311 -31.940  1.00  0.00     0.142 A 
ATOM      6  C   UNL     1     -31.481 -19.928 -31.942  1.00  0.00     0.018 A 
ATOM      7  C   UNL     1     -31.962 -19.347 -33.120  1.00  0.00     0.019 A 
ATOM      8  C   UNL     1     -32.149 -20.144 -34.248  1.00  0.00     0.094 A 
ATOM      9  C   UNL     1     -31.849 -21.508 -34.173  1.00  0.00     0.336 A 
ATOM     10  O   UNL     1     -32.011 -22.244 -35.181  1.00  0.00    -0.246 OA
ATOM     11  O   UNL     1     -31.393 -22.035 -33.039  1.00  0.00    -0.423 OA
ENDROOT
BRANCH   3  12
ATOM     12  O   UNL     1     -30.034 -21.757 -28.452  1.00  0.00    -0.508 OA
ATOM     13  H   UNL     1     -29.045 -21.769 -28.231  1.00  0.00     0.293 HD
ENDBRANCH   3  12
TORSDOF 1
ENDMDL
MODEL 9
REMARK VINA RESULT:    -3.117      3.368      4.354
REMARK INTER + INTRA:          -3.209
REMARK INTER:                  -3.209
REMARK INTRA:                   0.000
REMARK UNBOUND:                 0.000
REMARK SMILES O=c1ccc2ccc(O)cc2o1
REMARK SMILES IDX 6 1 7 2 8 3 10 4 11 5 5 6 4 7 3 8 2 9 1 10 12 11 9 12
REMARK H PARENT 9 13
REMARK Flexibility Score: inf
ROOT
ATOM      1  C   UNL     1     -32.183 -18.875 -32.610  1.00  0.00     0.016 A 
ATOM      2  C   UNL     1     -31.376 -18.906 -31.469  1.00  0.00     0.047 A 
ATOM      3  C   UNL     1     -30.632 -20.050 -31.158  1.00  0.00     0.119 A 
ATOM      4  C   UNL     1     -30.696 -21.174 -31.995  1.00  0.00     0.094 A 
ATOM      5  C   UNL     1     -31.501 -21.154 -33.139  1.00  0.00     0.142 A 
ATOM      6  C   UNL     1     -32.250 -19.997 -33.449  1.00  0.00     0.018 A 
ATOM      7  C   UNL     1     -33.046 -20.007 -34.599  1.00  0.00     0.019 A 
ATOM      8  C   UNL     1     -33.077 -21.147 -35.399  1.00  0.00     0.094 A 
ATOM      9  C   UNL     1     -32.309 -22.257 -35.031  1.00  0.00     0.336 A 
ATOM     10  O   UNL     1     -32.324 -23.296 -35.740  1.00  0.00    -0.246 OA
ATOM     11  O   UNL     1     -31.560 -22.222 -33.930  1.00  0.00    -0.423 OA
ENDROOT
BRANCH   3  12
ATOM     12  O   UNL     1     -29.834 -20.061 -30.017  1.00  0.00    -0.508 OA
ATOM     13  H   UNL     1     -30.211 -20.301 -29.108  1.00  0.00     0.293 HD
ENDBRANCH   3  12
TORSDOF 1
ENDMDL
