MODEL 1
REMARK VINA RESULT:    -3.608      0.000      0.000
REMARK INTER + INTRA:          -3.714
REMARK INTER:                  -3.714
REMARK INTRA:                   0.000
REMARK UNBOUND:                 0.000
REMARK SMILES CC1(C)[C@H]2CC[C@](C)(C2)[C@H]1O
REMARK SMILES IDX 1 1 2 2 4 3 5 4 6 5 7 6 9 7 10 8 8 9 3 10 11 11
REMARK H PARENT 11 12
REMARK Flexibility Score: inf
ROOT
ATOM      1  C   UNL     1     164.226 170.498 167.131  1.00  0.00     0.014 C 
ATOM      2  C   UNL     1     164.180 171.512 168.301  1.00  0.00    -0.006 C 
ATOM      3  C   UNL     1     164.887 170.908 169.564  1.00  0.00    -0.002 C 
ATOM      4  C   UNL     1     165.092 171.980 170.656  1.00  0.00     0.005 C 
ATOM      5  C   UNL     1     163.655 172.280 171.114  1.00  0.00     0.010 C 
ATOM      6  C   UNL     1     162.820 171.260 170.304  1.00  0.00    -0.006 C 
ATOM      7  C   UNL     1     163.778 170.093 170.206  1.00  0.00     0.013 C 
ATOM      8  C   UNL     1     162.716 171.705 168.819  1.00  0.00     0.126 C 
ATOM      9  C   UNL     1     161.476 170.906 170.950  1.00  0.00     0.014 C 
ATOM     10  C   UNL     1     164.836 172.824 167.798  1.00  0.00     0.014 C 
ENDROOT
BRANCH   8  11
ATOM     11  O   UNL     1     162.261 173.030 168.696  1.00  0.00    -0.392 OA
ATOM     12  H   UNL     1     163.062 173.593 168.535  1.00  0.00     0.211 HD
ENDBRANCH   8  11
TORSDOF 1
ENDMDL
MODEL 2
REMARK VINA RESULT:    -3.606      8.024      9.070
REMARK INTER + INTRA:          -3.712
REMARK INTER:                  -3.712
REMARK INTRA:                   0.000
REMARK UNBOUND:                 0.000
REMARK SMILES CC1(C)[C@H]2CC[C@](C)(C2)[C@H]1O
REMARK SMILES IDX 1 1 2 2 4 3 5 4 6 5 7 6 9 7 10 8 8 9 3 10 11 11
REMARK H PARENT 11 12
REMARK Flexibility Score: inf
ROOT
ATOM      1  C   UNL     1     160.749 164.256 167.159  1.00  0.00     0.014 C 
ATOM      2  C   UNL     1     159.725 164.198 168.319  1.00  0.00    -0.006 C 
ATOM      3  C   UNL     1     160.319 164.888 169.595  1.00  0.00    -0.002 C 
ATOM      4  C   UNL     1     159.238 165.082 170.680  1.00  0.00     0.005 C 
ATOM      5  C   UNL     1     158.930 163.641 171.117  1.00  0.00     0.010 C 
ATOM      6  C   UNL     1     159.954 162.813 170.306  1.00  0.00    -0.006 C 
ATOM      7  C   UNL     1     161.125 163.768 170.231  1.00  0.00     0.013 C 
ATOM      8  C   UNL     1     159.523 162.729 168.816  1.00  0.00     0.126 C 
ATOM      9  C   UNL     1     160.299 161.460 170.938  1.00  0.00     0.014 C 
ATOM     10  C   UNL     1     158.419 164.865 167.812  1.00  0.00     0.014 C 
ENDROOT
BRANCH   8  11
ATOM     11  O   UNL     1     158.197 162.280 168.676  1.00  0.00    -0.392 OA
ATOM     12  H   UNL     1     157.782 162.330 169.575  1.00  0.00     0.211 HD
ENDBRANCH   8  11
TORSDOF 1
ENDMDL
MODEL 3
REMARK VINA RESULT:    -3.600      8.029      9.077
REMARK INTER + INTRA:          -3.705
REMARK INTER:                  -3.705
REMARK INTRA:                   0.000
REMARK UNBOUND:                 0.000
REMARK SMILES CC1(C)[C@H]2CC[C@](C)(C2)[C@H]1O
REMARK SMILES IDX 1 1 2 2 4 3 5 4 6 5 7 6 9 7 10 8 8 9 3 10 11 11
REMARK H PARENT 11 12
REMARK Flexibility Score: inf
ROOT
ATOM      1  C   UNL     1     170.488 166.988 167.068  1.00  0.00     0.014 C 
ATOM      2  C   UNL     1     171.492 167.015 168.247  1.00  0.00    -0.006 C 
ATOM      3  C   UNL     1     170.860 166.326 169.506  1.00  0.00    -0.002 C 
ATOM      4  C   UNL     1     171.916 166.100 170.608  1.00  0.00     0.005 C 
ATOM      5  C   UNL     1     172.245 167.530 171.065  1.00  0.00     0.010 C 
ATOM      6  C   UNL     1     171.253 168.386 170.243  1.00  0.00    -0.006 C 
ATOM      7  C   UNL     1     170.064 167.456 170.136  1.00  0.00     0.013 C 
ATOM      8  C   UNL     1     171.714 168.474 168.762  1.00  0.00     0.126 C 
ATOM      9  C   UNL     1     170.924 169.740 170.881  1.00  0.00     0.014 C 
ATOM     10  C   UNL     1     172.793 166.326 167.759  1.00  0.00     0.014 C 
ENDROOT
BRANCH   8  11
ATOM     11  O   UNL     1     173.051 168.898 168.650  1.00  0.00    -0.392 OA
ATOM     12  H   UNL     1     173.402 168.980 169.574  1.00  0.00     0.211 HD
ENDBRANCH   8  11
TORSDOF 1
ENDMDL
MODEL 4
REMARK VINA RESULT:    -3.590     11.637     12.804
REMARK INTER + INTRA:          -3.695
REMARK INTER:                  -3.695
REMARK INTRA:                   0.000
REMARK UNBOUND:                 0.000
REMARK SMILES CC1(C)[C@H]2CC[C@](C)(C2)[C@H]1O
REMARK SMILES IDX 1 1 2 2 4 3 5 4 6 5 7 6 9 7 10 8 8 9 3 10 11 11
REMARK H PARENT 11 12
REMARK Flexibility Score: inf
ROOT
ATOM      1  C   UNL     1     166.885 160.798 167.174  1.00  0.00     0.014 C 
ATOM      2  C   UNL     1     166.913 159.766 168.328  1.00  0.00    -0.006 C 
ATOM      3  C   UNL     1     166.291 160.391 169.624  1.00  0.00    -0.002 C 
ATOM      4  C   UNL     1     166.062 159.317 170.709  1.00  0.00     0.005 C 
ATOM      5  C   UNL     1     167.493 158.925 171.109  1.00  0.00     0.010 C 
ATOM      6  C   UNL     1     168.358 159.905 170.281  1.00  0.00    -0.006 C 
ATOM      7  C   UNL     1     167.470 161.129 170.234  1.00  0.00     0.013 C 
ATOM      8  C   UNL     1     168.380 159.478 168.788  1.00  0.00     0.126 C 
ATOM      9  C   UNL     1     169.743 160.169 170.881  1.00  0.00     0.014 C 
ATOM     10  C   UNL     1     166.161 158.503 167.833  1.00  0.00     0.014 C 
ENDROOT
BRANCH   8  11
ATOM     11  O   UNL     1     168.750 158.129 168.631  1.00  0.00    -0.392 OA
ATOM     12  H   UNL     1     169.648 158.031 169.039  1.00  0.00     0.211 HD
ENDBRANCH   8  11
TORSDOF 1
ENDMDL
MODEL 5
REMARK VINA RESULT:    -3.579      7.247      8.803
REMARK INTER + INTRA:          -3.684
REMARK INTER:                  -3.684
REMARK INTRA:                   0.000
REMARK UNBOUND:                 0.000
REMARK SMILES CC1(C)[C@H]2CC[C@](C)(C2)[C@H]1O
REMARK SMILES IDX 1 1 2 2 4 3 5 4 6 5 7 6 9 7 10 8 8 9 3 10 11 11
REMARK H PARENT 11 12
REMARK Flexibility Score: inf
ROOT
ATOM      1  C   UNL     1     159.739 166.213 171.577  1.00  0.00     0.014 C 
ATOM      2  C   UNL     1     159.235 165.002 170.754  1.00  0.00    -0.006 C 
ATOM      3  C   UNL     1     160.216 163.791 170.924  1.00  0.00    -0.002 C 
ATOM      4  C   UNL     1     159.614 162.497 170.337  1.00  0.00     0.005 C 
ATOM      5  C   UNL     1     159.597 162.783 168.826  1.00  0.00     0.010 C 
ATOM      6  C   UNL     1     160.295 164.160 168.733  1.00  0.00    -0.006 C 
ATOM      7  C   UNL     1     161.280 164.079 169.879  1.00  0.00     0.013 C 
ATOM      8  C   UNL     1     159.341 165.284 169.219  1.00  0.00     0.126 C 
ATOM      9  C   UNL     1     160.948 164.433 167.374  1.00  0.00     0.014 C 
ATOM     10  C   UNL     1     157.791 164.694 171.229  1.00  0.00     0.014 C 
ENDROOT
BRANCH   8  11
ATOM     11  O   UNL     1     158.096 165.239 168.566  1.00  0.00    -0.392 OA
ATOM     12  H   UNL     1     157.618 166.074 168.805  1.00  0.00     0.211 HD
ENDBRANCH   8  11
TORSDOF 1
ENDMDL
MODEL 6
REMARK VINA RESULT:    -3.571      1.261      3.045
REMARK INTER + INTRA:          -3.675
REMARK INTER:                  -3.675
REMARK INTRA:                   0.000
REMARK UNBOUND:                 0.000
REMARK SMILES CC1(C)[C@H]2CC[C@](C)(C2)[C@H]1O
REMARK SMILES IDX 1 1 2 2 4 3 5 4 6 5 7 6 9 7 10 8 8 9 3 10 11 11
REMARK H PARENT 11 12
REMARK Flexibility Score: inf
ROOT
ATOM      1  C   UNL     1     166.161 171.501 171.616  1.00  0.00     0.014 C 
ATOM      2  C   UNL     1     164.946 171.987 170.787  1.00  0.00    -0.006 C 
ATOM      3  C   UNL     1     163.746 170.993 170.960  1.00  0.00    -0.002 C 
ATOM      4  C   UNL     1     162.446 171.578 170.367  1.00  0.00     0.005 C 
ATOM      5  C   UNL     1     162.735 171.590 168.857  1.00  0.00     0.010 C 
ATOM      6  C   UNL     1     164.120 170.907 168.770  1.00  0.00    -0.006 C 
ATOM      7  C   UNL     1     164.048 169.927 169.921  1.00  0.00     0.013 C 
ATOM      8  C   UNL     1     165.232 171.876 169.254  1.00  0.00     0.126 C 
ATOM      9  C   UNL     1     164.404 170.250 167.415  1.00  0.00     0.014 C 
ATOM     10  C   UNL     1     164.620 173.430 171.254  1.00  0.00     0.014 C 
ENDROOT
BRANCH   8  11
ATOM     11  O   UNL     1     165.175 173.117 168.594  1.00  0.00    -0.392 OA
ATOM     12  H   UNL     1     165.804 173.721 169.066  1.00  0.00     0.211 HD
ENDBRANCH   8  11
TORSDOF 1
ENDMDL
MODEL 7
REMARK VINA RESULT:    -3.568      0.905      3.274
REMARK INTER + INTRA:          -3.673
REMARK INTER:                  -3.673
REMARK INTRA:                   0.000
REMARK UNBOUND:                 0.000
REMARK SMILES CC1(C)[C@H]2CC[C@](C)(C2)[C@H]1O
REMARK SMILES IDX 1 1 2 2 4 3 5 4 6 5 7 6 9 7 10 8 8 9 3 10 11 11
REMARK H PARENT 11 12
REMARK Flexibility Score: inf
ROOT
ATOM      1  C   UNL     1     162.805 172.900 171.742  1.00  0.00     0.014 C 
ATOM      2  C   UNL     1     162.888 171.741 170.718  1.00  0.00    -0.006 C 
ATOM      3  C   UNL     1     164.304 171.070 170.780  1.00  0.00    -0.002 C 
ATOM      4  C   UNL     1     164.335 169.757 169.970  1.00  0.00     0.005 C 
ATOM      5  C   UNL     1     164.194 170.246 168.520  1.00  0.00     0.010 C 
ATOM      6  C   UNL     1     164.211 171.785 168.677  1.00  0.00    -0.006 C 
ATOM      7  C   UNL     1     165.130 171.958 169.866  1.00  0.00     0.013 C 
ATOM      8  C   UNL     1     162.858 172.285 169.252  1.00  0.00     0.126 C 
ATOM      9  C   UNL     1     164.675 172.531 167.422  1.00  0.00     0.014 C 
ATOM     10  C   UNL     1     161.729 170.761 171.039  1.00  0.00     0.014 C 
ENDROOT
BRANCH   8  11
ATOM     11  O   UNL     1     161.761 171.806 168.512  1.00  0.00    -0.392 OA
ATOM     12  H   UNL     1     162.122 171.472 167.651  1.00  0.00     0.211 HD
ENDBRANCH   8  11
TORSDOF 1
ENDMDL
MODEL 8
REMARK VINA RESULT:    -3.547      8.443      9.675
REMARK INTER + INTRA:          -3.650
REMARK INTER:                  -3.650
REMARK INTRA:                   0.000
REMARK UNBOUND:                 0.000
REMARK SMILES CC1(C)[C@H]2CC[C@](C)(C2)[C@H]1O
REMARK SMILES IDX 1 1 2 2 4 3 5 4 6 5 7 6 9 7 10 8 8 9 3 10 11 11
REMARK H PARENT 11 12
REMARK Flexibility Score: inf
ROOT
ATOM      1  C   UNL     1     171.522 165.070 171.714  1.00  0.00     0.014 C 
ATOM      2  C   UNL     1     171.996 166.279 170.869  1.00  0.00    -0.006 C 
ATOM      3  C   UNL     1     170.998 167.476 171.037  1.00  0.00    -0.002 C 
ATOM      4  C   UNL     1     171.572 168.772 170.427  1.00  0.00     0.005 C 
ATOM      5  C   UNL     1     171.573 168.468 168.920  1.00  0.00     0.010 C 
ATOM      6  C   UNL     1     170.895 167.080 168.852  1.00  0.00    -0.006 C 
ATOM      7  C   UNL     1     169.925 167.158 170.010  1.00  0.00     0.013 C 
ATOM      8  C   UNL     1     171.874 165.976 169.340  1.00  0.00     0.126 C 
ATOM      9  C   UNL     1     170.229 166.779 167.506  1.00  0.00     0.014 C 
ATOM     10  C   UNL     1     173.441 166.616 171.320  1.00  0.00     0.014 C 
ENDROOT
BRANCH   8  11
ATOM     11  O   UNL     1     173.110 166.033 168.669  1.00  0.00    -0.392 OA
ATOM     12  H   UNL     1     172.986 165.563 167.804  1.00  0.00     0.211 HD
ENDBRANCH   8  11
TORSDOF 1
ENDMDL
MODEL 9
REMARK VINA RESULT:    -3.516     11.440     12.785
REMARK INTER + INTRA:          -3.619
REMARK INTER:                  -3.619
REMARK INTRA:                   0.000
REMARK UNBOUND:                 0.000
REMARK SMILES CC1(C)[C@H]2CC[C@](C)(C2)[C@H]1O
REMARK SMILES IDX 1 1 2 2 4 3 5 4 6 5 7 6 9 7 10 8 8 9 3 10 11 11
REMARK H PARENT 11 12
REMARK Flexibility Score: inf
ROOT
ATOM      1  C   UNL     1     165.167 159.677 171.763  1.00  0.00     0.014 C 
ATOM      2  C   UNL     1     166.351 159.194 170.888  1.00  0.00    -0.006 C 
ATOM      3  C   UNL     1     167.562 160.179 171.034  1.00  0.00    -0.002 C 
ATOM      4  C   UNL     1     168.838 159.594 170.390  1.00  0.00     0.005 C 
ATOM      5  C   UNL     1     168.500 159.604 168.891  1.00  0.00     0.010 C 
ATOM      6  C   UNL     1     167.117 160.296 168.859  1.00  0.00    -0.006 C 
ATOM      7  C   UNL     1     167.233 161.260 170.019  1.00  0.00     0.013 C 
ATOM      8  C   UNL     1     166.015 159.327 169.367  1.00  0.00     0.126 C 
ATOM      9  C   UNL     1     166.793 160.973 167.523  1.00  0.00     0.014 C 
ATOM     10  C   UNL     1     166.683 157.743 171.324  1.00  0.00     0.014 C 
ENDROOT
BRANCH   8  11
ATOM     11  O   UNL     1     166.043 158.095 168.689  1.00  0.00    -0.392 OA
ATOM     12  H   UNL     1     166.595 158.229 167.875  1.00  0.00     0.211 HD
ENDBRANCH   8  11
TORSDOF 1
ENDMDL
