MODEL 1
REMARK VINA RESULT:    -4.772      0.000      0.000
REMARK INTER + INTRA:         -12.200
REMARK INTER:                 -10.909
REMARK INTRA:                  -1.291
REMARK UNBOUND:                -1.291
REMARK SMILES CCCCCCCCCCCCCCCCCCCCCCCC(=O)[O-]
REMARK SMILES IDX 13 1 14 2 15 3 16 4 17 5 18 6 19 7 20 8 21 9 22 10 23 11
REMARK SMILES IDX 24 12 25 13 26 14 12 15 11 16 10 17 9 18 8 19 7 20 6 21 5 22
REMARK SMILES IDX 4 23 3 24 2 25 1 26
REMARK H PARENT
REMARK Flexibility Score: inf
ROOT
ATOM      1  C   UNL     1       9.018  -4.424  -4.537  1.00  0.00     0.000 C 
ENDROOT
BRANCH   1   2
ATOM      2  C   UNL     1       7.751  -3.882  -5.231  1.00  0.00     0.000 C 
BRANCH   2   3
ATOM      3  C   UNL     1       7.762  -4.132  -6.747  1.00  0.00     0.000 C 
BRANCH   3   4
ATOM      4  C   UNL     1       9.051  -4.845  -7.182  1.00  0.00     0.000 C 
BRANCH   4   5
ATOM      5  C   UNL     1       8.773  -6.136  -7.975  1.00  0.00     0.000 C 
BRANCH   5   6
ATOM      6  C   UNL     1       8.725  -7.427  -7.128  1.00  0.00     0.000 C 
BRANCH   6   7
ATOM      7  C   UNL     1       8.453  -8.722  -7.916  1.00  0.00     0.000 C 
BRANCH   7   8
ATOM      8  C   UNL     1       7.262  -9.515  -7.360  1.00  0.00     0.000 C 
BRANCH   8   9
ATOM      9  C   UNL     1       6.437 -10.140  -8.493  1.00  0.00     0.000 C 
BRANCH   9  10
ATOM     10  C   UNL     1       5.018  -9.559  -8.524  1.00  0.00     0.006 C 
BRANCH  10  11
ATOM     11  C   UNL     1       4.172 -10.228  -9.611  1.00  0.00     0.053 C 
BRANCH  11  12
ATOM     12  C   UNL     1       3.837  -9.248 -10.690  1.00  0.00     0.041 C 
ATOM     13  O   UNL     1       4.720  -8.466 -11.134  1.00  0.00    -0.550 OA
ATOM     14  O   UNL     1       2.536  -9.164 -11.174  1.00  0.00    -0.550 OA
ENDBRANCH  11  12
ENDBRANCH  10  11
ENDBRANCH   9  10
ENDBRANCH   8   9
ENDBRANCH   7   8
ENDBRANCH   6   7
ENDBRANCH   5   6
ENDBRANCH   4   5
ENDBRANCH   3   4
ENDBRANCH   2   3
ENDBRANCH   1   2
BRANCH   1  15
ATOM     15  C   UNL     1       8.741  -5.177  -3.219  1.00  0.00     0.000 C 
BRANCH  15  16
ATOM     16  C   UNL     1       8.332  -6.652  -3.378  1.00  0.00     0.000 C 
BRANCH  16  17
ATOM     17  C   UNL     1       8.910  -7.604  -2.311  1.00  0.00     0.000 C 
BRANCH  17  18
ATOM     18  C   UNL     1       7.848  -8.506  -1.637  1.00  0.00    -0.000 C 
BRANCH  18  19
ATOM     19  C   UNL     1       8.443  -9.734  -0.925  1.00  0.00    -0.000 C 
BRANCH  19  20
ATOM     20  C   UNL     1       8.458  -9.578   0.606  1.00  0.00    -0.000 C 
BRANCH  20  21
ATOM     21  C   UNL     1       7.055  -9.674   1.234  1.00  0.00    -0.000 C 
BRANCH  21  22
ATOM     22  C   UNL     1       6.928 -10.655   2.417  1.00  0.00    -0.000 C 
BRANCH  22  23
ATOM     23  C   UNL     1       6.243 -10.073   3.669  1.00  0.00    -0.000 C 
BRANCH  23  24
ATOM     24  C   UNL     1       5.041 -10.909   4.165  1.00  0.00    -0.000 C 
BRANCH  24  25
ATOM     25  C   UNL     1       3.680 -10.299   3.795  1.00  0.00    -0.003 C 
ATOM     26  C   UNL     1       3.339  -9.062   4.624  1.00  0.00     0.004 C 
ENDBRANCH  24  25
ENDBRANCH  23  24
ENDBRANCH  22  23
ENDBRANCH  21  22
ENDBRANCH  20  21
ENDBRANCH  19  20
ENDBRANCH  18  19
ENDBRANCH  17  18
ENDBRANCH  16  17
ENDBRANCH  15  16
ENDBRANCH   1  15
TORSDOF 22
ENDMDL
MODEL 2
REMARK VINA RESULT:    -4.427      3.840      9.562
REMARK INTER + INTRA:         -11.411
REMARK INTER:                  -9.411
REMARK INTRA:                  -1.999
REMARK UNBOUND:                -1.291
REMARK SMILES CCCCCCCCCCCCCCCCCCCCCCCC(=O)[O-]
REMARK SMILES IDX 13 1 14 2 15 3 16 4 17 5 18 6 19 7 20 8 21 9 22 10 23 11
REMARK SMILES IDX 24 12 25 13 26 14 12 15 11 16 10 17 9 18 8 19 7 20 6 21 5 22
REMARK SMILES IDX 4 23 3 24 2 25 1 26
REMARK H PARENT
REMARK Flexibility Score: inf
ROOT
ATOM      1  C   UNL     1       7.621  -3.798  -4.686  1.00  0.00     0.000 C 
ENDROOT
BRANCH   1   2
ATOM      2  C   UNL     1       9.001  -4.020  -4.035  1.00  0.00     0.000 C 
BRANCH   2   3
ATOM      3  C   UNL     1       9.023  -5.247  -3.110  1.00  0.00     0.000 C 
BRANCH   3   4
ATOM      4  C   UNL     1       9.119  -6.549  -3.919  1.00  0.00     0.000 C 
BRANCH   4   5
ATOM      5  C   UNL     1       8.022  -7.562  -3.541  1.00  0.00     0.000 C 
BRANCH   5   6
ATOM      6  C   UNL     1       7.981  -8.839  -4.410  1.00  0.00     0.000 C 
BRANCH   6   7
ATOM      7  C   UNL     1       7.925 -10.165  -3.629  1.00  0.00     0.000 C 
BRANCH   7   8
ATOM      8  C   UNL     1       7.877  -9.956  -2.109  1.00  0.00     0.000 C 
BRANCH   8   9
ATOM      9  C   UNL     1       9.107 -10.570  -1.427  1.00  0.00     0.000 C 
BRANCH   9  10
ATOM     10  C   UNL     1       8.988 -10.486   0.099  1.00  0.00     0.006 C 
BRANCH  10  11
ATOM     11  C   UNL     1       8.125  -9.292   0.520  1.00  0.00     0.053 C 
BRANCH  11  12
ATOM     12  C   UNL     1       6.944  -9.756   1.313  1.00  0.00     0.041 C 
ATOM     13  O   UNL     1       7.105 -10.255   2.458  1.00  0.00    -0.550 OA
ATOM     14  O   UNL     1       5.667  -9.680   0.767  1.00  0.00    -0.550 OA
ENDBRANCH  11  12
ENDBRANCH  10  11
ENDBRANCH   9  10
ENDBRANCH   8   9
ENDBRANCH   7   8
ENDBRANCH   6   7
ENDBRANCH   5   6
ENDBRANCH   4   5
ENDBRANCH   3   4
ENDBRANCH   2   3
ENDBRANCH   1   2
BRANCH   1  15
ATOM     15  C   UNL     1       7.666  -3.638  -6.220  1.00  0.00     0.000 C 
BRANCH  15  16
ATOM     16  C   UNL     1       8.815  -4.380  -6.925  1.00  0.00     0.000 C 
BRANCH  16  17
ATOM     17  C   UNL     1       8.512  -5.848  -7.286  1.00  0.00     0.000 C 
BRANCH  17  18
ATOM     18  C   UNL     1       8.911  -6.232  -8.731  1.00  0.00    -0.000 C 
BRANCH  18  19
ATOM     19  C   UNL     1       8.912  -7.749  -8.991  1.00  0.00    -0.000 C 
BRANCH  19  20
ATOM     20  C   UNL     1       7.789  -8.478  -8.231  1.00  0.00    -0.000 C 
BRANCH  20  21
ATOM     21  C   UNL     1       7.008  -9.467  -9.116  1.00  0.00    -0.000 C 
BRANCH  21  22
ATOM     22  C   UNL     1       7.561  -9.653 -10.544  1.00  0.00    -0.000 C 
BRANCH  22  23
ATOM     23  C   UNL     1       6.533  -9.426 -11.669  1.00  0.00    -0.000 C 
BRANCH  23  24
ATOM     24  C   UNL     1       5.323  -8.564 -11.240  1.00  0.00    -0.000 C 
BRANCH  24  25
ATOM     25  C   UNL     1       3.995  -9.338 -11.234  1.00  0.00    -0.003 C 
ATOM     26  C   UNL     1       2.779  -8.426 -11.080  1.00  0.00     0.004 C 
ENDBRANCH  24  25
ENDBRANCH  23  24
ENDBRANCH  22  23
ENDBRANCH  21  22
ENDBRANCH  20  21
ENDBRANCH  19  20
ENDBRANCH  18  19
ENDBRANCH  17  18
ENDBRANCH  16  17
ENDBRANCH  15  16
ENDBRANCH   1  15
TORSDOF 22
ENDMDL
MODEL 3
REMARK VINA RESULT:    -4.128      1.545      1.937
REMARK INTER + INTRA:         -10.728
REMARK INTER:                  -8.850
REMARK INTRA:                  -1.878
REMARK UNBOUND:                -1.291
REMARK SMILES CCCCCCCCCCCCCCCCCCCCCCCC(=O)[O-]
REMARK SMILES IDX 13 1 14 2 15 3 16 4 17 5 18 6 19 7 20 8 21 9 22 10 23 11
REMARK SMILES IDX 24 12 25 13 26 14 12 15 11 16 10 17 9 18 8 19 7 20 6 21 5 22
REMARK SMILES IDX 4 23 3 24 2 25 1 26
REMARK H PARENT
REMARK Flexibility Score: inf
ROOT
ATOM      1  C   UNL     1       8.870  -3.815  -4.748  1.00  0.00     0.000 C 
ENDROOT
BRANCH   1   2
ATOM      2  C   UNL     1       7.581  -4.148  -5.528  1.00  0.00     0.000 C 
BRANCH   2   3
ATOM      3  C   UNL     1       7.855  -4.449  -7.010  1.00  0.00     0.000 C 
BRANCH   3   4
ATOM      4  C   UNL     1       9.118  -5.306  -7.177  1.00  0.00     0.000 C 
BRANCH   4   5
ATOM      5  C   UNL     1       8.803  -6.739  -7.647  1.00  0.00     0.000 C 
BRANCH   5   6
ATOM      6  C   UNL     1       9.124  -7.850  -6.623  1.00  0.00     0.000 C 
BRANCH   6   7
ATOM      7  C   UNL     1       8.001  -8.879  -6.395  1.00  0.00     0.000 C 
BRANCH   7   8
ATOM      8  C   UNL     1       8.337 -10.261  -6.973  1.00  0.00     0.000 C 
BRANCH   8   9
ATOM      9  C   UNL     1       7.163 -10.818  -7.790  1.00  0.00     0.000 C 
BRANCH   9  10
ATOM     10  C   UNL     1       7.594 -11.125  -9.230  1.00  0.00     0.006 C 
BRANCH  10  11
ATOM     11  C   UNL     1       6.766 -10.321 -10.236  1.00  0.00     0.053 C 
BRANCH  11  12
ATOM     12  C   UNL     1       7.307  -8.933 -10.368  1.00  0.00     0.041 C 
ATOM     13  O   UNL     1       6.526  -7.944 -10.363  1.00  0.00    -0.550 OA
ATOM     14  O   UNL     1       8.672  -8.732 -10.543  1.00  0.00    -0.550 OA
ENDBRANCH  11  12
ENDBRANCH  10  11
ENDBRANCH   9  10
ENDBRANCH   8   9
ENDBRANCH   7   8
ENDBRANCH   6   7
ENDBRANCH   5   6
ENDBRANCH   4   5
ENDBRANCH   3   4
ENDBRANCH   2   3
ENDBRANCH   1   2
BRANCH   1  15
ATOM     15  C   UNL     1       9.021  -4.588  -3.421  1.00  0.00     0.000 C 
BRANCH  15  16
ATOM     16  C   UNL     1       8.366  -5.981  -3.393  1.00  0.00     0.000 C 
BRANCH  16  17
ATOM     17  C   UNL     1       9.118  -7.033  -2.554  1.00  0.00     0.000 C 
BRANCH  17  18
ATOM     18  C   UNL     1       8.203  -8.133  -1.965  1.00  0.00    -0.000 C 
BRANCH  18  19
ATOM     19  C   UNL     1       8.517  -8.480  -0.498  1.00  0.00    -0.000 C 
BRANCH  19  20
ATOM     20  C   UNL     1       8.470  -9.995  -0.227  1.00  0.00    -0.000 C 
BRANCH  20  21
ATOM     21  C   UNL     1       8.821 -10.356   1.228  1.00  0.00    -0.000 C 
BRANCH  21  22
ATOM     22  C   UNL     1       7.618 -10.700   2.130  1.00  0.00    -0.000 C 
BRANCH  22  23
ATOM     23  C   UNL     1       6.293 -10.028   1.724  1.00  0.00    -0.000 C 
BRANCH  23  24
ATOM     24  C   UNL     1       5.046 -10.668   2.376  1.00  0.00    -0.000 C 
BRANCH  24  25
ATOM     25  C   UNL     1       4.957 -10.424   3.891  1.00  0.00    -0.003 C 
ATOM     26  C   UNL     1       3.554 -10.024   4.345  1.00  0.00     0.004 C 
ENDBRANCH  24  25
ENDBRANCH  23  24
ENDBRANCH  22  23
ENDBRANCH  21  22
ENDBRANCH  20  21
ENDBRANCH  19  20
ENDBRANCH  18  19
ENDBRANCH  17  18
ENDBRANCH  16  17
ENDBRANCH  15  16
ENDBRANCH   1  15
TORSDOF 22
ENDMDL
MODEL 4
REMARK VINA RESULT:    -4.013      2.485      2.884
REMARK INTER + INTRA:         -10.465
REMARK INTER:                  -9.213
REMARK INTRA:                  -1.251
REMARK UNBOUND:                -1.291
REMARK SMILES CCCCCCCCCCCCCCCCCCCCCCCC(=O)[O-]
REMARK SMILES IDX 13 1 14 2 15 3 16 4 17 5 18 6 19 7 20 8 21 9 22 10 23 11
REMARK SMILES IDX 24 12 25 13 26 14 12 15 11 16 10 17 9 18 8 19 7 20 6 21 5 22
REMARK SMILES IDX 4 23 3 24 2 25 1 26
REMARK H PARENT
REMARK Flexibility Score: inf
ROOT
ATOM      1  C   UNL     1       8.915  -3.781  -4.713  1.00  0.00     0.000 C 
ENDROOT
BRANCH   1   2
ATOM      2  C   UNL     1       7.674  -4.029  -5.596  1.00  0.00     0.000 C 
BRANCH   2   3
ATOM      3  C   UNL     1       8.045  -4.332  -7.056  1.00  0.00     0.000 C 
BRANCH   3   4
ATOM      4  C   UNL     1       9.110  -5.435  -7.139  1.00  0.00     0.000 C 
BRANCH   4   5
ATOM      5  C   UNL     1       8.540  -6.768  -7.660  1.00  0.00     0.000 C 
BRANCH   5   6
ATOM      6  C   UNL     1       8.249  -6.808  -9.177  1.00  0.00     0.000 C 
BRANCH   6   7
ATOM      7  C   UNL     1       8.607  -8.130  -9.881  1.00  0.00     0.000 C 
BRANCH   7   8
ATOM      8  C   UNL     1       7.460  -9.149  -9.850  1.00  0.00     0.000 C 
BRANCH   8   9
ATOM      9  C   UNL     1       7.995 -10.586  -9.904  1.00  0.00     0.000 C 
BRANCH   9  10
ATOM     10  C   UNL     1       8.265 -11.125  -8.494  1.00  0.00     0.006 C 
BRANCH  10  11
ATOM     11  C   UNL     1       7.335 -10.471  -7.467  1.00  0.00     0.053 C 
BRANCH  11  12
ATOM     12  C   UNL     1       8.066 -10.223  -6.185  1.00  0.00     0.041 C 
ATOM     13  O   UNL     1       8.828  -9.225  -6.072  1.00  0.00    -0.550 OA
ATOM     14  O   UNL     1       7.943 -11.119  -5.129  1.00  0.00    -0.550 OA
ENDBRANCH  11  12
ENDBRANCH  10  11
ENDBRANCH   9  10
ENDBRANCH   8   9
ENDBRANCH   7   8
ENDBRANCH   6   7
ENDBRANCH   5   6
ENDBRANCH   4   5
ENDBRANCH   3   4
ENDBRANCH   2   3
ENDBRANCH   1   2
BRANCH   1  15
ATOM     15  C   UNL     1       8.919  -4.580  -3.393  1.00  0.00     0.000 C 
BRANCH  15  16
ATOM     16  C   UNL     1       8.421  -6.032  -3.501  1.00  0.00     0.000 C 
BRANCH  16  17
ATOM     17  C   UNL     1       9.124  -7.030  -2.559  1.00  0.00     0.000 C 
BRANCH  17  18
ATOM     18  C   UNL     1       8.229  -8.214  -2.121  1.00  0.00    -0.000 C 
BRANCH  18  19
ATOM     19  C   UNL     1       8.315  -8.531  -0.617  1.00  0.00    -0.000 C 
BRANCH  19  20
ATOM     20  C   UNL     1       8.307 -10.044  -0.332  1.00  0.00    -0.000 C 
BRANCH  20  21
ATOM     21  C   UNL     1       8.750 -10.387   1.102  1.00  0.00    -0.000 C 
BRANCH  21  22
ATOM     22  C   UNL     1       7.633 -10.902   2.032  1.00  0.00    -0.000 C 
BRANCH  22  23
ATOM     23  C   UNL     1       6.374 -10.015   2.081  1.00  0.00    -0.000 C 
BRANCH  23  24
ATOM     24  C   UNL     1       5.128 -10.736   2.644  1.00  0.00    -0.000 C 
BRANCH  24  25
ATOM     25  C   UNL     1       4.769 -10.304   4.075  1.00  0.00    -0.003 C 
ATOM     26  C   UNL     1       3.589  -9.335   4.123  1.00  0.00     0.004 C 
ENDBRANCH  24  25
ENDBRANCH  23  24
ENDBRANCH  22  23
ENDBRANCH  21  22
ENDBRANCH  20  21
ENDBRANCH  19  20
ENDBRANCH  18  19
ENDBRANCH  17  18
ENDBRANCH  16  17
ENDBRANCH  15  16
ENDBRANCH   1  15
TORSDOF 22
ENDMDL
MODEL 5
REMARK VINA RESULT:    -3.897      4.522     10.684
REMARK INTER + INTRA:         -10.199
REMARK INTER:                  -9.003
REMARK INTRA:                  -1.195
REMARK UNBOUND:                -1.291
REMARK SMILES CCCCCCCCCCCCCCCCCCCCCCCC(=O)[O-]
REMARK SMILES IDX 13 1 14 2 15 3 16 4 17 5 18 6 19 7 20 8 21 9 22 10 23 11
REMARK SMILES IDX 24 12 25 13 26 14 12 15 11 16 10 17 9 18 8 19 7 20 6 21 5 22
REMARK SMILES IDX 4 23 3 24 2 25 1 26
REMARK H PARENT
REMARK Flexibility Score: inf
ROOT
ATOM      1  C   UNL     1       8.905  -5.184  -6.671  1.00  0.00     0.000 C 
ENDROOT
BRANCH   1   2
ATOM      2  C   UNL     1       8.259  -5.352  -5.280  1.00  0.00     0.000 C 
BRANCH   2   3
ATOM      3  C   UNL     1       8.784  -6.591  -4.537  1.00  0.00     0.000 C 
BRANCH   3   4
ATOM      4  C   UNL     1       8.353  -6.576  -3.063  1.00  0.00     0.000 C 
BRANCH   4   5
ATOM      5  C   UNL     1       8.773  -7.854  -2.312  1.00  0.00     0.000 C 
BRANCH   5   6
ATOM      6  C   UNL     1       7.606  -8.711  -1.772  1.00  0.00     0.000 C 
BRANCH   6   7
ATOM      7  C   UNL     1       7.538  -8.838  -0.239  1.00  0.00     0.000 C 
BRANCH   7   8
ATOM      8  C   UNL     1       8.684  -9.682   0.337  1.00  0.00     0.000 C 
BRANCH   8   9
ATOM      9  C   UNL     1       8.178 -10.625   1.437  1.00  0.00     0.000 C 
BRANCH   9  10
ATOM     10  C   UNL     1       6.867 -10.108   2.042  1.00  0.00     0.006 C 
BRANCH  10  11
ATOM     11  C   UNL     1       6.642 -10.685   3.444  1.00  0.00     0.053 C 
BRANCH  11  12
ATOM     12  C   UNL     1       5.276 -10.331   3.940  1.00  0.00     0.041 C 
ATOM     13  O   UNL     1       4.313 -11.125   3.766  1.00  0.00    -0.550 OA
ATOM     14  O   UNL     1       5.055  -9.104   4.555  1.00  0.00    -0.550 OA
ENDBRANCH  11  12
ENDBRANCH  10  11
ENDBRANCH   9  10
ENDBRANCH   8   9
ENDBRANCH   7   8
ENDBRANCH   6   7
ENDBRANCH   5   6
ENDBRANCH   4   5
ENDBRANCH   3   4
ENDBRANCH   2   3
ENDBRANCH   1   2
BRANCH   1  15
ATOM     15  C   UNL     1       7.945  -5.455  -7.848  1.00  0.00     0.000 C 
BRANCH  15  16
ATOM     16  C   UNL     1       8.319  -6.653  -8.739  1.00  0.00     0.000 C 
BRANCH  16  17
ATOM     17  C   UNL     1       7.647  -7.985  -8.349  1.00  0.00     0.000 C 
BRANCH  17  18
ATOM     18  C   UNL     1       8.549  -9.225  -8.556  1.00  0.00    -0.000 C 
BRANCH  18  19
ATOM     19  C   UNL     1       8.853  -9.530 -10.033  1.00  0.00    -0.000 C 
BRANCH  19  20
ATOM     20  C   UNL     1       8.428 -10.952 -10.442  1.00  0.00    -0.000 C 
BRANCH  20  21
ATOM     21  C   UNL     1       7.300 -10.964 -11.490  1.00  0.00    -0.000 C 
BRANCH  21  22
ATOM     22  C   UNL     1       6.185  -9.921 -11.271  1.00  0.00    -0.000 C 
BRANCH  22  23
ATOM     23  C   UNL     1       4.779 -10.515 -11.054  1.00  0.00    -0.000 C 
BRANCH  23  24
ATOM     24  C   UNL     1       3.719  -9.467 -10.645  1.00  0.00    -0.000 C 
BRANCH  24  25
ATOM     25  C   UNL     1       2.869  -8.967 -11.824  1.00  0.00    -0.003 C 
ATOM     26  C   UNL     1       1.724  -8.055 -11.384  1.00  0.00     0.004 C 
ENDBRANCH  24  25
ENDBRANCH  23  24
ENDBRANCH  22  23
ENDBRANCH  21  22
ENDBRANCH  20  21
ENDBRANCH  19  20
ENDBRANCH  18  19
ENDBRANCH  17  18
ENDBRANCH  16  17
ENDBRANCH  15  16
ENDBRANCH   1  15
TORSDOF 22
ENDMDL
MODEL 6
REMARK VINA RESULT:    -3.722      4.473      9.851
REMARK INTER + INTRA:          -9.798
REMARK INTER:                  -8.709
REMARK INTRA:                  -1.089
REMARK UNBOUND:                -1.291
REMARK SMILES CCCCCCCCCCCCCCCCCCCCCCCC(=O)[O-]
REMARK SMILES IDX 13 1 14 2 15 3 16 4 17 5 18 6 19 7 20 8 21 9 22 10 23 11
REMARK SMILES IDX 24 12 25 13 26 14 12 15 11 16 10 17 9 18 8 19 7 20 6 21 5 22
REMARK SMILES IDX 4 23 3 24 2 25 1 26
REMARK H PARENT
REMARK Flexibility Score: inf
ROOT
ATOM      1  C   UNL     1       8.513  -5.396  -4.605  1.00  0.00     0.000 C 
ENDROOT
BRANCH   1   2
ATOM      2  C   UNL     1       8.000  -5.595  -3.164  1.00  0.00     0.000 C 
BRANCH   2   3
ATOM      3  C   UNL     1       9.095  -6.114  -2.219  1.00  0.00     0.000 C 
BRANCH   3   4
ATOM      4  C   UNL     1       9.113  -7.650  -2.184  1.00  0.00     0.000 C 
BRANCH   4   5
ATOM      5  C   UNL     1       8.992  -8.209  -0.754  1.00  0.00     0.000 C 
BRANCH   5   6
ATOM      6  C   UNL     1       8.470  -9.660  -0.660  1.00  0.00     0.000 C 
BRANCH   6   7
ATOM      7  C   UNL     1       7.976 -10.093   0.733  1.00  0.00     0.000 C 
BRANCH   7   8
ATOM      8  C   UNL     1       6.512  -9.708   0.989  1.00  0.00     0.000 C 
BRANCH   8   9
ATOM      9  C   UNL     1       5.864 -10.650   2.012  1.00  0.00     0.000 C 
BRANCH   9  10
ATOM     10  C   UNL     1       6.544 -10.526   3.381  1.00  0.00     0.006 C 
BRANCH  10  11
ATOM     11  C   UNL     1       5.750  -9.602   4.310  1.00  0.00     0.053 C 
BRANCH  11  12
ATOM     12  C   UNL     1       4.287  -9.900   4.216  1.00  0.00     0.041 C 
ATOM     13  O   UNL     1       3.889 -11.087   4.079  1.00  0.00    -0.550 OA
ATOM     14  O   UNL     1       3.363  -8.861   4.232  1.00  0.00    -0.550 OA
ENDBRANCH  11  12
ENDBRANCH  10  11
ENDBRANCH   9  10
ENDBRANCH   8   9
ENDBRANCH   7   8
ENDBRANCH   6   7
ENDBRANCH   5   6
ENDBRANCH   4   5
ENDBRANCH   3   4
ENDBRANCH   2   3
ENDBRANCH   1   2
BRANCH   1  15
ATOM     15  C   UNL     1       7.707  -4.365  -5.424  1.00  0.00     0.000 C 
BRANCH  15  16
ATOM     16  C   UNL     1       8.341  -3.948  -6.763  1.00  0.00     0.000 C 
BRANCH  16  17
ATOM     17  C   UNL     1       8.055  -4.902  -7.940  1.00  0.00     0.000 C 
BRANCH  17  18
ATOM     18  C   UNL     1       8.453  -6.372  -7.666  1.00  0.00    -0.000 C 
BRANCH  18  19
ATOM     19  C   UNL     1       8.723  -7.188  -8.943  1.00  0.00    -0.000 C 
BRANCH  19  20
ATOM     20  C   UNL     1       7.457  -7.882  -9.477  1.00  0.00    -0.000 C 
BRANCH  20  21
ATOM     21  C   UNL     1       7.652  -9.392  -9.710  1.00  0.00    -0.000 C 
BRANCH  21  22
ATOM     22  C   UNL     1       6.675 -10.309  -8.947  1.00  0.00    -0.000 C 
BRANCH  22  23
ATOM     23  C   UNL     1       7.220 -10.873  -7.621  1.00  0.00    -0.000 C 
BRANCH  23  24
ATOM     24  C   UNL     1       8.721 -10.584  -7.394  1.00  0.00    -0.000 C 
BRANCH  24  25
ATOM     25  C   UNL     1       8.992  -9.690  -6.174  1.00  0.00    -0.003 C 
ATOM     26  C   UNL     1       8.119 -10.046  -4.972  1.00  0.00     0.004 C 
ENDBRANCH  24  25
ENDBRANCH  23  24
ENDBRANCH  22  23
ENDBRANCH  21  22
ENDBRANCH  20  21
ENDBRANCH  19  20
ENDBRANCH  18  19
ENDBRANCH  17  18
ENDBRANCH  16  17
ENDBRANCH  15  16
ENDBRANCH   1  15
TORSDOF 22
ENDMDL
MODEL 7
REMARK VINA RESULT:    -3.311      6.987     12.845
REMARK INTER + INTRA:          -8.861
REMARK INTER:                  -8.030
REMARK INTRA:                  -0.831
REMARK UNBOUND:                -1.291
REMARK SMILES CCCCCCCCCCCCCCCCCCCCCCCC(=O)[O-]
REMARK SMILES IDX 13 1 14 2 15 3 16 4 17 5 18 6 19 7 20 8 21 9 22 10 23 11
REMARK SMILES IDX 24 12 25 13 26 14 12 15 11 16 10 17 9 18 8 19 7 20 6 21 5 22
REMARK SMILES IDX 4 23 3 24 2 25 1 26
REMARK H PARENT
REMARK Flexibility Score: inf
ROOT
ATOM      1  C   UNL     1       2.446  -8.533 -11.967  1.00  0.00     0.000 C 
ENDROOT
BRANCH   1   2
ATOM      2  C   UNL     1       2.966  -9.615 -10.998  1.00  0.00     0.000 C 
BRANCH   2   3
ATOM      3  C   UNL     1       4.355 -10.139 -11.397  1.00  0.00     0.000 C 
BRANCH   3   4
ATOM      4  C   UNL     1       5.468  -9.266 -10.800  1.00  0.00     0.000 C 
BRANCH   4   5
ATOM      5  C   UNL     1       6.268  -9.996  -9.704  1.00  0.00     0.000 C 
BRANCH   5   6
ATOM      6  C   UNL     1       7.722  -9.508  -9.519  1.00  0.00     0.000 C 
BRANCH   6   7
ATOM      7  C   UNL     1       8.255  -9.561  -8.075  1.00  0.00     0.000 C 
BRANCH   7   8
ATOM      8  C   UNL     1       9.125  -8.347  -7.719  1.00  0.00     0.000 C 
BRANCH   8   9
ATOM      9  C   UNL     1       8.745  -7.126  -8.568  1.00  0.00     0.000 C 
BRANCH   9  10
ATOM     10  C   UNL     1       9.042  -5.822  -7.817  1.00  0.00     0.006 C 
BRANCH  10  11
ATOM     11  C   UNL     1       7.826  -5.364  -7.005  1.00  0.00     0.053 C 
BRANCH  11  12
ATOM     12  C   UNL     1       8.068  -4.007  -6.424  1.00  0.00     0.041 C 
ATOM     13  O   UNL     1       7.534  -2.990  -6.943  1.00  0.00    -0.550 OA
ATOM     14  O   UNL     1       8.921  -3.858  -5.337  1.00  0.00    -0.550 OA
ENDBRANCH  11  12
ENDBRANCH  10  11
ENDBRANCH   9  10
ENDBRANCH   8   9
ENDBRANCH   7   8
ENDBRANCH   6   7
ENDBRANCH   5   6
ENDBRANCH   4   5
ENDBRANCH   3   4
ENDBRANCH   2   3
ENDBRANCH   1   2
BRANCH   1  15
ATOM     15  C   UNL     1       1.009  -8.057 -11.667  1.00  0.00     0.000 C 
BRANCH  15  16
ATOM     16  C   UNL     1      -0.096  -9.097 -11.923  1.00  0.00     0.000 C 
BRANCH  16  17
ATOM     17  C   UNL     1      -1.489  -8.707 -11.391  1.00  0.00     0.000 C 
BRANCH  17  18
ATOM     18  C   UNL     1      -2.534  -9.844 -11.481  1.00  0.00    -0.000 C 
BRANCH  18  19
ATOM     19  C   UNL     1      -3.937  -9.365 -11.894  1.00  0.00    -0.000 C 
BRANCH  19  20
ATOM     20  C   UNL     1      -4.084  -7.834 -11.818  1.00  0.00    -0.000 C 
BRANCH  20  21
ATOM     21  C   UNL     1      -5.332  -7.389 -11.035  1.00  0.00    -0.000 C 
BRANCH  21  22
ATOM     22  C   UNL     1      -5.779  -5.932 -11.278  1.00  0.00    -0.000 C 
BRANCH  22  23
ATOM     23  C   UNL     1      -7.051  -5.512 -10.519  1.00  0.00    -0.000 C 
BRANCH  23  24
ATOM     24  C   UNL     1      -7.611  -4.139 -10.956  1.00  0.00    -0.000 C 
BRANCH  24  25
ATOM     25  C   UNL     1      -9.132  -4.014 -10.774  1.00  0.00    -0.003 C 
ATOM     26  C   UNL     1      -9.524  -2.876  -9.833  1.00  0.00     0.004 C 
ENDBRANCH  24  25
ENDBRANCH  23  24
ENDBRANCH  22  23
ENDBRANCH  21  22
ENDBRANCH  20  21
ENDBRANCH  19  20
ENDBRANCH  18  19
ENDBRANCH  17  18
ENDBRANCH  16  17
ENDBRANCH  15  16
ENDBRANCH   1  15
TORSDOF 22
ENDMDL
