MODEL 1
REMARK VINA RESULT:    -3.132      0.000      0.000
REMARK INTER + INTRA:         -13.154
REMARK INTER:                  -7.891
REMARK INTRA:                  -5.263
REMARK UNBOUND:                -5.263
REMARK SMILES CCCCCCCCCCCCCCCCCCCCCCCCCCCC(=O)[O-]
REMARK SMILES IDX 15 1 16 2 17 3 18 4 19 5 20 6 21 7 22 8 23 9 24 10 25 11
REMARK SMILES IDX 26 12 27 13 28 14 29 15 30 16 14 17 13 18 12 19 11 20 10 21
REMARK SMILES IDX 9 22 8 23 7 24 6 25 5 26 4 27 3 28 2 29 1 30
REMARK H PARENT
REMARK Flexibility Score: inf
ROOT
ATOM      1  C   UNL     1      23.949  39.653   0.929  1.00  0.00     0.000 C 
ENDROOT
BRANCH   1   2
ATOM      2  C   UNL     1      24.386  38.844   2.160  1.00  0.00     0.000 C 
BRANCH   2   3
ATOM      3  C   UNL     1      24.472  39.702   3.439  1.00  0.00     0.000 C 
BRANCH   3   4
ATOM      4  C   UNL     1      24.454  41.219   3.177  1.00  0.00     0.000 C 
BRANCH   4   5
ATOM      5  C   UNL     1      25.828  41.912   3.224  1.00  0.00     0.000 C 
BRANCH   5   6
ATOM      6  C   UNL     1      25.936  43.100   4.205  1.00  0.00     0.000 C 
BRANCH   6   7
ATOM      7  C   UNL     1      24.853  43.139   5.300  1.00  0.00     0.000 C 
BRANCH   7   8
ATOM      8  C   UNL     1      24.918  44.414   6.159  1.00  0.00     0.000 C 
BRANCH   8   9
ATOM      9  C   UNL     1      25.625  45.582   5.444  1.00  0.00     0.000 C 
BRANCH   9  10
ATOM     10  C   UNL     1      26.792  46.217   6.225  1.00  0.00     0.000 C 
BRANCH  10  11
ATOM     11  C   UNL     1      27.331  45.310   7.341  1.00  0.00     0.000 C 
BRANCH  11  12
ATOM     12  C   UNL     1      28.800  44.940   7.091  1.00  0.00     0.006 C 
BRANCH  12  13
ATOM     13  C   UNL     1      28.941  43.606   6.343  1.00  0.00     0.053 C 
BRANCH  13  14
ATOM     14  C   UNL     1      29.873  43.721   5.175  1.00  0.00     0.041 C 
ATOM     15  O   UNL     1      29.439  43.588   4.002  1.00  0.00    -0.550 OA
ATOM     16  O   UNL     1      31.230  43.940   5.385  1.00  0.00    -0.550 OA
ENDBRANCH  13  14
ENDBRANCH  12  13
ENDBRANCH  11  12
ENDBRANCH  10  11
ENDBRANCH   9  10
ENDBRANCH   8   9
ENDBRANCH   7   8
ENDBRANCH   6   7
ENDBRANCH   5   6
ENDBRANCH   4   5
ENDBRANCH   3   4
ENDBRANCH   2   3
ENDBRANCH   1   2
BRANCH   1  17
ATOM     17  C   UNL     1      25.045  39.656  -0.144  1.00  0.00     0.000 C 
BRANCH  17  18
ATOM     18  C   UNL     1      26.189  38.701   0.232  1.00  0.00     0.000 C 
BRANCH  18  19
ATOM     19  C   UNL     1      27.579  39.312  -0.007  1.00  0.00     0.000 C 
BRANCH  19  20
ATOM     20  C   UNL     1      28.611  38.866   1.043  1.00  0.00     0.000 C 
BRANCH  20  21
ATOM     21  C   UNL     1      28.136  39.113   2.486  1.00  0.00     0.000 C 
BRANCH  21  22
ATOM     22  C   UNL     1      28.991  40.112   3.294  1.00  0.00    -0.000 C 
BRANCH  22  23
ATOM     23  C   UNL     1      28.693  40.153   4.806  1.00  0.00    -0.000 C 
BRANCH  23  24
ATOM     24  C   UNL     1      27.880  38.958   5.345  1.00  0.00    -0.000 C 
BRANCH  24  25
ATOM     25  C   UNL     1      26.711  39.334   6.273  1.00  0.00    -0.000 C 
BRANCH  25  26
ATOM     26  C   UNL     1      26.892  40.708   6.937  1.00  0.00    -0.000 C 
BRANCH  26  27
ATOM     27  C   UNL     1      26.074  40.803   8.229  1.00  0.00    -0.000 C 
BRANCH  27  28
ATOM     28  C   UNL     1      26.206  42.197   8.862  1.00  0.00    -0.000 C 
BRANCH  28  29
ATOM     29  C   UNL     1      27.182  42.216  10.050  1.00  0.00    -0.003 C 
ATOM     30  C   UNL     1      27.487  40.817  10.585  1.00  0.00     0.004 C 
ENDBRANCH  28  29
ENDBRANCH  27  28
ENDBRANCH  26  27
ENDBRANCH  25  26
ENDBRANCH  24  25
ENDBRANCH  23  24
ENDBRANCH  22  23
ENDBRANCH  21  22
ENDBRANCH  20  21
ENDBRANCH  19  20
ENDBRANCH  18  19
ENDBRANCH  17  18
ENDBRANCH   1  17
TORSDOF 26
ENDMDL
MODEL 2
REMARK VINA RESULT:    -3.123      3.557      5.452
REMARK INTER + INTRA:         -13.134
REMARK INTER:                  -9.226
REMARK INTRA:                  -3.908
REMARK UNBOUND:                -5.263
REMARK SMILES CCCCCCCCCCCCCCCCCCCCCCCCCCCC(=O)[O-]
REMARK SMILES IDX 15 1 16 2 17 3 18 4 19 5 20 6 21 7 22 8 23 9 24 10 25 11
REMARK SMILES IDX 26 12 27 13 28 14 29 15 30 16 14 17 13 18 12 19 11 20 10 21
REMARK SMILES IDX 9 22 8 23 7 24 6 25 5 26 4 27 3 28 2 29 1 30
REMARK H PARENT
REMARK Flexibility Score: inf
ROOT
ATOM      1  C   UNL     1      24.333  40.977   2.539  1.00  0.00     0.000 C 
ENDROOT
BRANCH   1   2
ATOM      2  C   UNL     1      24.040  41.504   3.951  1.00  0.00     0.000 C 
BRANCH   2   3
ATOM      3  C   UNL     1      24.037  40.388   5.017  1.00  0.00     0.000 C 
BRANCH   3   4
ATOM      4  C   UNL     1      24.316  40.888   6.447  1.00  0.00     0.000 C 
BRANCH   4   5
ATOM      5  C   UNL     1      25.768  40.722   6.931  1.00  0.00     0.000 C 
BRANCH   5   6
ATOM      6  C   UNL     1      25.928  40.180   8.368  1.00  0.00     0.000 C 
BRANCH   6   7
ATOM      7  C   UNL     1      26.617  41.142   9.353  1.00  0.00     0.000 C 
BRANCH   7   8
ATOM      8  C   UNL     1      25.730  42.340   9.736  1.00  0.00     0.000 C 
BRANCH   8   9
ATOM      9  C   UNL     1      26.499  43.676   9.739  1.00  0.00     0.000 C 
BRANCH   9  10
ATOM     10  C   UNL     1      26.371  44.502  11.034  1.00  0.00     0.000 C 
BRANCH  10  11
ATOM     11  C   UNL     1      27.079  43.852  12.232  1.00  0.00     0.000 C 
BRANCH  11  12
ATOM     12  C   UNL     1      26.358  44.182  13.547  1.00  0.00     0.006 C 
BRANCH  12  13
ATOM     13  C   UNL     1      26.947  43.412  14.738  1.00  0.00     0.053 C 
BRANCH  13  14
ATOM     14  C   UNL     1      27.658  44.324  15.691  1.00  0.00     0.041 C 
ATOM     15  O   UNL     1      27.518  44.177  16.933  1.00  0.00    -0.550 OA
ATOM     16  O   UNL     1      28.448  45.360  15.206  1.00  0.00    -0.550 OA
ENDBRANCH  13  14
ENDBRANCH  12  13
ENDBRANCH  11  12
ENDBRANCH  10  11
ENDBRANCH   9  10
ENDBRANCH   8   9
ENDBRANCH   7   8
ENDBRANCH   6   7
ENDBRANCH   5   6
ENDBRANCH   4   5
ENDBRANCH   3   4
ENDBRANCH   2   3
ENDBRANCH   1   2
BRANCH   1  17
ATOM     17  C   UNL     1      24.241  39.446   2.492  1.00  0.00     0.000 C 
BRANCH  17  18
ATOM     18  C   UNL     1      24.474  38.922   1.066  1.00  0.00     0.000 C 
BRANCH  18  19
ATOM     19  C   UNL     1      25.255  39.912   0.187  1.00  0.00     0.000 C 
BRANCH  19  20
ATOM     20  C   UNL     1      26.038  39.216  -0.939  1.00  0.00     0.000 C 
BRANCH  20  21
ATOM     21  C   UNL     1      27.558  39.218  -0.694  1.00  0.00     0.000 C 
BRANCH  21  22
ATOM     22  C   UNL     1      28.027  38.375   0.509  1.00  0.00    -0.000 C 
BRANCH  22  23
ATOM     23  C   UNL     1      28.650  39.179   1.667  1.00  0.00    -0.000 C 
BRANCH  23  24
ATOM     24  C   UNL     1      27.768  39.303   2.926  1.00  0.00    -0.000 C 
BRANCH  24  25
ATOM     25  C   UNL     1      28.209  40.387   3.925  1.00  0.00    -0.000 C 
BRANCH  25  26
ATOM     26  C   UNL     1      27.677  41.783   3.567  1.00  0.00    -0.000 C 
BRANCH  26  27
ATOM     27  C   UNL     1      27.801  42.739   4.759  1.00  0.00    -0.000 C 
BRANCH  27  28
ATOM     28  C   UNL     1      26.778  43.881   4.657  1.00  0.00    -0.000 C 
BRANCH  28  29
ATOM     29  C   UNL     1      26.344  44.409   6.034  1.00  0.00    -0.003 C 
ATOM     30  C   UNL     1      24.825  44.429   6.207  1.00  0.00     0.004 C 
ENDBRANCH  28  29
ENDBRANCH  27  28
ENDBRANCH  26  27
ENDBRANCH  25  26
ENDBRANCH  24  25
ENDBRANCH  23  24
ENDBRANCH  22  23
ENDBRANCH  21  22
ENDBRANCH  20  21
ENDBRANCH  19  20
ENDBRANCH  18  19
ENDBRANCH  17  18
ENDBRANCH   1  17
TORSDOF 26
ENDMDL
MODEL 3
REMARK VINA RESULT:    -3.095      2.797      6.769
REMARK INTER + INTRA:         -13.062
REMARK INTER:                  -8.929
REMARK INTRA:                  -4.133
REMARK UNBOUND:                -5.263
REMARK SMILES CCCCCCCCCCCCCCCCCCCCCCCCCCCC(=O)[O-]
REMARK SMILES IDX 15 1 16 2 17 3 18 4 19 5 20 6 21 7 22 8 23 9 24 10 25 11
REMARK SMILES IDX 26 12 27 13 28 14 29 15 30 16 14 17 13 18 12 19 11 20 10 21
REMARK SMILES IDX 9 22 8 23 7 24 6 25 5 26 4 27 3 28 2 29 1 30
REMARK H PARENT
REMARK Flexibility Score: inf
ROOT
ATOM      1  C   UNL     1      30.061  44.430   5.361  1.00  0.00     0.000 C 
ENDROOT
BRANCH   1   2
ATOM      2  C   UNL     1      29.624  45.685   6.130  1.00  0.00     0.000 C 
BRANCH   2   3
ATOM      3  C   UNL     1      28.271  45.505   6.850  1.00  0.00     0.000 C 
BRANCH   3   4
ATOM      4  C   UNL     1      27.300  46.685   6.658  1.00  0.00     0.000 C 
BRANCH   4   5
ATOM      5  C   UNL     1      26.094  46.402   5.743  1.00  0.00     0.000 C 
BRANCH   5   6
ATOM      6  C   UNL     1      25.720  44.913   5.582  1.00  0.00     0.000 C 
BRANCH   6   7
ATOM      7  C   UNL     1      24.400  44.497   6.256  1.00  0.00     0.000 C 
BRANCH   7   8
ATOM      8  C   UNL     1      24.616  43.750   7.584  1.00  0.00     0.000 C 
BRANCH   8   9
ATOM      9  C   UNL     1      25.707  42.665   7.489  1.00  0.00     0.000 C 
BRANCH   9  10
ATOM     10  C   UNL     1      26.762  42.699   8.612  1.00  0.00     0.000 C 
BRANCH  10  11
ATOM     11  C   UNL     1      26.563  43.867   9.589  1.00  0.00     0.000 C 
BRANCH  11  12
ATOM     12  C   UNL     1      26.333  43.359  11.019  1.00  0.00     0.006 C 
BRANCH  12  13
ATOM     13  C   UNL     1      26.013  44.502  11.993  1.00  0.00     0.053 C 
BRANCH  13  14
ATOM     14  C   UNL     1      26.881  44.451  13.214  1.00  0.00     0.041 C 
ATOM     15  O   UNL     1      28.046  44.926  13.184  1.00  0.00    -0.550 OA
ATOM     16  O   UNL     1      26.415  43.847  14.376  1.00  0.00    -0.550 OA
ENDBRANCH  13  14
ENDBRANCH  12  13
ENDBRANCH  11  12
ENDBRANCH  10  11
ENDBRANCH   9  10
ENDBRANCH   8   9
ENDBRANCH   7   8
ENDBRANCH   6   7
ENDBRANCH   5   6
ENDBRANCH   4   5
ENDBRANCH   3   4
ENDBRANCH   2   3
ENDBRANCH   1   2
BRANCH   1  17
ATOM     17  C   UNL     1      29.064  43.283   5.569  1.00  0.00     0.000 C 
BRANCH  17  18
ATOM     18  C   UNL     1      28.442  42.843   4.234  1.00  0.00     0.000 C 
BRANCH  18  19
ATOM     19  C   UNL     1      27.359  41.766   4.406  1.00  0.00     0.000 C 
BRANCH  19  20
ATOM     20  C   UNL     1      26.285  41.823   3.307  1.00  0.00     0.000 C 
BRANCH  20  21
ATOM     21  C   UNL     1      24.853  41.795   3.873  1.00  0.00     0.000 C 
BRANCH  21  22
ATOM     22  C   UNL     1      24.306  40.390   4.197  1.00  0.00    -0.000 C 
BRANCH  22  23
ATOM     23  C   UNL     1      24.957  39.237   3.406  1.00  0.00    -0.000 C 
BRANCH  23  24
ATOM     24  C   UNL     1      23.970  38.320   2.655  1.00  0.00    -0.000 C 
BRANCH  24  25
ATOM     25  C   UNL     1      23.962  38.489   1.125  1.00  0.00    -0.000 C 
BRANCH  25  26
ATOM     26  C   UNL     1      24.739  39.728   0.656  1.00  0.00    -0.000 C 
BRANCH  26  27
ATOM     27  C   UNL     1      25.305  39.518  -0.753  1.00  0.00    -0.000 C 
BRANCH  27  28
ATOM     28  C   UNL     1      26.840  39.470  -0.728  1.00  0.00    -0.000 C 
BRANCH  28  29
ATOM     29  C   UNL     1      27.405  39.411   0.701  1.00  0.00    -0.003 C 
ATOM     30  C   UNL     1      28.804  38.798   0.757  1.00  0.00     0.004 C 
ENDBRANCH  28  29
ENDBRANCH  27  28
ENDBRANCH  26  27
ENDBRANCH  25  26
ENDBRANCH  24  25
ENDBRANCH  23  24
ENDBRANCH  22  23
ENDBRANCH  21  22
ENDBRANCH  20  21
ENDBRANCH  19  20
ENDBRANCH  18  19
ENDBRANCH  17  18
ENDBRANCH   1  17
TORSDOF 26
ENDMDL
MODEL 4
REMARK VINA RESULT:    -3.052      2.197      6.168
REMARK INTER + INTRA:         -12.954
REMARK INTER:                  -7.958
REMARK INTRA:                  -4.996
REMARK UNBOUND:                -5.263
REMARK SMILES CCCCCCCCCCCCCCCCCCCCCCCCCCCC(=O)[O-]
REMARK SMILES IDX 15 1 16 2 17 3 18 4 19 5 20 6 21 7 22 8 23 9 24 10 25 11
REMARK SMILES IDX 26 12 27 13 28 14 29 15 30 16 14 17 13 18 12 19 11 20 10 21
REMARK SMILES IDX 9 22 8 23 7 24 6 25 5 26 4 27 3 28 2 29 1 30
REMARK H PARENT
REMARK Flexibility Score: inf
ROOT
ATOM      1  C   UNL     1      26.321  42.083   3.727  1.00  0.00     0.000 C 
ENDROOT
BRANCH   1   2
ATOM      2  C   UNL     1      24.958  41.375   3.742  1.00  0.00     0.000 C 
BRANCH   2   3
ATOM      3  C   UNL     1      24.515  40.900   2.343  1.00  0.00     0.000 C 
BRANCH   3   4
ATOM      4  C   UNL     1      24.224  39.390   2.259  1.00  0.00     0.000 C 
BRANCH   4   5
ATOM      5  C   UNL     1      24.348  38.772   0.854  1.00  0.00     0.000 C 
BRANCH   5   6
ATOM      6  C   UNL     1      25.027  39.668  -0.204  1.00  0.00     0.000 C 
BRANCH   6   7
ATOM      7  C   UNL     1      26.112  38.971  -1.046  1.00  0.00     0.000 C 
BRANCH   7   8
ATOM      8  C   UNL     1      27.531  39.473  -0.725  1.00  0.00     0.000 C 
BRANCH   8   9
ATOM      9  C   UNL     1      28.166  38.743   0.474  1.00  0.00     0.000 C 
BRANCH   9  10
ATOM     10  C   UNL     1      28.036  39.471   1.826  1.00  0.00     0.000 C 
BRANCH  10  11
ATOM     11  C   UNL     1      28.385  38.578   3.026  1.00  0.00     0.000 C 
BRANCH  11  12
ATOM     12  C   UNL     1      27.126  38.203   3.821  1.00  0.00     0.006 C 
BRANCH  12  13
ATOM     13  C   UNL     1      27.204  38.671   5.281  1.00  0.00     0.053 C 
BRANCH  13  14
ATOM     14  C   UNL     1      26.040  38.177   6.086  1.00  0.00     0.041 C 
ATOM     15  O   UNL     1      26.106  37.071   6.682  1.00  0.00    -0.550 OA
ATOM     16  O   UNL     1      24.870  38.924   6.148  1.00  0.00    -0.550 OA
ENDBRANCH  13  14
ENDBRANCH  12  13
ENDBRANCH  11  12
ENDBRANCH  10  11
ENDBRANCH   9  10
ENDBRANCH   8   9
ENDBRANCH   7   8
ENDBRANCH   6   7
ENDBRANCH   5   6
ENDBRANCH   4   5
ENDBRANCH   3   4
ENDBRANCH   2   3
ENDBRANCH   1   2
BRANCH   1  17
ATOM     17  C   UNL     1      26.201  43.520   4.250  1.00  0.00     0.000 C 
BRANCH  17  18
ATOM     18  C   UNL     1      25.044  43.647   5.254  1.00  0.00     0.000 C 
BRANCH  18  19
ATOM     19  C   UNL     1      25.290  44.734   6.312  1.00  0.00     0.000 C 
BRANCH  19  20
ATOM     20  C   UNL     1      26.065  45.940   5.756  1.00  0.00     0.000 C 
BRANCH  20  21
ATOM     21  C   UNL     1      27.369  46.216   6.526  1.00  0.00     0.000 C 
BRANCH  21  22
ATOM     22  C   UNL     1      27.423  45.627   7.951  1.00  0.00    -0.000 C 
BRANCH  22  23
ATOM     23  C   UNL     1      28.533  44.584   8.185  1.00  0.00    -0.000 C 
BRANCH  23  24
ATOM     24  C   UNL     1      28.746  43.585   7.029  1.00  0.00    -0.000 C 
BRANCH  24  25
ATOM     25  C   UNL     1      28.593  42.103   7.413  1.00  0.00    -0.000 C 
BRANCH  25  26
ATOM     26  C   UNL     1      27.126  41.648   7.468  1.00  0.00    -0.000 C 
BRANCH  26  27
ATOM     27  C   UNL     1      26.878  40.747   8.683  1.00  0.00    -0.000 C 
BRANCH  27  28
ATOM     28  C   UNL     1      26.743  41.580   9.967  1.00  0.00    -0.000 C 
BRANCH  28  29
ATOM     29  C   UNL     1      25.735  42.731   9.820  1.00  0.00    -0.003 C 
ATOM     30  C   UNL     1      25.928  43.824  10.871  1.00  0.00     0.004 C 
ENDBRANCH  28  29
ENDBRANCH  27  28
ENDBRANCH  26  27
ENDBRANCH  25  26
ENDBRANCH  24  25
ENDBRANCH  23  24
ENDBRANCH  22  23
ENDBRANCH  21  22
ENDBRANCH  20  21
ENDBRANCH  19  20
ENDBRANCH  18  19
ENDBRANCH  17  18
ENDBRANCH   1  17
TORSDOF 26
ENDMDL
MODEL 5
REMARK VINA RESULT:    -3.037      1.753      5.845
REMARK INTER + INTRA:         -12.917
REMARK INTER:                  -8.275
REMARK INTRA:                  -4.643
REMARK UNBOUND:                -5.263
REMARK SMILES CCCCCCCCCCCCCCCCCCCCCCCCCCCC(=O)[O-]
REMARK SMILES IDX 15 1 16 2 17 3 18 4 19 5 20 6 21 7 22 8 23 9 24 10 25 11
REMARK SMILES IDX 26 12 27 13 28 14 29 15 30 16 14 17 13 18 12 19 11 20 10 21
REMARK SMILES IDX 9 22 8 23 7 24 6 25 5 26 4 27 3 28 2 29 1 30
REMARK H PARENT
REMARK Flexibility Score: inf
ROOT
ATOM      1  C   UNL     1      25.478  38.952   7.445  1.00  0.00     0.000 C 
ENDROOT
BRANCH   1   2
ATOM      2  C   UNL     1      26.656  39.122   8.415  1.00  0.00     0.000 C 
BRANCH   2   3
ATOM      3  C   UNL     1      26.353  40.114   9.557  1.00  0.00     0.000 C 
BRANCH   3   4
ATOM      4  C   UNL     1      25.488  41.314   9.129  1.00  0.00     0.000 C 
BRANCH   4   5
ATOM      5  C   UNL     1      26.000  42.692   9.587  1.00  0.00     0.000 C 
BRANCH   5   6
ATOM      6  C   UNL     1      25.625  43.876   8.670  1.00  0.00     0.000 C 
BRANCH   6   7
ATOM      7  C   UNL     1      24.531  43.572   7.630  1.00  0.00     0.000 C 
BRANCH   7   8
ATOM      8  C   UNL     1      24.917  44.018   6.209  1.00  0.00     0.000 C 
BRANCH   8   9
ATOM      9  C   UNL     1      26.322  43.541   5.792  1.00  0.00     0.000 C 
BRANCH   9  10
ATOM     10  C   UNL     1      26.656  43.716   4.298  1.00  0.00     0.000 C 
BRANCH  10  11
ATOM     11  C   UNL     1      27.992  43.071   3.901  1.00  0.00     0.000 C 
BRANCH  11  12
ATOM     12  C   UNL     1      27.802  41.599   3.511  1.00  0.00     0.006 C 
BRANCH  12  13
ATOM     13  C   UNL     1      28.755  40.670   4.277  1.00  0.00     0.053 C 
BRANCH  13  14
ATOM     14  C   UNL     1      30.079  40.540   3.586  1.00  0.00     0.041 C 
ATOM     15  O   UNL     1      30.270  39.618   2.752  1.00  0.00    -0.550 OA
ATOM     16  O   UNL     1      31.112  41.418   3.890  1.00  0.00    -0.550 OA
ENDBRANCH  13  14
ENDBRANCH  12  13
ENDBRANCH  11  12
ENDBRANCH  10  11
ENDBRANCH   9  10
ENDBRANCH   8   9
ENDBRANCH   7   8
ENDBRANCH   6   7
ENDBRANCH   5   6
ENDBRANCH   4   5
ENDBRANCH   3   4
ENDBRANCH   2   3
ENDBRANCH   1   2
BRANCH   1  17
ATOM     17  C   UNL     1      25.797  39.570   6.078  1.00  0.00     0.000 C 
BRANCH  17  18
ATOM     18  C   UNL     1      24.582  39.491   5.140  1.00  0.00     0.000 C 
BRANCH  18  19
ATOM     19  C   UNL     1      23.958  40.867   4.854  1.00  0.00     0.000 C 
BRANCH  19  20
ATOM     20  C   UNL     1      24.110  41.294   3.385  1.00  0.00     0.000 C 
BRANCH  20  21
ATOM     21  C   UNL     1      24.627  40.157   2.485  1.00  0.00     0.000 C 
BRANCH  21  22
ATOM     22  C   UNL     1      23.875  39.986   1.149  1.00  0.00    -0.000 C 
BRANCH  22  23
ATOM     23  C   UNL     1      24.617  39.155   0.084  1.00  0.00    -0.000 C 
BRANCH  23  24
ATOM     24  C   UNL     1      25.453  39.974  -0.920  1.00  0.00    -0.000 C 
BRANCH  24  25
ATOM     25  C   UNL     1      26.930  39.557  -1.029  1.00  0.00    -0.000 C 
BRANCH  25  26
ATOM     26  C   UNL     1      27.561  39.228   0.333  1.00  0.00    -0.000 C 
BRANCH  26  27
ATOM     27  C   UNL     1      28.554  38.066   0.210  1.00  0.00    -0.000 C 
BRANCH  27  28
ATOM     28  C   UNL     1      28.331  37.033   1.325  1.00  0.00    -0.000 C 
BRANCH  28  29
ATOM     29  C   UNL     1      27.048  37.300   2.129  1.00  0.00    -0.003 C 
ATOM     30  C   UNL     1      27.294  37.341   3.637  1.00  0.00     0.004 C 
ENDBRANCH  28  29
ENDBRANCH  27  28
ENDBRANCH  26  27
ENDBRANCH  25  26
ENDBRANCH  24  25
ENDBRANCH  23  24
ENDBRANCH  22  23
ENDBRANCH  21  22
ENDBRANCH  20  21
ENDBRANCH  19  20
ENDBRANCH  18  19
ENDBRANCH  17  18
ENDBRANCH   1  17
TORSDOF 26
ENDMDL
MODEL 6
REMARK VINA RESULT:    -3.010     16.418     19.516
REMARK INTER + INTRA:         -12.849
REMARK INTER:                  -7.654
REMARK INTRA:                  -5.195
REMARK UNBOUND:                -5.263
REMARK SMILES CCCCCCCCCCCCCCCCCCCCCCCCCCCC(=O)[O-]
REMARK SMILES IDX 15 1 16 2 17 3 18 4 19 5 20 6 21 7 22 8 23 9 24 10 25 11
REMARK SMILES IDX 26 12 27 13 28 14 29 15 30 16 14 17 13 18 12 19 11 20 10 21
REMARK SMILES IDX 9 22 8 23 7 24 6 25 5 26 4 27 3 28 2 29 1 30
REMARK H PARENT
REMARK Flexibility Score: inf
ROOT
ATOM      1  C   UNL     1      42.558  33.142   6.275  1.00  0.00     0.000 C 
ENDROOT
BRANCH   1   2
ATOM      2  C   UNL     1      42.988  33.482   7.709  1.00  0.00     0.000 C 
BRANCH   2   3
ATOM      3  C   UNL     1      43.295  32.229   8.555  1.00  0.00     0.000 C 
BRANCH   3   4
ATOM      4  C   UNL     1      42.881  30.906   7.884  1.00  0.00     0.000 C 
BRANCH   4   5
ATOM      5  C   UNL     1      43.988  29.839   7.793  1.00  0.00     0.000 C 
BRANCH   5   6
ATOM      6  C   UNL     1      44.039  29.049   6.468  1.00  0.00     0.000 C 
BRANCH   6   7
ATOM      7  C   UNL     1      42.666  28.644   5.899  1.00  0.00     0.000 C 
BRANCH   7   8
ATOM      8  C   UNL     1      42.257  27.213   6.287  1.00  0.00     0.000 C 
BRANCH   8   9
ATOM      9  C   UNL     1      40.963  27.165   7.122  1.00  0.00     0.000 C 
BRANCH   9  10
ATOM     10  C   UNL     1      41.112  27.619   8.587  1.00  0.00     0.000 C 
BRANCH  10  11
ATOM     11  C   UNL     1      40.152  28.756   8.965  1.00  0.00     0.000 C 
BRANCH  11  12
ATOM     12  C   UNL     1      39.962  28.838  10.486  1.00  0.00     0.006 C 
BRANCH  12  13
ATOM     13  C   UNL     1      41.218  28.396  11.250  1.00  0.00     0.053 C 
BRANCH  13  14
ATOM     14  C   UNL     1      41.931  29.561  11.867  1.00  0.00     0.041 C 
ATOM     15  O   UNL     1      42.946  30.051  11.307  1.00  0.00    -0.550 OA
ATOM     16  O   UNL     1      41.495  30.082  13.079  1.00  0.00    -0.550 OA
ENDBRANCH  13  14
ENDBRANCH  12  13
ENDBRANCH  11  12
ENDBRANCH  10  11
ENDBRANCH   9  10
ENDBRANCH   8   9
ENDBRANCH   7   8
ENDBRANCH   6   7
ENDBRANCH   5   6
ENDBRANCH   4   5
ENDBRANCH   3   4
ENDBRANCH   2   3
ENDBRANCH   1   2
BRANCH   1  17
ATOM     17  C   UNL     1      43.081  34.187   5.281  1.00  0.00     0.000 C 
BRANCH  17  18
ATOM     18  C   UNL     1      43.977  33.535   4.216  1.00  0.00     0.000 C 
BRANCH  18  19
ATOM     19  C   UNL     1      43.913  31.999   4.241  1.00  0.00     0.000 C 
BRANCH  19  20
ATOM     20  C   UNL     1      43.460  31.402   2.897  1.00  0.00     0.000 C 
BRANCH  20  21
ATOM     21  C   UNL     1      43.957  32.215   1.688  1.00  0.00     0.000 C 
BRANCH  21  22
ATOM     22  C   UNL     1      42.876  32.562   0.644  1.00  0.00    -0.000 C 
BRANCH  22  23
ATOM     23  C   UNL     1      42.363  34.015   0.694  1.00  0.00    -0.000 C 
BRANCH  23  24
ATOM     24  C   UNL     1      41.187  34.261   1.662  1.00  0.00    -0.000 C 
BRANCH  24  25
ATOM     25  C   UNL     1      40.293  33.036   1.923  1.00  0.00    -0.000 C 
BRANCH  25  26
ATOM     26  C   UNL     1      39.136  33.335   2.888  1.00  0.00    -0.000 C 
BRANCH  26  27
ATOM     27  C   UNL     1      39.439  32.792   4.290  1.00  0.00    -0.000 C 
BRANCH  27  28
ATOM     28  C   UNL     1      40.030  31.376   4.215  1.00  0.00    -0.000 C 
BRANCH  28  29
ATOM     29  C   UNL     1      39.913  30.617   5.546  1.00  0.00    -0.003 C 
ATOM     30  C   UNL     1      38.568  29.907   5.705  1.00  0.00     0.004 C 
ENDBRANCH  28  29
ENDBRANCH  27  28
ENDBRANCH  26  27
ENDBRANCH  25  26
ENDBRANCH  24  25
ENDBRANCH  23  24
ENDBRANCH  22  23
ENDBRANCH  21  22
ENDBRANCH  20  21
ENDBRANCH  19  20
ENDBRANCH  18  19
ENDBRANCH  17  18
ENDBRANCH   1  17
TORSDOF 26
ENDMDL
MODEL 7
REMARK VINA RESULT:    -3.001     16.255     19.541
REMARK INTER + INTRA:         -12.825
REMARK INTER:                  -8.778
REMARK INTRA:                  -4.047
REMARK UNBOUND:                -5.263
REMARK SMILES CCCCCCCCCCCCCCCCCCCCCCCCCCCC(=O)[O-]
REMARK SMILES IDX 15 1 16 2 17 3 18 4 19 5 20 6 21 7 22 8 23 9 24 10 25 11
REMARK SMILES IDX 26 12 27 13 28 14 29 15 30 16 14 17 13 18 12 19 11 20 10 21
REMARK SMILES IDX 9 22 8 23 7 24 6 25 5 26 4 27 3 28 2 29 1 30
REMARK H PARENT
REMARK Flexibility Score: inf
ROOT
ATOM      1  C   UNL     1      40.898  33.299   6.283  1.00  0.00     0.000 C 
ENDROOT
BRANCH   1   2
ATOM      2  C   UNL     1      42.129  32.791   7.048  1.00  0.00     0.000 C 
BRANCH   2   3
ATOM      3  C   UNL     1      42.217  31.251   7.086  1.00  0.00     0.000 C 
BRANCH   3   4
ATOM      4  C   UNL     1      43.608  30.696   6.726  1.00  0.00     0.000 C 
BRANCH   4   5
ATOM      5  C   UNL     1      43.666  29.179   6.472  1.00  0.00     0.000 C 
BRANCH   5   6
ATOM      6  C   UNL     1      42.415  28.572   5.799  1.00  0.00     0.000 C 
BRANCH   6   7
ATOM      7  C   UNL     1      41.865  27.303   6.474  1.00  0.00     0.000 C 
BRANCH   7   8
ATOM      8  C   UNL     1      40.717  27.598   7.455  1.00  0.00     0.000 C 
BRANCH   8   9
ATOM      9  C   UNL     1      41.143  27.468   8.931  1.00  0.00     0.000 C 
BRANCH   9  10
ATOM     10  C   UNL     1      41.190  28.793   9.717  1.00  0.00     0.000 C 
BRANCH  10  11
ATOM     11  C   UNL     1      42.619  29.243  10.052  1.00  0.00     0.000 C 
BRANCH  11  12
ATOM     12  C   UNL     1      42.614  30.547  10.862  1.00  0.00     0.006 C 
BRANCH  12  13
ATOM     13  C   UNL     1      41.655  30.480  12.059  1.00  0.00     0.053 C 
BRANCH  13  14
ATOM     14  C   UNL     1      42.229  29.676  13.186  1.00  0.00     0.041 C 
ATOM     15  O   UNL     1      43.205  30.117  13.846  1.00  0.00    -0.550 OA
ATOM     16  O   UNL     1      41.707  28.422  13.484  1.00  0.00    -0.550 OA
ENDBRANCH  13  14
ENDBRANCH  12  13
ENDBRANCH  11  12
ENDBRANCH  10  11
ENDBRANCH   9  10
ENDBRANCH   8   9
ENDBRANCH   7   8
ENDBRANCH   6   7
ENDBRANCH   5   6
ENDBRANCH   4   5
ENDBRANCH   3   4
ENDBRANCH   2   3
ENDBRANCH   1   2
BRANCH   1  17
ATOM     17  C   UNL     1      41.277  33.751   4.868  1.00  0.00     0.000 C 
BRANCH  17  18
ATOM     18  C   UNL     1      40.320  33.156   3.823  1.00  0.00     0.000 C 
BRANCH  18  19
ATOM     19  C   UNL     1      41.045  32.315   2.760  1.00  0.00     0.000 C 
BRANCH  19  20
ATOM     20  C   UNL     1      42.048  31.322   3.371  1.00  0.00     0.000 C 
BRANCH  20  21
ATOM     21  C   UNL     1      43.478  31.515   2.835  1.00  0.00     0.000 C 
BRANCH  21  22
ATOM     22  C   UNL     1      43.756  32.891   2.195  1.00  0.00    -0.000 C 
BRANCH  22  23
ATOM     23  C   UNL     1      44.084  32.857   0.689  1.00  0.00    -0.000 C 
BRANCH  23  24
ATOM     24  C   UNL     1      42.971  33.392  -0.235  1.00  0.00    -0.000 C 
BRANCH  24  25
ATOM     25  C   UNL     1      42.329  32.339  -1.156  1.00  0.00    -0.000 C 
BRANCH  25  26
ATOM     26  C   UNL     1      40.817  32.545  -1.337  1.00  0.00    -0.000 C 
BRANCH  26  27
ATOM     27  C   UNL     1      40.497  34.013  -1.639  1.00  0.00    -0.000 C 
BRANCH  27  28
ATOM     28  C   UNL     1      39.326  34.509  -0.777  1.00  0.00    -0.000 C 
BRANCH  28  29
ATOM     29  C   UNL     1      39.783  35.035   0.593  1.00  0.00    -0.003 C 
ATOM     30  C   UNL     1      38.838  36.092   1.165  1.00  0.00     0.004 C 
ENDBRANCH  28  29
ENDBRANCH  27  28
ENDBRANCH  26  27
ENDBRANCH  25  26
ENDBRANCH  24  25
ENDBRANCH  23  24
ENDBRANCH  22  23
ENDBRANCH  21  22
ENDBRANCH  20  21
ENDBRANCH  19  20
ENDBRANCH  18  19
ENDBRANCH  17  18
ENDBRANCH   1  17
TORSDOF 26
ENDMDL
MODEL 8
REMARK VINA RESULT:    -2.962      2.393      6.432
REMARK INTER + INTRA:         -12.727
REMARK INTER:                  -7.966
REMARK INTRA:                  -4.761
REMARK UNBOUND:                -5.263
REMARK SMILES CCCCCCCCCCCCCCCCCCCCCCCCCCCC(=O)[O-]
REMARK SMILES IDX 15 1 16 2 17 3 18 4 19 5 20 6 21 7 22 8 23 9 24 10 25 11
REMARK SMILES IDX 26 12 27 13 28 14 29 15 30 16 14 17 13 18 12 19 11 20 10 21
REMARK SMILES IDX 9 22 8 23 7 24 6 25 5 26 4 27 3 28 2 29 1 30
REMARK H PARENT
REMARK Flexibility Score: inf
ROOT
ATOM      1  C   UNL     1      23.964  40.485   5.260  1.00  0.00     0.000 C 
ENDROOT
BRANCH   1   2
ATOM      2  C   UNL     1      23.985  41.588   4.191  1.00  0.00     0.000 C 
BRANCH   2   3
ATOM      3  C   UNL     1      24.294  41.048   2.780  1.00  0.00     0.000 C 
BRANCH   3   4
ATOM      4  C   UNL     1      24.659  39.552   2.749  1.00  0.00     0.000 C 
BRANCH   4   5
ATOM      5  C   UNL     1      25.330  39.064   1.452  1.00  0.00     0.000 C 
BRANCH   5   6
ATOM      6  C   UNL     1      24.665  39.541   0.143  1.00  0.00     0.000 C 
BRANCH   6   7
ATOM      7  C   UNL     1      25.577  39.513  -1.097  1.00  0.00     0.000 C 
BRANCH   7   8
ATOM      8  C   UNL     1      27.073  39.524  -0.739  1.00  0.00     0.000 C 
BRANCH   8   9
ATOM      9  C   UNL     1      27.973  39.100  -1.916  1.00  0.00     0.000 C 
BRANCH   9  10
ATOM     10  C   UNL     1      28.495  37.651  -1.851  1.00  0.00     0.000 C 
BRANCH  10  11
ATOM     11  C   UNL     1      29.918  37.550  -1.284  1.00  0.00     0.000 C 
BRANCH  11  12
ATOM     12  C   UNL     1      29.975  36.575  -0.100  1.00  0.00     0.006 C 
BRANCH  12  13
ATOM     13  C   UNL     1      28.615  36.435   0.599  1.00  0.00     0.053 C 
BRANCH  13  14
ATOM     14  C   UNL     1      28.610  37.101   1.942  1.00  0.00     0.041 C 
ATOM     15  O   UNL     1      28.907  38.319   2.047  1.00  0.00    -0.550 OA
ATOM     16  O   UNL     1      28.311  36.366   3.083  1.00  0.00    -0.550 OA
ENDBRANCH  13  14
ENDBRANCH  12  13
ENDBRANCH  11  12
ENDBRANCH  10  11
ENDBRANCH   9  10
ENDBRANCH   8   9
ENDBRANCH   7   8
ENDBRANCH   6   7
ENDBRANCH   5   6
ENDBRANCH   4   5
ENDBRANCH   3   4
ENDBRANCH   2   3
ENDBRANCH   1   2
BRANCH   1  17
ATOM     17  C   UNL     1      24.532  40.996   6.590  1.00  0.00     0.000 C 
BRANCH  17  18
ATOM     18  C   UNL     1      25.923  40.400   6.861  1.00  0.00     0.000 C 
BRANCH  18  19
ATOM     19  C   UNL     1      26.184  39.110   6.068  1.00  0.00     0.000 C 
BRANCH  19  20
ATOM     20  C   UNL     1      27.443  39.198   5.189  1.00  0.00     0.000 C 
BRANCH  20  21
ATOM     21  C   UNL     1      27.992  40.632   5.080  1.00  0.00     0.000 C 
BRANCH  21  22
ATOM     22  C   UNL     1      27.907  41.260   3.673  1.00  0.00    -0.000 C 
BRANCH  22  23
ATOM     23  C   UNL     1      27.533  42.755   3.646  1.00  0.00    -0.000 C 
BRANCH  23  24
ATOM     24  C   UNL     1      27.210  43.373   5.022  1.00  0.00    -0.000 C 
BRANCH  24  25
ATOM     25  C   UNL     1      26.116  44.455   5.008  1.00  0.00    -0.000 C 
BRANCH  25  26
ATOM     26  C   UNL     1      25.853  45.058   6.396  1.00  0.00    -0.000 C 
BRANCH  26  27
ATOM     27  C   UNL     1      26.353  44.123   7.503  1.00  0.00    -0.000 C 
BRANCH  27  28
ATOM     28  C   UNL     1      25.258  43.879   8.553  1.00  0.00    -0.000 C 
BRANCH  28  29
ATOM     29  C   UNL     1      25.806  43.887   9.989  1.00  0.00    -0.003 C 
ATOM     30  C   UNL     1      26.709  45.088  10.270  1.00  0.00     0.004 C 
ENDBRANCH  28  29
ENDBRANCH  27  28
ENDBRANCH  26  27
ENDBRANCH  25  26
ENDBRANCH  24  25
ENDBRANCH  23  24
ENDBRANCH  22  23
ENDBRANCH  21  22
ENDBRANCH  20  21
ENDBRANCH  19  20
ENDBRANCH  18  19
ENDBRANCH  17  18
ENDBRANCH   1  17
TORSDOF 26
ENDMDL
MODEL 9
REMARK VINA RESULT:    -2.913     16.549     19.255
REMARK INTER + INTRA:         -12.603
REMARK INTER:                  -7.244
REMARK INTRA:                  -5.359
REMARK UNBOUND:                -5.263
REMARK SMILES CCCCCCCCCCCCCCCCCCCCCCCCCCCC(=O)[O-]
REMARK SMILES IDX 15 1 16 2 17 3 18 4 19 5 20 6 21 7 22 8 23 9 24 10 25 11
REMARK SMILES IDX 26 12 27 13 28 14 29 15 30 16 14 17 13 18 12 19 11 20 10 21
REMARK SMILES IDX 9 22 8 23 7 24 6 25 5 26 4 27 3 28 2 29 1 30
REMARK H PARENT
REMARK Flexibility Score: inf
ROOT
ATOM      1  C   UNL     1      38.774  31.535   8.434  1.00  0.00     0.000 C 
ENDROOT
BRANCH   1   2
ATOM      2  C   UNL     1      39.542  30.755   7.357  1.00  0.00     0.000 C 
BRANCH   2   3
ATOM      3  C   UNL     1      38.623  29.862   6.497  1.00  0.00     0.000 C 
BRANCH   3   4
ATOM      4  C   UNL     1      38.984  28.366   6.545  1.00  0.00     0.000 C 
BRANCH   4   5
ATOM      5  C   UNL     1      39.993  27.966   7.637  1.00  0.00     0.000 C 
BRANCH   5   6
ATOM      6  C   UNL     1      41.036  26.907   7.218  1.00  0.00     0.000 C 
BRANCH   6   7
ATOM      7  C   UNL     1      42.185  27.437   6.340  1.00  0.00     0.000 C 
BRANCH   7   8
ATOM      8  C   UNL     1      42.704  28.810   6.801  1.00  0.00     0.000 C 
BRANCH   8   9
ATOM      9  C   UNL     1      42.687  29.865   5.676  1.00  0.00     0.000 C 
BRANCH   9  10
ATOM     10  C   UNL     1      41.845  29.490   4.441  1.00  0.00     0.000 C 
BRANCH  10  11
ATOM     11  C   UNL     1      41.174  30.704   3.781  1.00  0.00     0.000 C 
BRANCH  11  12
ATOM     12  C   UNL     1      42.032  31.967   3.944  1.00  0.00     0.006 C 
BRANCH  12  13
ATOM     13  C   UNL     1      41.936  32.892   2.722  1.00  0.00     0.053 C 
BRANCH  13  14
ATOM     14  C   UNL     1      42.770  32.393   1.581  1.00  0.00     0.041 C 
ATOM     15  O   UNL     1      42.333  32.455   0.403  1.00  0.00    -0.550 OA
ATOM     16  O   UNL     1      44.016  31.827   1.823  1.00  0.00    -0.550 OA
ENDBRANCH  13  14
ENDBRANCH  12  13
ENDBRANCH  11  12
ENDBRANCH  10  11
ENDBRANCH   9  10
ENDBRANCH   8   9
ENDBRANCH   7   8
ENDBRANCH   6   7
ENDBRANCH   5   6
ENDBRANCH   4   5
ENDBRANCH   3   4
ENDBRANCH   2   3
ENDBRANCH   1   2
BRANCH   1  17
ATOM     17  C   UNL     1      38.599  30.692   9.704  1.00  0.00     0.000 C 
BRANCH  17  18
ATOM     18  C   UNL     1      38.499  31.586  10.950  1.00  0.00     0.000 C 
BRANCH  18  19
ATOM     19  C   UNL     1      39.428  32.808  10.885  1.00  0.00     0.000 C 
BRANCH  19  20
ATOM     20  C   UNL     1      40.862  32.490  11.342  1.00  0.00     0.000 C 
BRANCH  20  21
ATOM     21  C   UNL     1      41.893  32.638  10.209  1.00  0.00     0.000 C 
BRANCH  21  22
ATOM     22  C   UNL     1      42.599  31.332   9.792  1.00  0.00    -0.000 C 
BRANCH  22  23
ATOM     23  C   UNL     1      42.558  30.203  10.842  1.00  0.00    -0.000 C 
BRANCH  23  24
ATOM     24  C   UNL     1      41.744  28.959  10.433  1.00  0.00    -0.000 C 
BRANCH  24  25
ATOM     25  C   UNL     1      41.500  27.942  11.562  1.00  0.00    -0.000 C 
BRANCH  25  26
ATOM     26  C   UNL     1      40.045  27.937  12.057  1.00  0.00    -0.000 C 
BRANCH  26  27
ATOM     27  C   UNL     1      39.970  28.334  13.536  1.00  0.00    -0.000 C 
BRANCH  27  28
ATOM     28  C   UNL     1      40.005  29.862  13.698  1.00  0.00    -0.000 C 
BRANCH  28  29
ATOM     29  C   UNL     1      40.846  30.308  14.905  1.00  0.00    -0.003 C 
ATOM     30  C   UNL     1      42.324  30.492  14.559  1.00  0.00     0.004 C 
ENDBRANCH  28  29
ENDBRANCH  27  28
ENDBRANCH  26  27
ENDBRANCH  25  26
ENDBRANCH  24  25
ENDBRANCH  23  24
ENDBRANCH  22  23
ENDBRANCH  21  22
ENDBRANCH  20  21
ENDBRANCH  19  20
ENDBRANCH  18  19
ENDBRANCH  17  18
ENDBRANCH   1  17
TORSDOF 26
ENDMDL
