MODEL 1
REMARK VINA RESULT:    -0.152      0.000      0.000
REMARK INTER + INTRA:          -2.032
REMARK INTER:                  -0.223
REMARK INTRA:                  -1.809
REMARK UNBOUND:                -1.809
REMARK SMILES O=c1c(O[C@H]2O[C@@H](CO)[C@H](O)[C@H](O)[C@H]2O)c(-c2ccc(O)c(O)c2)oc2cc(O)cc(O)c12
REMARK SMILES IDX 4 1 3 2 16 3 25 4 2 5 26 6 1 7 33 8 27 9 31 10 28 11 30 12
REMARK SMILES IDX 17 13 18 14 19 15 20 16 24 17 22 18 21 19 23 21 32 23 29 25
REMARK SMILES IDX 5 27 14 28 6 29 12 30 7 31 10 32 15 33 13 35 8 37 9 38 11 40
REMARK H PARENT 21 20 23 22 32 24 29 26 15 34 13 36 9 39 11 41
REMARK Flexibility Score: inf
ROOT
ATOM      1  O   UNL     1      24.804  28.151  48.437  1.00  0.00    -0.454 OA
ENDROOT
BRANCH   1   2
ATOM      2  C   UNL     1      26.186  27.955  48.615  1.00  0.00     0.214 A 
ATOM      3  C   UNL     1      26.639  26.658  48.905  1.00  0.00     0.180 A 
ATOM      4  O   UNL     1      27.934  26.409  49.047  1.00  0.00    -0.452 OA
ATOM      5  C   UNL     1      27.141  28.985  48.479  1.00  0.00     0.239 A 
ATOM      6  C   UNL     1      28.865  27.346  48.935  1.00  0.00     0.146 A 
ATOM      7  O   UNL     1      26.774  30.158  48.201  1.00  0.00    -0.285 OA
ATOM      8  C   UNL     1      28.511  28.684  48.638  1.00  0.00     0.111 A 
ATOM      9  C   UNL     1      30.206  26.994  49.107  1.00  0.00     0.094 A 
ATOM     10  C   UNL     1      29.538  29.651  48.490  1.00  0.00     0.134 A 
ATOM     11  C   UNL     1      31.214  27.954  48.968  1.00  0.00     0.123 A 
ATOM     12  C   UNL     1      30.879  29.271  48.652  1.00  0.00     0.093 A 
BRANCH   3  13
ATOM     13  C   UNL     1      25.686  25.548  49.079  1.00  0.00     0.025 A 
ATOM     14  C   UNL     1      25.093  25.319  50.328  1.00  0.00     0.016 A 
ATOM     15  C   UNL     1      24.209  24.250  50.499  1.00  0.00     0.051 A 
ATOM     16  C   UNL     1      23.892  23.415  49.419  1.00  0.00     0.157 A 
ATOM     17  C   UNL     1      25.348  24.729  47.992  1.00  0.00     0.062 A 
ATOM     18  C   UNL     1      24.460  23.661  48.156  1.00  0.00     0.158 A 
BRANCH  16  19
ATOM     19  O   UNL     1      23.032  22.334  49.598  1.00  0.00    -0.504 OA
ATOM     20  H   UNL     1      22.550  21.913  48.818  1.00  0.00     0.293 HD
ENDBRANCH  16  19
BRANCH  18  21
ATOM     21  O   UNL     1      24.164  22.851  47.057  1.00  0.00    -0.504 OA
ATOM     22  H   UNL     1      23.655  23.202  46.255  1.00  0.00     0.293 HD
ENDBRANCH  18  21
ENDBRANCH   3  13
BRANCH  10  23
ATOM     23  O   UNL     1      29.239  30.978  48.184  1.00  0.00    -0.507 OA
ATOM     24  H   UNL     1      29.789  31.509  47.517  1.00  0.00     0.293 HD
ENDBRANCH  10  23
BRANCH  11  25
ATOM     25  O   UNL     1      32.554  27.607  49.130  1.00  0.00    -0.508 OA
ATOM     26  H   UNL     1      33.017  26.967  48.499  1.00  0.00     0.293 HD
ENDBRANCH  11  25
ENDBRANCH   1   2
BRANCH   1  27
ATOM     27  C   UNL     1      24.125  28.329  47.191  1.00  0.00     0.339 C 
ATOM     28  C   UNL     1      23.282  29.625  47.262  1.00  0.00     0.214 C 
ATOM     29  O   UNL     1      23.388  27.148  46.875  1.00  0.00    -0.332 OA
ATOM     30  C   UNL     1      22.108  29.466  48.267  1.00  0.00     0.180 C 
ATOM     31  C   UNL     1      21.978  27.263  46.997  1.00  0.00     0.179 C 
ATOM     32  C   UNL     1      21.574  28.007  48.298  1.00  0.00     0.177 C 
BRANCH  28  33
ATOM     33  O   UNL     1      24.104  30.705  47.622  1.00  0.00    -0.384 OA
ATOM     34  H   UNL     1      23.564  31.292  48.216  1.00  0.00     0.211 HD
ENDBRANCH  28  33
BRANCH  30  35
ATOM     35  O   UNL     1      21.091  30.395  47.975  1.00  0.00    -0.387 OA
ATOM     36  H   UNL     1      20.400  29.924  47.439  1.00  0.00     0.211 HD
ENDBRANCH  30  35
BRANCH  31  37
ATOM     37  C   UNL     1      21.363  25.854  46.917  1.00  0.00     0.191 C 
BRANCH  37  38
ATOM     38  O   UNL     1      21.232  25.264  48.185  1.00  0.00    -0.394 OA
ATOM     39  H   UNL     1      20.329  25.506  48.520  1.00  0.00     0.210 HD
ENDBRANCH  37  38
ENDBRANCH  31  37
BRANCH  32  40
ATOM     40  O   UNL     1      20.185  27.959  48.534  1.00  0.00    -0.387 OA
ATOM     41  H   UNL     1      19.992  27.135  49.054  1.00  0.00     0.211 HD
ENDBRANCH  32  40
ENDBRANCH   1  27
TORSDOF 12
ENDMDL
MODEL 2
REMARK VINA RESULT:    -0.148      2.000      2.790
REMARK INTER + INTRA:          -2.026
REMARK INTER:                  -0.199
REMARK INTRA:                  -1.827
REMARK UNBOUND:                -1.809
REMARK SMILES O=c1c(O[C@H]2O[C@@H](CO)[C@H](O)[C@H](O)[C@H]2O)c(-c2ccc(O)c(O)c2)oc2cc(O)cc(O)c12
REMARK SMILES IDX 4 1 3 2 16 3 25 4 2 5 26 6 1 7 33 8 27 9 31 10 28 11 30 12
REMARK SMILES IDX 17 13 18 14 19 15 20 16 24 17 22 18 21 19 23 21 32 23 29 25
REMARK SMILES IDX 5 27 14 28 6 29 12 30 7 31 10 32 15 33 13 35 8 37 9 38 11 40
REMARK H PARENT 21 20 23 22 32 24 29 26 15 34 13 36 9 39 11 41
REMARK Flexibility Score: inf
ROOT
ATOM      1  O   UNL     1      26.354  26.815  48.394  1.00  0.00    -0.454 OA
ENDROOT
BRANCH   1   2
ATOM      2  C   UNL     1      27.695  27.143  48.667  1.00  0.00     0.214 A 
ATOM      3  C   UNL     1      28.516  26.154  49.233  1.00  0.00     0.180 A 
ATOM      4  O   UNL     1      29.796  26.396  49.479  1.00  0.00    -0.452 OA
ATOM      5  C   UNL     1      28.265  28.399  48.368  1.00  0.00     0.239 A 
ATOM      6  C   UNL     1      30.372  27.562  49.220  1.00  0.00     0.146 A 
ATOM      7  O   UNL     1      27.564  29.306  47.843  1.00  0.00    -0.285 OA
ATOM      8  C   UNL     1      29.631  28.622  48.644  1.00  0.00     0.111 A 
ATOM      9  C   UNL     1      31.727  27.730  49.518  1.00  0.00     0.094 A 
ATOM     10  C   UNL     1      30.291  29.842  48.349  1.00  0.00     0.134 A 
ATOM     11  C   UNL     1      32.370  28.939  49.232  1.00  0.00     0.123 A 
ATOM     12  C   UNL     1      31.656  29.983  48.643  1.00  0.00     0.093 A 
BRANCH   3  13
ATOM     13  C   UNL     1      27.970  24.833  49.586  1.00  0.00     0.025 A 
ATOM     14  C   UNL     1      28.140  23.745  48.716  1.00  0.00     0.016 A 
ATOM     15  C   UNL     1      27.599  22.499  49.039  1.00  0.00     0.051 A 
ATOM     16  C   UNL     1      26.904  22.319  50.242  1.00  0.00     0.157 A 
ATOM     17  C   UNL     1      27.296  24.646  50.801  1.00  0.00     0.062 A 
ATOM     18  C   UNL     1      26.757  23.399  51.132  1.00  0.00     0.158 A 
BRANCH  16  19
ATOM     19  O   UNL     1      26.342  21.082  50.549  1.00  0.00    -0.504 OA
ATOM     20  H   UNL     1      25.425  21.012  50.967  1.00  0.00     0.293 HD
ENDBRANCH  16  19
BRANCH  18  21
ATOM     21  O   UNL     1      26.073  23.255  52.341  1.00  0.00    -0.504 OA
ATOM     22  H   UNL     1      26.220  22.457  52.948  1.00  0.00     0.293 HD
ENDBRANCH  18  21
ENDBRANCH   3  13
BRANCH  10  23
ATOM     23  O   UNL     1      29.606  30.909  47.768  1.00  0.00    -0.507 OA
ATOM     24  H   UNL     1      28.599  30.894  47.648  1.00  0.00     0.293 HD
ENDBRANCH  10  23
BRANCH  11  25
ATOM     25  O   UNL     1      33.723  29.111  49.519  1.00  0.00    -0.508 OA
ATOM     26  H   UNL     1      34.445  28.687  48.951  1.00  0.00     0.293 HD
ENDBRANCH  11  25
ENDBRANCH   1   2
BRANCH   1  27
ATOM     27  C   UNL     1      25.799  26.513  47.111  1.00  0.00     0.339 C 
ATOM     28  C   UNL     1      24.564  27.414  46.875  1.00  0.00     0.214 C 
ATOM     29  O   UNL     1      25.547  25.110  47.019  1.00  0.00    -0.332 OA
ATOM     30  C   UNL     1      23.408  27.034  47.842  1.00  0.00     0.180 C 
ATOM     31  C   UNL     1      24.177  24.737  47.056  1.00  0.00     0.179 C 
ATOM     32  C   UNL     1      23.402  25.511  48.155  1.00  0.00     0.177 C 
BRANCH  28  33
ATOM     33  O   UNL     1      24.924  28.762  47.036  1.00  0.00    -0.384 OA
ATOM     34  H   UNL     1      24.084  29.291  46.996  1.00  0.00     0.211 HD
ENDBRANCH  28  33
BRANCH  30  35
ATOM     35  O   UNL     1      22.176  27.471  47.321  1.00  0.00    -0.387 OA
ATOM     36  H   UNL     1      21.851  26.773  46.693  1.00  0.00     0.211 HD
ENDBRANCH  30  35
BRANCH  31  37
ATOM     37  C   UNL     1      24.091  23.212  47.247  1.00  0.00     0.191 C 
BRANCH  37  38
ATOM     38  O   UNL     1      23.915  22.859  48.595  1.00  0.00    -0.394 OA
ATOM     39  H   UNL     1      24.029  23.691  49.125  1.00  0.00     0.210 HD
ENDBRANCH  37  38
ENDBRANCH  31  37
BRANCH  32  40
ATOM     40  O   UNL     1      22.094  25.017  48.339  1.00  0.00    -0.387 OA
ATOM     41  H   UNL     1      22.041  24.128  47.899  1.00  0.00     0.211 HD
ENDBRANCH  32  40
ENDBRANCH   1  27
TORSDOF 12
ENDMDL
MODEL 3
REMARK VINA RESULT:    -0.134      2.670      6.847
REMARK INTER + INTRA:          -2.006
REMARK INTER:                  -0.292
REMARK INTRA:                  -1.714
REMARK UNBOUND:                -1.809
REMARK SMILES O=c1c(O[C@H]2O[C@@H](CO)[C@H](O)[C@H](O)[C@H]2O)c(-c2ccc(O)c(O)c2)oc2cc(O)cc(O)c12
REMARK SMILES IDX 4 1 3 2 16 3 25 4 2 5 26 6 1 7 33 8 27 9 31 10 28 11 30 12
REMARK SMILES IDX 17 13 18 14 19 15 20 16 24 17 22 18 21 19 23 21 32 23 29 25
REMARK SMILES IDX 5 27 14 28 6 29 12 30 7 31 10 32 15 33 13 35 8 37 9 38 11 40
REMARK H PARENT 21 20 23 22 32 24 29 26 15 34 13 36 9 39 11 41
REMARK Flexibility Score: inf
ROOT
ATOM      1  O   UNL     1      23.573  30.453  47.799  1.00  0.00    -0.454 OA
ENDROOT
BRANCH   1   2
ATOM      2  C   UNL     1      24.029  29.134  47.620  1.00  0.00     0.214 A 
ATOM      3  C   UNL     1      25.408  28.890  47.727  1.00  0.00     0.180 A 
ATOM      4  O   UNL     1      25.888  27.660  47.603  1.00  0.00    -0.452 OA
ATOM      5  C   UNL     1      23.170  28.041  47.377  1.00  0.00     0.239 A 
ATOM      6  C   UNL     1      25.121  26.605  47.368  1.00  0.00     0.146 A 
ATOM      7  O   UNL     1      21.925  28.218  47.292  1.00  0.00    -0.285 OA
ATOM      8  C   UNL     1      23.717  26.746  47.249  1.00  0.00     0.111 A 
ATOM      9  C   UNL     1      25.715  25.347  47.245  1.00  0.00     0.094 A 
ATOM     10  C   UNL     1      22.925  25.589  47.034  1.00  0.00     0.134 A 
ATOM     11  C   UNL     1      24.929  24.211  47.025  1.00  0.00     0.123 A 
ATOM     12  C   UNL     1      23.543  24.333  46.929  1.00  0.00     0.093 A 
BRANCH   3  13
ATOM     13  C   UNL     1      26.353  29.995  47.959  1.00  0.00     0.025 A 
ATOM     14  C   UNL     1      26.838  30.745  46.878  1.00  0.00     0.016 A 
ATOM     15  C   UNL     1      27.755  31.776  47.096  1.00  0.00     0.051 A 
ATOM     16  C   UNL     1      28.178  32.084  48.396  1.00  0.00     0.157 A 
ATOM     17  C   UNL     1      26.756  30.320  49.262  1.00  0.00     0.062 A 
ATOM     18  C   UNL     1      27.670  31.355  49.487  1.00  0.00     0.158 A 
BRANCH  16  19
ATOM     19  O   UNL     1      29.113  33.094  48.608  1.00  0.00    -0.504 OA
ATOM     20  H   UNL     1      29.266  33.819  47.922  1.00  0.00     0.293 HD
ENDBRANCH  16  19
BRANCH  18  21
ATOM     21  O   UNL     1      28.067  31.637  50.796  1.00  0.00    -0.504 OA
ATOM     22  H   UNL     1      29.007  31.944  51.016  1.00  0.00     0.293 HD
ENDBRANCH  18  21
ENDBRANCH   3  13
BRANCH  10  23
ATOM     23  O   UNL     1      21.538  25.676  46.924  1.00  0.00    -0.507 OA
ATOM     24  H   UNL     1      20.935  25.650  47.741  1.00  0.00     0.293 HD
ENDBRANCH  10  23
BRANCH  11  25
ATOM     25  O   UNL     1      25.516  22.951  46.910  1.00  0.00    -0.508 OA
ATOM     26  H   UNL     1      26.502  22.808  47.078  1.00  0.00     0.293 HD
ENDBRANCH  11  25
ENDBRANCH   1   2
BRANCH   1  27
ATOM     27  C   UNL     1      22.838  30.953  48.919  1.00  0.00     0.339 C 
ATOM     28  C   UNL     1      21.681  31.841  48.403  1.00  0.00     0.214 C 
ATOM     29  O   UNL     1      23.732  31.596  49.828  1.00  0.00    -0.332 OA
ATOM     30  C   UNL     1      22.230  33.141  47.752  1.00  0.00     0.180 C 
ATOM     31  C   UNL     1      23.636  33.013  49.870  1.00  0.00     0.179 C 
ATOM     32  C   UNL     1      23.533  33.623  48.447  1.00  0.00     0.177 C 
BRANCH  28  33
ATOM     33  O   UNL     1      20.901  31.116  47.488  1.00  0.00    -0.384 OA
ATOM     34  H   UNL     1      19.956  31.386  47.639  1.00  0.00     0.211 HD
ENDBRANCH  28  33
BRANCH  30  35
ATOM     35  O   UNL     1      21.235  34.136  47.744  1.00  0.00    -0.387 OA
ATOM     36  H   UNL     1      21.170  34.489  46.817  1.00  0.00     0.211 HD
ENDBRANCH  30  35
BRANCH  31  37
ATOM     37  C   UNL     1      24.843  33.562  50.653  1.00  0.00     0.191 C 
BRANCH  37  38
ATOM     38  O   UNL     1      24.570  34.812  51.233  1.00  0.00    -0.394 OA
ATOM     39  H   UNL     1      23.659  34.752  51.623  1.00  0.00     0.210 HD
ENDBRANCH  37  38
ENDBRANCH  31  37
BRANCH  32  40
ATOM     40  O   UNL     1      23.634  35.030  48.458  1.00  0.00    -0.387 OA
ATOM     41  H   UNL     1      24.198  35.300  47.686  1.00  0.00     0.211 HD
ENDBRANCH  32  40
ENDBRANCH   1  27
TORSDOF 12
ENDMDL
MODEL 4
REMARK VINA RESULT:    -0.129      2.821      3.813
REMARK INTER + INTRA:          -1.999
REMARK INTER:                  -0.178
REMARK INTRA:                  -1.821
REMARK UNBOUND:                -1.809
REMARK SMILES O=c1c(O[C@H]2O[C@@H](CO)[C@H](O)[C@H](O)[C@H]2O)c(-c2ccc(O)c(O)c2)oc2cc(O)cc(O)c12
REMARK SMILES IDX 4 1 3 2 16 3 25 4 2 5 26 6 1 7 33 8 27 9 31 10 28 11 30 12
REMARK SMILES IDX 17 13 18 14 19 15 20 16 24 17 22 18 21 19 23 21 32 23 29 25
REMARK SMILES IDX 5 27 14 28 6 29 12 30 7 31 10 32 15 33 13 35 8 37 9 38 11 40
REMARK H PARENT 21 20 23 22 32 24 29 26 15 34 13 36 9 39 11 41
REMARK Flexibility Score: inf
ROOT
ATOM      1  O   UNL     1      26.586  27.372  49.293  1.00  0.00    -0.454 OA
ENDROOT
BRANCH   1   2
ATOM      2  C   UNL     1      27.591  27.960  50.083  1.00  0.00     0.214 A 
ATOM      3  C   UNL     1      28.516  27.113  50.714  1.00  0.00     0.180 A 
ATOM      4  O   UNL     1      29.505  27.614  51.442  1.00  0.00    -0.452 OA
ATOM      5  C   UNL     1      27.738  29.355  50.244  1.00  0.00     0.239 A 
ATOM      6  C   UNL     1      29.679  28.916  51.625  1.00  0.00     0.146 A 
ATOM      7  O   UNL     1      26.938  30.147  49.678  1.00  0.00    -0.285 OA
ATOM      8  C   UNL     1      28.802  29.852  51.026  1.00  0.00     0.111 A 
ATOM      9  C   UNL     1      30.746  29.354  52.414  1.00  0.00     0.094 A 
ATOM     10  C   UNL     1      29.042  31.237  51.216  1.00  0.00     0.134 A 
ATOM     11  C   UNL     1      30.972  30.721  52.603  1.00  0.00     0.123 A 
ATOM     12  C   UNL     1      30.129  31.654  51.999  1.00  0.00     0.093 A 
BRANCH   3  13
ATOM     13  C   UNL     1      28.399  25.649  50.600  1.00  0.00     0.025 A 
ATOM     14  C   UNL     1      29.223  24.944  49.710  1.00  0.00     0.016 A 
ATOM     15  C   UNL     1      29.092  23.559  49.583  1.00  0.00     0.051 A 
ATOM     16  C   UNL     1      28.156  22.862  50.358  1.00  0.00     0.157 A 
ATOM     17  C   UNL     1      27.480  24.949  51.394  1.00  0.00     0.062 A 
ATOM     18  C   UNL     1      27.349  23.562  51.274  1.00  0.00     0.158 A 
BRANCH  16  19
ATOM     19  O   UNL     1      28.009  21.486  50.209  1.00  0.00    -0.504 OA
ATOM     20  H   UNL     1      27.101  21.068  50.067  1.00  0.00     0.293 HD
ENDBRANCH  16  19
BRANCH  18  21
ATOM     21  O   UNL     1      26.408  22.898  52.065  1.00  0.00    -0.504 OA
ATOM     22  H   UNL     1      25.814  22.168  51.692  1.00  0.00     0.293 HD
ENDBRANCH  18  21
ENDBRANCH   3  13
BRANCH  10  23
ATOM     23  O   UNL     1      28.214  32.197  50.634  1.00  0.00    -0.507 OA
ATOM     24  H   UNL     1      28.443  33.185  50.660  1.00  0.00     0.293 HD
ENDBRANCH  10  23
BRANCH  11  25
ATOM     25  O   UNL     1      32.039  31.165  53.382  1.00  0.00    -0.508 OA
ATOM     26  H   UNL     1      32.364  32.121  53.342  1.00  0.00     0.293 HD
ENDBRANCH  11  25
ENDBRANCH   1   2
BRANCH   1  27
ATOM     27  C   UNL     1      26.578  27.272  47.867  1.00  0.00     0.339 C 
ATOM     28  C   UNL     1      25.250  27.858  47.331  1.00  0.00     0.214 C 
ATOM     29  O   UNL     1      26.839  25.923  47.481  1.00  0.00    -0.332 OA
ATOM     30  C   UNL     1      24.046  26.964  47.740  1.00  0.00     0.180 C 
ATOM     31  C   UNL     1      25.724  25.216  46.958  1.00  0.00     0.179 C 
ATOM     32  C   UNL     1      24.443  25.463  47.799  1.00  0.00     0.177 C 
BRANCH  28  33
ATOM     33  O   UNL     1      25.083  29.168  47.811  1.00  0.00    -0.384 OA
ATOM     34  H   UNL     1      24.602  29.675  47.104  1.00  0.00     0.211 HD
ENDBRANCH  28  33
BRANCH  30  35
ATOM     35  O   UNL     1      22.959  27.190  46.875  1.00  0.00    -0.387 OA
ATOM     36  H   UNL     1      22.142  27.274  47.435  1.00  0.00     0.211 HD
ENDBRANCH  30  35
BRANCH  31  37
ATOM     37  C   UNL     1      26.086  23.722  46.875  1.00  0.00     0.191 C 
BRANCH  37  38
ATOM     38  O   UNL     1      25.639  23.007  47.998  1.00  0.00    -0.394 OA
ATOM     39  H   UNL     1      24.914  22.406  47.683  1.00  0.00     0.210 HD
ENDBRANCH  37  38
ENDBRANCH  31  37
BRANCH  32  40
ATOM     40  O   UNL     1      23.378  24.622  47.415  1.00  0.00    -0.387 OA
ATOM     41  H   UNL     1      23.632  23.688  47.639  1.00  0.00     0.211 HD
ENDBRANCH  32  40
ENDBRANCH   1  27
TORSDOF 12
ENDMDL
MODEL 5
REMARK VINA RESULT:    -0.128      3.148      5.601
REMARK INTER + INTRA:          -1.997
REMARK INTER:                  -0.172
REMARK INTRA:                  -1.825
REMARK UNBOUND:                -1.809
REMARK SMILES O=c1c(O[C@H]2O[C@@H](CO)[C@H](O)[C@H](O)[C@H]2O)c(-c2ccc(O)c(O)c2)oc2cc(O)cc(O)c12
REMARK SMILES IDX 4 1 3 2 16 3 25 4 2 5 26 6 1 7 33 8 27 9 31 10 28 11 30 12
REMARK SMILES IDX 17 13 18 14 19 15 20 16 24 17 22 18 21 19 23 21 32 23 29 25
REMARK SMILES IDX 5 27 14 28 6 29 12 30 7 31 10 32 15 33 13 35 8 37 9 38 11 40
REMARK H PARENT 21 20 23 22 32 24 29 26 15 34 13 36 9 39 11 41
REMARK Flexibility Score: inf
ROOT
ATOM      1  O   UNL     1      22.264  27.989  49.491  1.00  0.00    -0.454 OA
ENDROOT
BRANCH   1   2
ATOM      2  C   UNL     1      22.708  29.013  50.348  1.00  0.00     0.214 A 
ATOM      3  C   UNL     1      23.928  28.831  51.020  1.00  0.00     0.180 A 
ATOM      4  O   UNL     1      24.411  29.779  51.812  1.00  0.00    -0.452 OA
ATOM      5  C   UNL     1      22.011  30.226  50.538  1.00  0.00     0.239 A 
ATOM      6  C   UNL     1      23.788  30.930  52.025  1.00  0.00     0.146 A 
ATOM      7  O   UNL     1      20.922  30.432  49.938  1.00  0.00    -0.285 OA
ATOM      8  C   UNL     1      22.555  31.211  51.389  1.00  0.00     0.111 A 
ATOM      9  C   UNL     1      24.370  31.868  52.882  1.00  0.00     0.094 A 
ATOM     10  C   UNL     1      21.937  32.468  51.613  1.00  0.00     0.134 A 
ATOM     11  C   UNL     1      23.751  33.102  53.104  1.00  0.00     0.123 A 
ATOM     12  C   UNL     1      22.547  33.401  52.465  1.00  0.00     0.093 A 
BRANCH   3  13
ATOM     13  C   UNL     1      24.687  27.578  50.877  1.00  0.00     0.025 A 
ATOM     14  C   UNL     1      25.748  27.498  49.964  1.00  0.00     0.016 A 
ATOM     15  C   UNL     1      26.451  26.301  49.810  1.00  0.00     0.051 A 
ATOM     16  C   UNL     1      26.118  25.180  50.582  1.00  0.00     0.157 A 
ATOM     17  C   UNL     1      24.371  26.464  51.668  1.00  0.00     0.062 A 
ATOM     18  C   UNL     1      25.075  25.265  51.522  1.00  0.00     0.158 A 
BRANCH  16  19
ATOM     19  O   UNL     1      26.803  23.980  50.407  1.00  0.00    -0.504 OA
ATOM     20  H   UNL     1      27.031  23.387  51.192  1.00  0.00     0.293 HD
ENDBRANCH  16  19
BRANCH  18  21
ATOM     21  O   UNL     1      24.718  24.168  52.311  1.00  0.00    -0.504 OA
ATOM     22  H   UNL     1      25.127  24.009  53.223  1.00  0.00     0.293 HD
ENDBRANCH  18  21
ENDBRANCH   3  13
BRANCH  10  23
ATOM     23  O   UNL     1      20.729  32.796  50.998  1.00  0.00    -0.507 OA
ATOM     24  H   UNL     1      20.330  33.726  51.067  1.00  0.00     0.293 HD
ENDBRANCH  10  23
BRANCH  11  25
ATOM     25  O   UNL     1      24.330  34.046  53.951  1.00  0.00    -0.508 OA
ATOM     26  H   UNL     1      24.674  33.795  54.868  1.00  0.00     0.293 HD
ENDBRANCH  11  25
ENDBRANCH   1   2
BRANCH   1  27
ATOM     27  C   UNL     1      22.318  27.996  48.062  1.00  0.00     0.339 C 
ATOM     28  C   UNL     1      20.906  27.697  47.506  1.00  0.00     0.214 C 
ATOM     29  O   UNL     1      23.341  27.102  47.620  1.00  0.00    -0.332 OA
ATOM     30  C   UNL     1      20.484  26.235  47.823  1.00  0.00     0.180 C 
ATOM     31  C   UNL     1      22.877  25.902  47.019  1.00  0.00     0.179 C 
ATOM     32  C   UNL     1      21.706  25.274  47.821  1.00  0.00     0.177 C 
BRANCH  28  33
ATOM     33  O   UNL     1      19.983  28.609  48.045  1.00  0.00    -0.384 OA
ATOM     34  H   UNL     1      20.342  29.519  47.869  1.00  0.00     0.211 HD
ENDBRANCH  28  33
BRANCH  30  35
ATOM     35  O   UNL     1      19.481  25.816  46.929  1.00  0.00    -0.387 OA
ATOM     36  H   UNL     1      18.656  26.326  47.143  1.00  0.00     0.211 HD
ENDBRANCH  30  35
BRANCH  31  37
ATOM     37  C   UNL     1      24.067  24.936  46.875  1.00  0.00     0.191 C 
BRANCH  37  38
ATOM     38  O   UNL     1      24.169  24.058  47.967  1.00  0.00    -0.394 OA
ATOM     39  H   UNL     1      23.404  23.428  47.898  1.00  0.00     0.210 HD
ENDBRANCH  37  38
ENDBRANCH  31  37
BRANCH  32  40
ATOM     40  O   UNL     1      21.364  23.989  47.355  1.00  0.00    -0.387 OA
ATOM     41  H   UNL     1      21.902  23.327  47.864  1.00  0.00     0.211 HD
ENDBRANCH  32  40
ENDBRANCH   1  27
TORSDOF 12
ENDMDL
MODEL 6
REMARK VINA RESULT:    -0.127      2.864      8.345
REMARK INTER + INTRA:          -1.996
REMARK INTER:                  -0.175
REMARK INTRA:                  -1.821
REMARK UNBOUND:                -1.809
REMARK SMILES O=c1c(O[C@H]2O[C@@H](CO)[C@H](O)[C@H](O)[C@H]2O)c(-c2ccc(O)c(O)c2)oc2cc(O)cc(O)c12
REMARK SMILES IDX 4 1 3 2 16 3 25 4 2 5 26 6 1 7 33 8 27 9 31 10 28 11 30 12
REMARK SMILES IDX 17 13 18 14 19 15 20 16 24 17 22 18 21 19 23 21 32 23 29 25
REMARK SMILES IDX 5 27 14 28 6 29 12 30 7 31 10 32 15 33 13 35 8 37 9 38 11 40
REMARK H PARENT 21 20 23 22 32 24 29 26 15 34 13 36 9 39 11 41
REMARK Flexibility Score: inf
ROOT
ATOM      1  O   UNL     1      28.110  29.454  49.261  1.00  0.00    -0.454 OA
ENDROOT
BRANCH   1   2
ATOM      2  C   UNL     1      26.817  29.036  48.895  1.00  0.00     0.214 A 
ATOM      3  C   UNL     1      25.747  29.917  49.121  1.00  0.00     0.180 A 
ATOM      4  O   UNL     1      24.513  29.590  48.763  1.00  0.00    -0.452 OA
ATOM      5  C   UNL     1      26.545  27.794  48.281  1.00  0.00     0.239 A 
ATOM      6  C   UNL     1      24.211  28.433  48.190  1.00  0.00     0.146 A 
ATOM      7  O   UNL     1      27.482  26.984  48.047  1.00  0.00    -0.285 OA
ATOM      8  C   UNL     1      25.219  27.478  47.915  1.00  0.00     0.111 A 
ATOM      9  C   UNL     1      22.881  28.170  47.852  1.00  0.00     0.094 A 
ATOM     10  C   UNL     1      24.863  26.268  47.268  1.00  0.00     0.134 A 
ATOM     11  C   UNL     1      22.535  26.971  47.221  1.00  0.00     0.123 A 
ATOM     12  C   UNL     1      23.523  26.031  46.924  1.00  0.00     0.093 A 
BRANCH   3  13
ATOM     13  C   UNL     1      25.968  31.217  49.777  1.00  0.00     0.025 A 
ATOM     14  C   UNL     1      26.021  31.299  51.176  1.00  0.00     0.016 A 
ATOM     15  C   UNL     1      26.204  32.536  51.799  1.00  0.00     0.051 A 
ATOM     16  C   UNL     1      26.359  33.699  51.031  1.00  0.00     0.157 A 
ATOM     17  C   UNL     1      26.150  32.376  49.009  1.00  0.00     0.062 A 
ATOM     18  C   UNL     1      26.339  33.616  49.627  1.00  0.00     0.158 A 
BRANCH  16  19
ATOM     19  O   UNL     1      26.514  34.934  51.655  1.00  0.00    -0.504 OA
ATOM     20  H   UNL     1      26.519  35.793  51.124  1.00  0.00     0.293 HD
ENDBRANCH  16  19
BRANCH  18  21
ATOM     21  O   UNL     1      26.495  34.754  48.831  1.00  0.00    -0.504 OA
ATOM     22  H   UNL     1      26.452  34.711  47.821  1.00  0.00     0.293 HD
ENDBRANCH  18  21
ENDBRANCH   3  13
BRANCH  10  23
ATOM     23  O   UNL     1      25.823  25.303  46.964  1.00  0.00    -0.507 OA
ATOM     24  H   UNL     1      25.781  24.367  47.353  1.00  0.00     0.293 HD
ENDBRANCH  10  23
BRANCH  11  25
ATOM     25  O   UNL     1      21.211  26.705  46.875  1.00  0.00    -0.508 OA
ATOM     26  H   UNL     1      20.744  27.212  46.135  1.00  0.00     0.293 HD
ENDBRANCH  11  25
ENDBRANCH   1   2
BRANCH   1  27
ATOM     27  C   UNL     1      29.159  29.843  48.371  1.00  0.00     0.339 C 
ATOM     28  C   UNL     1      30.452  29.088  48.761  1.00  0.00     0.214 C 
ATOM     29  O   UNL     1      29.273  31.266  48.361  1.00  0.00    -0.332 OA
ATOM     30  C   UNL     1      30.980  29.573  50.140  1.00  0.00     0.180 C 
ATOM     31  C   UNL     1      30.421  31.787  49.015  1.00  0.00     0.179 C 
ATOM     32  C   UNL     1      30.678  31.079  50.372  1.00  0.00     0.177 C 
BRANCH  28  33
ATOM     33  O   UNL     1      30.205  27.706  48.780  1.00  0.00    -0.384 OA
ATOM     34  H   UNL     1      29.762  27.481  47.919  1.00  0.00     0.211 HD
ENDBRANCH  28  33
BRANCH  30  35
ATOM     35  O   UNL     1      32.353  29.284  50.262  1.00  0.00    -0.387 OA
ATOM     36  H   UNL     1      32.828  30.143  50.417  1.00  0.00     0.211 HD
ENDBRANCH  30  35
BRANCH  31  37
ATOM     37  C   UNL     1      30.245  33.307  49.175  1.00  0.00     0.191 C 
BRANCH  37  38
ATOM     38  O   UNL     1      29.791  33.653  50.459  1.00  0.00    -0.394 OA
ATOM     39  H   UNL     1      30.547  34.105  50.916  1.00  0.00     0.210 HD
ENDBRANCH  37  38
ENDBRANCH  31  37
BRANCH  32  40
ATOM     40  O   UNL     1      31.690  31.710  51.123  1.00  0.00    -0.387 OA
ATOM     41  H   UNL     1      32.555  31.557  50.657  1.00  0.00     0.211 HD
ENDBRANCH  32  40
ENDBRANCH   1  27
TORSDOF 12
ENDMDL
MODEL 7
REMARK VINA RESULT:    -0.123      3.670      7.485
REMARK INTER + INTRA:          -1.990
REMARK INTER:                  -0.165
REMARK INTRA:                  -1.825
REMARK UNBOUND:                -1.809
REMARK SMILES O=c1c(O[C@H]2O[C@@H](CO)[C@H](O)[C@H](O)[C@H]2O)c(-c2ccc(O)c(O)c2)oc2cc(O)cc(O)c12
REMARK SMILES IDX 4 1 3 2 16 3 25 4 2 5 26 6 1 7 33 8 27 9 31 10 28 11 30 12
REMARK SMILES IDX 17 13 18 14 19 15 20 16 24 17 22 18 21 19 23 21 32 23 29 25
REMARK SMILES IDX 5 27 14 28 6 29 12 30 7 31 10 32 15 33 13 35 8 37 9 38 11 40
REMARK H PARENT 21 20 23 22 32 24 29 26 15 34 13 36 9 39 11 41
REMARK Flexibility Score: inf
ROOT
ATOM      1  O   UNL     1      22.486  27.966  49.916  1.00  0.00    -0.454 OA
ENDROOT
BRANCH   1   2
ATOM      2  C   UNL     1      22.074  28.819  50.958  1.00  0.00     0.214 A 
ATOM      3  C   UNL     1      23.059  29.359  51.800  1.00  0.00     0.180 A 
ATOM      4  O   UNL     1      22.731  30.196  52.774  1.00  0.00    -0.452 OA
ATOM      5  C   UNL     1      20.729  29.187  51.175  1.00  0.00     0.239 A 
ATOM      6  C   UNL     1      21.481  30.564  53.019  1.00  0.00     0.146 A 
ATOM      7  O   UNL     1      19.819  28.736  50.428  1.00  0.00    -0.285 OA
ATOM      8  C   UNL     1      20.416  30.079  52.223  1.00  0.00     0.111 A 
ATOM      9  C   UNL     1      21.228  31.447  54.073  1.00  0.00     0.094 A 
ATOM     10  C   UNL     1      19.097  30.524  52.492  1.00  0.00     0.134 A 
ATOM     11  C   UNL     1      19.923  31.876  54.338  1.00  0.00     0.123 A 
ATOM     12  C   UNL     1      18.868  31.423  53.546  1.00  0.00     0.093 A 
BRANCH   3  13
ATOM     13  C   UNL     1      24.476  28.993  51.633  1.00  0.00     0.025 A 
ATOM     14  C   UNL     1      25.022  27.934  52.372  1.00  0.00     0.016 A 
ATOM     15  C   UNL     1      26.372  27.605  52.233  1.00  0.00     0.051 A 
ATOM     16  C   UNL     1      27.185  28.314  51.339  1.00  0.00     0.157 A 
ATOM     17  C   UNL     1      25.283  29.686  50.719  1.00  0.00     0.062 A 
ATOM     18  C   UNL     1      26.634  29.357  50.572  1.00  0.00     0.158 A 
BRANCH  16  19
ATOM     19  O   UNL     1      28.537  28.002  51.222  1.00  0.00    -0.504 OA
ATOM     20  H   UNL     1      29.249  28.602  51.612  1.00  0.00     0.293 HD
ENDBRANCH  16  19
BRANCH  18  21
ATOM     21  O   UNL     1      27.415  30.083  49.668  1.00  0.00    -0.504 OA
ATOM     22  H   UNL     1      27.473  31.093  49.702  1.00  0.00     0.293 HD
ENDBRANCH  18  21
ENDBRANCH   3  13
BRANCH  10  23
ATOM     23  O   UNL     1      18.018  30.085  51.726  1.00  0.00    -0.507 OA
ATOM     24  H   UNL     1      17.959  30.273  50.731  1.00  0.00     0.293 HD
ENDBRANCH  10  23
BRANCH  11  25
ATOM     25  O   UNL     1      19.665  32.762  55.383  1.00  0.00    -0.508 OA
ATOM     26  H   UNL     1      20.133  32.682  56.275  1.00  0.00     0.293 HD
ENDBRANCH  11  25
ENDBRANCH   1   2
BRANCH   1  27
ATOM     27  C   UNL     1      22.353  28.213  48.514  1.00  0.00     0.339 C 
ATOM     28  C   UNL     1      21.755  26.956  47.839  1.00  0.00     0.214 C 
ATOM     29  O   UNL     1      23.607  28.642  47.984  1.00  0.00    -0.332 OA
ATOM     30  C   UNL     1      22.762  25.774  47.880  1.00  0.00     0.180 C 
ATOM     31  C   UNL     1      24.274  27.693  47.165  1.00  0.00     0.179 C 
ATOM     32  C   UNL     1      24.232  26.270  47.784  1.00  0.00     0.177 C 
BRANCH  28  33
ATOM     33  O   UNL     1      20.551  26.607  48.473  1.00  0.00    -0.384 OA
ATOM     34  H   UNL     1      20.510  27.125  49.320  1.00  0.00     0.211 HD
ENDBRANCH  28  33
BRANCH  30  35
ATOM     35  O   UNL     1      22.453  24.838  46.875  1.00  0.00    -0.387 OA
ATOM     36  H   UNL     1      21.534  25.038  46.552  1.00  0.00     0.211 HD
ENDBRANCH  30  35
BRANCH  31  37
ATOM     37  C   UNL     1      25.715  28.180  46.925  1.00  0.00     0.191 C 
BRANCH  37  38
ATOM     38  O   UNL     1      26.623  27.609  47.831  1.00  0.00    -0.394 OA
ATOM     39  H   UNL     1      27.523  27.941  47.580  1.00  0.00     0.210 HD
ENDBRANCH  37  38
ENDBRANCH  31  37
BRANCH  32  40
ATOM     40  O   UNL     1      25.051  25.357  47.088  1.00  0.00    -0.387 OA
ATOM     41  H   UNL     1      25.235  24.591  47.693  1.00  0.00     0.211 HD
ENDBRANCH  32  40
ENDBRANCH   1  27
TORSDOF 12
ENDMDL
MODEL 8
REMARK VINA RESULT:    -0.121      2.875      3.257
REMARK INTER + INTRA:          -1.988
REMARK INTER:                  -0.164
REMARK INTRA:                  -1.824
REMARK UNBOUND:                -1.809
REMARK SMILES O=c1c(O[C@H]2O[C@@H](CO)[C@H](O)[C@H](O)[C@H]2O)c(-c2ccc(O)c(O)c2)oc2cc(O)cc(O)c12
REMARK SMILES IDX 4 1 3 2 16 3 25 4 2 5 26 6 1 7 33 8 27 9 31 10 28 11 30 12
REMARK SMILES IDX 17 13 18 14 19 15 20 16 24 17 22 18 21 19 23 21 32 23 29 25
REMARK SMILES IDX 5 27 14 28 6 29 12 30 7 31 10 32 15 33 13 35 8 37 9 38 11 40
REMARK H PARENT 21 20 23 22 32 24 29 26 15 34 13 36 9 39 11 41
REMARK Flexibility Score: inf
ROOT
ATOM      1  O   UNL     1      25.942  28.215  49.951  1.00  0.00    -0.454 OA
ENDROOT
BRANCH   1   2
ATOM      2  C   UNL     1      26.847  28.019  51.011  1.00  0.00     0.214 A 
ATOM      3  C   UNL     1      26.671  26.893  51.831  1.00  0.00     0.180 A 
ATOM      4  O   UNL     1      27.514  26.640  52.823  1.00  0.00    -0.452 OA
ATOM      5  C   UNL     1      27.940  28.875  51.269  1.00  0.00     0.239 A 
ATOM      6  C   UNL     1      28.550  27.418  53.106  1.00  0.00     0.146 A 
ATOM      7  O   UNL     1      28.140  29.886  50.544  1.00  0.00    -0.285 OA
ATOM      8  C   UNL     1      28.816  28.575  52.334  1.00  0.00     0.111 A 
ATOM      9  C   UNL     1      29.383  27.077  54.175  1.00  0.00     0.094 A 
ATOM     10  C   UNL     1      29.954  29.362  52.645  1.00  0.00     0.134 A 
ATOM     11  C   UNL     1      30.500  27.863  54.480  1.00  0.00     0.123 A 
ATOM     12  C   UNL     1      30.785  28.992  53.713  1.00  0.00     0.093 A 
BRANCH   3  13
ATOM     13  C   UNL     1      25.536  25.978  51.622  1.00  0.00     0.025 A 
ATOM     14  C   UNL     1      24.343  26.162  52.335  1.00  0.00     0.016 A 
ATOM     15  C   UNL     1      23.276  25.278  52.156  1.00  0.00     0.051 A 
ATOM     16  C   UNL     1      23.382  24.217  51.246  1.00  0.00     0.157 A 
ATOM     17  C   UNL     1      25.632  24.933  50.693  1.00  0.00     0.062 A 
ATOM     18  C   UNL     1      24.565  24.048  50.505  1.00  0.00     0.158 A 
BRANCH  16  19
ATOM     19  O   UNL     1      22.327  23.321  51.089  1.00  0.00    -0.504 OA
ATOM     20  H   UNL     1      21.503  23.569  50.561  1.00  0.00     0.293 HD
ENDBRANCH  16  19
BRANCH  18  21
ATOM     21  O   UNL     1      24.703  23.004  49.587  1.00  0.00    -0.504 OA
ATOM     22  H   UNL     1      24.454  22.050  49.820  1.00  0.00     0.293 HD
ENDBRANCH  18  21
ENDBRANCH   3  13
BRANCH  10  23
ATOM     23  O   UNL     1      30.265  30.503  51.904  1.00  0.00    -0.507 OA
ATOM     24  H   UNL     1      30.937  31.186  52.234  1.00  0.00     0.293 HD
ENDBRANCH  10  23
BRANCH  11  25
ATOM     25  O   UNL     1      31.339  27.524  55.540  1.00  0.00    -0.508 OA
ATOM     26  H   UNL     1      31.507  28.160  56.308  1.00  0.00     0.293 HD
ENDBRANCH  11  25
ENDBRANCH   1   2
BRANCH   1  27
ATOM     27  C   UNL     1      26.254  28.193  48.555  1.00  0.00     0.339 C 
ATOM     28  C   UNL     1      25.618  29.432  47.881  1.00  0.00     0.214 C 
ATOM     29  O   UNL     1      25.862  26.938  47.999  1.00  0.00    -0.332 OA
ATOM     30  C   UNL     1      24.068  29.329  47.884  1.00  0.00     0.180 C 
ATOM     31  C   UNL     1      24.722  26.980  47.153  1.00  0.00     0.179 C 
ATOM     32  C   UNL     1      23.591  27.855  47.757  1.00  0.00     0.177 C 
BRANCH  28  33
ATOM     33  O   UNL     1      26.042  30.598  48.540  1.00  0.00    -0.384 OA
ATOM     34  H   UNL     1      25.981  31.339  47.880  1.00  0.00     0.211 HD
ENDBRANCH  28  33
BRANCH  30  35
ATOM     35  O   UNL     1      23.526  30.149  46.876  1.00  0.00    -0.387 OA
ATOM     36  H   UNL     1      24.225  30.271  46.180  1.00  0.00     0.211 HD
ENDBRANCH  30  35
BRANCH  31  37
ATOM     37  C   UNL     1      24.259  25.537  46.883  1.00  0.00     0.191 C 
BRANCH  37  38
ATOM     38  O   UNL     1      23.231  25.141  47.755  1.00  0.00    -0.394 OA
ATOM     39  H   UNL     1      23.580  24.371  48.276  1.00  0.00     0.210 HD
ENDBRANCH  37  38
ENDBRANCH  31  37
BRANCH  32  40
ATOM     40  O   UNL     1      22.387  27.752  47.031  1.00  0.00    -0.387 OA
ATOM     41  H   UNL     1      21.641  27.980  47.646  1.00  0.00     0.211 HD
ENDBRANCH  32  40
ENDBRANCH   1  27
TORSDOF 12
ENDMDL
MODEL 9
REMARK VINA RESULT:    -0.121      3.737      8.323
REMARK INTER + INTRA:          -1.987
REMARK INTER:                  -0.166
REMARK INTRA:                  -1.821
REMARK UNBOUND:                -1.809
REMARK SMILES O=c1c(O[C@H]2O[C@@H](CO)[C@H](O)[C@H](O)[C@H]2O)c(-c2ccc(O)c(O)c2)oc2cc(O)cc(O)c12
REMARK SMILES IDX 4 1 3 2 16 3 25 4 2 5 26 6 1 7 33 8 27 9 31 10 28 11 30 12
REMARK SMILES IDX 17 13 18 14 19 15 20 16 24 17 22 18 21 19 23 21 32 23 29 25
REMARK SMILES IDX 5 27 14 28 6 29 12 30 7 31 10 32 15 33 13 35 8 37 9 38 11 40
REMARK H PARENT 21 20 23 22 32 24 29 26 15 34 13 36 9 39 11 41
REMARK Flexibility Score: inf
ROOT
ATOM      1  O   UNL     1      23.040  25.014  50.216  1.00  0.00    -0.454 OA
ENDROOT
BRANCH   1   2
ATOM      2  C   UNL     1      22.233  25.037  51.369  1.00  0.00     0.214 A 
ATOM      3  C   UNL     1      22.189  26.221  52.122  1.00  0.00     0.180 A 
ATOM      4  O   UNL     1      21.418  26.309  53.198  1.00  0.00    -0.452 OA
ATOM      5  C   UNL     1      21.441  23.945  51.785  1.00  0.00     0.239 A 
ATOM      6  C   UNL     1      20.662  25.309  53.629  1.00  0.00     0.146 A 
ATOM      7  O   UNL     1      21.442  22.872  51.124  1.00  0.00    -0.285 OA
ATOM      8  C   UNL     1      20.634  24.075  52.935  1.00  0.00     0.111 A 
ATOM      9  C   UNL     1      19.886  25.490  54.776  1.00  0.00     0.094 A 
ATOM     10  C   UNL     1      19.786  23.040  53.406  1.00  0.00     0.134 A 
ATOM     11  C   UNL     1      19.057  24.462  55.240  1.00  0.00     0.123 A 
ATOM     12  C   UNL     1      19.003  23.250  54.552  1.00  0.00     0.093 A 
BRANCH   3  13
ATOM     13  C   UNL     1      23.010  27.384  51.748  1.00  0.00     0.025 A 
ATOM     14  C   UNL     1      24.280  27.561  52.316  1.00  0.00     0.016 A 
ATOM     15  C   UNL     1      25.048  28.679  51.980  1.00  0.00     0.051 A 
ATOM     16  C   UNL     1      24.567  29.617  51.057  1.00  0.00     0.157 A 
ATOM     17  C   UNL     1      22.540  28.309  50.805  1.00  0.00     0.062 A 
ATOM     18  C   UNL     1      23.307  29.427  50.461  1.00  0.00     0.158 A 
BRANCH  16  19
ATOM     19  O   UNL     1      25.323  30.744  50.745  1.00  0.00    -0.504 OA
ATOM     20  H   UNL     1      25.041  31.665  51.049  1.00  0.00     0.293 HD
ENDBRANCH  16  19
BRANCH  18  21
ATOM     21  O   UNL     1      22.798  30.340  49.534  1.00  0.00    -0.504 OA
ATOM     22  H   UNL     1      23.340  30.655  48.739  1.00  0.00     0.293 HD
ENDBRANCH  18  21
ENDBRANCH   3  13
BRANCH  10  23
ATOM     23  O   UNL     1      19.713  21.813  52.747  1.00  0.00    -0.507 OA
ATOM     24  H   UNL     1      19.588  21.753  51.742  1.00  0.00     0.293 HD
ENDBRANCH  10  23
BRANCH  11  25
ATOM     25  O   UNL     1      18.275  24.639  56.380  1.00  0.00    -0.508 OA
ATOM     26  H   UNL     1      17.603  23.944  56.675  1.00  0.00     0.293 HD
ENDBRANCH  11  25
ENDBRANCH   1   2
BRANCH   1  27
ATOM     27  C   UNL     1      22.589  24.862  48.868  1.00  0.00     0.339 C 
ATOM     28  C   UNL     1      23.459  23.791  48.167  1.00  0.00     0.214 C 
ATOM     29  O   UNL     1      22.570  26.136  48.224  1.00  0.00    -0.332 OA
ATOM     30  C   UNL     1      24.916  24.296  47.981  1.00  0.00     0.180 C 
ATOM     31  C   UNL     1      23.583  26.338  47.250  1.00  0.00     0.179 C 
ATOM     32  C   UNL     1      24.964  25.831  47.745  1.00  0.00     0.177 C 
BRANCH  28  33
ATOM     33  O   UNL     1      23.435  22.601  48.913  1.00  0.00    -0.384 OA
ATOM     34  H   UNL     1      23.184  21.872  48.286  1.00  0.00     0.211 HD
ENDBRANCH  28  33
BRANCH  30  35
ATOM     35  O   UNL     1      25.548  23.582  46.946  1.00  0.00    -0.387 OA
ATOM     36  H   UNL     1      26.174  24.205  46.490  1.00  0.00     0.211 HD
ENDBRANCH  30  35
BRANCH  31  37
ATOM     37  C   UNL     1      23.611  27.831  46.875  1.00  0.00     0.191 C 
BRANCH  37  38
ATOM     38  O   UNL     1      24.582  28.539  47.603  1.00  0.00    -0.394 OA
ATOM     39  H   UNL     1      24.453  28.300  48.557  1.00  0.00     0.210 HD
ENDBRANCH  37  38
ENDBRANCH  31  37
BRANCH  32  40
ATOM     40  O   UNL     1      26.013  26.198  46.878  1.00  0.00    -0.387 OA
ATOM     41  H   UNL     1      25.727  27.008  46.379  1.00  0.00     0.211 HD
ENDBRANCH  32  40
ENDBRANCH   1  27
TORSDOF 12
ENDMDL
