MODEL 1
REMARK VINA RESULT:    -5.002      0.000      0.000
REMARK INTER + INTRA:         -11.190
REMARK INTER:                  -9.681
REMARK INTRA:                  -1.509
REMARK UNBOUND:                -1.509
REMARK SMILES CCCCCCCCCCCCCCCCCC(=O)[O-]
REMARK SMILES IDX 10 1 11 2 12 3 13 4 14 5 15 6 16 7 17 8 18 9 19 10 20 11
REMARK SMILES IDX 9 12 8 13 7 14 6 15 5 16 4 17 3 18 2 19 1 20
REMARK H PARENT
REMARK Flexibility Score: inf
ROOT
ATOM      1  C   UNL     1      14.255  53.222  34.960  1.00  0.00     0.000 C 
ENDROOT
BRANCH   1   2
ATOM      2  C   UNL     1      12.876  53.194  35.641  1.00  0.00     0.000 C 
BRANCH   2   3
ATOM      3  C   UNL     1      12.376  54.599  36.016  1.00  0.00     0.000 C 
BRANCH   3   4
ATOM      4  C   UNL     1      11.201  55.065  35.137  1.00  0.00     0.000 C 
BRANCH   4   5
ATOM      5  C   UNL     1      10.891  56.562  35.308  1.00  0.00     0.000 C 
BRANCH   5   6
ATOM      6  C   UNL     1      10.330  56.893  36.701  1.00  0.00     0.000 C 
BRANCH   6   7
ATOM      7  C   UNL     1      10.220  58.408  36.959  1.00  0.00     0.006 C 
BRANCH   7   8
ATOM      8  C   UNL     1      10.634  59.279  35.760  1.00  0.00     0.053 C 
BRANCH   8   9
ATOM      9  C   UNL     1      10.937  60.694  36.149  1.00  0.00     0.041 C 
ATOM     10  O   UNL     1      11.473  61.478  35.323  1.00  0.00    -0.550 OA
ATOM     11  O   UNL     1      10.645  61.139  37.432  1.00  0.00    -0.550 OA
ENDBRANCH   8   9
ENDBRANCH   7   8
ENDBRANCH   6   7
ENDBRANCH   5   6
ENDBRANCH   4   5
ENDBRANCH   3   4
ENDBRANCH   2   3
ENDBRANCH   1   2
BRANCH   1  12
ATOM     12  C   UNL     1      14.903  54.618  34.981  1.00  0.00     0.000 C 
BRANCH  12  13
ATOM     13  C   UNL     1      15.142  55.254  33.596  1.00  0.00    -0.000 C 
BRANCH  13  14
ATOM     14  C   UNL     1      14.141  56.354  33.199  1.00  0.00    -0.000 C 
BRANCH  14  15
ATOM     15  C   UNL     1      14.828  57.637  32.708  1.00  0.00    -0.000 C 
BRANCH  15  16
ATOM     16  C   UNL     1      16.278  57.356  32.285  1.00  0.00    -0.000 C 
BRANCH  16  17
ATOM     17  C   UNL     1      17.250  58.466  32.716  1.00  0.00    -0.000 C 
BRANCH  17  18
ATOM     18  C   UNL     1      16.523  59.751  33.149  1.00  0.00    -0.000 C 
BRANCH  18  19
ATOM     19  C   UNL     1      16.975  60.981  32.347  1.00  0.00    -0.003 C 
ATOM     20  C   UNL     1      16.173  61.178  31.059  1.00  0.00     0.004 C 
ENDBRANCH  18  19
ENDBRANCH  17  18
ENDBRANCH  16  17
ENDBRANCH  15  16
ENDBRANCH  14  15
ENDBRANCH  13  14
ENDBRANCH  12  13
ENDBRANCH   1  12
TORSDOF 16
ENDMDL
MODEL 2
REMARK VINA RESULT:    -4.965      2.514      5.950
REMARK INTER + INTRA:         -11.117
REMARK INTER:                  -8.755
REMARK INTRA:                  -2.362
REMARK UNBOUND:                -1.509
REMARK SMILES CCCCCCCCCCCCCCCCCC(=O)[O-]
REMARK SMILES IDX 10 1 11 2 12 3 13 4 14 5 15 6 16 7 17 8 18 9 19 10 20 11
REMARK SMILES IDX 9 12 8 13 7 14 6 15 5 16 4 17 3 18 2 19 1 20
REMARK H PARENT
REMARK Flexibility Score: inf
ROOT
ATOM      1  C   UNL     1      11.382  55.370  35.238  1.00  0.00     0.000 C 
ENDROOT
BRANCH   1   2
ATOM      2  C   UNL     1      11.760  56.300  34.073  1.00  0.00     0.000 C 
BRANCH   2   3
ATOM      3  C   UNL     1      12.039  55.530  32.772  1.00  0.00     0.000 C 
BRANCH   3   4
ATOM      4  C   UNL     1      13.364  55.946  32.108  1.00  0.00     0.000 C 
BRANCH   4   5
ATOM      5  C   UNL     1      14.011  57.164  32.789  1.00  0.00     0.000 C 
BRANCH   5   6
ATOM      6  C   UNL     1      15.510  56.959  33.064  1.00  0.00     0.000 C 
BRANCH   6   7
ATOM      7  C   UNL     1      16.387  58.079  32.474  1.00  0.00     0.006 C 
BRANCH   7   8
ATOM      8  C   UNL     1      15.590  59.275  31.923  1.00  0.00     0.053 C 
BRANCH   8   9
ATOM      9  C   UNL     1      15.890  60.552  32.645  1.00  0.00     0.041 C 
ATOM     10  O   UNL     1      14.995  61.126  33.319  1.00  0.00    -0.550 OA
ATOM     11  O   UNL     1      17.155  61.121  32.556  1.00  0.00    -0.550 OA
ENDBRANCH   8   9
ENDBRANCH   7   8
ENDBRANCH   6   7
ENDBRANCH   5   6
ENDBRANCH   4   5
ENDBRANCH   3   4
ENDBRANCH   2   3
ENDBRANCH   1   2
BRANCH   1  12
ATOM     12  C   UNL     1      11.667  53.888  34.935  1.00  0.00     0.000 C 
BRANCH  12  13
ATOM     13  C   UNL     1      12.559  53.164  35.966  1.00  0.00    -0.000 C 
BRANCH  13  14
ATOM     14  C   UNL     1      13.933  52.714  35.440  1.00  0.00    -0.000 C 
BRANCH  14  15
ATOM     15  C   UNL     1      14.742  53.865  34.823  1.00  0.00    -0.000 C 
BRANCH  15  16
ATOM     16  C   UNL     1      15.646  53.354  33.690  1.00  0.00    -0.000 C 
BRANCH  16  17
ATOM     17  C   UNL     1      15.784  51.823  33.685  1.00  0.00    -0.000 C 
BRANCH  17  18
ATOM     18  C   UNL     1      15.017  51.164  32.525  1.00  0.00    -0.000 C 
BRANCH  18  19
ATOM     19  C   UNL     1      14.515  52.189  31.496  1.00  0.00    -0.003 C 
ATOM     20  C   UNL     1      12.993  52.179  31.342  1.00  0.00     0.004 C 
ENDBRANCH  18  19
ENDBRANCH  17  18
ENDBRANCH  16  17
ENDBRANCH  15  16
ENDBRANCH  14  15
ENDBRANCH  13  14
ENDBRANCH  12  13
ENDBRANCH   1  12
TORSDOF 16
ENDMDL
MODEL 3
REMARK VINA RESULT:    -4.839      4.834      6.424
REMARK INTER + INTRA:         -10.874
REMARK INTER:                  -8.859
REMARK INTRA:                  -2.015
REMARK UNBOUND:                -1.509
REMARK SMILES CCCCCCCCCCCCCCCCCC(=O)[O-]
REMARK SMILES IDX 10 1 11 2 12 3 13 4 14 5 15 6 16 7 17 8 18 9 19 10 20 11
REMARK SMILES IDX 9 12 8 13 7 14 6 15 5 16 4 17 3 18 2 19 1 20
REMARK H PARENT
REMARK Flexibility Score: inf
ROOT
ATOM      1  C   UNL     1      11.869  53.983  33.394  1.00  0.00     0.000 C 
ENDROOT
BRANCH   1   2
ATOM      2  C   UNL     1      11.442  54.146  34.863  1.00  0.00     0.000 C 
BRANCH   2   3
ATOM      3  C   UNL     1      12.628  54.041  35.836  1.00  0.00     0.000 C 
BRANCH   3   4
ATOM      4  C   UNL     1      13.723  53.081  35.336  1.00  0.00     0.000 C 
BRANCH   4   5
ATOM      5  C   UNL     1      15.007  53.814  34.914  1.00  0.00     0.000 C 
BRANCH   5   6
ATOM      6  C   UNL     1      15.763  53.083  33.791  1.00  0.00     0.000 C 
BRANCH   6   7
ATOM      7  C   UNL     1      15.250  51.650  33.557  1.00  0.00     0.006 C 
BRANCH   7   8
ATOM      8  C   UNL     1      14.599  51.435  32.179  1.00  0.00     0.053 C 
BRANCH   8   9
ATOM      9  C   UNL     1      14.935  50.103  31.581  1.00  0.00     0.041 C 
ATOM     10  O   UNL     1      14.338  49.065  31.968  1.00  0.00    -0.550 OA
ATOM     11  O   UNL     1      15.923  50.008  30.609  1.00  0.00    -0.550 OA
ENDBRANCH   8   9
ENDBRANCH   7   8
ENDBRANCH   6   7
ENDBRANCH   5   6
ENDBRANCH   4   5
ENDBRANCH   3   4
ENDBRANCH   2   3
ENDBRANCH   1   2
BRANCH   1  12
ATOM     12  C   UNL     1      11.894  55.318  32.629  1.00  0.00     0.000 C 
BRANCH  12  13
ATOM     13  C   UNL     1      13.023  56.289  33.033  1.00  0.00    -0.000 C 
BRANCH  13  14
ATOM     14  C   UNL     1      14.274  56.249  32.137  1.00  0.00    -0.000 C 
BRANCH  14  15
ATOM     15  C   UNL     1      15.515  56.847  32.817  1.00  0.00    -0.000 C 
BRANCH  15  16
ATOM     16  C   UNL     1      16.574  57.240  31.776  1.00  0.00    -0.000 C 
BRANCH  16  17
ATOM     17  C   UNL     1      17.382  58.481  32.190  1.00  0.00    -0.000 C 
BRANCH  17  18
ATOM     18  C   UNL     1      16.758  59.219  33.387  1.00  0.00    -0.000 C 
BRANCH  18  19
ATOM     19  C   UNL     1      16.096  60.545  32.980  1.00  0.00    -0.003 C 
ATOM     20  C   UNL     1      14.581  60.424  32.810  1.00  0.00     0.004 C 
ENDBRANCH  18  19
ENDBRANCH  17  18
ENDBRANCH  16  17
ENDBRANCH  15  16
ENDBRANCH  14  15
ENDBRANCH  13  14
ENDBRANCH  12  13
ENDBRANCH   1  12
TORSDOF 16
ENDMDL
MODEL 4
REMARK VINA RESULT:    -4.836      2.666      6.192
REMARK INTER + INTRA:         -10.868
REMARK INTER:                  -8.201
REMARK INTRA:                  -2.667
REMARK UNBOUND:                -1.509
REMARK SMILES CCCCCCCCCCCCCCCCCC(=O)[O-]
REMARK SMILES IDX 10 1 11 2 12 3 13 4 14 5 15 6 16 7 17 8 18 9 19 10 20 11
REMARK SMILES IDX 9 12 8 13 7 14 6 15 5 16 4 17 3 18 2 19 1 20
REMARK H PARENT
REMARK Flexibility Score: inf
ROOT
ATOM      1  C   UNL     1      14.067  55.693  31.286  1.00  0.00     0.000 C 
ENDROOT
BRANCH   1   2
ATOM      2  C   UNL     1      13.945  56.601  32.521  1.00  0.00     0.000 C 
BRANCH   2   3
ATOM      3  C   UNL     1      15.307  57.130  33.000  1.00  0.00     0.000 C 
BRANCH   3   4
ATOM      4  C   UNL     1      16.357  57.168  31.875  1.00  0.00     0.000 C 
BRANCH   4   5
ATOM      5  C   UNL     1      17.419  58.260  32.092  1.00  0.00     0.000 C 
BRANCH   5   6
ATOM      6  C   UNL     1      17.037  59.238  33.216  1.00  0.00     0.000 C 
BRANCH   6   7
ATOM      7  C   UNL     1      16.556  60.602  32.686  1.00  0.00     0.006 C 
BRANCH   7   8
ATOM      8  C   UNL     1      15.108  60.950  33.074  1.00  0.00     0.053 C 
BRANCH   8   9
ATOM      9  C   UNL     1      14.116  60.561  32.022  1.00  0.00     0.041 C 
ATOM     10  O   UNL     1      12.883  60.702  32.227  1.00  0.00    -0.550 OA
ATOM     11  O   UNL     1      14.556  60.022  30.818  1.00  0.00    -0.550 OA
ENDBRANCH   8   9
ENDBRANCH   7   8
ENDBRANCH   6   7
ENDBRANCH   5   6
ENDBRANCH   4   5
ENDBRANCH   3   4
ENDBRANCH   2   3
ENDBRANCH   1   2
BRANCH   1  12
ATOM     12  C   UNL     1      12.894  54.706  31.151  1.00  0.00     0.000 C 
BRANCH  12  13
ATOM     13  C   UNL     1      13.121  53.321  31.793  1.00  0.00    -0.000 C 
BRANCH  13  14
ATOM     14  C   UNL     1      14.561  52.784  31.698  1.00  0.00    -0.000 C 
BRANCH  14  15
ATOM     15  C   UNL     1      15.122  52.341  33.057  1.00  0.00    -0.000 C 
BRANCH  15  16
ATOM     16  C   UNL     1      15.675  53.541  33.840  1.00  0.00    -0.000 C 
BRANCH  16  17
ATOM     17  C   UNL     1      14.773  53.950  35.016  1.00  0.00    -0.000 C 
BRANCH  17  18
ATOM     18  C   UNL     1      13.760  52.854  35.392  1.00  0.00    -0.000 C 
BRANCH  18  19
ATOM     19  C   UNL     1      12.407  53.432  35.836  1.00  0.00    -0.003 C 
ATOM     20  C   UNL     1      12.044  54.724  35.102  1.00  0.00     0.004 C 
ENDBRANCH  18  19
ENDBRANCH  17  18
ENDBRANCH  16  17
ENDBRANCH  15  16
ENDBRANCH  14  15
ENDBRANCH  13  14
ENDBRANCH  12  13
ENDBRANCH   1  12
TORSDOF 16
ENDMDL
MODEL 5
REMARK VINA RESULT:    -4.825      1.733      5.765
REMARK INTER + INTRA:         -10.847
REMARK INTER:                  -9.227
REMARK INTRA:                  -1.620
REMARK UNBOUND:                -1.509
REMARK SMILES CCCCCCCCCCCCCCCCCC(=O)[O-]
REMARK SMILES IDX 10 1 11 2 12 3 13 4 14 5 15 6 16 7 17 8 18 9 19 10 20 11
REMARK SMILES IDX 9 12 8 13 7 14 6 15 5 16 4 17 3 18 2 19 1 20
REMARK H PARENT
REMARK Flexibility Score: inf
ROOT
ATOM      1  C   UNL     1      14.666  54.470  35.392  1.00  0.00     0.000 C 
ENDROOT
BRANCH   1   2
ATOM      2  C   UNL     1      15.400  54.978  34.139  1.00  0.00     0.000 C 
BRANCH   2   3
ATOM      3  C   UNL     1      14.467  55.729  33.175  1.00  0.00     0.000 C 
BRANCH   3   4
ATOM      4  C   UNL     1      15.025  57.102  32.758  1.00  0.00     0.000 C 
BRANCH   4   5
ATOM      5  C   UNL     1      16.344  56.993  31.975  1.00  0.00     0.000 C 
BRANCH   5   6
ATOM      6  C   UNL     1      17.243  58.228  32.157  1.00  0.00     0.000 C 
BRANCH   6   7
ATOM      7  C   UNL     1      16.781  59.141  33.309  1.00  0.00     0.006 C 
BRANCH   7   8
ATOM      8  C   UNL     1      16.670  60.627  32.924  1.00  0.00     0.053 C 
BRANCH   8   9
ATOM      9  C   UNL     1      15.268  61.036  32.594  1.00  0.00     0.041 C 
ATOM     10  O   UNL     1      14.563  61.636  33.447  1.00  0.00    -0.550 OA
ATOM     11  O   UNL     1      14.732  60.736  31.347  1.00  0.00    -0.550 OA
ENDBRANCH   8   9
ENDBRANCH   7   8
ENDBRANCH   6   7
ENDBRANCH   5   6
ENDBRANCH   4   5
ENDBRANCH   3   4
ENDBRANCH   2   3
ENDBRANCH   1   2
BRANCH   1  12
ATOM     12  C   UNL     1      13.656  53.352  35.079  1.00  0.00     0.000 C 
BRANCH  12  13
ATOM     13  C   UNL     1      12.300  53.466  35.807  1.00  0.00    -0.000 C 
BRANCH  13  14
ATOM     14  C   UNL     1      11.173  54.126  34.994  1.00  0.00    -0.000 C 
BRANCH  14  15
ATOM     15  C   UNL     1      10.999  55.618  35.316  1.00  0.00    -0.000 C 
BRANCH  15  16
ATOM     16  C   UNL     1      11.054  56.465  34.036  1.00  0.00    -0.000 C 
BRANCH  16  17
ATOM     17  C   UNL     1      11.232  57.965  34.323  1.00  0.00    -0.000 C 
BRANCH  17  18
ATOM     18  C   UNL     1      10.105  58.536  35.201  1.00  0.00    -0.000 C 
BRANCH  18  19
ATOM     19  C   UNL     1      10.632  59.157  36.504  1.00  0.00    -0.003 C 
ATOM     20  C   UNL     1      10.646  60.686  36.470  1.00  0.00     0.004 C 
ENDBRANCH  18  19
ENDBRANCH  17  18
ENDBRANCH  16  17
ENDBRANCH  15  16
ENDBRANCH  14  15
ENDBRANCH  13  14
ENDBRANCH  12  13
ENDBRANCH   1  12
TORSDOF 16
ENDMDL
MODEL 6
REMARK VINA RESULT:    -4.814      3.213      6.162
REMARK INTER + INTRA:         -10.825
REMARK INTER:                  -8.429
REMARK INTRA:                  -2.396
REMARK UNBOUND:                -1.509
REMARK SMILES CCCCCCCCCCCCCCCCCC(=O)[O-]
REMARK SMILES IDX 10 1 11 2 12 3 13 4 14 5 15 6 16 7 17 8 18 9 19 10 20 11
REMARK SMILES IDX 9 12 8 13 7 14 6 15 5 16 4 17 3 18 2 19 1 20
REMARK H PARENT
REMARK Flexibility Score: inf
ROOT
ATOM      1  C   UNL     1      12.629  53.156  35.765  1.00  0.00     0.000 C 
ENDROOT
BRANCH   1   2
ATOM      2  C   UNL     1      14.111  53.141  35.352  1.00  0.00     0.000 C 
BRANCH   2   3
ATOM      3  C   UNL     1      14.718  54.552  35.289  1.00  0.00     0.000 C 
BRANCH   3   4
ATOM      4  C   UNL     1      15.238  54.913  33.886  1.00  0.00     0.000 C 
BRANCH   4   5
ATOM      5  C   UNL     1      14.711  56.270  33.390  1.00  0.00     0.000 C 
BRANCH   5   6
ATOM      6  C   UNL     1      15.647  56.925  32.359  1.00  0.00     0.000 C 
BRANCH   6   7
ATOM      7  C   UNL     1      16.297  58.221  32.877  1.00  0.00     0.006 C 
BRANCH   7   8
ATOM      8  C   UNL     1      15.530  59.501  32.500  1.00  0.00     0.053 C 
BRANCH   8   9
ATOM      9  C   UNL     1      16.368  60.474  31.730  1.00  0.00     0.041 C 
ATOM     10  O   UNL     1      17.153  61.252  32.332  1.00  0.00    -0.550 OA
ATOM     11  O   UNL     1      16.268  60.534  30.345  1.00  0.00    -0.550 OA
ENDBRANCH   8   9
ENDBRANCH   7   8
ENDBRANCH   6   7
ENDBRANCH   5   6
ENDBRANCH   4   5
ENDBRANCH   3   4
ENDBRANCH   2   3
ENDBRANCH   1   2
BRANCH   1  12
ATOM     12  C   UNL     1      12.017  54.567  35.739  1.00  0.00     0.000 C 
BRANCH  12  13
ATOM     13  C   UNL     1      11.062  54.850  34.560  1.00  0.00    -0.000 C 
BRANCH  13  14
ATOM     14  C   UNL     1      11.287  53.978  33.312  1.00  0.00    -0.000 C 
BRANCH  14  15
ATOM     15  C   UNL     1      11.765  54.786  32.097  1.00  0.00    -0.000 C 
BRANCH  15  16
ATOM     16  C   UNL     1      12.804  53.997  31.288  1.00  0.00    -0.000 C 
BRANCH  16  17
ATOM     17  C   UNL     1      13.088  52.607  31.880  1.00  0.00    -0.000 C 
BRANCH  17  18
ATOM     18  C   UNL     1      14.444  52.037  31.426  1.00  0.00    -0.000 C 
BRANCH  18  19
ATOM     19  C   UNL     1      14.993  50.981  32.398  1.00  0.00    -0.003 C 
ATOM     20  C   UNL     1      16.190  51.484  33.206  1.00  0.00     0.004 C 
ENDBRANCH  18  19
ENDBRANCH  17  18
ENDBRANCH  16  17
ENDBRANCH  15  16
ENDBRANCH  14  15
ENDBRANCH  13  14
ENDBRANCH  12  13
ENDBRANCH   1  12
TORSDOF 16
ENDMDL
MODEL 7
REMARK VINA RESULT:    -4.783      2.542      5.675
REMARK INTER + INTRA:         -10.766
REMARK INTER:                  -8.523
REMARK INTRA:                  -2.243
REMARK UNBOUND:                -1.509
REMARK SMILES CCCCCCCCCCCCCCCCCC(=O)[O-]
REMARK SMILES IDX 10 1 11 2 12 3 13 4 14 5 15 6 16 7 17 8 18 9 19 10 20 11
REMARK SMILES IDX 9 12 8 13 7 14 6 15 5 16 4 17 3 18 2 19 1 20
REMARK H PARENT
REMARK Flexibility Score: inf
ROOT
ATOM      1  C   UNL     1      12.445  54.579  35.739  1.00  0.00     0.000 C 
ENDROOT
BRANCH   1   2
ATOM      2  C   UNL     1      12.893  53.109  35.806  1.00  0.00     0.000 C 
BRANCH   2   3
ATOM      3  C   UNL     1      14.155  52.839  34.969  1.00  0.00     0.000 C 
BRANCH   3   4
ATOM      4  C   UNL     1      14.925  54.127  34.626  1.00  0.00     0.000 C 
BRANCH   4   5
ATOM      5  C   UNL     1      15.548  54.088  33.220  1.00  0.00     0.000 C 
BRANCH   5   6
ATOM      6  C   UNL     1      15.362  55.410  32.456  1.00  0.00     0.000 C 
BRANCH   6   7
ATOM      7  C   UNL     1      15.376  56.643  33.378  1.00  0.00     0.006 C 
BRANCH   7   8
ATOM      8  C   UNL     1      15.298  57.986  32.630  1.00  0.00     0.053 C 
BRANCH   8   9
ATOM      9  C   UNL     1      16.614  58.699  32.580  1.00  0.00     0.041 C 
ATOM     10  O   UNL     1      16.748  59.824  33.126  1.00  0.00    -0.550 OA
ATOM     11  O   UNL     1      17.689  58.127  31.911  1.00  0.00    -0.550 OA
ENDBRANCH   8   9
ENDBRANCH   7   8
ENDBRANCH   6   7
ENDBRANCH   5   6
ENDBRANCH   4   5
ENDBRANCH   3   4
ENDBRANCH   2   3
ENDBRANCH   1   2
BRANCH   1  12
ATOM     12  C   UNL     1      10.993  54.739  35.256  1.00  0.00     0.000 C 
BRANCH  12  13
ATOM     13  C   UNL     1      10.825  54.982  33.741  1.00  0.00    -0.000 C 
BRANCH  13  14
ATOM     14  C   UNL     1      11.921  55.846  33.092  1.00  0.00    -0.000 C 
BRANCH  14  15
ATOM     15  C   UNL     1      11.401  57.208  32.611  1.00  0.00    -0.000 C 
BRANCH  15  16
ATOM     16  C   UNL     1      11.691  58.303  33.648  1.00  0.00    -0.000 C 
BRANCH  16  17
ATOM     17  C   UNL     1      10.444  58.710  34.449  1.00  0.00    -0.000 C 
BRANCH  17  18
ATOM     18  C   UNL     1      10.556  58.351  35.941  1.00  0.00    -0.000 C 
BRANCH  18  19
ATOM     19  C   UNL     1      10.442  59.583  36.852  1.00  0.00    -0.003 C 
ATOM     20  C   UNL     1      10.873  60.876  36.159  1.00  0.00     0.004 C 
ENDBRANCH  18  19
ENDBRANCH  17  18
ENDBRANCH  16  17
ENDBRANCH  15  16
ENDBRANCH  14  15
ENDBRANCH  13  14
ENDBRANCH  12  13
ENDBRANCH   1  12
TORSDOF 16
ENDMDL
MODEL 8
REMARK VINA RESULT:    -4.744      2.321      6.139
REMARK INTER + INTRA:         -10.690
REMARK INTER:                  -8.455
REMARK INTRA:                  -2.235
REMARK UNBOUND:                -1.509
REMARK SMILES CCCCCCCCCCCCCCCCCC(=O)[O-]
REMARK SMILES IDX 10 1 11 2 12 3 13 4 14 5 15 6 16 7 17 8 18 9 19 10 20 11
REMARK SMILES IDX 9 12 8 13 7 14 6 15 5 16 4 17 3 18 2 19 1 20
REMARK H PARENT
REMARK Flexibility Score: inf
ROOT
ATOM      1  C   UNL     1      12.504  57.065  33.133  1.00  0.00     0.000 C 
ENDROOT
BRANCH   1   2
ATOM      2  C   UNL     1      12.871  55.959  32.129  1.00  0.00     0.000 C 
BRANCH   2   3
ATOM      3  C   UNL     1      14.233  56.203  31.458  1.00  0.00     0.000 C 
BRANCH   3   4
ATOM      4  C   UNL     1      15.112  57.195  32.242  1.00  0.00     0.000 C 
BRANCH   4   5
ATOM      5  C   UNL     1      16.587  57.150  31.808  1.00  0.00     0.000 C 
BRANCH   5   6
ATOM      6  C   UNL     1      17.380  58.378  32.288  1.00  0.00     0.000 C 
BRANCH   6   7
ATOM      7  C   UNL     1      16.639  59.186  33.370  1.00  0.00     0.006 C 
BRANCH   7   8
ATOM      8  C   UNL     1      16.430  60.668  33.012  1.00  0.00     0.053 C 
BRANCH   8   9
ATOM      9  C   UNL     1      15.042  60.957  32.528  1.00  0.00     0.041 C 
ATOM     10  O   UNL     1      14.693  60.623  31.366  1.00  0.00    -0.550 OA
ATOM     11  O   UNL     1      14.141  61.616  33.355  1.00  0.00    -0.550 OA
ENDBRANCH   8   9
ENDBRANCH   7   8
ENDBRANCH   6   7
ENDBRANCH   5   6
ENDBRANCH   4   5
ENDBRANCH   3   4
ENDBRANCH   2   3
ENDBRANCH   1   2
BRANCH   1  12
ATOM     12  C   UNL     1      11.554  56.574  34.240  1.00  0.00     0.000 C 
BRANCH  12  13
ATOM     13  C   UNL     1      11.241  55.063  34.218  1.00  0.00    -0.000 C 
BRANCH  13  14
ATOM     14  C   UNL     1      11.767  54.267  35.426  1.00  0.00    -0.000 C 
BRANCH  14  15
ATOM     15  C   UNL     1      13.073  53.517  35.123  1.00  0.00    -0.000 C 
BRANCH  15  16
ATOM     16  C   UNL     1      14.295  54.379  35.475  1.00  0.00    -0.000 C 
BRANCH  16  17
ATOM     17  C   UNL     1      15.431  54.246  34.449  1.00  0.00    -0.000 C 
BRANCH  17  18
ATOM     18  C   UNL     1      15.112  53.226  33.342  1.00  0.00    -0.000 C 
BRANCH  18  19
ATOM     19  C   UNL     1      15.922  51.929  33.487  1.00  0.00    -0.003 C 
ATOM     20  C   UNL     1      15.476  50.838  32.512  1.00  0.00     0.004 C 
ENDBRANCH  18  19
ENDBRANCH  17  18
ENDBRANCH  16  17
ENDBRANCH  15  16
ENDBRANCH  14  15
ENDBRANCH  13  14
ENDBRANCH  12  13
ENDBRANCH   1  12
TORSDOF 16
ENDMDL
MODEL 9
REMARK VINA RESULT:    -4.721      2.880      6.251
REMARK INTER + INTRA:         -10.646
REMARK INTER:                  -8.375
REMARK INTRA:                  -2.271
REMARK UNBOUND:                -1.509
REMARK SMILES CCCCCCCCCCCCCCCCCC(=O)[O-]
REMARK SMILES IDX 10 1 11 2 12 3 13 4 14 5 15 6 16 7 17 8 18 9 19 10 20 11
REMARK SMILES IDX 9 12 8 13 7 14 6 15 5 16 4 17 3 18 2 19 1 20
REMARK H PARENT
REMARK Flexibility Score: inf
ROOT
ATOM      1  C   UNL     1      11.393  53.886  35.044  1.00  0.00     0.000 C 
ENDROOT
BRANCH   1   2
ATOM      2  C   UNL     1      11.252  54.479  33.632  1.00  0.00     0.000 C 
BRANCH   2   3
ATOM      3  C   UNL     1      11.706  55.946  33.562  1.00  0.00     0.000 C 
BRANCH   3   4
ATOM      4  C   UNL     1      12.789  56.183  32.494  1.00  0.00     0.000 C 
BRANCH   4   5
ATOM      5  C   UNL     1      13.571  57.487  32.722  1.00  0.00     0.000 C 
BRANCH   5   6
ATOM      6  C   UNL     1      14.971  57.455  32.085  1.00  0.00     0.000 C 
BRANCH   6   7
ATOM      7  C   UNL     1      16.088  57.843  33.072  1.00  0.00     0.006 C 
BRANCH   7   8
ATOM      8  C   UNL     1      17.110  58.842  32.501  1.00  0.00     0.053 C 
BRANCH   8   9
ATOM      9  C   UNL     1      16.608  60.253  32.510  1.00  0.00     0.041 C 
ATOM     10  O   UNL     1      15.792  60.632  33.390  1.00  0.00    -0.550 OA
ATOM     11  O   UNL     1      17.027  61.146  31.531  1.00  0.00    -0.550 OA
ENDBRANCH   8   9
ENDBRANCH   7   8
ENDBRANCH   6   7
ENDBRANCH   5   6
ENDBRANCH   4   5
ENDBRANCH   3   4
ENDBRANCH   2   3
ENDBRANCH   1   2
BRANCH   1  12
ATOM     12  C   UNL     1      12.573  54.487  35.828  1.00  0.00     0.000 C 
BRANCH  12  13
ATOM     13  C   UNL     1      13.921  53.758  35.652  1.00  0.00    -0.000 C 
BRANCH  13  14
ATOM     14  C   UNL     1      15.037  54.594  35.000  1.00  0.00    -0.000 C 
BRANCH  14  15
ATOM     15  C   UNL     1      15.493  54.029  33.646  1.00  0.00    -0.000 C 
BRANCH  15  16
ATOM     16  C   UNL     1      14.950  52.608  33.434  1.00  0.00    -0.000 C 
BRANCH  16  17
ATOM     17  C   UNL     1      13.987  52.512  32.239  1.00  0.00    -0.000 C 
BRANCH  17  18
ATOM     18  C   UNL     1      14.334  51.349  31.294  1.00  0.00    -0.000 C 
BRANCH  18  19
ATOM     19  C   UNL     1      15.466  50.465  31.840  1.00  0.00    -0.003 C 
ATOM     20  C   UNL     1      15.809  49.299  30.912  1.00  0.00     0.004 C 
ENDBRANCH  18  19
ENDBRANCH  17  18
ENDBRANCH  16  17
ENDBRANCH  15  16
ENDBRANCH  14  15
ENDBRANCH  13  14
ENDBRANCH  12  13
ENDBRANCH   1  12
TORSDOF 16
ENDMDL
