MODEL 1
REMARK VINA RESULT:    -4.569      0.000      0.000
REMARK INTER + INTRA:          -9.435
REMARK INTER:                  -8.309
REMARK INTRA:                  -1.127
REMARK UNBOUND:                -1.127
REMARK SMILES CCCCCCCCCCCCCCCC(=O)[O-]
REMARK SMILES IDX 9 1 10 2 11 3 12 4 13 5 14 6 15 7 16 8 17 9 18 10 8 11 7 12
REMARK SMILES IDX 6 13 5 14 4 15 3 16 2 17 1 18
REMARK H PARENT
REMARK Flexibility Score: inf
ROOT
ATOM      1  C   UNL     1      19.608  12.517 -14.000  1.00  0.00     0.000 C 
ENDROOT
BRANCH   1   2
ATOM      2  C   UNL     1      19.801  13.472 -15.195  1.00  0.00     0.000 C 
BRANCH   2   3
ATOM      3  C   UNL     1      20.916  14.509 -14.940  1.00  0.00     0.000 C 
BRANCH   3   4
ATOM      4  C   UNL     1      21.920  14.072 -13.858  1.00  0.00     0.000 C 
BRANCH   4   5
ATOM      5  C   UNL     1      22.950  15.160 -13.521  1.00  0.00     0.000 C 
BRANCH   5   6
ATOM      6  C   UNL     1      22.981  16.250 -14.597  1.00  0.00     0.006 C 
BRANCH   6   7
ATOM      7  C   UNL     1      22.774  17.636 -13.977  1.00  0.00     0.053 C 
BRANCH   7   8
ATOM      8  C   UNL     1      21.958  18.501 -14.883  1.00  0.00     0.041 C 
ATOM      9  O   UNL     1      21.105  17.987 -15.652  1.00  0.00    -0.550 OA
ATOM     10  O   UNL     1      22.107  19.882 -14.847  1.00  0.00    -0.550 OA
ENDBRANCH   7   8
ENDBRANCH   6   7
ENDBRANCH   5   6
ENDBRANCH   4   5
ENDBRANCH   3   4
ENDBRANCH   2   3
ENDBRANCH   1   2
BRANCH   1  11
ATOM     11  C   UNL     1      18.342  11.654 -14.132  1.00  0.00     0.000 C 
BRANCH  11  12
ATOM     12  C   UNL     1      17.623  11.891 -15.469  1.00  0.00    -0.000 C 
BRANCH  12  13
ATOM     13  C   UNL     1      16.196  12.417 -15.256  1.00  0.00    -0.000 C 
BRANCH  13  14
ATOM     14  C   UNL     1      15.742  12.308 -13.790  1.00  0.00    -0.000 C 
BRANCH  14  15
ATOM     15  C   UNL     1      14.468  11.466 -13.622  1.00  0.00    -0.000 C 
BRANCH  15  16
ATOM     16  C   UNL     1      14.381  10.379 -14.702  1.00  0.00    -0.000 C 
BRANCH  16  17
ATOM     17  C   UNL     1      15.189   9.122 -14.342  1.00  0.00    -0.003 C 
ATOM     18  C   UNL     1      14.754   7.889 -15.135  1.00  0.00     0.004 C 
ENDBRANCH  16  17
ENDBRANCH  15  16
ENDBRANCH  14  15
ENDBRANCH  13  14
ENDBRANCH  12  13
ENDBRANCH  11  12
ENDBRANCH   1  11
TORSDOF 14
ENDMDL
MODEL 2
REMARK VINA RESULT:    -4.565      1.184      2.209
REMARK INTER + INTRA:          -9.428
REMARK INTER:                  -8.174
REMARK INTRA:                  -1.254
REMARK UNBOUND:                -1.127
REMARK SMILES CCCCCCCCCCCCCCCC(=O)[O-]
REMARK SMILES IDX 9 1 10 2 11 3 12 4 13 5 14 6 15 7 16 8 17 9 18 10 8 11 7 12
REMARK SMILES IDX 6 13 5 14 4 15 3 16 2 17 1 18
REMARK H PARENT
REMARK Flexibility Score: inf
ROOT
ATOM      1  C   UNL     1      18.977  11.988 -13.452  1.00  0.00     0.000 C 
ENDROOT
BRANCH   1   2
ATOM      2  C   UNL     1      19.903  12.957 -14.213  1.00  0.00     0.000 C 
BRANCH   2   3
ATOM      3  C   UNL     1      21.208  13.247 -13.442  1.00  0.00     0.000 C 
BRANCH   3   4
ATOM      4  C   UNL     1      22.033  14.398 -14.047  1.00  0.00     0.000 C 
BRANCH   4   5
ATOM      5  C   UNL     1      21.336  15.074 -15.237  1.00  0.00     0.000 C 
BRANCH   5   6
ATOM      6  C   UNL     1      22.154  16.259 -15.761  1.00  0.00     0.006 C 
BRANCH   6   7
ATOM      7  C   UNL     1      21.366  17.567 -15.627  1.00  0.00     0.053 C 
BRANCH   7   8
ATOM      8  C   UNL     1      22.071  18.513 -14.709  1.00  0.00     0.041 C 
ATOM      9  O   UNL     1      22.718  18.075 -13.722  1.00  0.00    -0.550 OA
ATOM     10  O   UNL     1      22.053  19.877 -14.968  1.00  0.00    -0.550 OA
ENDBRANCH   7   8
ENDBRANCH   6   7
ENDBRANCH   5   6
ENDBRANCH   4   5
ENDBRANCH   3   4
ENDBRANCH   2   3
ENDBRANCH   1   2
BRANCH   1  11
ATOM     11  C   UNL     1      18.991  10.569 -14.045  1.00  0.00     0.000 C 
BRANCH  11  12
ATOM     12  C   UNL     1      18.444  10.543 -15.481  1.00  0.00    -0.000 C 
BRANCH  12  13
ATOM     13  C   UNL     1      17.376   9.454 -15.657  1.00  0.00    -0.000 C 
BRANCH  13  14
ATOM     14  C   UNL     1      16.782   8.990 -14.316  1.00  0.00    -0.000 C 
BRANCH  14  15
ATOM     15  C   UNL     1      15.245   8.945 -14.329  1.00  0.00    -0.000 C 
BRANCH  15  16
ATOM     16  C   UNL     1      14.662  10.240 -14.912  1.00  0.00    -0.000 C 
BRANCH  16  17
ATOM     17  C   UNL     1      14.450  11.325 -13.844  1.00  0.00    -0.003 C 
ATOM     18  C   UNL     1      15.479  12.453 -13.932  1.00  0.00     0.004 C 
ENDBRANCH  16  17
ENDBRANCH  15  16
ENDBRANCH  14  15
ENDBRANCH  13  14
ENDBRANCH  12  13
ENDBRANCH  11  12
ENDBRANCH   1  11
TORSDOF 14
ENDMDL
MODEL 3
REMARK VINA RESULT:    -4.423      3.201      8.199
REMARK INTER + INTRA:          -9.170
REMARK INTER:                  -7.870
REMARK INTRA:                  -1.300
REMARK UNBOUND:                -1.127
REMARK SMILES CCCCCCCCCCCCCCCC(=O)[O-]
REMARK SMILES IDX 9 1 10 2 11 3 12 4 13 5 14 6 15 7 16 8 17 9 18 10 8 11 7 12
REMARK SMILES IDX 6 13 5 14 4 15 3 16 2 17 1 18
REMARK H PARENT
REMARK Flexibility Score: inf
ROOT
ATOM      1  C   UNL     1      18.868  12.473 -14.694  1.00  0.00     0.000 C 
ENDROOT
BRANCH   1   2
ATOM      2  C   UNL     1      18.681  11.681 -13.385  1.00  0.00     0.000 C 
BRANCH   2   3
ATOM      3  C   UNL     1      18.676  10.156 -13.620  1.00  0.00     0.000 C 
BRANCH   3   4
ATOM      4  C   UNL     1      17.999   9.743 -14.940  1.00  0.00     0.000 C 
BRANCH   4   5
ATOM      5  C   UNL     1      16.708   8.939 -14.726  1.00  0.00     0.000 C 
BRANCH   5   6
ATOM      6  C   UNL     1      15.494   9.669 -15.310  1.00  0.00     0.006 C 
BRANCH   6   7
ATOM      7  C   UNL     1      14.801  10.518 -14.239  1.00  0.00     0.053 C 
BRANCH   7   8
ATOM      8  C   UNL     1      15.160  11.961 -14.399  1.00  0.00     0.041 C 
ATOM      9  O   UNL     1      15.285  12.460 -15.548  1.00  0.00    -0.550 OA
ATOM     10  O   UNL     1      15.310  12.769 -13.279  1.00  0.00    -0.550 OA
ENDBRANCH   7   8
ENDBRANCH   6   7
ENDBRANCH   5   6
ENDBRANCH   4   5
ENDBRANCH   3   4
ENDBRANCH   2   3
ENDBRANCH   1   2
BRANCH   1  11
ATOM     11  C   UNL     1      20.021  13.487 -14.612  1.00  0.00     0.000 C 
BRANCH  11  12
ATOM     12  C   UNL     1      21.023  13.127 -13.503  1.00  0.00    -0.000 C 
BRANCH  12  13
ATOM     13  C   UNL     1      22.206  14.106 -13.474  1.00  0.00    -0.000 C 
BRANCH  13  14
ATOM     14  C   UNL     1      22.604  14.591 -14.879  1.00  0.00    -0.000 C 
BRANCH  14  15
ATOM     15  C   UNL     1      22.653  16.123 -14.989  1.00  0.00    -0.000 C 
BRANCH  15  16
ATOM     16  C   UNL     1      21.413  16.661 -15.718  1.00  0.00    -0.000 C 
BRANCH  16  17
ATOM     17  C   UNL     1      21.321  18.195 -15.674  1.00  0.00    -0.003 C 
ATOM     18  C   UNL     1      22.065  18.800 -14.483  1.00  0.00     0.004 C 
ENDBRANCH  16  17
ENDBRANCH  15  16
ENDBRANCH  14  15
ENDBRANCH  13  14
ENDBRANCH  12  13
ENDBRANCH  11  12
ENDBRANCH   1  11
TORSDOF 14
ENDMDL
MODEL 4
REMARK VINA RESULT:    -4.378      1.947      2.825
REMARK INTER + INTRA:          -9.088
REMARK INTER:                  -6.880
REMARK INTRA:                  -2.208
REMARK UNBOUND:                -1.127
REMARK SMILES CCCCCCCCCCCCCCCC(=O)[O-]
REMARK SMILES IDX 9 1 10 2 11 3 12 4 13 5 14 6 15 7 16 8 17 9 18 10 8 11 7 12
REMARK SMILES IDX 6 13 5 14 4 15 3 16 2 17 1 18
REMARK H PARENT
REMARK Flexibility Score: inf
ROOT
ATOM      1  C   UNL     1      18.257  11.598 -13.609  1.00  0.00     0.000 C 
ENDROOT
BRANCH   1   2
ATOM      2  C   UNL     1      19.407  10.592 -13.812  1.00  0.00     0.000 C 
BRANCH   2   3
ATOM      3  C   UNL     1      19.934  10.591 -15.262  1.00  0.00     0.000 C 
BRANCH   3   4
ATOM      4  C   UNL     1      21.438  10.906 -15.367  1.00  0.00     0.000 C 
BRANCH   4   5
ATOM      5  C   UNL     1      21.997  11.587 -14.109  1.00  0.00     0.000 C 
BRANCH   5   6
ATOM      6  C   UNL     1      22.359  13.050 -14.383  1.00  0.00     0.006 C 
BRANCH   6   7
ATOM      7  C   UNL     1      21.138  13.958 -14.199  1.00  0.00     0.053 C 
BRANCH   7   8
ATOM      8  C   UNL     1      21.043  14.944 -15.320  1.00  0.00     0.041 C 
ATOM      9  O   UNL     1      20.052  14.929 -16.095  1.00  0.00    -0.550 OA
ATOM     10  O   UNL     1      22.027  15.910 -15.481  1.00  0.00    -0.550 OA
ENDBRANCH   7   8
ENDBRANCH   6   7
ENDBRANCH   5   6
ENDBRANCH   4   5
ENDBRANCH   3   4
ENDBRANCH   2   3
ENDBRANCH   1   2
BRANCH   1  11
ATOM     11  C   UNL     1      17.879  12.333 -14.906  1.00  0.00     0.000 C 
BRANCH  11  12
ATOM     12  C   UNL     1      16.355  12.422 -15.091  1.00  0.00    -0.000 C 
BRANCH  12  13
ATOM     13  C   UNL     1      15.623  12.409 -13.741  1.00  0.00    -0.000 C 
BRANCH  13  14
ATOM     14  C   UNL     1      14.509  11.350 -13.686  1.00  0.00    -0.000 C 
BRANCH  14  15
ATOM     15  C   UNL     1      14.381  10.550 -14.993  1.00  0.00    -0.000 C 
BRANCH  15  16
ATOM     16  C   UNL     1      14.685   9.064 -14.759  1.00  0.00    -0.000 C 
BRANCH  16  17
ATOM     17  C   UNL     1      16.191   8.782 -14.627  1.00  0.00    -0.003 C 
ATOM     18  C   UNL     1      16.892   8.658 -15.980  1.00  0.00     0.004 C 
ENDBRANCH  16  17
ENDBRANCH  15  16
ENDBRANCH  14  15
ENDBRANCH  13  14
ENDBRANCH  12  13
ENDBRANCH  11  12
ENDBRANCH   1  11
TORSDOF 14
ENDMDL
MODEL 5
REMARK VINA RESULT:    -4.365      1.381      2.664
REMARK INTER + INTRA:          -9.064
REMARK INTER:                  -7.492
REMARK INTRA:                  -1.572
REMARK UNBOUND:                -1.127
REMARK SMILES CCCCCCCCCCCCCCCC(=O)[O-]
REMARK SMILES IDX 9 1 10 2 11 3 12 4 13 5 14 6 15 7 16 8 17 9 18 10 8 11 7 12
REMARK SMILES IDX 6 13 5 14 4 15 3 16 2 17 1 18
REMARK H PARENT
REMARK Flexibility Score: inf
ROOT
ATOM      1  C   UNL     1      16.995  13.455 -15.835  1.00  0.00     0.000 C 
ENDROOT
BRANCH   1   2
ATOM      2  C   UNL     1      18.319  12.697 -16.055  1.00  0.00     0.000 C 
BRANCH   2   3
ATOM      3  C   UNL     1      19.504  13.370 -15.330  1.00  0.00     0.000 C 
BRANCH   3   4
ATOM      4  C   UNL     1      19.804  12.756 -13.950  1.00  0.00     0.000 C 
BRANCH   4   5
ATOM      5  C   UNL     1      21.179  13.160 -13.399  1.00  0.00     0.000 C 
BRANCH   5   6
ATOM      6  C   UNL     1      21.896  14.128 -14.346  1.00  0.00     0.006 C 
BRANCH   6   7
ATOM      7  C   UNL     1      22.861  15.033 -13.573  1.00  0.00     0.053 C 
BRANCH   7   8
ATOM      8  C   UNL     1      22.766  16.443 -14.064  1.00  0.00     0.041 C 
ATOM      9  O   UNL     1      22.324  16.684 -15.217  1.00  0.00    -0.550 OA
ATOM     10  O   UNL     1      23.124  17.495 -13.231  1.00  0.00    -0.550 OA
ENDBRANCH   7   8
ENDBRANCH   6   7
ENDBRANCH   5   6
ENDBRANCH   4   5
ENDBRANCH   3   4
ENDBRANCH   2   3
ENDBRANCH   1   2
BRANCH   1  11
ATOM     11  C   UNL     1      15.817  12.512 -15.536  1.00  0.00     0.000 C 
BRANCH  11  12
ATOM     12  C   UNL     1      15.510  12.438 -14.032  1.00  0.00    -0.000 C 
BRANCH  12  13
ATOM     13  C   UNL     1      14.545  11.288 -13.710  1.00  0.00    -0.000 C 
BRANCH  13  14
ATOM     14  C   UNL     1      14.366  10.321 -14.894  1.00  0.00    -0.000 C 
BRANCH  14  15
ATOM     15  C   UNL     1      15.206   9.042 -14.751  1.00  0.00    -0.000 C 
BRANCH  15  16
ATOM     16  C   UNL     1      16.234   8.930 -15.886  1.00  0.00    -0.000 C 
BRANCH  16  17
ATOM     17  C   UNL     1      17.681   8.867 -15.369  1.00  0.00    -0.003 C 
ATOM     18  C   UNL     1      17.883   9.655 -14.075  1.00  0.00     0.004 C 
ENDBRANCH  16  17
ENDBRANCH  15  16
ENDBRANCH  14  15
ENDBRANCH  13  14
ENDBRANCH  12  13
ENDBRANCH  11  12
ENDBRANCH   1  11
TORSDOF 14
ENDMDL
MODEL 6
REMARK VINA RESULT:    -4.243      2.973      4.636
REMARK INTER + INTRA:          -8.842
REMARK INTER:                  -6.992
REMARK INTRA:                  -1.850
REMARK UNBOUND:                -1.127
REMARK SMILES CCCCCCCCCCCCCCCC(=O)[O-]
REMARK SMILES IDX 9 1 10 2 11 3 12 4 13 5 14 6 15 7 16 8 17 9 18 10 8 11 7 12
REMARK SMILES IDX 6 13 5 14 4 15 3 16 2 17 1 18
REMARK H PARENT
REMARK Flexibility Score: inf
ROOT
ATOM      1  C   UNL     1      15.561  12.531 -14.215  1.00  0.00     0.000 C 
ENDROOT
BRANCH   1   2
ATOM      2  C   UNL     1      16.005  12.498 -15.692  1.00  0.00     0.000 C 
BRANCH   2   3
ATOM      3  C   UNL     1      16.976  13.647 -16.035  1.00  0.00     0.000 C 
BRANCH   3   4
ATOM      4  C   UNL     1      18.447  13.199 -16.125  1.00  0.00     0.000 C 
BRANCH   4   5
ATOM      5  C   UNL     1      19.439  14.361 -15.979  1.00  0.00     0.000 C 
BRANCH   5   6
ATOM      6  C   UNL     1      20.772  13.885 -15.394  1.00  0.00     0.006 C 
BRANCH   6   7
ATOM      7  C   UNL     1      20.598  13.423 -13.943  1.00  0.00     0.053 C 
BRANCH   7   8
ATOM      8  C   UNL     1      21.864  12.813 -13.430  1.00  0.00     0.041 C 
ATOM      9  O   UNL     1      22.375  13.222 -12.356  1.00  0.00    -0.550 OA
ATOM     10  O   UNL     1      22.455  11.759 -14.115  1.00  0.00    -0.550 OA
ENDBRANCH   7   8
ENDBRANCH   6   7
ENDBRANCH   5   6
ENDBRANCH   4   5
ENDBRANCH   3   4
ENDBRANCH   2   3
ENDBRANCH   1   2
BRANCH   1  11
ATOM     11  C   UNL     1      14.626  11.365 -13.854  1.00  0.00     0.000 C 
BRANCH  11  12
ATOM     12  C   UNL     1      14.388  10.429 -15.050  1.00  0.00    -0.000 C 
BRANCH  12  13
ATOM     13  C   UNL     1      14.635   8.961 -14.674  1.00  0.00    -0.000 C 
BRANCH  13  14
ATOM     14  C   UNL     1      15.652   8.278 -15.605  1.00  0.00    -0.000 C 
BRANCH  14  15
ATOM     15  C   UNL     1      17.049   8.913 -15.531  1.00  0.00    -0.000 C 
BRANCH  15  16
ATOM     16  C   UNL     1      17.439   9.216 -14.077  1.00  0.00    -0.000 C 
BRANCH  16  17
ATOM     17  C   UNL     1      18.552  10.270 -13.970  1.00  0.00    -0.003 C 
ATOM     18  C   UNL     1      19.659  10.070 -15.006  1.00  0.00     0.004 C 
ENDBRANCH  16  17
ENDBRANCH  15  16
ENDBRANCH  14  15
ENDBRANCH  13  14
ENDBRANCH  12  13
ENDBRANCH  11  12
ENDBRANCH   1  11
TORSDOF 14
ENDMDL
MODEL 7
REMARK VINA RESULT:    -4.143      3.095      7.778
REMARK INTER + INTRA:          -8.661
REMARK INTER:                  -6.831
REMARK INTRA:                  -1.830
REMARK UNBOUND:                -1.127
REMARK SMILES CCCCCCCCCCCCCCCC(=O)[O-]
REMARK SMILES IDX 9 1 10 2 11 3 12 4 13 5 14 6 15 7 16 8 17 9 18 10 8 11 7 12
REMARK SMILES IDX 6 13 5 14 4 15 3 16 2 17 1 18
REMARK H PARENT
REMARK Flexibility Score: inf
ROOT
ATOM      1  C   UNL     1      18.729  11.219 -15.905  1.00  0.00     0.000 C 
ENDROOT
BRANCH   1   2
ATOM      2  C   UNL     1      18.510  10.010 -14.974  1.00  0.00     0.000 C 
BRANCH   2   3
ATOM      3  C   UNL     1      17.972   8.779 -15.731  1.00  0.00     0.000 C 
BRANCH   3   4
ATOM      4  C   UNL     1      16.436   8.667 -15.704  1.00  0.00     0.000 C 
BRANCH   4   5
ATOM      5  C   UNL     1      15.833   9.028 -14.338  1.00  0.00     0.000 C 
BRANCH   5   6
ATOM      6  C   UNL     1      14.656   9.996 -14.488  1.00  0.00     0.006 C 
BRANCH   6   7
ATOM      7  C   UNL     1      14.910  10.993 -15.624  1.00  0.00     0.053 C 
BRANCH   7   8
ATOM      8  C   UNL     1      15.334  12.318 -15.075  1.00  0.00     0.041 C 
ATOM      9  O   UNL     1      15.550  12.454 -13.843  1.00  0.00    -0.550 OA
ATOM     10  O   UNL     1      15.537  13.393 -15.931  1.00  0.00    -0.550 OA
ENDBRANCH   7   8
ENDBRANCH   6   7
ENDBRANCH   5   6
ENDBRANCH   4   5
ENDBRANCH   3   4
ENDBRANCH   2   3
ENDBRANCH   1   2
BRANCH   1  11
ATOM     11  C   UNL     1      19.014  12.517 -15.132  1.00  0.00     0.000 C 
BRANCH  11  12
ATOM     12  C   UNL     1      19.446  12.238 -13.683  1.00  0.00    -0.000 C 
BRANCH  12  13
ATOM     13  C   UNL     1      20.766  12.946 -13.343  1.00  0.00    -0.000 C 
BRANCH  13  14
ATOM     14  C   UNL     1      21.943  12.434 -14.192  1.00  0.00    -0.000 C 
BRANCH  14  15
ATOM     15  C   UNL     1      22.702  13.567 -14.902  1.00  0.00    -0.000 C 
BRANCH  15  16
ATOM     16  C   UNL     1      22.241  14.940 -14.393  1.00  0.00    -0.000 C 
BRANCH  16  17
ATOM     17  C   UNL     1      22.060  15.961 -15.528  1.00  0.00    -0.003 C 
ATOM     18  C   UNL     1      20.646  15.955 -16.110  1.00  0.00     0.004 C 
ENDBRANCH  16  17
ENDBRANCH  15  16
ENDBRANCH  14  15
ENDBRANCH  13  14
ENDBRANCH  12  13
ENDBRANCH  11  12
ENDBRANCH   1  11
TORSDOF 14
ENDMDL
MODEL 8
REMARK VINA RESULT:    -4.075      1.568      3.050
REMARK INTER + INTRA:          -8.537
REMARK INTER:                  -6.840
REMARK INTRA:                  -1.697
REMARK UNBOUND:                -1.127
REMARK SMILES CCCCCCCCCCCCCCCC(=O)[O-]
REMARK SMILES IDX 9 1 10 2 11 3 12 4 13 5 14 6 15 7 16 8 17 9 18 10 8 11 7 12
REMARK SMILES IDX 6 13 5 14 4 15 3 16 2 17 1 18
REMARK H PARENT
REMARK Flexibility Score: inf
ROOT
ATOM      1  C   UNL     1      19.160   9.888 -15.118  1.00  0.00     0.000 C 
ENDROOT
BRANCH   1   2
ATOM      2  C   UNL     1      19.009  11.102 -16.056  1.00  0.00     0.000 C 
BRANCH   2   3
ATOM      3  C   UNL     1      19.939  12.267 -15.659  1.00  0.00     0.000 C 
BRANCH   3   4
ATOM      4  C   UNL     1      19.650  12.828 -14.255  1.00  0.00     0.000 C 
BRANCH   4   5
ATOM      5  C   UNL     1      20.920  13.023 -13.413  1.00  0.00     0.000 C 
BRANCH   5   6
ATOM      6  C   UNL     1      22.148  13.245 -14.302  1.00  0.00     0.006 C 
BRANCH   6   7
ATOM      7  C   UNL     1      22.982  14.427 -13.795  1.00  0.00     0.053 C 
BRANCH   7   8
ATOM      8  C   UNL     1      22.537  15.700 -14.441  1.00  0.00     0.041 C 
ATOM      9  O   UNL     1      21.745  15.671 -15.418  1.00  0.00    -0.550 OA
ATOM     10  O   UNL     1      22.962  16.921 -13.935  1.00  0.00    -0.550 OA
ENDBRANCH   7   8
ENDBRANCH   6   7
ENDBRANCH   5   6
ENDBRANCH   4   5
ENDBRANCH   3   4
ENDBRANCH   2   3
ENDBRANCH   1   2
BRANCH   1  11
ATOM     11  C   UNL     1      17.847   9.525 -14.405  1.00  0.00     0.000 C 
BRANCH  11  12
ATOM     12  C   UNL     1      16.808   8.946 -15.379  1.00  0.00    -0.000 C 
BRANCH  12  13
ATOM     13  C   UNL     1      15.514   8.550 -14.652  1.00  0.00    -0.000 C 
BRANCH  13  14
ATOM     14  C   UNL     1      14.258   9.125 -15.329  1.00  0.00    -0.000 C 
BRANCH  14  15
ATOM     15  C   UNL     1      14.200  10.660 -15.273  1.00  0.00    -0.000 C 
BRANCH  15  16
ATOM     16  C   UNL     1      14.464  11.168 -13.848  1.00  0.00    -0.000 C 
BRANCH  16  17
ATOM     17  C   UNL     1      15.450  12.347 -13.815  1.00  0.00    -0.003 C 
ATOM     18  C   UNL     1      15.936  12.753 -15.206  1.00  0.00     0.004 C 
ENDBRANCH  16  17
ENDBRANCH  15  16
ENDBRANCH  14  15
ENDBRANCH  13  14
ENDBRANCH  12  13
ENDBRANCH  11  12
ENDBRANCH   1  11
TORSDOF 14
ENDMDL
MODEL 9
REMARK VINA RESULT:    -3.871      3.410      7.393
REMARK INTER + INTRA:          -8.166
REMARK INTER:                  -6.649
REMARK INTRA:                  -1.517
REMARK UNBOUND:                -1.127
REMARK SMILES CCCCCCCCCCCCCCCC(=O)[O-]
REMARK SMILES IDX 9 1 10 2 11 3 12 4 13 5 14 6 15 7 16 8 17 9 18 10 8 11 7 12
REMARK SMILES IDX 6 13 5 14 4 15 3 16 2 17 1 18
REMARK H PARENT
REMARK Flexibility Score: inf
ROOT
ATOM      1  C   UNL     1      15.243  12.510 -14.315  1.00  0.00     0.000 C 
ENDROOT
BRANCH   1   2
ATOM      2  C   UNL     1      14.812  11.136 -13.763  1.00  0.00     0.000 C 
BRANCH   2   3
ATOM      3  C   UNL     1      14.528  10.118 -14.887  1.00  0.00     0.000 C 
BRANCH   3   4
ATOM      4  C   UNL     1      15.354   8.824 -14.763  1.00  0.00     0.000 C 
BRANCH   4   5
ATOM      5  C   UNL     1      16.322   8.615 -15.936  1.00  0.00     0.000 C 
BRANCH   5   6
ATOM      6  C   UNL     1      17.764   8.940 -15.532  1.00  0.00     0.006 C 
BRANCH   6   7
ATOM      7  C   UNL     1      17.841   9.340 -14.055  1.00  0.00     0.053 C 
BRANCH   7   8
ATOM      8  C   UNL     1      18.919  10.355 -13.840  1.00  0.00     0.041 C 
ATOM      9  O   UNL     1      18.778  11.254 -12.972  1.00  0.00    -0.550 OA
ATOM     10  O   UNL     1      20.099  10.278 -14.567  1.00  0.00    -0.550 OA
ENDBRANCH   7   8
ENDBRANCH   6   7
ENDBRANCH   5   6
ENDBRANCH   4   5
ENDBRANCH   3   4
ENDBRANCH   2   3
ENDBRANCH   1   2
BRANCH   1  11
ATOM     11  C   UNL     1      15.682  12.444 -15.788  1.00  0.00     0.000 C 
BRANCH  11  12
ATOM     12  C   UNL     1      16.722  13.524 -16.125  1.00  0.00    -0.000 C 
BRANCH  12  13
ATOM     13  C   UNL     1      18.151  12.964 -16.075  1.00  0.00    -0.000 C 
BRANCH  13  14
ATOM     14  C   UNL     1      19.154  13.962 -15.471  1.00  0.00    -0.000 C 
BRANCH  14  15
ATOM     15  C   UNL     1      20.554  13.851 -16.094  1.00  0.00    -0.000 C 
BRANCH  15  16
ATOM     16  C   UNL     1      21.545  13.214 -15.110  1.00  0.00    -0.000 C 
BRANCH  16  17
ATOM     17  C   UNL     1      21.603  13.957 -13.765  1.00  0.00    -0.003 C 
ATOM     18  C   UNL     1      22.419  13.210 -12.710  1.00  0.00     0.004 C 
ENDBRANCH  16  17
ENDBRANCH  15  16
ENDBRANCH  14  15
ENDBRANCH  13  14
ENDBRANCH  12  13
ENDBRANCH  11  12
ENDBRANCH   1  11
TORSDOF 14
ENDMDL
