MODEL 1
REMARK VINA RESULT:    -7.095      0.000      0.000
REMARK INTER + INTRA:          -8.969
REMARK INTER:                  -8.547
REMARK INTRA:                  -0.422
REMARK UNBOUND:                -0.422
REMARK SMILES O=c1c(O)c(-c2ccc(O)cc2O)oc2cc(O)cc(O)c12
REMARK SMILES IDX 5 1 3 2 2 3 1 4 22 5 20 6 19 7 17 8 16 9 15 10 14 11 6 12
REMARK SMILES IDX 8 13 7 14 9 15 11 16 12 17 10 18 13 20 4 22 21 24 18 26
REMARK H PARENT 10 19 13 21 4 23 21 25 18 27
REMARK Flexibility Score: inf
ROOT
ATOM      1  C   UNL     1     -32.917  95.732   7.420  1.00  0.00     0.184 A 
ATOM      2  C   UNL     1     -34.157  95.099   7.240  1.00  0.00     0.208 A 
ATOM      3  C   UNL     1     -34.188  93.717   7.000  1.00  0.00     0.238 A 
ATOM      4  O   UNL     1     -35.299  93.166   6.784  1.00  0.00    -0.285 OA
ATOM      5  C   UNL     1     -32.979  92.981   6.964  1.00  0.00     0.111 A 
ATOM      6  C   UNL     1     -32.894  91.570   6.770  1.00  0.00     0.134 A 
ATOM      7  C   UNL     1     -31.639  90.966   6.624  1.00  0.00     0.093 A 
ATOM      8  C   UNL     1     -30.465  91.711   6.731  1.00  0.00     0.123 A 
ATOM      9  C   UNL     1     -30.535  93.082   6.982  1.00  0.00     0.094 A 
ATOM     10  C   UNL     1     -31.773  93.719   7.094  1.00  0.00     0.146 A 
ATOM     11  O   UNL     1     -31.796  95.027   7.321  1.00  0.00    -0.451 OA
ENDROOT
BRANCH   1  12
ATOM     12  C   UNL     1     -32.812  97.184   7.700  1.00  0.00     0.063 A 
ATOM     13  C   UNL     1     -33.002  99.494   6.958  1.00  0.00     0.047 A 
ATOM     14  C   UNL     1     -33.073  98.125   6.688  1.00  0.00     0.020 A 
ATOM     15  C   UNL     1     -32.680  99.942   8.244  1.00  0.00     0.119 A 
ATOM     16  C   UNL     1     -32.432  99.015   9.260  1.00  0.00     0.093 A 
ATOM     17  C   UNL     1     -32.500  97.638   8.998  1.00  0.00     0.130 A 
BRANCH  15  18
ATOM     18  O   UNL     1     -32.607 101.305   8.524  1.00  0.00    -0.508 OA
ATOM     19  H   UNL     1     -32.006 101.924   7.992  1.00  0.00     0.293 HD
ENDBRANCH  15  18
BRANCH  17  20
ATOM     20  O   UNL     1     -32.243  96.724  10.020  1.00  0.00    -0.507 OA
ATOM     21  H   UNL     1     -32.962  96.103  10.372  1.00  0.00     0.293 HD
ENDBRANCH  17  20
ENDBRANCH   1  12
BRANCH   2  22
ATOM     22  O   UNL     1     -35.336  95.850   7.266  1.00  0.00    -0.502 OA
ATOM     23  H   UNL     1     -36.250  95.423   7.366  1.00  0.00     0.293 HD
ENDBRANCH   2  22
BRANCH   6  24
ATOM     24  O   UNL     1     -34.003  90.718   6.739  1.00  0.00    -0.507 OA
ATOM     25  H   UNL     1     -34.016  89.808   6.303  1.00  0.00     0.293 HD
ENDBRANCH   6  24
BRANCH   8  26
ATOM     26  O   UNL     1     -29.233  91.075   6.597  1.00  0.00    -0.508 OA
ATOM     27  H   UNL     1     -28.475  91.494   6.071  1.00  0.00     0.293 HD
ENDBRANCH   8  26
TORSDOF 6
ENDMDL
MODEL 2
REMARK VINA RESULT:    -7.082      2.103      6.851
REMARK INTER + INTRA:          -8.953
REMARK INTER:                  -8.683
REMARK INTRA:                  -0.270
REMARK UNBOUND:                -0.422
REMARK SMILES O=c1c(O)c(-c2ccc(O)cc2O)oc2cc(O)cc(O)c12
REMARK SMILES IDX 5 1 3 2 2 3 1 4 22 5 20 6 19 7 17 8 16 9 15 10 14 11 6 12
REMARK SMILES IDX 8 13 7 14 9 15 11 16 12 17 10 18 13 20 4 22 21 24 18 26
REMARK H PARENT 10 19 13 21 4 23 21 25 18 27
REMARK Flexibility Score: inf
ROOT
ATOM      1  C   UNL     1     -33.564  95.151   8.149  1.00  0.00     0.184 A 
ATOM      2  C   UNL     1     -32.803  95.141   9.329  1.00  0.00     0.208 A 
ATOM      3  C   UNL     1     -32.372  96.361   9.872  1.00  0.00     0.238 A 
ATOM      4  O   UNL     1     -31.642  96.342  10.898  1.00  0.00    -0.285 OA
ATOM      5  C   UNL     1     -32.726  97.577   9.240  1.00  0.00     0.111 A 
ATOM      6  C   UNL     1     -32.379  98.874   9.725  1.00  0.00     0.134 A 
ATOM      7  C   UNL     1     -32.673 100.003   8.950  1.00  0.00     0.093 A 
ATOM      8  C   UNL     1     -33.358  99.889   7.741  1.00  0.00     0.123 A 
ATOM      9  C   UNL     1     -33.755  98.630   7.287  1.00  0.00     0.094 A 
ATOM     10  C   UNL     1     -33.444  97.482   8.019  1.00  0.00     0.146 A 
ATOM     11  O   UNL     1     -33.830  96.303   7.546  1.00  0.00    -0.451 OA
ENDROOT
BRANCH   1  12
ATOM     12  C   UNL     1     -34.071  93.901   7.535  1.00  0.00     0.063 A 
ATOM     13  C   UNL     1     -34.011  92.257   5.741  1.00  0.00     0.047 A 
ATOM     14  C   UNL     1     -33.553  93.449   6.308  1.00  0.00     0.020 A 
ATOM     15  C   UNL     1     -34.985  91.494   6.396  1.00  0.00     0.119 A 
ATOM     16  C   UNL     1     -35.496  91.928   7.623  1.00  0.00     0.093 A 
ATOM     17  C   UNL     1     -35.043  93.125   8.199  1.00  0.00     0.130 A 
BRANCH  15  18
ATOM     18  O   UNL     1     -35.447  90.304   5.840  1.00  0.00    -0.508 OA
ATOM     19  H   UNL     1     -36.438  90.097   5.781  1.00  0.00     0.293 HD
ENDBRANCH  15  18
BRANCH  17  20
ATOM     20  O   UNL     1     -35.568  93.548   9.420  1.00  0.00    -0.507 OA
ATOM     21  H   UNL     1     -36.451  94.042   9.477  1.00  0.00     0.293 HD
ENDBRANCH  17  20
ENDBRANCH   1  12
BRANCH   2  22
ATOM     22  O   UNL     1     -32.454  93.926   9.927  1.00  0.00    -0.502 OA
ATOM     23  H   UNL     1     -33.109  93.384  10.478  1.00  0.00     0.293 HD
ENDBRANCH   2  22
BRANCH   6  24
ATOM     24  O   UNL     1     -31.773  99.109  10.963  1.00  0.00    -0.507 OA
ATOM     25  H   UNL     1     -31.616 100.021  11.363  1.00  0.00     0.293 HD
ENDBRANCH   6  24
BRANCH   8  26
ATOM     26  O   UNL     1     -33.648 101.034   7.004  1.00  0.00    -0.508 OA
ATOM     27  H   UNL     1     -34.601 101.291   6.777  1.00  0.00     0.293 HD
ENDBRANCH   8  26
TORSDOF 6
ENDMDL
MODEL 3
REMARK VINA RESULT:    -6.937      4.030      7.150
REMARK INTER + INTRA:          -8.778
REMARK INTER:                  -8.543
REMARK INTRA:                  -0.235
REMARK UNBOUND:                -0.422
REMARK SMILES O=c1c(O)c(-c2ccc(O)cc2O)oc2cc(O)cc(O)c12
REMARK SMILES IDX 5 1 3 2 2 3 1 4 22 5 20 6 19 7 17 8 16 9 15 10 14 11 6 12
REMARK SMILES IDX 8 13 7 14 9 15 11 16 12 17 10 18 13 20 4 22 21 24 18 26
REMARK H PARENT 10 19 13 21 4 23 21 25 18 27
REMARK Flexibility Score: inf
ROOT
ATOM      1  C   UNL     1     -30.434  91.200   7.852  1.00  0.00     0.184 A 
ATOM      2  C   UNL     1     -30.617  91.164   6.460  1.00  0.00     0.208 A 
ATOM      3  C   UNL     1     -31.799  91.687   5.915  1.00  0.00     0.238 A 
ATOM      4  O   UNL     1     -31.981  91.601   4.672  1.00  0.00    -0.285 OA
ATOM      5  C   UNL     1     -32.775  92.259   6.766  1.00  0.00     0.111 A 
ATOM      6  C   UNL     1     -33.992  92.856   6.319  1.00  0.00     0.134 A 
ATOM      7  C   UNL     1     -34.942  93.275   7.258  1.00  0.00     0.093 A 
ATOM      8  C   UNL     1     -34.692  93.180   8.627  1.00  0.00     0.123 A 
ATOM      9  C   UNL     1     -33.480  92.653   9.075  1.00  0.00     0.094 A 
ATOM     10  C   UNL     1     -32.528  92.192   8.162  1.00  0.00     0.146 A 
ATOM     11  O   UNL     1     -31.393  91.688   8.631  1.00  0.00    -0.451 OA
ENDROOT
BRANCH   1  12
ATOM     12  C   UNL     1     -29.200  90.686   8.492  1.00  0.00     0.063 A 
ATOM     13  C   UNL     1     -28.082  89.054   9.911  1.00  0.00     0.047 A 
ATOM     14  C   UNL     1     -29.249  89.556   9.328  1.00  0.00     0.020 A 
ATOM     15  C   UNL     1     -26.850  89.668   9.659  1.00  0.00     0.119 A 
ATOM     16  C   UNL     1     -26.789  90.784   8.819  1.00  0.00     0.093 A 
ATOM     17  C   UNL     1     -27.956  91.295   8.230  1.00  0.00     0.130 A 
BRANCH  15  18
ATOM     18  O   UNL     1     -25.680  89.176  10.234  1.00  0.00    -0.508 OA
ATOM     19  H   UNL     1     -25.214  89.667  10.988  1.00  0.00     0.293 HD
ENDBRANCH  15  18
BRANCH  17  20
ATOM     20  O   UNL     1     -27.881  92.413   7.400  1.00  0.00    -0.507 OA
ATOM     21  H   UNL     1     -27.554  93.309   7.742  1.00  0.00     0.293 HD
ENDBRANCH  17  20
ENDBRANCH   1  12
BRANCH   2  22
ATOM     22  O   UNL     1     -29.645  90.581   5.641  1.00  0.00    -0.502 OA
ATOM     23  H   UNL     1     -29.628  89.588   5.441  1.00  0.00     0.293 HD
ENDBRANCH   2  22
BRANCH   6  24
ATOM     24  O   UNL     1     -34.303  93.083   4.974  1.00  0.00    -0.507 OA
ATOM     25  H   UNL     1     -34.468  93.991   4.568  1.00  0.00     0.293 HD
ENDBRANCH   6  24
BRANCH   8  26
ATOM     26  O   UNL     1     -35.653  93.622   9.533  1.00  0.00    -0.508 OA
ATOM     27  H   UNL     1     -36.564  93.183   9.596  1.00  0.00     0.293 HD
ENDBRANCH   8  26
TORSDOF 6
ENDMDL
MODEL 4
REMARK VINA RESULT:    -6.804     16.566     18.069
REMARK INTER + INTRA:          -8.617
REMARK INTER:                  -8.142
REMARK INTRA:                  -0.475
REMARK UNBOUND:                -0.422
REMARK SMILES O=c1c(O)c(-c2ccc(O)cc2O)oc2cc(O)cc(O)c12
REMARK SMILES IDX 5 1 3 2 2 3 1 4 22 5 20 6 19 7 17 8 16 9 15 10 14 11 6 12
REMARK SMILES IDX 8 13 7 14 9 15 11 16 12 17 10 18 13 20 4 22 21 24 18 26
REMARK H PARENT 10 19 13 21 4 23 21 25 18 27
REMARK Flexibility Score: inf
ROOT
ATOM      1  C   UNL     1     -20.977  97.758  -5.979  1.00  0.00     0.184 A 
ATOM      2  C   UNL     1     -19.607  98.003  -5.791  1.00  0.00     0.208 A 
ATOM      3  C   UNL     1     -18.811  97.005  -5.208  1.00  0.00     0.238 A 
ATOM      4  O   UNL     1     -17.595  97.252  -4.991  1.00  0.00    -0.285 OA
ATOM      5  C   UNL     1     -19.390  95.768  -4.838  1.00  0.00     0.111 A 
ATOM      6  C   UNL     1     -18.670  94.671  -4.276  1.00  0.00     0.134 A 
ATOM      7  C   UNL     1     -19.368  93.542  -3.830  1.00  0.00     0.093 A 
ATOM      8  C   UNL     1     -20.751  93.442  -3.984  1.00  0.00     0.123 A 
ATOM      9  C   UNL     1     -21.457  94.484  -4.588  1.00  0.00     0.094 A 
ATOM     10  C   UNL     1     -20.794  95.639  -5.009  1.00  0.00     0.146 A 
ATOM     11  O   UNL     1     -21.505  96.611  -5.567  1.00  0.00    -0.451 OA
ENDROOT
BRANCH   1  12
ATOM     12  C   UNL     1     -21.870  98.758  -6.610  1.00  0.00     0.063 A 
ATOM     13  C   UNL     1     -22.661  99.924  -8.595  1.00  0.00     0.047 A 
ATOM     14  C   UNL     1     -21.801  99.002  -7.993  1.00  0.00     0.020 A 
ATOM     15  C   UNL     1     -23.610 100.607  -7.825  1.00  0.00     0.119 A 
ATOM     16  C   UNL     1     -23.697 100.361  -6.452  1.00  0.00     0.093 A 
ATOM     17  C   UNL     1     -22.835  99.438  -5.840  1.00  0.00     0.130 A 
BRANCH  15  18
ATOM     18  O   UNL     1     -24.474 101.528  -8.415  1.00  0.00    -0.508 OA
ATOM     19  H   UNL     1     -24.542 102.481  -8.077  1.00  0.00     0.293 HD
ENDBRANCH  15  18
BRANCH  17  20
ATOM     20  O   UNL     1     -22.928  99.208  -4.467  1.00  0.00    -0.507 OA
ATOM     21  H   UNL     1     -23.534  99.764  -3.874  1.00  0.00     0.293 HD
ENDBRANCH  17  20
ENDBRANCH   1  12
BRANCH   2  22
ATOM     22  O   UNL     1     -19.060  99.238  -6.152  1.00  0.00    -0.502 OA
ATOM     23  H   UNL     1     -19.577  99.926  -6.687  1.00  0.00     0.293 HD
ENDBRANCH   2  22
BRANCH   6  24
ATOM     24  O   UNL     1     -17.278  94.629  -4.159  1.00  0.00    -0.507 OA
ATOM     25  H   UNL     1     -16.677  93.991  -4.660  1.00  0.00     0.293 HD
ENDBRANCH   6  24
BRANCH   8  26
ATOM     26  O   UNL     1     -21.411  92.298  -3.543  1.00  0.00    -0.508 OA
ATOM     27  H   UNL     1     -21.117  91.804  -2.709  1.00  0.00     0.293 HD
ENDBRANCH   8  26
TORSDOF 6
ENDMDL
MODEL 5
REMARK VINA RESULT:    -6.765     16.730     18.354
REMARK INTER + INTRA:          -8.570
REMARK INTER:                  -8.153
REMARK INTRA:                  -0.417
REMARK UNBOUND:                -0.422
REMARK SMILES O=c1c(O)c(-c2ccc(O)cc2O)oc2cc(O)cc(O)c12
REMARK SMILES IDX 5 1 3 2 2 3 1 4 22 5 20 6 19 7 17 8 16 9 15 10 14 11 6 12
REMARK SMILES IDX 8 13 7 14 9 15 11 16 12 17 10 18 13 20 4 22 21 24 18 26
REMARK H PARENT 10 19 13 21 4 23 21 25 18 27
REMARK Flexibility Score: inf
ROOT
ATOM      1  C   UNL     1     -20.369  97.471  -5.589  1.00  0.00     0.184 A 
ATOM      2  C   UNL     1     -18.988  97.624  -5.388  1.00  0.00     0.208 A 
ATOM      3  C   UNL     1     -18.257  96.557  -4.843  1.00  0.00     0.238 A 
ATOM      4  O   UNL     1     -17.030  96.721  -4.613  1.00  0.00    -0.285 OA
ATOM      5  C   UNL     1     -18.913  95.343  -4.526  1.00  0.00     0.111 A 
ATOM      6  C   UNL     1     -18.264  94.182  -4.008  1.00  0.00     0.134 A 
ATOM      7  C   UNL     1     -19.031  93.081  -3.611  1.00  0.00     0.093 A 
ATOM      8  C   UNL     1     -20.417  93.072  -3.773  1.00  0.00     0.123 A 
ATOM      9  C   UNL     1     -21.055  94.178  -4.335  1.00  0.00     0.094 A 
ATOM     10  C   UNL     1     -20.321  95.307  -4.707  1.00  0.00     0.146 A 
ATOM     11  O   UNL     1     -20.968  96.343  -5.226  1.00  0.00    -0.451 OA
ENDROOT
BRANCH   1  12
ATOM     12  C   UNL     1     -21.198  98.548  -6.181  1.00  0.00     0.063 A 
ATOM     13  C   UNL     1     -22.229 100.747  -6.019  1.00  0.00     0.047 A 
ATOM     14  C   UNL     1     -21.471  99.719  -5.452  1.00  0.00     0.020 A 
ATOM     15  C   UNL     1     -22.715 100.624  -7.326  1.00  0.00     0.119 A 
ATOM     16  C   UNL     1     -22.437  99.470  -8.064  1.00  0.00     0.093 A 
ATOM     17  C   UNL     1     -21.678  98.432  -7.501  1.00  0.00     0.130 A 
BRANCH  15  18
ATOM     18  O   UNL     1     -23.471 101.643  -7.901  1.00  0.00    -0.508 OA
ATOM     19  H   UNL     1     -24.159 102.159  -7.366  1.00  0.00     0.293 HD
ENDBRANCH  15  18
BRANCH  17  20
ATOM     20  O   UNL     1     -21.415  97.284  -8.248  1.00  0.00    -0.507 OA
ATOM     21  H   UNL     1     -21.175  97.331  -9.231  1.00  0.00     0.293 HD
ENDBRANCH  17  20
ENDBRANCH   1  12
BRANCH   2  22
ATOM     22  O   UNL     1     -18.366  98.838  -5.695  1.00  0.00    -0.502 OA
ATOM     23  H   UNL     1     -17.396  99.023  -5.468  1.00  0.00     0.293 HD
ENDBRANCH   2  22
BRANCH   6  24
ATOM     24  O   UNL     1     -16.877  94.051  -3.889  1.00  0.00    -0.507 OA
ATOM     25  H   UNL     1     -16.292  93.532  -4.526  1.00  0.00     0.293 HD
ENDBRANCH   6  24
BRANCH   8  26
ATOM     26  O   UNL     1     -21.148  91.952  -3.382  1.00  0.00    -0.508 OA
ATOM     27  H   UNL     1     -20.835  91.352  -2.628  1.00  0.00     0.293 HD
ENDBRANCH   8  26
TORSDOF 6
ENDMDL
MODEL 6
REMARK VINA RESULT:    -6.599      3.787      6.804
REMARK INTER + INTRA:          -8.371
REMARK INTER:                  -7.958
REMARK INTRA:                  -0.412
REMARK UNBOUND:                -0.422
REMARK SMILES O=c1c(O)c(-c2ccc(O)cc2O)oc2cc(O)cc(O)c12
REMARK SMILES IDX 5 1 3 2 2 3 1 4 22 5 20 6 19 7 17 8 16 9 15 10 14 11 6 12
REMARK SMILES IDX 8 13 7 14 9 15 11 16 12 17 10 18 13 20 4 22 21 24 18 26
REMARK H PARENT 10 19 13 21 4 23 21 25 18 27
REMARK Flexibility Score: inf
ROOT
ATOM      1  C   UNL     1     -30.647  91.885   8.869  1.00  0.00     0.184 A 
ATOM      2  C   UNL     1     -31.306  92.598   9.883  1.00  0.00     0.208 A 
ATOM      3  C   UNL     1     -32.570  93.148   9.618  1.00  0.00     0.238 A 
ATOM      4  O   UNL     1     -33.131  93.833  10.513  1.00  0.00    -0.285 OA
ATOM      5  C   UNL     1     -33.167  92.961   8.348  1.00  0.00     0.111 A 
ATOM      6  C   UNL     1     -34.461  93.439   7.982  1.00  0.00     0.134 A 
ATOM      7  C   UNL     1     -34.898  93.307   6.658  1.00  0.00     0.093 A 
ATOM      8  C   UNL     1     -34.116  92.657   5.703  1.00  0.00     0.123 A 
ATOM      9  C   UNL     1     -32.875  92.132   6.065  1.00  0.00     0.094 A 
ATOM     10  C   UNL     1     -32.396  92.281   7.369  1.00  0.00     0.146 A 
ATOM     11  O   UNL     1     -31.204  91.778   7.669  1.00  0.00    -0.451 OA
ENDROOT
BRANCH   1  12
ATOM     12  C   UNL     1     -29.322  91.259   9.088  1.00  0.00     0.063 A 
ATOM     13  C   UNL     1     -27.926  89.617  10.222  1.00  0.00     0.047 A 
ATOM     14  C   UNL     1     -29.169  90.228  10.033  1.00  0.00     0.020 A 
ATOM     15  C   UNL     1     -26.822  90.020   9.462  1.00  0.00     0.119 A 
ATOM     16  C   UNL     1     -26.967  91.034   8.510  1.00  0.00     0.093 A 
ATOM     17  C   UNL     1     -28.211  91.653   8.316  1.00  0.00     0.130 A 
BRANCH  15  18
ATOM     18  O   UNL     1     -25.579  89.417   9.641  1.00  0.00    -0.508 OA
ATOM     19  H   UNL     1     -24.991  89.172   8.853  1.00  0.00     0.293 HD
ENDBRANCH  15  18
BRANCH  17  20
ATOM     20  O   UNL     1     -28.338  92.669   7.368  1.00  0.00    -0.507 OA
ATOM     21  H   UNL     1     -27.786  93.517   7.418  1.00  0.00     0.293 HD
ENDBRANCH  17  20
ENDBRANCH   1  12
BRANCH   2  22
ATOM     22  O   UNL     1     -30.690  92.781  11.125  1.00  0.00    -0.502 OA
ATOM     23  H   UNL     1     -29.831  92.309  11.380  1.00  0.00     0.293 HD
ENDBRANCH   2  22
BRANCH   6  24
ATOM     24  O   UNL     1     -35.361  94.022   8.880  1.00  0.00    -0.507 OA
ATOM     25  H   UNL     1     -35.662  93.603   9.746  1.00  0.00     0.293 HD
ENDBRANCH   6  24
BRANCH   8  26
ATOM     26  O   UNL     1     -34.589  92.529   4.399  1.00  0.00    -0.508 OA
ATOM     27  H   UNL     1     -33.964  92.571   3.603  1.00  0.00     0.293 HD
ENDBRANCH   8  26
TORSDOF 6
ENDMDL
MODEL 7
REMARK VINA RESULT:    -6.533      1.196      2.818
REMARK INTER + INTRA:          -8.291
REMARK INTER:                  -7.962
REMARK INTRA:                  -0.329
REMARK UNBOUND:                -0.422
REMARK SMILES O=c1c(O)c(-c2ccc(O)cc2O)oc2cc(O)cc(O)c12
REMARK SMILES IDX 5 1 3 2 2 3 1 4 22 5 20 6 19 7 17 8 16 9 15 10 14 11 6 12
REMARK SMILES IDX 8 13 7 14 9 15 11 16 12 17 10 18 13 20 4 22 21 24 18 26
REMARK H PARENT 10 19 13 21 4 23 21 25 18 27
REMARK Flexibility Score: inf
ROOT
ATOM      1  C   UNL     1     -32.440  95.541   7.414  1.00  0.00     0.184 A 
ATOM      2  C   UNL     1     -31.173  94.944   7.518  1.00  0.00     0.208 A 
ATOM      3  C   UNL     1     -31.050  93.565   7.288  1.00  0.00     0.238 A 
ATOM      4  O   UNL     1     -29.921  93.026   7.438  1.00  0.00    -0.285 OA
ATOM      5  C   UNL     1     -32.190  92.804   6.937  1.00  0.00     0.111 A 
ATOM      6  C   UNL     1     -32.174  91.407   6.642  1.00  0.00     0.134 A 
ATOM      7  C   UNL     1     -33.383  90.732   6.432  1.00  0.00     0.093 A 
ATOM      8  C   UNL     1     -34.600  91.412   6.441  1.00  0.00     0.123 A 
ATOM      9  C   UNL     1     -34.622  92.789   6.669  1.00  0.00     0.094 A 
ATOM     10  C   UNL     1     -33.436  93.485   6.918  1.00  0.00     0.146 A 
ATOM     11  O   UNL     1     -33.502  94.792   7.142  1.00  0.00    -0.451 OA
ENDROOT
BRANCH   1  12
ATOM     12  C   UNL     1     -32.638  96.995   7.620  1.00  0.00     0.063 A 
ATOM     13  C   UNL     1     -33.157  99.200   6.729  1.00  0.00     0.047 A 
ATOM     14  C   UNL     1     -32.942  97.833   6.532  1.00  0.00     0.020 A 
ATOM     15  C   UNL     1     -33.080  99.746   8.015  1.00  0.00     0.119 A 
ATOM     16  C   UNL     1     -32.793  98.919   9.105  1.00  0.00     0.093 A 
ATOM     17  C   UNL     1     -32.575  97.546   8.916  1.00  0.00     0.130 A 
BRANCH  15  18
ATOM     18  O   UNL     1     -33.293 101.107   8.223  1.00  0.00    -0.508 OA
ATOM     19  H   UNL     1     -34.120 101.574   7.869  1.00  0.00     0.293 HD
ENDBRANCH  15  18
BRANCH  17  20
ATOM     20  O   UNL     1     -32.281  96.734  10.012  1.00  0.00    -0.507 OA
ATOM     21  H   UNL     1     -32.013  97.124  10.907  1.00  0.00     0.293 HD
ENDBRANCH  17  20
ENDBRANCH   1  12
BRANCH   2  22
ATOM     22  O   UNL     1     -30.063  95.713   7.880  1.00  0.00    -0.502 OA
ATOM     23  H   UNL     1     -29.199  95.701   7.352  1.00  0.00     0.293 HD
ENDBRANCH   2  22
BRANCH   6  24
ATOM     24  O   UNL     1     -31.007  90.648   6.519  1.00  0.00    -0.507 OA
ATOM     25  H   UNL     1     -30.536  90.189   7.284  1.00  0.00     0.293 HD
ENDBRANCH   6  24
BRANCH   8  26
ATOM     26  O   UNL     1     -35.782  90.711   6.212  1.00  0.00    -0.508 OA
ATOM     27  H   UNL     1     -36.333  90.861   5.376  1.00  0.00     0.293 HD
ENDBRANCH   8  26
TORSDOF 6
ENDMDL
MODEL 8
REMARK VINA RESULT:    -6.511     16.443     19.289
REMARK INTER + INTRA:          -8.265
REMARK INTER:                  -7.933
REMARK INTRA:                  -0.332
REMARK UNBOUND:                -0.422
REMARK SMILES O=c1c(O)c(-c2ccc(O)cc2O)oc2cc(O)cc(O)c12
REMARK SMILES IDX 5 1 3 2 2 3 1 4 22 5 20 6 19 7 17 8 16 9 15 10 14 11 6 12
REMARK SMILES IDX 8 13 7 14 9 15 11 16 12 17 10 18 13 20 4 22 21 24 18 26
REMARK H PARENT 10 19 13 21 4 23 21 25 18 27
REMARK Flexibility Score: inf
ROOT
ATOM      1  C   UNL     1     -20.327  92.742  -5.883  1.00  0.00     0.184 A 
ATOM      2  C   UNL     1     -20.094  93.330  -7.136  1.00  0.00     0.208 A 
ATOM      3  C   UNL     1     -19.292  94.479  -7.210  1.00  0.00     0.238 A 
ATOM      4  O   UNL     1     -19.133  95.034  -8.329  1.00  0.00    -0.285 OA
ATOM      5  C   UNL     1     -18.715  95.013  -6.033  1.00  0.00     0.111 A 
ATOM      6  C   UNL     1     -17.853  96.150  -5.996  1.00  0.00     0.134 A 
ATOM      7  C   UNL     1     -17.444  96.667  -4.760  1.00  0.00     0.093 A 
ATOM      8  C   UNL     1     -17.812  96.051  -3.564  1.00  0.00     0.123 A 
ATOM      9  C   UNL     1     -18.606  94.904  -3.592  1.00  0.00     0.094 A 
ATOM     10  C   UNL     1     -19.060  94.386  -4.807  1.00  0.00     0.146 A 
ATOM     11  O   UNL     1     -19.823  93.299  -4.788  1.00  0.00    -0.451 OA
ENDROOT
BRANCH   1  12
ATOM     12  C   UNL     1     -21.145  91.514  -5.735  1.00  0.00     0.063 A 
ATOM     13  C   UNL     1     -21.563  89.180  -6.283  1.00  0.00     0.047 A 
ATOM     14  C   UNL     1     -20.810  90.346  -6.443  1.00  0.00     0.020 A 
ATOM     15  C   UNL     1     -22.655  89.162  -5.407  1.00  0.00     0.119 A 
ATOM     16  C   UNL     1     -22.987  90.314  -4.688  1.00  0.00     0.093 A 
ATOM     17  C   UNL     1     -22.237  91.489  -4.844  1.00  0.00     0.130 A 
BRANCH  15  18
ATOM     18  O   UNL     1     -23.412  88.004  -5.240  1.00  0.00    -0.508 OA
ATOM     19  H   UNL     1     -23.028  87.087  -5.436  1.00  0.00     0.293 HD
ENDBRANCH  15  18
BRANCH  17  20
ATOM     20  O   UNL     1     -22.585  92.633  -4.125  1.00  0.00    -0.507 OA
ATOM     21  H   UNL     1     -21.884  93.280  -3.781  1.00  0.00     0.293 HD
ENDBRANCH  17  20
ENDBRANCH   1  12
BRANCH   2  22
ATOM     22  O   UNL     1     -20.686  92.793  -8.283  1.00  0.00    -0.502 OA
ATOM     23  H   UNL     1     -21.011  91.834  -8.328  1.00  0.00     0.293 HD
ENDBRANCH   2  22
BRANCH   6  24
ATOM     24  O   UNL     1     -17.351  96.787  -7.135  1.00  0.00    -0.507 OA
ATOM     25  H   UNL     1     -16.714  97.569  -7.122  1.00  0.00     0.293 HD
ENDBRANCH   6  24
BRANCH   8  26
ATOM     26  O   UNL     1     -17.374  96.584  -2.354  1.00  0.00    -0.508 OA
ATOM     27  H   UNL     1     -16.709  97.348  -2.321  1.00  0.00     0.293 HD
ENDBRANCH   8  26
TORSDOF 6
ENDMDL
MODEL 9
REMARK VINA RESULT:    -6.417      2.764      7.007
REMARK INTER + INTRA:          -8.151
REMARK INTER:                  -7.844
REMARK INTRA:                  -0.307
REMARK UNBOUND:                -0.422
REMARK SMILES O=c1c(O)c(-c2ccc(O)cc2O)oc2cc(O)cc(O)c12
REMARK SMILES IDX 5 1 3 2 2 3 1 4 22 5 20 6 19 7 17 8 16 9 15 10 14 11 6 12
REMARK SMILES IDX 8 13 7 14 9 15 11 16 12 17 10 18 13 20 4 22 21 24 18 26
REMARK H PARENT 10 19 13 21 4 23 21 25 18 27
REMARK Flexibility Score: inf
ROOT
ATOM      1  C   UNL     1     -30.337  92.708   8.658  1.00  0.00     0.184 A 
ATOM      2  C   UNL     1     -29.943  94.008   8.301  1.00  0.00     0.208 A 
ATOM      3  C   UNL     1     -30.904  94.896   7.794  1.00  0.00     0.238 A 
ATOM      4  O   UNL     1     -30.533  96.040   7.423  1.00  0.00    -0.285 OA
ATOM      5  C   UNL     1     -32.252  94.480   7.670  1.00  0.00     0.111 A 
ATOM      6  C   UNL     1     -33.317  95.309   7.207  1.00  0.00     0.134 A 
ATOM      7  C   UNL     1     -34.586  94.755   7.004  1.00  0.00     0.093 A 
ATOM      8  C   UNL     1     -34.846  93.419   7.309  1.00  0.00     0.123 A 
ATOM      9  C   UNL     1     -33.826  92.614   7.819  1.00  0.00     0.094 A 
ATOM     10  C   UNL     1     -32.540  93.129   7.998  1.00  0.00     0.146 A 
ATOM     11  O   UNL     1     -31.596  92.327   8.475  1.00  0.00    -0.451 OA
ENDROOT
BRANCH   1  12
ATOM     12  C   UNL     1     -29.380  91.727   9.222  1.00  0.00     0.063 A 
ATOM     13  C   UNL     1     -28.614  90.356  11.082  1.00  0.00     0.047 A 
ATOM     14  C   UNL     1     -29.499  91.302  10.557  1.00  0.00     0.020 A 
ATOM     15  C   UNL     1     -27.604  89.816  10.278  1.00  0.00     0.119 A 
ATOM     16  C   UNL     1     -27.486  90.222   8.946  1.00  0.00     0.093 A 
ATOM     17  C   UNL     1     -28.369  91.172   8.411  1.00  0.00     0.130 A 
BRANCH  15  18
ATOM     18  O   UNL     1     -26.716  88.872  10.791  1.00  0.00    -0.508 OA
ATOM     19  H   UNL     1     -27.027  87.948  11.065  1.00  0.00     0.293 HD
ENDBRANCH  15  18
BRANCH  17  20
ATOM     20  O   UNL     1     -28.234  91.573   7.082  1.00  0.00    -0.507 OA
ATOM     21  H   UNL     1     -28.112  90.902   6.333  1.00  0.00     0.293 HD
ENDBRANCH  17  20
ENDBRANCH   1  12
BRANCH   2  22
ATOM     22  O   UNL     1     -28.604  94.391   8.419  1.00  0.00    -0.502 OA
ATOM     23  H   UNL     1     -27.878  94.020   7.817  1.00  0.00     0.293 HD
ENDBRANCH   2  22
BRANCH   6  24
ATOM     24  O   UNL     1     -33.189  96.679   6.959  1.00  0.00    -0.507 OA
ATOM     25  H   UNL     1     -32.460  97.266   7.336  1.00  0.00     0.293 HD
ENDBRANCH   6  24
BRANCH   8  26
ATOM     26  O   UNL     1     -36.125  92.904   7.109  1.00  0.00    -0.508 OA
ATOM     27  H   UNL     1     -36.589  92.972   6.212  1.00  0.00     0.293 HD
ENDBRANCH   8  26
TORSDOF 6
ENDMDL
