MODEL 1
REMARK VINA RESULT:    15.754      0.000      0.000
REMARK INTER + INTRA:          27.917
REMARK INTER:                  28.647
REMARK INTRA:                  -0.730
REMARK UNBOUND:                -0.730
REMARK SMILES CCCCCCCCCCCCCCCC(=O)[O-]
REMARK SMILES IDX 9 1 10 2 11 3 12 4 13 5 14 6 15 7 16 8 17 9 18 10 8 11 7 12
REMARK SMILES IDX 6 13 5 14 4 15 3 16 2 17 1 18
REMARK H PARENT
REMARK Flexibility Score: inf
ROOT
ATOM      1  C   UNL     1      56.400  45.815  20.862  1.00  0.00     0.000 C 
ENDROOT
BRANCH   1   2
ATOM      2  C   UNL     1      55.392  44.980  20.057  1.00  0.00     0.000 C 
BRANCH   2   3
ATOM      3  C   UNL     1      55.903  43.563  19.751  1.00  0.00     0.000 C 
BRANCH   3   4
ATOM      4  C   UNL     1      56.259  42.820  21.047  1.00  0.00     0.000 C 
BRANCH   4   5
ATOM      5  C   UNL     1      55.230  41.739  21.415  1.00  0.00     0.000 C 
BRANCH   5   6
ATOM      6  C   UNL     1      55.389  40.460  20.575  1.00  0.00     0.006 C 
BRANCH   6   7
ATOM      7  C   UNL     1      55.611  39.218  21.449  1.00  0.00     0.053 C 
BRANCH   7   8
ATOM      8  C   UNL     1      56.878  38.504  21.089  1.00  0.00     0.041 C 
ATOM      9  O   UNL     1      57.005  37.276  21.337  1.00  0.00    -0.550 OA
ATOM     10  O   UNL     1      57.932  39.203  20.514  1.00  0.00    -0.550 OA
ENDBRANCH   7   8
ENDBRANCH   6   7
ENDBRANCH   5   6
ENDBRANCH   4   5
ENDBRANCH   3   4
ENDBRANCH   2   3
ENDBRANCH   1   2
BRANCH   1  11
ATOM     11  C   UNL     1      56.195  47.339  20.770  1.00  0.00     0.000 C 
BRANCH  11  12
ATOM     12  C   UNL     1      55.879  47.837  19.343  1.00  0.00    -0.000 C 
BRANCH  12  13
ATOM     13  C   UNL     1      57.110  47.788  18.423  1.00  0.00    -0.000 C 
BRANCH  13  14
ATOM     14  C   UNL     1      56.864  48.440  17.050  1.00  0.00    -0.000 C 
BRANCH  14  15
ATOM     15  C   UNL     1      55.630  49.357  16.972  1.00  0.00    -0.000 C 
BRANCH  15  16
ATOM     16  C   UNL     1      55.736  50.408  15.855  1.00  0.00    -0.000 C 
BRANCH  16  17
ATOM     17  C   UNL     1      54.497  50.431  14.947  1.00  0.00    -0.003 C 
ATOM     18  C   UNL     1      53.268  49.798  15.601  1.00  0.00     0.004 C 
ENDBRANCH  16  17
ENDBRANCH  15  16
ENDBRANCH  14  15
ENDBRANCH  13  14
ENDBRANCH  12  13
ENDBRANCH  11  12
ENDBRANCH   1  11
TORSDOF 14
ENDMDL
MODEL 2
REMARK VINA RESULT:    17.234      1.496      2.220
REMARK INTER + INTRA:          30.609
REMARK INTER:                  31.468
REMARK INTRA:                  -0.859
REMARK UNBOUND:                -0.730
REMARK SMILES CCCCCCCCCCCCCCCC(=O)[O-]
REMARK SMILES IDX 9 1 10 2 11 3 12 4 13 5 14 6 15 7 16 8 17 9 18 10 8 11 7 12
REMARK SMILES IDX 6 13 5 14 4 15 3 16 2 17 1 18
REMARK H PARENT
REMARK Flexibility Score: inf
ROOT
ATOM      1  C   UNL     1      56.944  48.041  21.819  1.00  0.00     0.000 C 
ENDROOT
BRANCH   1   2
ATOM      2  C   UNL     1      57.702  46.808  22.337  1.00  0.00     0.000 C 
BRANCH   2   3
ATOM      3  C   UNL     1      56.763  45.706  22.854  1.00  0.00     0.000 C 
BRANCH   3   4
ATOM      4  C   UNL     1      57.175  44.335  22.299  1.00  0.00     0.000 C 
BRANCH   4   5
ATOM      5  C   UNL     1      56.377  43.937  21.047  1.00  0.00     0.000 C 
BRANCH   5   6
ATOM      6  C   UNL     1      56.471  42.433  20.738  1.00  0.00     0.006 C 
BRANCH   6   7
ATOM      7  C   UNL     1      55.340  41.633  21.400  1.00  0.00     0.053 C 
BRANCH   7   8
ATOM      8  C   UNL     1      55.169  40.284  20.770  1.00  0.00     0.041 C 
ATOM      9  O   UNL     1      54.072  39.967  20.239  1.00  0.00    -0.550 OA
ATOM     10  O   UNL     1      56.210  39.365  20.801  1.00  0.00    -0.550 OA
ENDBRANCH   7   8
ENDBRANCH   6   7
ENDBRANCH   5   6
ENDBRANCH   4   5
ENDBRANCH   3   4
ENDBRANCH   2   3
ENDBRANCH   1   2
BRANCH   1  11
ATOM     11  C   UNL     1      55.852  47.736  20.777  1.00  0.00     0.000 C 
BRANCH  11  12
ATOM     12  C   UNL     1      56.400  47.146  19.459  1.00  0.00    -0.000 C 
BRANCH  12  13
ATOM     13  C   UNL     1      57.217  48.174  18.658  1.00  0.00    -0.000 C 
BRANCH  13  14
ATOM     14  C   UNL     1      57.128  47.960  17.135  1.00  0.00    -0.000 C 
BRANCH  14  15
ATOM     15  C   UNL     1      56.789  49.217  16.315  1.00  0.00    -0.000 C 
BRANCH  15  16
ATOM     16  C   UNL     1      55.300  49.594  16.387  1.00  0.00    -0.000 C 
BRANCH  16  17
ATOM     17  C   UNL     1      54.808  50.298  15.113  1.00  0.00    -0.003 C 
ATOM     18  C   UNL     1      53.300  50.549  15.116  1.00  0.00     0.004 C 
ENDBRANCH  16  17
ENDBRANCH  15  16
ENDBRANCH  14  15
ENDBRANCH  13  14
ENDBRANCH  12  13
ENDBRANCH  11  12
ENDBRANCH   1  11
TORSDOF 14
ENDMDL
MODEL 3
REMARK VINA RESULT:    17.587      4.488      9.548
REMARK INTER + INTRA:          31.251
REMARK INTER:                  31.936
REMARK INTRA:                  -0.685
REMARK UNBOUND:                -0.730
REMARK SMILES CCCCCCCCCCCCCCCC(=O)[O-]
REMARK SMILES IDX 9 1 10 2 11 3 12 4 13 5 14 6 15 7 16 8 17 9 18 10 8 11 7 12
REMARK SMILES IDX 6 13 5 14 4 15 3 16 2 17 1 18
REMARK H PARENT
REMARK Flexibility Score: inf
ROOT
ATOM      1  C   UNL     1      55.911  46.136  21.012  1.00  0.00     0.000 C 
ENDROOT
BRANCH   1   2
ATOM      2  C   UNL     1      56.384  47.572  20.733  1.00  0.00     0.000 C 
BRANCH   2   3
ATOM      3  C   UNL     1      56.015  48.055  19.321  1.00  0.00     0.000 C 
BRANCH   3   4
ATOM      4  C   UNL     1      57.260  48.120  18.424  1.00  0.00     0.000 C 
BRANCH   4   5
ATOM      5  C   UNL     1      56.914  48.103  16.927  1.00  0.00     0.000 C 
BRANCH   5   6
ATOM      6  C   UNL     1      56.287  49.424  16.448  1.00  0.00     0.006 C 
BRANCH   6   7
ATOM      7  C   UNL     1      55.362  49.221  15.239  1.00  0.00     0.053 C 
BRANCH   7   8
ATOM      8  C   UNL     1      54.160  50.113  15.303  1.00  0.00     0.041 C 
ATOM      9  O   UNL     1      54.226  51.296  14.875  1.00  0.00    -0.550 OA
ATOM     10  O   UNL     1      52.978  49.649  15.866  1.00  0.00    -0.550 OA
ENDBRANCH   7   8
ENDBRANCH   6   7
ENDBRANCH   5   6
ENDBRANCH   4   5
ENDBRANCH   3   4
ENDBRANCH   2   3
ENDBRANCH   1   2
BRANCH   1  11
ATOM     11  C   UNL     1      55.777  45.246  19.762  1.00  0.00     0.000 C 
BRANCH  11  12
ATOM     12  C   UNL     1      55.328  43.802  20.074  1.00  0.00    -0.000 C 
BRANCH  12  13
ATOM     13  C   UNL     1      56.416  43.001  20.810  1.00  0.00    -0.000 C 
BRANCH  13  14
ATOM     14  C   UNL     1      55.852  41.810  21.608  1.00  0.00    -0.000 C 
BRANCH  14  15
ATOM     15  C   UNL     1      54.772  40.988  20.882  1.00  0.00    -0.000 C 
BRANCH  15  16
ATOM     16  C   UNL     1      55.199  39.533  20.629  1.00  0.00    -0.000 C 
BRANCH  16  17
ATOM     17  C   UNL     1      56.675  39.282  20.976  1.00  0.00    -0.003 C 
ATOM     18  C   UNL     1      57.005  37.798  21.139  1.00  0.00     0.004 C 
ENDBRANCH  16  17
ENDBRANCH  15  16
ENDBRANCH  14  15
ENDBRANCH  13  14
ENDBRANCH  12  13
ENDBRANCH  11  12
ENDBRANCH   1  11
TORSDOF 14
ENDMDL
MODEL 4
REMARK VINA RESULT:    17.783      1.056      1.811
REMARK INTER + INTRA:          31.606
REMARK INTER:                  32.176
REMARK INTRA:                  -0.569
REMARK UNBOUND:                -0.730
REMARK SMILES CCCCCCCCCCCCCCCC(=O)[O-]
REMARK SMILES IDX 9 1 10 2 11 3 12 4 13 5 14 6 15 7 16 8 17 9 18 10 8 11 7 12
REMARK SMILES IDX 6 13 5 14 4 15 3 16 2 17 1 18
REMARK H PARENT
REMARK Flexibility Score: inf
ROOT
ATOM      1  C   UNL     1      56.587  45.932  22.869  1.00  0.00     0.000 C 
ENDROOT
BRANCH   1   2
ATOM      2  C   UNL     1      57.184  44.608  22.366  1.00  0.00     0.000 C 
BRANCH   2   3
ATOM      3  C   UNL     1      56.530  44.119  21.063  1.00  0.00     0.000 C 
BRANCH   3   4
ATOM      4  C   UNL     1      56.573  42.586  20.975  1.00  0.00     0.000 C 
BRANCH   4   5
ATOM      5  C   UNL     1      55.173  41.955  20.918  1.00  0.00     0.000 C 
BRANCH   5   6
ATOM      6  C   UNL     1      55.154  40.508  21.440  1.00  0.00     0.006 C 
BRANCH   6   7
ATOM      7  C   UNL     1      55.675  39.509  20.397  1.00  0.00     0.053 C 
BRANCH   7   8
ATOM      8  C   UNL     1      56.910  38.805  20.869  1.00  0.00     0.041 C 
ATOM      9  O   UNL     1      56.830  37.651  21.368  1.00  0.00    -0.550 OA
ATOM     10  O   UNL     1      58.145  39.438  20.792  1.00  0.00    -0.550 OA
ENDBRANCH   7   8
ENDBRANCH   6   7
ENDBRANCH   5   6
ENDBRANCH   4   5
ENDBRANCH   3   4
ENDBRANCH   2   3
ENDBRANCH   1   2
BRANCH   1  11
ATOM     11  C   UNL     1      57.420  47.184  22.537  1.00  0.00     0.000 C 
BRANCH  11  12
ATOM     12  C   UNL     1      56.752  48.118  21.504  1.00  0.00    -0.000 C 
BRANCH  12  13
ATOM     13  C   UNL     1      56.099  47.337  20.352  1.00  0.00    -0.000 C 
BRANCH  13  14
ATOM     14  C   UNL     1      55.929  48.179  19.073  1.00  0.00    -0.000 C 
BRANCH  14  15
ATOM     15  C   UNL     1      57.101  48.103  18.078  1.00  0.00    -0.000 C 
BRANCH  15  16
ATOM     16  C   UNL     1      56.711  48.552  16.660  1.00  0.00    -0.000 C 
BRANCH  16  17
ATOM     17  C   UNL     1      55.415  49.379  16.639  1.00  0.00    -0.003 C 
ATOM     18  C   UNL     1      55.536  50.653  15.803  1.00  0.00     0.004 C 
ENDBRANCH  16  17
ENDBRANCH  15  16
ENDBRANCH  14  15
ENDBRANCH  13  14
ENDBRANCH  12  13
ENDBRANCH  11  12
ENDBRANCH   1  11
TORSDOF 14
ENDMDL
