MODEL 1
REMARK VINA RESULT:    24.316      0.000      0.000
REMARK INTER + INTRA:          28.968
REMARK INTER:                  29.291
REMARK INTRA:                  -0.323
REMARK UNBOUND:                -0.323
REMARK SMILES O=c1c(O)c(-c2ccc(O)c(O)c2)oc2cc(O)cc(O)c12
REMARK SMILES IDX 5 1 3 2 2 3 1 4 22 5 20 6 19 7 17 8 16 9 15 10 14 11 6 12
REMARK SMILES IDX 7 13 8 14 9 15 13 16 11 17 10 18 12 20 4 22 21 24 18 26
REMARK H PARENT 10 19 12 21 4 23 21 25 18 27
REMARK Flexibility Score: inf
ROOT
ATOM      1  C   UNL     1      -6.232   5.241  15.430  1.00  0.00     0.180 A 
ATOM      2  C   UNL     1      -6.499   4.533  16.614  1.00  0.00     0.208 A 
ATOM      3  C   UNL     1      -5.832   3.319  16.847  1.00  0.00     0.238 A 
ATOM      4  O   UNL     1      -6.115   2.663  17.883  1.00  0.00    -0.285 OA
ATOM      5  C   UNL     1      -4.896   2.837  15.901  1.00  0.00     0.111 A 
ATOM      6  C   UNL     1      -4.133   1.641  16.054  1.00  0.00     0.134 A 
ATOM      7  C   UNL     1      -3.333   1.192  14.996  1.00  0.00     0.093 A 
ATOM      8  C   UNL     1      -3.216   1.930  13.818  1.00  0.00     0.123 A 
ATOM      9  C   UNL     1      -3.911   3.132  13.682  1.00  0.00     0.094 A 
ATOM     10  C   UNL     1      -4.746   3.586  14.705  1.00  0.00     0.146 A 
ATOM     11  O   UNL     1      -5.397   4.730  14.532  1.00  0.00    -0.452 OA
ENDROOT
BRANCH   1  12
ATOM     12  C   UNL     1      -6.876   6.539  15.125  1.00  0.00     0.025 A 
ATOM     13  C   UNL     1      -6.377   7.745  15.649  1.00  0.00     0.016 A 
ATOM     14  C   UNL     1      -6.987   8.960  15.329  1.00  0.00     0.051 A 
ATOM     15  C   UNL     1      -8.092   8.994  14.473  1.00  0.00     0.157 A 
ATOM     16  C   UNL     1      -7.973   6.578  14.249  1.00  0.00     0.062 A 
ATOM     17  C   UNL     1      -8.588   7.798  13.927  1.00  0.00     0.158 A 
BRANCH  15  18
ATOM     18  O   UNL     1      -8.681  10.222  14.173  1.00  0.00    -0.504 OA
ATOM     19  H   UNL     1      -8.224  11.102  14.380  1.00  0.00     0.293 HD
ENDBRANCH  15  18
BRANCH  17  20
ATOM     20  O   UNL     1      -9.685   7.824  13.068  1.00  0.00    -0.504 OA
ATOM     21  H   UNL     1      -9.867   7.070  12.417  1.00  0.00     0.293 HD
ENDBRANCH  17  20
ENDBRANCH   1  12
BRANCH   2  22
ATOM     22  O   UNL     1      -7.444   5.016  17.524  1.00  0.00    -0.502 OA
ATOM     23  H   UNL     1      -7.291   5.003  18.525  1.00  0.00     0.293 HD
ENDBRANCH   2  22
BRANCH   6  24
ATOM     24  O   UNL     1      -4.106   0.876  17.224  1.00  0.00    -0.507 OA
ATOM     25  H   UNL     1      -4.891   0.746  17.843  1.00  0.00     0.293 HD
ENDBRANCH   6  24
BRANCH   8  26
ATOM     26  O   UNL     1      -2.398   1.461  12.792  1.00  0.00    -0.508 OA
ATOM     27  H   UNL     1      -2.758   0.861  12.059  1.00  0.00     0.293 HD
ENDBRANCH   8  26
TORSDOF 6
ENDMDL
MODEL 2
REMARK VINA RESULT:    24.655      1.620      7.055
REMARK INTER + INTRA:          29.376
REMARK INTER:                  29.697
REMARK INTRA:                  -0.321
REMARK UNBOUND:                -0.323
REMARK SMILES O=c1c(O)c(-c2ccc(O)c(O)c2)oc2cc(O)cc(O)c12
REMARK SMILES IDX 5 1 3 2 2 3 1 4 22 5 20 6 19 7 17 8 16 9 15 10 14 11 6 12
REMARK SMILES IDX 7 13 8 14 9 15 13 16 11 17 10 18 12 20 4 22 21 24 18 26
REMARK H PARENT 10 19 12 21 4 23 21 25 18 27
REMARK Flexibility Score: inf
ROOT
ATOM      1  C   UNL     1      -5.651   3.974  14.875  1.00  0.00     0.180 A 
ATOM      2  C   UNL     1      -6.867   3.756  14.205  1.00  0.00     0.208 A 
ATOM      3  C   UNL     1      -7.766   4.825  14.060  1.00  0.00     0.238 A 
ATOM      4  O   UNL     1      -8.876   4.611  13.506  1.00  0.00    -0.285 OA
ATOM      5  C   UNL     1      -7.431   6.102  14.573  1.00  0.00     0.111 A 
ATOM      6  C   UNL     1      -8.248   7.265  14.447  1.00  0.00     0.134 A 
ATOM      7  C   UNL     1      -7.879   8.443  15.106  1.00  0.00     0.093 A 
ATOM      8  C   UNL     1      -6.689   8.521  15.831  1.00  0.00     0.123 A 
ATOM      9  C   UNL     1      -5.853   7.406  15.910  1.00  0.00     0.094 A 
ATOM     10  C   UNL     1      -6.213   6.206  15.294  1.00  0.00     0.146 A 
ATOM     11  O   UNL     1      -5.395   5.166  15.401  1.00  0.00    -0.452 OA
ENDROOT
BRANCH   1  12
ATOM     12  C   UNL     1      -4.642   2.904  15.045  1.00  0.00     0.025 A 
ATOM     13  C   UNL     1      -3.729   2.590  14.024  1.00  0.00     0.016 A 
ATOM     14  C   UNL     1      -2.770   1.593  14.215  1.00  0.00     0.051 A 
ATOM     15  C   UNL     1      -2.697   0.904  15.430  1.00  0.00     0.157 A 
ATOM     16  C   UNL     1      -4.553   2.226  16.272  1.00  0.00     0.062 A 
ATOM     17  C   UNL     1      -3.591   1.223  16.466  1.00  0.00     0.158 A 
BRANCH  15  18
ATOM     18  O   UNL     1      -1.730  -0.088  15.591  1.00  0.00    -0.504 OA
ATOM     19  H   UNL     1      -0.743   0.098  15.465  1.00  0.00     0.293 HD
ENDBRANCH  15  18
BRANCH  17  20
ATOM     20  O   UNL     1      -3.521   0.546  17.682  1.00  0.00    -0.504 OA
ATOM     21  H   UNL     1      -4.320   0.485  18.302  1.00  0.00     0.293 HD
ENDBRANCH  17  20
ENDBRANCH   1  12
BRANCH   2  22
ATOM     22  O   UNL     1      -7.187   2.483  13.725  1.00  0.00    -0.502 OA
ATOM     23  H   UNL     1      -7.630   2.335  12.827  1.00  0.00     0.293 HD
ENDBRANCH   2  22
BRANCH   6  24
ATOM     24  O   UNL     1      -9.411   7.323  13.671  1.00  0.00    -0.507 OA
ATOM     25  H   UNL     1      -9.893   8.173  13.422  1.00  0.00     0.293 HD
ENDBRANCH   6  24
BRANCH   8  26
ATOM     26  O   UNL     1      -6.344   9.715  16.461  1.00  0.00    -0.508 OA
ATOM     27  H   UNL     1      -7.040  10.295  16.915  1.00  0.00     0.293 HD
ENDBRANCH   8  26
TORSDOF 6
ENDMDL
MODEL 3
REMARK VINA RESULT:    25.599      2.266      6.877
REMARK INTER + INTRA:          30.514
REMARK INTER:                  30.561
REMARK INTRA:                  -0.046
REMARK UNBOUND:                -0.323
REMARK SMILES O=c1c(O)c(-c2ccc(O)c(O)c2)oc2cc(O)cc(O)c12
REMARK SMILES IDX 5 1 3 2 2 3 1 4 22 5 20 6 19 7 17 8 16 9 15 10 14 11 6 12
REMARK SMILES IDX 7 13 8 14 9 15 13 16 11 17 10 18 12 20 4 22 21 24 18 26
REMARK H PARENT 10 19 12 21 4 23 21 25 18 27
REMARK Flexibility Score: inf
ROOT
ATOM      1  C   UNL     1      -3.901   2.630  13.982  1.00  0.00     0.180 A 
ATOM      2  C   UNL     1      -3.915   2.194  15.318  1.00  0.00     0.208 A 
ATOM      3  C   UNL     1      -4.999   2.549  16.139  1.00  0.00     0.238 A 
ATOM      4  O   UNL     1      -4.980   2.201  17.348  1.00  0.00    -0.285 OA
ATOM      5  C   UNL     1      -6.060   3.321  15.609  1.00  0.00     0.111 A 
ATOM      6  C   UNL     1      -7.226   3.703  16.338  1.00  0.00     0.134 A 
ATOM      7  C   UNL     1      -8.150   4.578  15.754  1.00  0.00     0.093 A 
ATOM      8  C   UNL     1      -7.986   5.030  14.445  1.00  0.00     0.123 A 
ATOM      9  C   UNL     1      -6.880   4.614  13.702  1.00  0.00     0.094 A 
ATOM     10  C   UNL     1      -5.922   3.772  14.271  1.00  0.00     0.146 A 
ATOM     11  O   UNL     1      -4.880   3.408  13.534  1.00  0.00    -0.452 OA
ENDROOT
BRANCH   1  12
ATOM     12  C   UNL     1      -2.807   2.276  13.049  1.00  0.00     0.025 A 
ATOM     13  C   UNL     1      -2.056   3.265  12.393  1.00  0.00     0.016 A 
ATOM     14  C   UNL     1      -1.012   2.908  11.535  1.00  0.00     0.051 A 
ATOM     15  C   UNL     1      -0.695   1.561  11.330  1.00  0.00     0.157 A 
ATOM     16  C   UNL     1      -2.472   0.925  12.858  1.00  0.00     0.062 A 
ATOM     17  C   UNL     1      -1.425   0.564  11.996  1.00  0.00     0.158 A 
BRANCH  15  18
ATOM     18  O   UNL     1       0.351   1.235  10.467  1.00  0.00    -0.504 OA
ATOM     19  H   UNL     1       1.285   1.608  10.588  1.00  0.00     0.293 HD
ENDBRANCH  15  18
BRANCH  17  20
ATOM     20  O   UNL     1      -1.110  -0.780  11.802  1.00  0.00    -0.504 OA
ATOM     21  H   UNL     1      -1.433  -1.498  12.439  1.00  0.00     0.293 HD
ENDBRANCH  17  20
ENDBRANCH   1  12
BRANCH   2  22
ATOM     22  O   UNL     1      -2.847   1.451  15.827  1.00  0.00    -0.502 OA
ATOM     23  H   UNL     1      -2.936   0.856  16.642  1.00  0.00     0.293 HD
ENDBRANCH   2  22
BRANCH   6  24
ATOM     24  O   UNL     1      -7.534   3.236  17.620  1.00  0.00    -0.507 OA
ATOM     25  H   UNL     1      -7.716   3.825  18.418  1.00  0.00     0.293 HD
ENDBRANCH   6  24
BRANCH   8  26
ATOM     26  O   UNL     1      -8.934   5.887  13.889  1.00  0.00    -0.508 OA
ATOM     27  H   UNL     1      -9.309   5.731  12.961  1.00  0.00     0.293 HD
ENDBRANCH   8  26
TORSDOF 6
ENDMDL
