MODEL 1
REMARK VINA RESULT:    -5.987      0.000      0.000
REMARK INTER + INTRA:          -7.301
REMARK INTER:                  -7.037
REMARK INTRA:                  -0.264
REMARK UNBOUND:                -0.264
REMARK SMILES O=c1cc(-c2ccc(O)c(O)c2)oc2cc(O)cc(O)c12
REMARK SMILES IDX 4 1 3 2 2 3 1 4 21 5 19 6 18 7 16 8 15 9 14 10 13 11 5 12
REMARK SMILES IDX 6 13 7 14 8 15 12 16 10 17 9 18 11 20 20 22 17 24
REMARK H PARENT 9 19 11 21 20 23 17 25
REMARK Flexibility Score: inf
ROOT
ATOM      1  C   UNL     1     -20.260  22.982  34.858  1.00  0.00     0.138 A 
ATOM      2  C   UNL     1     -19.112  22.331  34.386  1.00  0.00     0.100 A 
ATOM      3  C   UNL     1     -18.241  23.003  33.528  1.00  0.00     0.197 A 
ATOM      4  O   UNL     1     -17.252  22.371  33.073  1.00  0.00    -0.289 OA
ATOM      5  C   UNL     1     -18.507  24.345  33.165  1.00  0.00     0.107 A 
ATOM      6  C   UNL     1     -17.668  25.141  32.329  1.00  0.00     0.134 A 
ATOM      7  C   UNL     1     -18.093  26.420  31.944  1.00  0.00     0.093 A 
ATOM      8  C   UNL     1     -19.296  26.951  32.414  1.00  0.00     0.123 A 
ATOM      9  C   UNL     1     -20.096  26.202  33.273  1.00  0.00     0.094 A 
ATOM     10  C   UNL     1     -19.716  24.911  33.648  1.00  0.00     0.146 A 
ATOM     11  O   UNL     1     -20.514  24.224  34.459  1.00  0.00    -0.456 OA
ENDROOT
BRANCH   1  12
ATOM     12  C   UNL     1     -21.220  22.315  35.774  1.00  0.00     0.021 A 
ATOM     13  C   UNL     1     -22.268  21.548  35.237  1.00  0.00     0.016 A 
ATOM     14  C   UNL     1     -23.189  20.917  36.077  1.00  0.00     0.051 A 
ATOM     15  C   UNL     1     -23.087  21.048  37.464  1.00  0.00     0.157 A 
ATOM     16  C   UNL     1     -21.129  22.455  37.172  1.00  0.00     0.062 A 
ATOM     17  C   UNL     1     -22.054  21.823  38.016  1.00  0.00     0.158 A 
BRANCH  15  18
ATOM     18  O   UNL     1     -24.020  20.404  38.277  1.00  0.00    -0.504 OA
ATOM     19  H   UNL     1     -23.772  19.613  38.858  1.00  0.00     0.293 HD
ENDBRANCH  15  18
BRANCH  17  20
ATOM     20  O   UNL     1     -21.953  21.967  39.399  1.00  0.00    -0.504 OA
ATOM     21  H   UNL     1     -22.195  21.213  40.031  1.00  0.00     0.293 HD
ENDBRANCH  17  20
ENDBRANCH   1  12
BRANCH   6  22
ATOM     22  O   UNL     1     -16.409  24.739  31.875  1.00  0.00    -0.507 OA
ATOM     23  H   UNL     1     -16.081  24.834  30.925  1.00  0.00     0.293 HD
ENDBRANCH   6  22
BRANCH   8  24
ATOM     24  O   UNL     1     -19.702  28.229  32.038  1.00  0.00    -0.508 OA
ATOM     25  H   UNL     1     -20.620  28.587  32.279  1.00  0.00     0.293 HD
ENDBRANCH   8  24
TORSDOF 5
ENDMDL
MODEL 2
REMARK VINA RESULT:    -5.845     18.700     19.584
REMARK INTER + INTRA:          -7.134
REMARK INTER:                  -6.845
REMARK INTRA:                  -0.289
REMARK UNBOUND:                -0.264
REMARK SMILES O=c1cc(-c2ccc(O)c(O)c2)oc2cc(O)cc(O)c12
REMARK SMILES IDX 4 1 3 2 2 3 1 4 21 5 19 6 18 7 16 8 15 9 14 10 13 11 5 12
REMARK SMILES IDX 6 13 7 14 8 15 12 16 10 17 9 18 11 20 20 22 17 24
REMARK H PARENT 9 19 11 21 20 23 17 25
REMARK Flexibility Score: inf
ROOT
ATOM      1  C   UNL     1      -6.985  30.122  45.761  1.00  0.00     0.138 A 
ATOM      2  C   UNL     1      -7.988  30.870  45.128  1.00  0.00     0.100 A 
ATOM      3  C   UNL     1      -8.243  32.175  45.548  1.00  0.00     0.197 A 
ATOM      4  O   UNL     1      -9.190  32.800  45.002  1.00  0.00    -0.289 OA
ATOM      5  C   UNL     1      -7.469  32.745  46.588  1.00  0.00     0.107 A 
ATOM      6  C   UNL     1      -7.614  34.080  47.070  1.00  0.00     0.134 A 
ATOM      7  C   UNL     1      -6.871  34.496  48.183  1.00  0.00     0.093 A 
ATOM      8  C   UNL     1      -5.946  33.644  48.790  1.00  0.00     0.123 A 
ATOM      9  C   UNL     1      -5.759  32.357  48.293  1.00  0.00     0.094 A 
ATOM     10  C   UNL     1      -6.510  31.901  47.206  1.00  0.00     0.146 A 
ATOM     11  O   UNL     1      -6.311  30.661  46.771  1.00  0.00    -0.456 OA
ENDROOT
BRANCH   1  12
ATOM     12  C   UNL     1      -6.671  28.729  45.354  1.00  0.00     0.021 A 
ATOM     13  C   UNL     1      -6.494  28.429  43.992  1.00  0.00     0.016 A 
ATOM     14  C   UNL     1      -6.207  27.125  43.583  1.00  0.00     0.051 A 
ATOM     15  C   UNL     1      -6.101  26.096  44.522  1.00  0.00     0.157 A 
ATOM     16  C   UNL     1      -6.577  27.686  46.296  1.00  0.00     0.062 A 
ATOM     17  C   UNL     1      -6.290  26.376  45.886  1.00  0.00     0.158 A 
BRANCH  15  18
ATOM     18  O   UNL     1      -5.811  24.805  44.084  1.00  0.00    -0.504 OA
ATOM     19  H   UNL     1      -5.213  24.180  44.610  1.00  0.00     0.293 HD
ENDBRANCH  15  18
BRANCH  17  20
ATOM     20  O   UNL     1      -6.197  25.352  46.827  1.00  0.00    -0.504 OA
ATOM     21  H   UNL     1      -6.996  24.777  47.068  1.00  0.00     0.293 HD
ENDBRANCH  17  20
ENDBRANCH   1  12
BRANCH   6  22
ATOM     22  O   UNL     1      -8.447  35.037  46.483  1.00  0.00    -0.507 OA
ATOM     23  H   UNL     1      -9.245  34.829  45.901  1.00  0.00     0.293 HD
ENDBRANCH   6  22
BRANCH   8  24
ATOM     24  O   UNL     1      -5.201  34.071  49.886  1.00  0.00    -0.508 OA
ATOM     25  H   UNL     1      -4.280  33.693  50.082  1.00  0.00     0.293 HD
ENDBRANCH   8  24
TORSDOF 5
ENDMDL
MODEL 3
REMARK VINA RESULT:    -5.690     18.988     19.843
REMARK INTER + INTRA:          -6.952
REMARK INTER:                  -6.685
REMARK INTRA:                  -0.266
REMARK UNBOUND:                -0.264
REMARK SMILES O=c1cc(-c2ccc(O)c(O)c2)oc2cc(O)cc(O)c12
REMARK SMILES IDX 4 1 3 2 2 3 1 4 21 5 19 6 18 7 16 8 15 9 14 10 13 11 5 12
REMARK SMILES IDX 6 13 7 14 8 15 12 16 10 17 9 18 11 20 20 22 17 24
REMARK H PARENT 9 19 11 21 20 23 17 25
REMARK Flexibility Score: inf
ROOT
ATOM      1  C   UNL     1      -5.851  30.227  46.121  1.00  0.00     0.138 A 
ATOM      2  C   UNL     1      -4.800  30.773  46.871  1.00  0.00     0.100 A 
ATOM      3  C   UNL     1      -4.863  32.105  47.280  1.00  0.00     0.197 A 
ATOM      4  O   UNL     1      -3.876  32.584  47.898  1.00  0.00    -0.289 OA
ATOM      5  C   UNL     1      -6.001  32.885  46.962  1.00  0.00     0.107 A 
ATOM      6  C   UNL     1      -6.192  34.242  47.362  1.00  0.00     0.134 A 
ATOM      7  C   UNL     1      -7.305  34.950  46.890  1.00  0.00     0.093 A 
ATOM      8  C   UNL     1      -8.263  34.331  46.083  1.00  0.00     0.123 A 
ATOM      9  C   UNL     1      -8.112  32.992  45.732  1.00  0.00     0.094 A 
ATOM     10  C   UNL     1      -6.995  32.269  46.159  1.00  0.00     0.146 A 
ATOM     11  O   UNL     1      -6.882  30.997  45.790  1.00  0.00    -0.456 OA
ENDROOT
BRANCH   1  12
ATOM     12  C   UNL     1      -5.836  28.815  45.660  1.00  0.00     0.021 A 
ATOM     13  C   UNL     1      -5.488  28.526  44.329  1.00  0.00     0.016 A 
ATOM     14  C   UNL     1      -5.474  27.208  43.870  1.00  0.00     0.051 A 
ATOM     15  C   UNL     1      -5.815  26.156  44.724  1.00  0.00     0.157 A 
ATOM     16  C   UNL     1      -6.192  27.754  46.515  1.00  0.00     0.062 A 
ATOM     17  C   UNL     1      -6.180  26.430  46.053  1.00  0.00     0.158 A 
BRANCH  15  18
ATOM     18  O   UNL     1      -5.790  24.850  44.237  1.00  0.00    -0.504 OA
ATOM     19  H   UNL     1      -5.073  24.189  44.507  1.00  0.00     0.293 HD
ENDBRANCH  15  18
BRANCH  17  20
ATOM     20  O   UNL     1      -6.532  25.387  46.908  1.00  0.00    -0.504 OA
ATOM     21  H   UNL     1      -7.105  25.543  47.729  1.00  0.00     0.293 HD
ENDBRANCH  17  20
ENDBRANCH   1  12
BRANCH   6  22
ATOM     22  O   UNL     1      -5.340  34.928  48.233  1.00  0.00    -0.507 OA
ATOM     23  H   UNL     1      -4.999  35.866  48.087  1.00  0.00     0.293 HD
ENDBRANCH   6  22
BRANCH   8  24
ATOM     24  O   UNL     1      -9.374  35.038  45.631  1.00  0.00    -0.508 OA
ATOM     25  H   UNL     1     -10.191  34.564  45.261  1.00  0.00     0.293 HD
ENDBRANCH   8  24
TORSDOF 5
ENDMDL
MODEL 4
REMARK VINA RESULT:    -5.650     15.601     16.384
REMARK INTER + INTRA:          -6.905
REMARK INTER:                  -6.641
REMARK INTRA:                  -0.265
REMARK UNBOUND:                -0.264
REMARK SMILES O=c1cc(-c2ccc(O)c(O)c2)oc2cc(O)cc(O)c12
REMARK SMILES IDX 4 1 3 2 2 3 1 4 21 5 19 6 18 7 16 8 15 9 14 10 13 11 5 12
REMARK SMILES IDX 6 13 7 14 8 15 12 16 10 17 9 18 11 20 20 22 17 24
REMARK H PARENT 9 19 11 21 20 23 17 25
REMARK Flexibility Score: inf
ROOT
ATOM      1  C   UNL     1      -9.119  28.152  44.024  1.00  0.00     0.138 A 
ATOM      2  C   UNL     1      -8.082  27.209  44.046  1.00  0.00     0.100 A 
ATOM      3  C   UNL     1      -6.986  27.407  44.885  1.00  0.00     0.197 A 
ATOM      4  O   UNL     1      -6.042  26.575  44.837  1.00  0.00    -0.289 OA
ATOM      5  C   UNL     1      -6.944  28.541  45.731  1.00  0.00     0.107 A 
ATOM      6  C   UNL     1      -5.896  28.825  46.657  1.00  0.00     0.134 A 
ATOM      7  C   UNL     1      -5.904  30.038  47.358  1.00  0.00     0.093 A 
ATOM      8  C   UNL     1      -6.953  30.948  47.210  1.00  0.00     0.123 A 
ATOM      9  C   UNL     1      -8.007  30.656  46.348  1.00  0.00     0.094 A 
ATOM     10  C   UNL     1      -8.010  29.470  45.610  1.00  0.00     0.146 A 
ATOM     11  O   UNL     1      -9.028  29.236  44.788  1.00  0.00    -0.456 OA
ENDROOT
BRANCH   1  12
ATOM     12  C   UNL     1     -10.309  27.990  43.150  1.00  0.00     0.021 A 
ATOM     13  C   UNL     1     -11.309  27.069  43.507  1.00  0.00     0.016 A 
ATOM     14  C   UNL     1     -12.433  26.892  42.698  1.00  0.00     0.051 A 
ATOM     15  C   UNL     1     -12.575  27.622  41.515  1.00  0.00     0.157 A 
ATOM     16  C   UNL     1     -10.449  28.714  41.950  1.00  0.00     0.062 A 
ATOM     17  C   UNL     1     -11.577  28.535  41.136  1.00  0.00     0.158 A 
BRANCH  15  18
ATOM     18  O   UNL     1     -13.709  27.425  40.728  1.00  0.00    -0.504 OA
ATOM     19  H   UNL     1     -13.884  27.967  39.891  1.00  0.00     0.293 HD
ENDBRANCH  15  18
BRANCH  17  20
ATOM     20  O   UNL     1     -11.707  29.258  39.952  1.00  0.00    -0.504 OA
ATOM     21  H   UNL     1     -12.598  29.345  39.476  1.00  0.00     0.293 HD
ENDBRANCH  17  20
ENDBRANCH   1  12
BRANCH   6  22
ATOM     22  O   UNL     1      -4.846  27.946  46.943  1.00  0.00    -0.507 OA
ATOM     23  H   UNL     1      -4.793  27.358  47.761  1.00  0.00     0.293 HD
ENDBRANCH   6  22
BRANCH   8  24
ATOM     24  O   UNL     1      -6.960  32.145  47.922  1.00  0.00    -0.508 OA
ATOM     25  H   UNL     1      -7.733  32.396  48.529  1.00  0.00     0.293 HD
ENDBRANCH   8  24
TORSDOF 5
ENDMDL
MODEL 5
REMARK VINA RESULT:    -5.620      1.597      7.191
REMARK INTER + INTRA:          -6.870
REMARK INTER:                  -6.607
REMARK INTRA:                  -0.263
REMARK UNBOUND:                -0.264
REMARK SMILES O=c1cc(-c2ccc(O)c(O)c2)oc2cc(O)cc(O)c12
REMARK SMILES IDX 4 1 3 2 2 3 1 4 21 5 19 6 18 7 16 8 15 9 14 10 13 11 5 12
REMARK SMILES IDX 6 13 7 14 8 15 12 16 10 17 9 18 11 20 20 22 17 24
REMARK H PARENT 9 19 11 21 20 23 17 25
REMARK Flexibility Score: inf
ROOT
ATOM      1  C   UNL     1     -20.103  23.589  35.552  1.00  0.00     0.138 A 
ATOM      2  C   UNL     1     -20.930  22.538  35.131  1.00  0.00     0.100 A 
ATOM      3  C   UNL     1     -21.686  21.836  36.070  1.00  0.00     0.197 A 
ATOM      4  O   UNL     1     -22.371  20.859  35.670  1.00  0.00    -0.289 OA
ATOM      5  C   UNL     1     -21.636  22.210  37.434  1.00  0.00     0.107 A 
ATOM      6  C   UNL     1     -22.395  21.592  38.474  1.00  0.00     0.134 A 
ATOM      7  C   UNL     1     -22.176  21.970  39.805  1.00  0.00     0.093 A 
ATOM      8  C   UNL     1     -21.270  22.984  40.127  1.00  0.00     0.123 A 
ATOM      9  C   UNL     1     -20.565  23.629  39.115  1.00  0.00     0.094 A 
ATOM     10  C   UNL     1     -20.736  23.252  37.780  1.00  0.00     0.146 A 
ATOM     11  O   UNL     1     -20.033  23.883  36.845  1.00  0.00    -0.456 OA
ENDROOT
BRANCH   1  12
ATOM     12  C   UNL     1     -19.278  24.369  34.595  1.00  0.00     0.021 A 
ATOM     13  C   UNL     1     -19.561  25.730  34.386  1.00  0.00     0.016 A 
ATOM     14  C   UNL     1     -18.805  26.483  33.485  1.00  0.00     0.051 A 
ATOM     15  C   UNL     1     -17.762  25.891  32.770  1.00  0.00     0.157 A 
ATOM     16  C   UNL     1     -18.233  23.773  33.861  1.00  0.00     0.062 A 
ATOM     17  C   UNL     1     -17.475  24.529  32.955  1.00  0.00     0.158 A 
BRANCH  15  18
ATOM     18  O   UNL     1     -17.023  26.669  31.879  1.00  0.00    -0.504 OA
ATOM     19  H   UNL     1     -16.895  27.664  32.012  1.00  0.00     0.293 HD
ENDBRANCH  15  18
BRANCH  17  20
ATOM     20  O   UNL     1     -16.443  23.929  32.236  1.00  0.00    -0.504 OA
ATOM     21  H   UNL     1     -15.606  23.584  32.693  1.00  0.00     0.293 HD
ENDBRANCH  17  20
ENDBRANCH   1  12
BRANCH   6  22
ATOM     22  O   UNL     1     -23.385  20.630  38.253  1.00  0.00    -0.507 OA
ATOM     23  H   UNL     1     -23.219  19.637  38.182  1.00  0.00     0.293 HD
ENDBRANCH   6  22
BRANCH   8  24
ATOM     24  O   UNL     1     -21.071  23.363  41.452  1.00  0.00    -0.508 OA
ATOM     25  H   UNL     1     -20.736  22.705  42.147  1.00  0.00     0.293 HD
ENDBRANCH   8  24
TORSDOF 5
ENDMDL
MODEL 6
REMARK VINA RESULT:    -5.518      1.357      2.789
REMARK INTER + INTRA:          -6.750
REMARK INTER:                  -6.484
REMARK INTRA:                  -0.266
REMARK UNBOUND:                -0.264
REMARK SMILES O=c1cc(-c2ccc(O)c(O)c2)oc2cc(O)cc(O)c12
REMARK SMILES IDX 4 1 3 2 2 3 1 4 21 5 19 6 18 7 16 8 15 9 14 10 13 11 5 12
REMARK SMILES IDX 6 13 7 14 8 15 12 16 10 17 9 18 11 20 20 22 17 24
REMARK H PARENT 9 19 11 21 20 23 17 25
REMARK Flexibility Score: inf
ROOT
ATOM      1  C   UNL     1     -20.022  23.513  34.983  1.00  0.00     0.138 A 
ATOM      2  C   UNL     1     -20.408  24.755  34.458  1.00  0.00     0.100 A 
ATOM      3  C   UNL     1     -19.506  25.489  33.688  1.00  0.00     0.197 A 
ATOM      4  O   UNL     1     -19.860  26.627  33.283  1.00  0.00    -0.289 OA
ATOM      5  C   UNL     1     -18.221  24.962  33.417  1.00  0.00     0.107 A 
ATOM      6  C   UNL     1     -17.233  25.603  32.611  1.00  0.00     0.134 A 
ATOM      7  C   UNL     1     -15.954  25.041  32.508  1.00  0.00     0.093 A 
ATOM      8  C   UNL     1     -15.648  23.830  33.134  1.00  0.00     0.123 A 
ATOM      9  C   UNL     1     -16.621  23.169  33.879  1.00  0.00     0.094 A 
ATOM     10  C   UNL     1     -17.895  23.722  34.028  1.00  0.00     0.146 A 
ATOM     11  O   UNL     1     -18.791  23.067  34.759  1.00  0.00    -0.456 OA
ENDROOT
BRANCH   1  12
ATOM     12  C   UNL     1     -20.943  22.690  35.808  1.00  0.00     0.021 A 
ATOM     13  C   UNL     1     -21.893  21.870  35.175  1.00  0.00     0.016 A 
ATOM     14  C   UNL     1     -22.776  21.094  35.929  1.00  0.00     0.051 A 
ATOM     15  C   UNL     1     -22.733  21.128  37.325  1.00  0.00     0.157 A 
ATOM     16  C   UNL     1     -20.912  22.731  37.215  1.00  0.00     0.062 A 
ATOM     17  C   UNL     1     -21.800  21.953  37.973  1.00  0.00     0.158 A 
BRANCH  15  18
ATOM     18  O   UNL     1     -23.625  20.340  38.051  1.00  0.00    -0.504 OA
ATOM     19  H   UNL     1     -23.353  19.452  38.456  1.00  0.00     0.293 HD
ENDBRANCH  15  18
BRANCH  17  20
ATOM     20  O   UNL     1     -21.759  22.000  39.365  1.00  0.00    -0.504 OA
ATOM     21  H   UNL     1     -20.884  21.946  39.874  1.00  0.00     0.293 HD
ENDBRANCH  17  20
ENDBRANCH   1  12
BRANCH   6  22
ATOM     22  O   UNL     1     -17.463  26.770  31.875  1.00  0.00    -0.507 OA
ATOM     23  H   UNL     1     -17.066  27.674  32.088  1.00  0.00     0.293 HD
ENDBRANCH   6  22
BRANCH   8  24
ATOM     24  O   UNL     1     -14.378  23.271  33.014  1.00  0.00    -0.508 OA
ATOM     25  H   UNL     1     -13.676  23.387  33.737  1.00  0.00     0.293 HD
ENDBRANCH   8  24
TORSDOF 5
ENDMDL
MODEL 7
REMARK VINA RESULT:    -5.511      5.565      8.072
REMARK INTER + INTRA:          -6.742
REMARK INTER:                  -6.477
REMARK INTRA:                  -0.265
REMARK UNBOUND:                -0.264
REMARK SMILES O=c1cc(-c2ccc(O)c(O)c2)oc2cc(O)cc(O)c12
REMARK SMILES IDX 4 1 3 2 2 3 1 4 21 5 19 6 18 7 16 8 15 9 14 10 13 11 5 12
REMARK SMILES IDX 6 13 7 14 8 15 12 16 10 17 9 18 11 20 20 22 17 24
REMARK H PARENT 9 19 11 21 20 23 17 25
REMARK Flexibility Score: inf
ROOT
ATOM      1  C   UNL     1     -19.205  21.313  41.621  1.00  0.00     0.138 A 
ATOM      2  C   UNL     1     -20.557  21.497  41.943  1.00  0.00     0.100 A 
ATOM      3  C   UNL     1     -21.245  22.596  41.430  1.00  0.00     0.197 A 
ATOM      4  O   UNL     1     -22.441  22.768  41.786  1.00  0.00    -0.289 OA
ATOM      5  C   UNL     1     -20.583  23.499  40.563  1.00  0.00     0.107 A 
ATOM      6  C   UNL     1     -21.197  24.631  39.948  1.00  0.00     0.134 A 
ATOM      7  C   UNL     1     -20.412  25.520  39.201  1.00  0.00     0.093 A 
ATOM      8  C   UNL     1     -19.050  25.283  39.000  1.00  0.00     0.123 A 
ATOM      9  C   UNL     1     -18.454  24.153  39.551  1.00  0.00     0.094 A 
ATOM     10  C   UNL     1     -19.203  23.266  40.329  1.00  0.00     0.146 A 
ATOM     11  O   UNL     1     -18.593  22.206  40.850  1.00  0.00    -0.456 OA
ENDROOT
BRANCH   1  12
ATOM     12  C   UNL     1     -18.425  20.161  42.140  1.00  0.00     0.021 A 
ATOM     13  C   UNL     1     -17.993  19.162  41.251  1.00  0.00     0.016 A 
ATOM     14  C   UNL     1     -17.266  18.064  41.716  1.00  0.00     0.051 A 
ATOM     15  C   UNL     1     -16.964  17.938  43.074  1.00  0.00     0.157 A 
ATOM     16  C   UNL     1     -18.130  20.024  43.510  1.00  0.00     0.062 A 
ATOM     17  C   UNL     1     -17.401  18.920  43.978  1.00  0.00     0.158 A 
BRANCH  15  18
ATOM     18  O   UNL     1     -16.235  16.832  43.508  1.00  0.00    -0.504 OA
ATOM     19  H   UNL     1     -16.683  15.999  43.869  1.00  0.00     0.293 HD
ENDBRANCH  15  18
BRANCH  17  20
ATOM     20  O   UNL     1     -17.114  18.796  45.336  1.00  0.00    -0.504 OA
ATOM     21  H   UNL     1     -17.727  19.177  46.047  1.00  0.00     0.293 HD
ENDBRANCH  17  20
ENDBRANCH   1  12
BRANCH   6  22
ATOM     22  O   UNL     1     -22.564  24.913  40.015  1.00  0.00    -0.507 OA
ATOM     23  H   UNL     1     -22.968  25.698  40.503  1.00  0.00     0.293 HD
ENDBRANCH   6  22
BRANCH   8  24
ATOM     24  O   UNL     1     -18.281  26.164  38.243  1.00  0.00    -0.508 OA
ATOM     25  H   UNL     1     -18.405  27.169  38.310  1.00  0.00     0.293 HD
ENDBRANCH   8  24
TORSDOF 5
ENDMDL
MODEL 8
REMARK VINA RESULT:    -5.434      7.355      9.936
REMARK INTER + INTRA:          -6.651
REMARK INTER:                  -6.384
REMARK INTRA:                  -0.266
REMARK UNBOUND:                -0.264
REMARK SMILES O=c1cc(-c2ccc(O)c(O)c2)oc2cc(O)cc(O)c12
REMARK SMILES IDX 4 1 3 2 2 3 1 4 21 5 19 6 18 7 16 8 15 9 14 10 13 11 5 12
REMARK SMILES IDX 6 13 7 14 8 15 12 16 10 17 9 18 11 20 20 22 17 24
REMARK H PARENT 9 19 11 21 20 23 17 25
REMARK Flexibility Score: inf
ROOT
ATOM      1  C   UNL     1     -21.693  26.307  42.144  1.00  0.00     0.138 A 
ATOM      2  C   UNL     1     -21.435  27.329  41.219  1.00  0.00     0.100 A 
ATOM      3  C   UNL     1     -21.739  28.650  41.548  1.00  0.00     0.197 A 
ATOM      4  O   UNL     1     -21.553  29.537  40.674  1.00  0.00    -0.289 OA
ATOM      5  C   UNL     1     -22.276  28.952  42.822  1.00  0.00     0.107 A 
ATOM      6  C   UNL     1     -22.587  30.267  43.281  1.00  0.00     0.134 A 
ATOM      7  C   UNL     1     -23.224  30.433  44.518  1.00  0.00     0.093 A 
ATOM      8  C   UNL     1     -23.506  29.336  45.337  1.00  0.00     0.123 A 
ATOM      9  C   UNL     1     -23.157  28.054  44.921  1.00  0.00     0.094 A 
ATOM     10  C   UNL     1     -22.552  27.853  43.677  1.00  0.00     0.146 A 
ATOM     11  O   UNL     1     -22.249  26.612  43.312  1.00  0.00    -0.456 OA
ENDROOT
BRANCH   1  12
ATOM     12  C   UNL     1     -21.388  24.884  41.846  1.00  0.00     0.021 A 
ATOM     13  C   UNL     1     -22.434  23.947  41.806  1.00  0.00     0.016 A 
ATOM     14  C   UNL     1     -22.172  22.602  41.536  1.00  0.00     0.051 A 
ATOM     15  C   UNL     1     -20.864  22.166  41.312  1.00  0.00     0.157 A 
ATOM     16  C   UNL     1     -20.069  24.439  41.633  1.00  0.00     0.062 A 
ATOM     17  C   UNL     1     -19.805  23.088  41.364  1.00  0.00     0.158 A 
BRANCH  15  18
ATOM     18  O   UNL     1     -20.634  20.818  41.043  1.00  0.00    -0.504 OA
ATOM     19  H   UNL     1     -20.567  20.126  41.779  1.00  0.00     0.293 HD
ENDBRANCH  15  18
BRANCH  17  20
ATOM     20  O   UNL     1     -18.496  22.658  41.153  1.00  0.00    -0.504 OA
ATOM     21  H   UNL     1     -17.741  23.314  40.991  1.00  0.00     0.293 HD
ENDBRANCH  17  20
ENDBRANCH   1  12
BRANCH   6  22
ATOM     22  O   UNL     1     -22.272  31.434  42.580  1.00  0.00    -0.507 OA
ATOM     23  H   UNL     1     -22.323  31.537  41.578  1.00  0.00     0.293 HD
ENDBRANCH   6  22
BRANCH   8  24
ATOM     24  O   UNL     1     -24.125  29.513  46.572  1.00  0.00    -0.508 OA
ATOM     25  H   UNL     1     -23.657  29.272  47.439  1.00  0.00     0.293 HD
ENDBRANCH   8  24
TORSDOF 5
ENDMDL
MODEL 9
REMARK VINA RESULT:    -5.353     14.614     15.591
REMARK INTER + INTRA:          -6.557
REMARK INTER:                  -6.271
REMARK INTRA:                  -0.286
REMARK UNBOUND:                -0.264
REMARK SMILES O=c1cc(-c2ccc(O)c(O)c2)oc2cc(O)cc(O)c12
REMARK SMILES IDX 4 1 3 2 2 3 1 4 21 5 19 6 18 7 16 8 15 9 14 10 13 11 5 12
REMARK SMILES IDX 6 13 7 14 8 15 12 16 10 17 9 18 11 20 20 22 17 24
REMARK H PARENT 9 19 11 21 20 23 17 25
REMARK Flexibility Score: inf
ROOT
ATOM      1  C   UNL     1      -8.785  27.686  43.829  1.00  0.00     0.138 A 
ATOM      2  C   UNL     1      -8.048  26.936  42.903  1.00  0.00     0.100 A 
ATOM      3  C   UNL     1      -8.711  26.259  41.879  1.00  0.00     0.197 A 
ATOM      4  O   UNL     1      -8.027  25.544  41.100  1.00  0.00    -0.289 OA
ATOM      5  C   UNL     1     -10.118  26.360  41.765  1.00  0.00     0.107 A 
ATOM      6  C   UNL     1     -10.895  25.747  40.737  1.00  0.00     0.134 A 
ATOM      7  C   UNL     1     -12.293  25.820  40.793  1.00  0.00     0.093 A 
ATOM      8  C   UNL     1     -12.937  26.536  41.805  1.00  0.00     0.123 A 
ATOM      9  C   UNL     1     -12.185  27.183  42.782  1.00  0.00     0.094 A 
ATOM     10  C   UNL     1     -10.790  27.099  42.773  1.00  0.00     0.146 A 
ATOM     11  O   UNL     1     -10.110  27.720  43.732  1.00  0.00    -0.456 OA
ENDROOT
BRANCH   1  12
ATOM     12  C   UNL     1      -8.131  28.426  44.938  1.00  0.00     0.021 A 
ATOM     13  C   UNL     1      -8.698  29.627  45.398  1.00  0.00     0.016 A 
ATOM     14  C   UNL     1      -8.096  30.346  46.433  1.00  0.00     0.051 A 
ATOM     15  C   UNL     1      -6.916  29.886  47.022  1.00  0.00     0.157 A 
ATOM     16  C   UNL     1      -6.933  27.973  45.525  1.00  0.00     0.062 A 
ATOM     17  C   UNL     1      -6.328  28.695  46.564  1.00  0.00     0.158 A 
BRANCH  15  18
ATOM     18  O   UNL     1      -6.340  30.624  48.055  1.00  0.00    -0.504 OA
ATOM     19  H   UNL     1      -6.291  31.635  48.032  1.00  0.00     0.293 HD
ENDBRANCH  15  18
BRANCH  17  20
ATOM     20  O   UNL     1      -5.144  28.236  47.138  1.00  0.00    -0.504 OA
ATOM     21  H   UNL     1      -4.749  27.335  46.895  1.00  0.00     0.293 HD
ENDBRANCH  17  20
ENDBRANCH   1  12
BRANCH   6  22
ATOM     22  O   UNL     1     -10.349  25.081  39.636  1.00  0.00    -0.507 OA
ATOM     23  H   UNL     1      -9.363  24.924  39.487  1.00  0.00     0.293 HD
ENDBRANCH   6  22
BRANCH   8  24
ATOM     24  O   UNL     1     -14.327  26.617  41.843  1.00  0.00    -0.508 OA
ATOM     25  H   UNL     1     -14.906  26.108  41.184  1.00  0.00     0.293 HD
ENDBRANCH   8  24
TORSDOF 5
ENDMDL
