MODEL 1
REMARK VINA RESULT:    -7.238      0.000      0.000
REMARK INTER + INTRA:         -14.402
REMARK INTER:                 -13.584
REMARK INTRA:                  -0.818
REMARK UNBOUND:                -0.818
REMARK SMILES CCCCCCCCC=CCCCCCCCC(=O)[O-]
REMARK SMILES IDX 10 1 9 2 11 3 12 4 13 5 14 6 15 7 16 8 17 9 18 10 19 11
REMARK SMILES IDX 20 12 8 13 7 14 6 15 5 16 4 17 3 18 2 19 1 20
REMARK H PARENT
REMARK Flexibility Score: inf
ROOT
ATOM      1  C   UNL     1      12.561  -2.722 -23.210  1.00  0.00    -0.031 C 
ATOM      2  C   UNL     1      13.314  -3.812 -23.425  1.00  0.00    -0.031 C 
ENDROOT
BRANCH   1   3
ATOM      3  C   UNL     1      12.897  -1.730 -22.127  1.00  0.00     0.027 C 
BRANCH   3   4
ATOM      4  C   UNL     1      11.664  -0.950 -21.650  1.00  0.00     0.004 C 
BRANCH   4   5
ATOM      5  C   UNL     1      10.621  -1.863 -20.980  1.00  0.00     0.000 C 
BRANCH   5   6
ATOM      6  C   UNL     1      10.312  -1.423 -19.533  1.00  0.00     0.000 C 
BRANCH   6   7
ATOM      7  C   UNL     1      11.541  -0.872 -18.786  1.00  0.00     0.000 C 
BRANCH   7   8
ATOM      8  C   UNL     1      11.229   0.400 -17.982  1.00  0.00     0.006 C 
BRANCH   8   9
ATOM      9  C   UNL     1      12.105   0.484 -16.727  1.00  0.00     0.053 C 
BRANCH   9  10
ATOM     10  C   UNL     1      13.251   1.424 -16.943  1.00  0.00     0.041 C 
ATOM     11  O   UNL     1      13.174   2.322 -17.823  1.00  0.00    -0.550 OA
ATOM     12  O   UNL     1      14.415   1.292 -16.191  1.00  0.00    -0.550 OA
ENDBRANCH   9  10
ENDBRANCH   8   9
ENDBRANCH   7   8
ENDBRANCH   6   7
ENDBRANCH   5   6
ENDBRANCH   4   5
ENDBRANCH   3   4
ENDBRANCH   1   3
BRANCH   2  13
ATOM     13  C   UNL     1      12.988  -4.793 -24.516  1.00  0.00     0.027 C 
BRANCH  13  14
ATOM     14  C   UNL     1      14.150  -4.926 -25.513  1.00  0.00     0.004 C 
BRANCH  14  15
ATOM     15  C   UNL     1      15.357  -4.059 -25.126  1.00  0.00     0.000 C 
BRANCH  15  16
ATOM     16  C   UNL     1      16.408  -4.842 -24.321  1.00  0.00     0.000 C 
BRANCH  16  17
ATOM     17  C   UNL     1      17.836  -4.634 -24.852  1.00  0.00    -0.000 C 
BRANCH  17  18
ATOM     18  C   UNL     1      18.037  -3.242 -25.469  1.00  0.00    -0.000 C 
BRANCH  18  19
ATOM     19  C   UNL     1      19.397  -2.658 -25.070  1.00  0.00    -0.003 C 
ATOM     20  C   UNL     1      20.077  -3.520 -24.009  1.00  0.00     0.004 C 
ENDBRANCH  18  19
ENDBRANCH  17  18
ENDBRANCH  16  17
ENDBRANCH  15  16
ENDBRANCH  14  15
ENDBRANCH  13  14
ENDBRANCH   2  13
TORSDOF 15
ENDMDL
MODEL 2
REMARK VINA RESULT:    -7.228      0.894      1.320
REMARK INTER + INTRA:         -14.384
REMARK INTER:                 -13.578
REMARK INTRA:                  -0.806
REMARK UNBOUND:                -0.818
REMARK SMILES CCCCCCCCC=CCCCCCCCC(=O)[O-]
REMARK SMILES IDX 10 1 9 2 11 3 12 4 13 5 14 6 15 7 16 8 17 9 18 10 19 11
REMARK SMILES IDX 20 12 8 13 7 14 6 15 5 16 4 17 3 18 2 19 1 20
REMARK H PARENT
REMARK Flexibility Score: inf
ROOT
ATOM      1  C   UNL     1      12.521  -3.177 -23.638  1.00  0.00    -0.031 C 
ATOM      2  C   UNL     1      13.645  -3.911 -23.625  1.00  0.00    -0.031 C 
ENDROOT
BRANCH   1   3
ATOM      3  C   UNL     1      12.362  -1.958 -22.769  1.00  0.00     0.027 C 
BRANCH   3   4
ATOM      4  C   UNL     1      11.132  -2.052 -21.855  1.00  0.00     0.004 C 
BRANCH   4   5
ATOM      5  C   UNL     1      11.255  -1.141 -20.620  1.00  0.00     0.000 C 
BRANCH   5   6
ATOM      6  C   UNL     1      12.721  -0.750 -20.334  1.00  0.00     0.000 C 
BRANCH   6   7
ATOM      7  C   UNL     1      13.012  -0.518 -18.839  1.00  0.00     0.000 C 
BRANCH   7   8
ATOM      8  C   UNL     1      11.798   0.030 -18.074  1.00  0.00     0.006 C 
BRANCH   8   9
ATOM      9  C   UNL     1      12.213   0.568 -16.700  1.00  0.00     0.053 C 
BRANCH   9  10
ATOM     10  C   UNL     1      13.380   1.497 -16.826  1.00  0.00     0.041 C 
ATOM     11  O   UNL     1      14.434   1.279 -16.171  1.00  0.00    -0.550 OA
ATOM     12  O   UNL     1      13.296   2.620 -17.645  1.00  0.00    -0.550 OA
ENDBRANCH   9  10
ENDBRANCH   8   9
ENDBRANCH   7   8
ENDBRANCH   6   7
ENDBRANCH   5   6
ENDBRANCH   4   5
ENDBRANCH   3   4
ENDBRANCH   1   3
BRANCH   2  13
ATOM     13  C   UNL     1      13.810  -5.119 -24.504  1.00  0.00     0.027 C 
BRANCH  13  14
ATOM     14  C   UNL     1      14.781  -4.837 -25.662  1.00  0.00     0.004 C 
BRANCH  14  15
ATOM     15  C   UNL     1      16.032  -4.072 -25.206  1.00  0.00     0.000 C 
BRANCH  15  16
ATOM     16  C   UNL     1      17.019  -4.967 -24.437  1.00  0.00     0.000 C 
BRANCH  16  17
ATOM     17  C   UNL     1      18.486  -4.645 -24.763  1.00  0.00    -0.000 C 
BRANCH  17  18
ATOM     18  C   UNL     1      18.818  -3.157 -24.575  1.00  0.00    -0.000 C 
BRANCH  18  19
ATOM     19  C   UNL     1      20.335  -2.933 -24.553  1.00  0.00    -0.003 C 
ATOM     20  C   UNL     1      20.787  -2.102 -25.751  1.00  0.00     0.004 C 
ENDBRANCH  18  19
ENDBRANCH  17  18
ENDBRANCH  16  17
ENDBRANCH  15  16
ENDBRANCH  14  15
ENDBRANCH  13  14
ENDBRANCH   2  13
TORSDOF 15
ENDMDL
MODEL 3
REMARK VINA RESULT:    -6.787      3.955      8.593
REMARK INTER + INTRA:         -13.557
REMARK INTER:                 -12.529
REMARK INTRA:                  -1.029
REMARK UNBOUND:                -0.818
REMARK SMILES CCCCCCCCC=CCCCCCCCC(=O)[O-]
REMARK SMILES IDX 10 1 9 2 11 3 12 4 13 5 14 6 15 7 16 8 17 9 18 10 19 11
REMARK SMILES IDX 20 12 8 13 7 14 6 15 5 16 4 17 3 18 2 19 1 20
REMARK H PARENT
REMARK Flexibility Score: inf
ROOT
ATOM      1  C   UNL     1      12.239  -4.391 -23.895  1.00  0.00    -0.031 C 
ATOM      2  C   UNL     1      12.356  -3.211 -23.265  1.00  0.00    -0.031 C 
ENDROOT
BRANCH   1   3
ATOM      3  C   UNL     1      13.446  -5.201 -24.288  1.00  0.00     0.027 C 
BRANCH   3   4
ATOM      4  C   UNL     1      13.982  -4.811 -25.673  1.00  0.00     0.004 C 
BRANCH   4   5
ATOM      5  C   UNL     1      15.445  -4.336 -25.618  1.00  0.00     0.000 C 
BRANCH   5   6
ATOM      6  C   UNL     1      16.135  -4.740 -24.296  1.00  0.00     0.000 C 
BRANCH   6   7
ATOM      7  C   UNL     1      17.671  -4.662 -24.360  1.00  0.00     0.000 C 
BRANCH   7   8
ATOM      8  C   UNL     1      18.176  -3.399 -25.074  1.00  0.00     0.006 C 
BRANCH   8   9
ATOM      9  C   UNL     1      19.462  -2.878 -24.424  1.00  0.00     0.053 C 
BRANCH   9  10
ATOM     10  C   UNL     1      20.589  -3.842 -24.629  1.00  0.00     0.041 C 
ATOM     11  O   UNL     1      21.040  -4.048 -25.787  1.00  0.00    -0.550 OA
ATOM     12  O   UNL     1      21.124  -4.533 -23.546  1.00  0.00    -0.550 OA
ENDBRANCH   9  10
ENDBRANCH   8   9
ENDBRANCH   7   8
ENDBRANCH   6   7
ENDBRANCH   5   6
ENDBRANCH   4   5
ENDBRANCH   3   4
ENDBRANCH   1   3
BRANCH   2  13
ATOM     13  C   UNL     1      11.151  -2.411 -22.858  1.00  0.00     0.027 C 
BRANCH  13  14
ATOM     14  C   UNL     1      11.487  -1.435 -21.720  1.00  0.00     0.004 C 
BRANCH  14  15
ATOM     15  C   UNL     1      12.973  -1.044 -21.701  1.00  0.00     0.000 C 
BRANCH  15  16
ATOM     16  C   UNL     1      13.480  -0.734 -20.282  1.00  0.00     0.000 C 
BRANCH  16  17
ATOM     17  C   UNL     1      12.348  -0.324 -19.327  1.00  0.00    -0.000 C 
BRANCH  17  18
ATOM     18  C   UNL     1      12.644  -0.699 -17.867  1.00  0.00    -0.000 C 
BRANCH  18  19
ATOM     19  C   UNL     1      12.157   0.396 -16.911  1.00  0.00    -0.003 C 
ATOM     20  C   UNL     1      13.038   1.640 -17.003  1.00  0.00     0.004 C 
ENDBRANCH  18  19
ENDBRANCH  17  18
ENDBRANCH  16  17
ENDBRANCH  15  16
ENDBRANCH  14  15
ENDBRANCH  13  14
ENDBRANCH   2  13
TORSDOF 15
ENDMDL
MODEL 4
REMARK VINA RESULT:    -6.330      1.600      2.248
REMARK INTER + INTRA:         -12.698
REMARK INTER:                 -11.953
REMARK INTRA:                  -0.745
REMARK UNBOUND:                -0.818
REMARK SMILES CCCCCCCCC=CCCCCCCCC(=O)[O-]
REMARK SMILES IDX 10 1 9 2 11 3 12 4 13 5 14 6 15 7 16 8 17 9 18 10 19 11
REMARK SMILES IDX 20 12 8 13 7 14 6 15 5 16 4 17 3 18 2 19 1 20
REMARK H PARENT
REMARK Flexibility Score: inf
ROOT
ATOM      1  C   UNL     1      11.152  -2.866 -22.517  1.00  0.00    -0.031 C 
ATOM      2  C   UNL     1      12.288  -2.185 -22.732  1.00  0.00    -0.031 C 
ENDROOT
BRANCH   1   3
ATOM      3  C   UNL     1      10.190  -2.476 -21.426  1.00  0.00     0.027 C 
BRANCH   3   4
ATOM      4  C   UNL     1      10.751  -1.365 -20.525  1.00  0.00     0.004 C 
BRANCH   4   5
ATOM      5  C   UNL     1      10.039  -1.308 -19.162  1.00  0.00     0.000 C 
BRANCH   5   6
ATOM      6  C   UNL     1      10.279   0.036 -18.441  1.00  0.00     0.000 C 
BRANCH   6   7
ATOM      7  C   UNL     1      11.357  -0.043 -17.343  1.00  0.00     0.000 C 
BRANCH   7   8
ATOM      8  C   UNL     1      12.555   0.878 -17.617  1.00  0.00     0.006 C 
BRANCH   8   9
ATOM      9  C   UNL     1      12.936   0.856 -19.101  1.00  0.00     0.053 C 
BRANCH   9  10
ATOM     10  C   UNL     1      13.867  -0.280 -19.393  1.00  0.00     0.041 C 
ATOM     11  O   UNL     1      14.213  -1.066 -18.471  1.00  0.00    -0.550 OA
ATOM     12  O   UNL     1      14.372  -0.458 -20.678  1.00  0.00    -0.550 OA
ENDBRANCH   9  10
ENDBRANCH   8   9
ENDBRANCH   7   8
ENDBRANCH   6   7
ENDBRANCH   5   6
ENDBRANCH   4   5
ENDBRANCH   3   4
ENDBRANCH   1   3
BRANCH   2  13
ATOM     13  C   UNL     1      13.240  -2.565 -23.831  1.00  0.00     0.027 C 
BRANCH  13  14
ATOM     14  C   UNL     1      13.294  -4.090 -24.020  1.00  0.00     0.004 C 
BRANCH  14  15
ATOM     15  C   UNL     1      14.333  -4.515 -25.068  1.00  0.00     0.000 C 
BRANCH  15  16
ATOM     16  C   UNL     1      15.684  -4.892 -24.436  1.00  0.00     0.000 C 
BRANCH  16  17
ATOM     17  C   UNL     1      16.843  -4.031 -24.963  1.00  0.00    -0.000 C 
BRANCH  17  18
ATOM     18  C   UNL     1      18.204  -4.468 -24.400  1.00  0.00    -0.000 C 
BRANCH  18  19
ATOM     19  C   UNL     1      19.098  -3.253 -24.126  1.00  0.00    -0.003 C 
ATOM     20  C   UNL     1      19.478  -2.545 -25.424  1.00  0.00     0.004 C 
ENDBRANCH  18  19
ENDBRANCH  17  18
ENDBRANCH  16  17
ENDBRANCH  15  16
ENDBRANCH  14  15
ENDBRANCH  13  14
ENDBRANCH   2  13
TORSDOF 15
ENDMDL
MODEL 5
REMARK VINA RESULT:    -6.234      1.782      3.435
REMARK INTER + INTRA:         -12.519
REMARK INTER:                 -11.670
REMARK INTRA:                  -0.848
REMARK UNBOUND:                -0.818
REMARK SMILES CCCCCCCCC=CCCCCCCCC(=O)[O-]
REMARK SMILES IDX 10 1 9 2 11 3 12 4 13 5 14 6 15 7 16 8 17 9 18 10 19 11
REMARK SMILES IDX 20 12 8 13 7 14 6 15 5 16 4 17 3 18 2 19 1 20
REMARK H PARENT
REMARK Flexibility Score: inf
ROOT
ATOM      1  C   UNL     1      14.628  -4.796 -24.684  1.00  0.00    -0.031 C 
ATOM      2  C   UNL     1      15.697  -3.985 -24.728  1.00  0.00    -0.031 C 
ENDROOT
BRANCH   1   3
ATOM      3  C   UNL     1      13.412  -4.457 -23.863  1.00  0.00     0.027 C 
BRANCH   3   4
ATOM      4  C   UNL     1      13.614  -3.188 -23.021  1.00  0.00     0.004 C 
BRANCH   4   5
ATOM      5  C   UNL     1      12.489  -2.161 -23.238  1.00  0.00     0.000 C 
BRANCH   5   6
ATOM      6  C   UNL     1      11.356  -2.315 -22.200  1.00  0.00     0.000 C 
BRANCH   6   7
ATOM      7  C   UNL     1      11.311  -1.172 -21.170  1.00  0.00     0.000 C 
BRANCH   7   8
ATOM      8  C   UNL     1      12.622  -0.374 -21.107  1.00  0.00     0.006 C 
BRANCH   8   9
ATOM      9  C   UNL     1      13.390  -0.680 -19.817  1.00  0.00     0.053 C 
BRANCH   9  10
ATOM     10  C   UNL     1      12.750  -0.004 -18.645  1.00  0.00     0.041 C 
ATOM     11  O   UNL     1      12.053  -0.670 -17.834  1.00  0.00    -0.550 OA
ATOM     12  O   UNL     1      12.901   1.368 -18.461  1.00  0.00    -0.550 OA
ENDBRANCH   9  10
ENDBRANCH   8   9
ENDBRANCH   7   8
ENDBRANCH   6   7
ENDBRANCH   5   6
ENDBRANCH   4   5
ENDBRANCH   3   4
ENDBRANCH   1   3
BRANCH   2  13
ATOM     13  C   UNL     1      16.904  -4.316 -25.561  1.00  0.00     0.027 C 
BRANCH  13  14
ATOM     14  C   UNL     1      18.035  -4.898 -24.698  1.00  0.00     0.004 C 
BRANCH  14  15
ATOM     15  C   UNL     1      19.067  -3.837 -24.289  1.00  0.00     0.000 C 
BRANCH  15  16
ATOM     16  C   UNL     1      20.369  -3.941 -25.103  1.00  0.00     0.000 C 
BRANCH  16  17
ATOM     17  C   UNL     1      21.048  -2.578 -25.309  1.00  0.00    -0.000 C 
BRANCH  17  18
ATOM     18  C   UNL     1      20.232  -1.643 -26.213  1.00  0.00    -0.000 C 
BRANCH  18  19
ATOM     19  C   UNL     1      21.125  -0.993 -27.276  1.00  0.00    -0.003 C 
ATOM     20  C   UNL     1      20.956   0.524 -27.285  1.00  0.00     0.004 C 
ENDBRANCH  18  19
ENDBRANCH  17  18
ENDBRANCH  16  17
ENDBRANCH  15  16
ENDBRANCH  14  15
ENDBRANCH  13  14
ENDBRANCH   2  13
TORSDOF 15
ENDMDL
MODEL 6
REMARK VINA RESULT:    -6.133      4.211      9.291
REMARK INTER + INTRA:         -12.329
REMARK INTER:                 -11.454
REMARK INTRA:                  -0.875
REMARK UNBOUND:                -0.818
REMARK SMILES CCCCCCCCC=CCCCCCCCC(=O)[O-]
REMARK SMILES IDX 10 1 9 2 11 3 12 4 13 5 14 6 15 7 16 8 17 9 18 10 19 11
REMARK SMILES IDX 20 12 8 13 7 14 6 15 5 16 4 17 3 18 2 19 1 20
REMARK H PARENT
REMARK Flexibility Score: inf
ROOT
ATOM      1  C   UNL     1      14.934  -3.710 -24.762  1.00  0.00    -0.031 C 
ATOM      2  C   UNL     1      14.052  -3.730 -23.750  1.00  0.00    -0.031 C 
ENDROOT
BRANCH   1   3
ATOM      3  C   UNL     1      15.770  -4.914 -25.105  1.00  0.00     0.027 C 
BRANCH   3   4
ATOM      4  C   UNL     1      17.090  -4.949 -24.322  1.00  0.00     0.004 C 
BRANCH   4   5
ATOM      5  C   UNL     1      17.837  -3.604 -24.381  1.00  0.00     0.000 C 
BRANCH   5   6
ATOM      6  C   UNL     1      19.364  -3.784 -24.242  1.00  0.00     0.000 C 
BRANCH   6   7
ATOM      7  C   UNL     1      20.089  -3.923 -25.594  1.00  0.00     0.000 C 
BRANCH   7   8
ATOM      8  C   UNL     1      21.125  -2.814 -25.831  1.00  0.00     0.006 C 
BRANCH   8   9
ATOM      9  C   UNL     1      20.466  -1.431 -25.797  1.00  0.00     0.053 C 
BRANCH   9  10
ATOM     10  C   UNL     1      20.720  -0.690 -27.074  1.00  0.00     0.041 C 
ATOM     11  O   UNL     1      21.008  -1.323 -28.124  1.00  0.00    -0.550 OA
ATOM     12  O   UNL     1      20.666   0.701 -27.098  1.00  0.00    -0.550 OA
ENDBRANCH   9  10
ENDBRANCH   8   9
ENDBRANCH   7   8
ENDBRANCH   6   7
ENDBRANCH   5   6
ENDBRANCH   4   5
ENDBRANCH   3   4
ENDBRANCH   1   3
BRANCH   2  13
ATOM     13  C   UNL     1      13.206  -2.532 -23.418  1.00  0.00     0.027 C 
BRANCH  13  14
ATOM     14  C   UNL     1      11.939  -2.941 -22.649  1.00  0.00     0.004 C 
BRANCH  14  15
ATOM     15  C   UNL     1      11.229  -1.739 -22.008  1.00  0.00     0.000 C 
BRANCH  15  16
ATOM     16  C   UNL     1      12.216  -0.658 -21.535  1.00  0.00     0.000 C 
BRANCH  16  17
ATOM     17  C   UNL     1      12.458  -0.702 -20.017  1.00  0.00    -0.000 C 
BRANCH  17  18
ATOM     18  C   UNL     1      11.166  -0.942 -19.222  1.00  0.00    -0.000 C 
BRANCH  18  19
ATOM     19  C   UNL     1      11.024   0.080 -18.088  1.00  0.00    -0.003 C 
ATOM     20  C   UNL     1      12.277   0.113 -17.216  1.00  0.00     0.004 C 
ENDBRANCH  18  19
ENDBRANCH  17  18
ENDBRANCH  16  17
ENDBRANCH  15  16
ENDBRANCH  14  15
ENDBRANCH  13  14
ENDBRANCH   2  13
TORSDOF 15
ENDMDL
MODEL 7
REMARK VINA RESULT:    -6.062      3.788      8.797
REMARK INTER + INTRA:         -12.197
REMARK INTER:                 -11.017
REMARK INTRA:                  -1.179
REMARK UNBOUND:                -0.818
REMARK SMILES CCCCCCCCC=CCCCCCCCC(=O)[O-]
REMARK SMILES IDX 10 1 9 2 11 3 12 4 13 5 14 6 15 7 16 8 17 9 18 10 19 11
REMARK SMILES IDX 20 12 8 13 7 14 6 15 5 16 4 17 3 18 2 19 1 20
REMARK H PARENT
REMARK Flexibility Score: inf
ROOT
ATOM      1  C   UNL     1      12.278  -1.770 -21.830  1.00  0.00    -0.031 C 
ATOM      2  C   UNL     1      13.440  -1.134 -21.611  1.00  0.00    -0.031 C 
ENDROOT
BRANCH   1   3
ATOM      3  C   UNL     1      12.035  -2.562 -23.087  1.00  0.00     0.027 C 
BRANCH   3   4
ATOM      4  C   UNL     1      13.306  -3.262 -23.590  1.00  0.00     0.004 C 
BRANCH   4   5
ATOM      5  C   UNL     1      12.990  -4.430 -24.540  1.00  0.00     0.000 C 
BRANCH   5   6
ATOM      6  C   UNL     1      14.254  -4.948 -25.261  1.00  0.00     0.000 C 
BRANCH   6   7
ATOM      7  C   UNL     1      15.521  -4.894 -24.387  1.00  0.00     0.000 C 
BRANCH   7   8
ATOM      8  C   UNL     1      16.721  -4.271 -25.116  1.00  0.00     0.006 C 
BRANCH   8   9
ATOM      9  C   UNL     1      18.039  -4.674 -24.446  1.00  0.00     0.053 C 
BRANCH   9  10
ATOM     10  C   UNL     1      19.167  -3.821 -24.939  1.00  0.00     0.041 C 
ATOM     11  O   UNL     1      20.157  -4.351 -25.510  1.00  0.00    -0.550 OA
ATOM     12  O   UNL     1      19.138  -2.443 -24.745  1.00  0.00    -0.550 OA
ENDBRANCH   9  10
ENDBRANCH   8   9
ENDBRANCH   7   8
ENDBRANCH   6   7
ENDBRANCH   5   6
ENDBRANCH   4   5
ENDBRANCH   3   4
ENDBRANCH   1   3
BRANCH   2  13
ATOM     13  C   UNL     1      13.689  -0.357 -20.349  1.00  0.00     0.027 C 
BRANCH  13  14
ATOM     14  C   UNL     1      13.237   1.104 -20.495  1.00  0.00     0.004 C 
BRANCH  14  15
ATOM     15  C   UNL     1      12.765   1.709 -19.164  1.00  0.00     0.000 C 
BRANCH  15  16
ATOM     16  C   UNL     1      12.889   0.718 -17.994  1.00  0.00     0.000 C 
BRANCH  16  17
ATOM     17  C   UNL     1      11.574   0.553 -17.217  1.00  0.00    -0.000 C 
BRANCH  17  18
ATOM     18  C   UNL     1      10.404   0.136 -18.120  1.00  0.00    -0.000 C 
BRANCH  18  19
ATOM     19  C   UNL     1      10.710  -1.184 -18.836  1.00  0.00    -0.003 C 
ATOM     20  C   UNL     1       9.483  -1.702 -19.584  1.00  0.00     0.004 C 
ENDBRANCH  18  19
ENDBRANCH  17  18
ENDBRANCH  16  17
ENDBRANCH  15  16
ENDBRANCH  14  15
ENDBRANCH  13  14
ENDBRANCH   2  13
TORSDOF 15
ENDMDL
MODEL 8
REMARK VINA RESULT:    -5.945      1.665      2.291
REMARK INTER + INTRA:         -11.977
REMARK INTER:                 -11.197
REMARK INTRA:                  -0.780
REMARK UNBOUND:                -0.818
REMARK SMILES CCCCCCCCC=CCCCCCCCC(=O)[O-]
REMARK SMILES IDX 10 1 9 2 11 3 12 4 13 5 14 6 15 7 16 8 17 9 18 10 19 11
REMARK SMILES IDX 20 12 8 13 7 14 6 15 5 16 4 17 3 18 2 19 1 20
REMARK H PARENT
REMARK Flexibility Score: inf
ROOT
ATOM      1  C   UNL     1      12.562  -2.322 -22.682  1.00  0.00    -0.031 C 
ATOM      2  C   UNL     1      13.089  -3.428 -23.231  1.00  0.00    -0.031 C 
ENDROOT
BRANCH   1   3
ATOM      3  C   UNL     1      13.381  -1.403 -21.814  1.00  0.00     0.027 C 
BRANCH   3   4
ATOM      4  C   UNL     1      12.586  -0.170 -21.360  1.00  0.00     0.004 C 
BRANCH   4   5
ATOM      5  C   UNL     1      13.488   0.900 -20.719  1.00  0.00     0.000 C 
BRANCH   5   6
ATOM      6  C   UNL     1      12.688   1.870 -19.822  1.00  0.00     0.000 C 
BRANCH   6   7
ATOM      7  C   UNL     1      12.670   1.457 -18.339  1.00  0.00     0.000 C 
BRANCH   7   8
ATOM      8  C   UNL     1      11.449   0.600 -17.973  1.00  0.00     0.006 C 
BRANCH   8   9
ATOM      9  C   UNL     1      11.699  -0.877 -18.295  1.00  0.00     0.053 C 
BRANCH   9  10
ATOM     10  C   UNL     1      12.941  -1.366 -17.616  1.00  0.00     0.041 C 
ATOM     11  O   UNL     1      12.894  -1.762 -16.421  1.00  0.00    -0.550 OA
ATOM     12  O   UNL     1      14.157  -1.359 -18.294  1.00  0.00    -0.550 OA
ENDBRANCH   9  10
ENDBRANCH   8   9
ENDBRANCH   7   8
ENDBRANCH   6   7
ENDBRANCH   5   6
ENDBRANCH   4   5
ENDBRANCH   3   4
ENDBRANCH   1   3
BRANCH   2  13
ATOM     13  C   UNL     1      12.275  -4.336 -24.110  1.00  0.00     0.027 C 
BRANCH  13  14
ATOM     14  C   UNL     1      13.050  -4.723 -25.380  1.00  0.00     0.004 C 
BRANCH  14  15
ATOM     15  C   UNL     1      14.507  -5.109 -25.084  1.00  0.00     0.000 C 
BRANCH  15  16
ATOM     16  C   UNL     1      15.452  -4.768 -26.250  1.00  0.00     0.000 C 
BRANCH  16  17
ATOM     17  C   UNL     1      16.671  -3.947 -25.801  1.00  0.00    -0.000 C 
BRANCH  17  18
ATOM     18  C   UNL     1      17.164  -4.341 -24.401  1.00  0.00    -0.000 C 
BRANCH  18  19
ATOM     19  C   UNL     1      18.690  -4.224 -24.305  1.00  0.00    -0.003 C 
ATOM     20  C   UNL     1      19.162  -2.828 -24.705  1.00  0.00     0.004 C 
ENDBRANCH  18  19
ENDBRANCH  17  18
ENDBRANCH  16  17
ENDBRANCH  15  16
ENDBRANCH  14  15
ENDBRANCH  13  14
ENDBRANCH   2  13
TORSDOF 15
ENDMDL
MODEL 9
REMARK VINA RESULT:    -5.901      3.736      8.603
REMARK INTER + INTRA:         -11.894
REMARK INTER:                 -10.652
REMARK INTRA:                  -1.242
REMARK UNBOUND:                -0.818
REMARK SMILES CCCCCCCCC=CCCCCCCCC(=O)[O-]
REMARK SMILES IDX 10 1 9 2 11 3 12 4 13 5 14 6 15 7 16 8 17 9 18 10 19 11
REMARK SMILES IDX 20 12 8 13 7 14 6 15 5 16 4 17 3 18 2 19 1 20
REMARK H PARENT
REMARK Flexibility Score: inf
ROOT
ATOM      1  C   UNL     1      12.823  -2.495 -22.915  1.00  0.00    -0.031 C 
ATOM      2  C   UNL     1      11.681  -2.042 -22.374  1.00  0.00    -0.031 C 
ENDROOT
BRANCH   1   3
ATOM      3  C   UNL     1      12.835  -3.645 -23.888  1.00  0.00     0.027 C 
BRANCH   3   4
ATOM      4  C   UNL     1      13.877  -4.710 -23.517  1.00  0.00     0.004 C 
BRANCH   4   5
ATOM      5  C   UNL     1      14.271  -5.583 -24.722  1.00  0.00     0.000 C 
BRANCH   5   6
ATOM      6  C   UNL     1      14.650  -4.732 -25.953  1.00  0.00     0.000 C 
BRANCH   6   7
ATOM      7  C   UNL     1      16.164  -4.702 -26.232  1.00  0.00     0.000 C 
BRANCH   7   8
ATOM      8  C   UNL     1      16.918  -3.718 -25.326  1.00  0.00     0.006 C 
BRANCH   8   9
ATOM      9  C   UNL     1      18.028  -4.431 -24.546  1.00  0.00     0.053 C 
BRANCH   9  10
ATOM     10  C   UNL     1      19.315  -3.671 -24.640  1.00  0.00     0.041 C 
ATOM     11  O   UNL     1      20.414  -4.271 -24.504  1.00  0.00    -0.550 OA
ATOM     12  O   UNL     1      19.301  -2.295 -24.852  1.00  0.00    -0.550 OA
ENDBRANCH   9  10
ENDBRANCH   8   9
ENDBRANCH   7   8
ENDBRANCH   6   7
ENDBRANCH   5   6
ENDBRANCH   4   5
ENDBRANCH   3   4
ENDBRANCH   1   3
BRANCH   2  13
ATOM     13  C   UNL     1      11.668  -0.884 -21.416  1.00  0.00     0.027 C 
BRANCH  13  14
ATOM     14  C   UNL     1      13.026  -0.727 -20.712  1.00  0.00     0.004 C 
BRANCH  14  15
ATOM     15  C   UNL     1      13.575   0.704 -20.810  1.00  0.00     0.000 C 
BRANCH  15  16
ATOM     16  C   UNL     1      12.756   1.705 -19.976  1.00  0.00     0.000 C 
BRANCH  16  17
ATOM     17  C   UNL     1      12.881   1.457 -18.465  1.00  0.00    -0.000 C 
BRANCH  17  18
ATOM     18  C   UNL     1      11.578   0.931 -17.844  1.00  0.00    -0.000 C 
BRANCH  18  19
ATOM     19  C   UNL     1      11.870  -0.128 -16.775  1.00  0.00    -0.003 C 
ATOM     20  C   UNL     1      12.887  -1.151 -17.274  1.00  0.00     0.004 C 
ENDBRANCH  18  19
ENDBRANCH  17  18
ENDBRANCH  16  17
ENDBRANCH  15  16
ENDBRANCH  14  15
ENDBRANCH  13  14
ENDBRANCH   2  13
TORSDOF 15
ENDMDL
