MODEL 1
REMARK VINA RESULT:    -5.057      0.000      0.000
REMARK INTER + INTRA:          -6.231
REMARK INTER:                  -5.944
REMARK INTRA:                  -0.286
REMARK UNBOUND:                -0.286
REMARK SMILES O=C([O-])C=Cc1ccc(O)c(O)c1
REMARK SMILES IDX 6 1 13 2 7 3 11 4 8 5 9 6 5 7 4 8 2 9 1 10 3 11 12 12 10 14
REMARK H PARENT 12 13 10 15
REMARK Flexibility Score: inf
ROOT
ATOM      1  C   UNL     1      26.421  30.161 -12.855  1.00  0.00    -0.022 A 
ATOM      2  C   UNL     1      26.565  30.256 -11.459  1.00  0.00     0.058 A 
ATOM      3  C   UNL     1      27.565  30.155 -13.664  1.00  0.00     0.012 A 
ATOM      4  C   UNL     1      27.837  30.396 -10.886  1.00  0.00     0.157 A 
ATOM      5  C   UNL     1      28.834  30.294 -13.094  1.00  0.00     0.051 A 
ATOM      6  C   UNL     1      28.973  30.419 -11.705  1.00  0.00     0.157 A 
ENDROOT
BRANCH   1   7
ATOM      7  C   UNL     1      25.095  29.960 -13.476  1.00  0.00     0.010 C 
ATOM      8  C   UNL     1      24.204  30.929 -13.733  1.00  0.00     0.025 C 
BRANCH   8   9
ATOM      9  C   UNL     1      24.457  32.378 -13.621  1.00  0.00     0.064 C 
ATOM     10  O   UNL     1      24.922  33.000 -14.611  1.00  0.00    -0.545 OA
ATOM     11  O   UNL     1      24.262  33.058 -12.425  1.00  0.00    -0.545 OA
ENDBRANCH   8   9
ENDBRANCH   1   7
BRANCH   4  12
ATOM     12  O   UNL     1      27.979  30.507  -9.504  1.00  0.00    -0.504 OA
ATOM     13  H   UNL     1      27.490  31.220  -8.977  1.00  0.00     0.293 HD
ENDBRANCH   4  12
BRANCH   6  14
ATOM     14  O   UNL     1      30.235  30.562 -11.132  1.00  0.00    -0.504 OA
ATOM     15  H   UNL     1      30.889  31.264 -11.458  1.00  0.00     0.293 HD
ENDBRANCH   6  14
TORSDOF 4
ENDMDL
MODEL 2
REMARK VINA RESULT:    -4.967      2.520      3.440
REMARK INTER + INTRA:          -6.124
REMARK INTER:                  -5.937
REMARK INTRA:                  -0.187
REMARK UNBOUND:                -0.286
REMARK SMILES O=C([O-])C=Cc1ccc(O)c(O)c1
REMARK SMILES IDX 6 1 13 2 7 3 11 4 8 5 9 6 5 7 4 8 2 9 1 10 3 11 12 12 10 14
REMARK H PARENT 12 13 10 15
REMARK Flexibility Score: inf
ROOT
ATOM      1  C   UNL     1      27.183  30.273 -13.602  1.00  0.00    -0.022 A 
ATOM      2  C   UNL     1      28.512  30.211 -13.146  1.00  0.00     0.058 A 
ATOM      3  C   UNL     1      26.153  30.512 -12.682  1.00  0.00     0.012 A 
ATOM      4  C   UNL     1      28.799  30.335 -11.779  1.00  0.00     0.157 A 
ATOM      5  C   UNL     1      26.438  30.636 -11.319  1.00  0.00     0.051 A 
ATOM      6  C   UNL     1      27.759  30.543 -10.863  1.00  0.00     0.157 A 
ENDROOT
BRANCH   1   7
ATOM      7  C   UNL     1      26.863  30.197 -15.042  1.00  0.00     0.010 C 
ATOM      8  C   UNL     1      26.309  29.143 -15.660  1.00  0.00     0.025 C 
BRANCH   8   9
ATOM      9  C   UNL     1      25.748  27.956 -14.990  1.00  0.00     0.064 C 
ATOM     10  O   UNL     1      24.560  27.985 -14.577  1.00  0.00    -0.545 OA
ATOM     11  O   UNL     1      26.524  26.829 -14.740  1.00  0.00    -0.545 OA
ENDBRANCH   8   9
ENDBRANCH   1   7
BRANCH   4  12
ATOM     12  O   UNL     1      30.115  30.257 -11.325  1.00  0.00    -0.504 OA
ATOM     13  H   UNL     1      30.701  31.080 -11.258  1.00  0.00     0.293 HD
ENDBRANCH   4  12
BRANCH   6  14
ATOM     14  O   UNL     1      28.048  30.663  -9.505  1.00  0.00    -0.504 OA
ATOM     15  H   UNL     1      28.486  29.909  -8.988  1.00  0.00     0.293 HD
ENDBRANCH   6  14
TORSDOF 4
ENDMDL
MODEL 3
REMARK VINA RESULT:    -4.825      2.269      4.906
REMARK INTER + INTRA:          -5.958
REMARK INTER:                  -5.748
REMARK INTRA:                  -0.210
REMARK UNBOUND:                -0.286
REMARK SMILES O=C([O-])C=Cc1ccc(O)c(O)c1
REMARK SMILES IDX 6 1 13 2 7 3 11 4 8 5 9 6 5 7 4 8 2 9 1 10 3 11 12 12 10 14
REMARK H PARENT 12 13 10 15
REMARK Flexibility Score: inf
ROOT
ATOM      1  C   UNL     1      27.136  30.455 -11.753  1.00  0.00    -0.022 A 
ATOM      2  C   UNL     1      27.740  30.187 -12.995  1.00  0.00     0.058 A 
ATOM      3  C   UNL     1      25.861  31.037 -11.722  1.00  0.00     0.012 A 
ATOM      4  C   UNL     1      27.097  30.546 -14.188  1.00  0.00     0.157 A 
ATOM      5  C   UNL     1      25.219  31.395 -12.910  1.00  0.00     0.051 A 
ATOM      6  C   UNL     1      25.835  31.155 -14.146  1.00  0.00     0.157 A 
ENDROOT
BRANCH   1   7
ATOM      7  C   UNL     1      27.772  30.038 -10.487  1.00  0.00     0.010 C 
ATOM      8  C   UNL     1      27.413  28.976  -9.750  1.00  0.00     0.025 C 
BRANCH   8   9
ATOM      9  C   UNL     1      26.455  27.933 -10.163  1.00  0.00     0.064 C 
ATOM     10  O   UNL     1      25.403  27.763  -9.493  1.00  0.00    -0.545 OA
ATOM     11  O   UNL     1      26.722  27.085 -11.232  1.00  0.00    -0.545 OA
ENDBRANCH   8   9
ENDBRANCH   1   7
BRANCH   4  12
ATOM     12  O   UNL     1      27.702  30.296 -15.419  1.00  0.00    -0.504 OA
ATOM     13  H   UNL     1      28.261  29.466 -15.575  1.00  0.00     0.293 HD
ENDBRANCH   4  12
BRANCH   6  14
ATOM     14  O   UNL     1      25.201  31.513 -15.333  1.00  0.00    -0.504 OA
ATOM     15  H   UNL     1      25.557  31.218 -16.235  1.00  0.00     0.293 HD
ENDBRANCH   6  14
TORSDOF 4
ENDMDL
MODEL 4
REMARK VINA RESULT:    -4.805      2.338      2.744
REMARK INTER + INTRA:          -5.934
REMARK INTER:                  -5.683
REMARK INTRA:                  -0.250
REMARK UNBOUND:                -0.286
REMARK SMILES O=C([O-])C=Cc1ccc(O)c(O)c1
REMARK SMILES IDX 6 1 13 2 7 3 11 4 8 5 9 6 5 7 4 8 2 9 1 10 3 11 12 12 10 14
REMARK H PARENT 12 13 10 15
REMARK Flexibility Score: inf
ROOT
ATOM      1  C   UNL     1      26.520  30.527 -13.172  1.00  0.00    -0.022 A 
ATOM      2  C   UNL     1      26.562  30.465 -11.768  1.00  0.00     0.058 A 
ATOM      3  C   UNL     1      27.716  30.456 -13.899  1.00  0.00     0.012 A 
ATOM      4  C   UNL     1      27.792  30.386 -11.099  1.00  0.00     0.157 A 
ATOM      5  C   UNL     1      28.942  30.377 -13.234  1.00  0.00     0.051 A 
ATOM      6  C   UNL     1      28.985  30.347 -11.834  1.00  0.00     0.157 A 
ENDROOT
BRANCH   1   7
ATOM      7  C   UNL     1      25.233  30.557 -13.898  1.00  0.00     0.010 C 
ATOM      8  C   UNL     1      24.664  29.509 -14.513  1.00  0.00     0.025 C 
BRANCH   8   9
ATOM      9  C   UNL     1      25.117  28.109 -14.414  1.00  0.00     0.064 C 
ATOM     10  O   UNL     1      24.758  27.413 -13.428  1.00  0.00    -0.545 OA
ATOM     11  O   UNL     1      25.989  27.560 -15.347  1.00  0.00    -0.545 OA
ENDBRANCH   8   9
ENDBRANCH   1   7
BRANCH   4  12
ATOM     12  O   UNL     1      27.837  30.342  -9.707  1.00  0.00    -0.504 OA
ATOM     13  H   UNL     1      28.711  30.419  -9.202  1.00  0.00     0.293 HD
ENDBRANCH   4  12
BRANCH   6  14
ATOM     14  O   UNL     1      30.206  30.272 -11.166  1.00  0.00    -0.504 OA
ATOM     15  H   UNL     1      30.413  29.516 -10.524  1.00  0.00     0.293 HD
ENDBRANCH   6  14
TORSDOF 4
ENDMDL
MODEL 5
REMARK VINA RESULT:    -4.734      1.656      2.424
REMARK INTER + INTRA:          -5.851
REMARK INTER:                  -5.851
REMARK INTRA:                   0.000
REMARK UNBOUND:                -0.286
REMARK SMILES O=C([O-])C=Cc1ccc(O)c(O)c1
REMARK SMILES IDX 6 1 13 2 7 3 11 4 8 5 9 6 5 7 4 8 2 9 1 10 3 11 12 12 10 14
REMARK H PARENT 12 13 10 15
REMARK Flexibility Score: inf
ROOT
ATOM      1  C   UNL     1      26.010  30.153 -11.747  1.00  0.00    -0.022 A 
ATOM      2  C   UNL     1      26.392  30.246 -13.097  1.00  0.00     0.058 A 
ATOM      3  C   UNL     1      26.993  30.218 -10.750  1.00  0.00     0.012 A 
ATOM      4  C   UNL     1      27.746  30.349 -13.446  1.00  0.00     0.157 A 
ATOM      5  C   UNL     1      28.344  30.322 -11.096  1.00  0.00     0.051 A 
ATOM      6  C   UNL     1      28.724  30.383 -12.443  1.00  0.00     0.157 A 
ENDROOT
BRANCH   1   7
ATOM      7  C   UNL     1      24.587  30.096 -11.356  1.00  0.00     0.010 C 
ATOM      8  C   UNL     1      23.666  31.030 -11.636  1.00  0.00     0.025 C 
BRANCH   8   9
ATOM      9  C   UNL     1      23.861  32.179 -12.541  1.00  0.00     0.064 C 
ATOM     10  O   UNL     1      24.383  33.233 -12.094  1.00  0.00    -0.545 OA
ATOM     11  O   UNL     1      23.416  32.150 -13.857  1.00  0.00    -0.545 OA
ENDBRANCH   8   9
ENDBRANCH   1   7
BRANCH   4  12
ATOM     12  O   UNL     1      28.126  30.425 -14.785  1.00  0.00    -0.504 OA
ATOM     13  H   UNL     1      28.836  31.074 -15.098  1.00  0.00     0.293 HD
ENDBRANCH   4  12
BRANCH   6  14
ATOM     14  O   UNL     1      30.069  30.483 -12.793  1.00  0.00    -0.504 OA
ATOM     15  H   UNL     1      30.355  30.724 -13.735  1.00  0.00     0.293 HD
ENDBRANCH   6  14
TORSDOF 4
ENDMDL
MODEL 6
REMARK VINA RESULT:    -4.704      1.149      4.567
REMARK INTER + INTRA:          -5.815
REMARK INTER:                  -5.533
REMARK INTRA:                  -0.282
REMARK UNBOUND:                -0.286
REMARK SMILES O=C([O-])C=Cc1ccc(O)c(O)c1
REMARK SMILES IDX 6 1 13 2 7 3 11 4 8 5 9 6 5 7 4 8 2 9 1 10 3 11 12 12 10 14
REMARK H PARENT 12 13 10 15
REMARK Flexibility Score: inf
ROOT
ATOM      1  C   UNL     1      26.018  30.049 -12.501  1.00  0.00    -0.022 A 
ATOM      2  C   UNL     1      25.244  31.163 -12.130  1.00  0.00     0.058 A 
ATOM      3  C   UNL     1      26.526  29.970 -13.805  1.00  0.00     0.012 A 
ATOM      4  C   UNL     1      24.939  32.159 -13.069  1.00  0.00     0.157 A 
ATOM      5  C   UNL     1      26.222  30.962 -14.742  1.00  0.00     0.051 A 
ATOM      6  C   UNL     1      25.425  32.055 -14.379  1.00  0.00     0.157 A 
ENDROOT
BRANCH   1   7
ATOM      7  C   UNL     1      26.396  29.016 -11.514  1.00  0.00     0.010 C 
ATOM      8  C   UNL     1      27.551  28.979 -10.833  1.00  0.00     0.025 C 
BRANCH   8   9
ATOM      9  C   UNL     1      28.562  30.052 -10.802  1.00  0.00     0.064 C 
ATOM     10  O   UNL     1      28.396  31.032 -10.030  1.00  0.00    -0.545 OA
ATOM     11  O   UNL     1      29.658  30.042 -11.657  1.00  0.00    -0.545 OA
ENDBRANCH   8   9
ENDBRANCH   1   7
BRANCH   4  12
ATOM     12  O   UNL     1      24.157  33.255 -12.706  1.00  0.00    -0.504 OA
ATOM     13  H   UNL     1      24.542  34.028 -12.178  1.00  0.00     0.293 HD
ENDBRANCH   4  12
BRANCH   6  14
ATOM     14  O   UNL     1      25.117  33.045 -15.311  1.00  0.00    -0.504 OA
ATOM     15  H   UNL     1      24.718  33.932 -15.029  1.00  0.00     0.293 HD
ENDBRANCH   6  14
TORSDOF 4
ENDMDL
MODEL 7
REMARK VINA RESULT:    -4.673      1.537      4.929
REMARK INTER + INTRA:          -5.779
REMARK INTER:                  -5.506
REMARK INTRA:                  -0.272
REMARK UNBOUND:                -0.286
REMARK SMILES O=C([O-])C=Cc1ccc(O)c(O)c1
REMARK SMILES IDX 6 1 13 2 7 3 11 4 8 5 9 6 5 7 4 8 2 9 1 10 3 11 12 12 10 14
REMARK H PARENT 12 13 10 15
REMARK Flexibility Score: inf
ROOT
ATOM      1  C   UNL     1      25.477  30.467 -12.192  1.00  0.00    -0.022 A 
ATOM      2  C   UNL     1      25.697  29.993 -13.497  1.00  0.00     0.058 A 
ATOM      3  C   UNL     1      24.905  31.733 -12.008  1.00  0.00     0.012 A 
ATOM      4  C   UNL     1      25.397  30.800 -14.604  1.00  0.00     0.157 A 
ATOM      5  C   UNL     1      24.605  32.539 -13.111  1.00  0.00     0.051 A 
ATOM      6  C   UNL     1      24.853  32.077 -14.410  1.00  0.00     0.157 A 
ENDROOT
BRANCH   1   7
ATOM      7  C   UNL     1      25.738  29.614 -11.014  1.00  0.00     0.010 C 
ATOM      8  C   UNL     1      26.944  29.385 -10.472  1.00  0.00     0.025 C 
BRANCH   8   9
ATOM      9  C   UNL     1      28.191  30.087 -10.832  1.00  0.00     0.064 C 
ATOM     10  O   UNL     1      28.521  31.121 -10.196  1.00  0.00    -0.545 OA
ATOM     11  O   UNL     1      28.974  29.672 -11.903  1.00  0.00    -0.545 OA
ENDBRANCH   8   9
ENDBRANCH   1   7
BRANCH   4  12
ATOM     12  O   UNL     1      25.630  30.338 -15.898  1.00  0.00    -0.504 OA
ATOM     13  H   UNL     1      26.543  30.008 -16.186  1.00  0.00     0.293 HD
ENDBRANCH   4  12
BRANCH   6  14
ATOM     14  O   UNL     1      24.559  32.877 -15.512  1.00  0.00    -0.504 OA
ATOM     15  H   UNL     1      23.671  32.807 -15.996  1.00  0.00     0.293 HD
ENDBRANCH   6  14
TORSDOF 4
ENDMDL
MODEL 8
REMARK VINA RESULT:    -4.534      2.074      3.044
REMARK INTER + INTRA:          -5.615
REMARK INTER:                  -5.465
REMARK INTRA:                  -0.150
REMARK UNBOUND:                -0.286
REMARK SMILES O=C([O-])C=Cc1ccc(O)c(O)c1
REMARK SMILES IDX 6 1 13 2 7 3 11 4 8 5 9 6 5 7 4 8 2 9 1 10 3 11 12 12 10 14
REMARK H PARENT 12 13 10 15
REMARK Flexibility Score: inf
ROOT
ATOM      1  C   UNL     1      27.887  29.443 -12.044  1.00  0.00    -0.022 A 
ATOM      2  C   UNL     1      27.962  30.003 -10.756  1.00  0.00     0.058 A 
ATOM      3  C   UNL     1      27.223  28.222 -12.224  1.00  0.00     0.012 A 
ATOM      4  C   UNL     1      27.426  29.321  -9.655  1.00  0.00     0.157 A 
ATOM      5  C   UNL     1      26.687  27.542 -11.127  1.00  0.00     0.051 A 
ATOM      6  C   UNL     1      26.790  28.086  -9.840  1.00  0.00     0.157 A 
ENDROOT
BRANCH   1   7
ATOM      7  C   UNL     1      28.399  30.168 -13.225  1.00  0.00     0.010 C 
ATOM      8  C   UNL     1      27.645  30.669 -14.216  1.00  0.00     0.025 C 
BRANCH   8   9
ATOM      9  C   UNL     1      26.173  30.754 -14.212  1.00  0.00     0.064 C 
ATOM     10  O   UNL     1      25.513  30.041 -15.012  1.00  0.00    -0.545 OA
ATOM     11  O   UNL     1      25.500  31.655 -13.395  1.00  0.00    -0.545 OA
ENDBRANCH   8   9
ENDBRANCH   1   7
BRANCH   4  12
ATOM     12  O   UNL     1      27.515  29.867  -8.375  1.00  0.00    -0.504 OA
ATOM     13  H   UNL     1      26.822  29.667  -7.664  1.00  0.00     0.293 HD
ENDBRANCH   4  12
BRANCH   6  14
ATOM     14  O   UNL     1      26.261  27.410  -8.742  1.00  0.00    -0.504 OA
ATOM     15  H   UNL     1      25.311  27.569  -8.430  1.00  0.00     0.293 HD
ENDBRANCH   6  14
TORSDOF 4
ENDMDL
MODEL 9
REMARK VINA RESULT:    -4.509      2.690      3.594
REMARK INTER + INTRA:          -5.586
REMARK INTER:                  -5.299
REMARK INTRA:                  -0.287
REMARK UNBOUND:                -0.286
REMARK SMILES O=C([O-])C=Cc1ccc(O)c(O)c1
REMARK SMILES IDX 6 1 13 2 7 3 11 4 8 5 9 6 5 7 4 8 2 9 1 10 3 11 12 12 10 14
REMARK H PARENT 12 13 10 15
REMARK Flexibility Score: inf
ROOT
ATOM      1  C   UNL     1      26.081  30.474 -11.723  1.00  0.00    -0.022 A 
ATOM      2  C   UNL     1      26.445  30.509 -13.081  1.00  0.00     0.058 A 
ATOM      3  C   UNL     1      27.084  30.441 -10.745  1.00  0.00     0.012 A 
ATOM      4  C   UNL     1      27.795  30.458 -13.455  1.00  0.00     0.157 A 
ATOM      5  C   UNL     1      28.431  30.391 -11.116  1.00  0.00     0.051 A 
ATOM      6  C   UNL     1      28.790  30.395 -12.470  1.00  0.00     0.157 A 
ENDROOT
BRANCH   1   7
ATOM      7  C   UNL     1      24.668  30.578 -11.306  1.00  0.00     0.010 C 
ATOM      8  C   UNL     1      23.827  29.545 -11.148  1.00  0.00     0.025 C 
BRANCH   8   9
ATOM      9  C   UNL     1      24.206  28.120 -11.174  1.00  0.00     0.064 C 
ATOM     10  O   UNL     1      24.018  27.452 -12.224  1.00  0.00    -0.545 OA
ATOM     11  O   UNL     1      24.701  27.480 -10.044  1.00  0.00    -0.545 OA
ENDBRANCH   8   9
ENDBRANCH   1   7
BRANCH   4  12
ATOM     12  O   UNL     1      28.156  30.476 -14.802  1.00  0.00    -0.504 OA
ATOM     13  H   UNL     1      28.909  29.899 -15.156  1.00  0.00     0.293 HD
ENDBRANCH   4  12
BRANCH   6  14
ATOM     14  O   UNL     1      30.131  30.342 -12.846  1.00  0.00    -0.504 OA
ATOM     15  H   UNL     1      30.804  31.021 -12.507  1.00  0.00     0.293 HD
ENDBRANCH   6  14
TORSDOF 4
ENDMDL
