MODEL 1
REMARK VINA RESULT:    -2.934      0.000      0.000
REMARK INTER + INTRA:          -2.934
REMARK INTER:                  -2.934
REMARK INTRA:                   0.000
REMARK UNBOUND:                 0.000
REMARK SMILES CC1(C)O[C@]2(C)CC[C@H]1CC2
REMARK SMILES IDX 1 1 2 2 9 3 8 4 7 5 5 6 4 7 11 8 10 9 6 10 3 11
REMARK H PARENT
REMARK Flexibility Score: inf
ROOT
ATOM      1  C   UNL     1      21.031  14.754  28.886  1.00  0.00     0.042 C 
ATOM      2  C   UNL     1      21.021  15.840  29.983  1.00  0.00     0.066 C 
ATOM      3  C   UNL     1      22.404  15.879  30.741  1.00  0.00     0.021 C 
ATOM      4  C   UNL     1      22.356  17.015  31.791  1.00  0.00     0.009 C 
ATOM      5  C   UNL     1      21.898  18.324  31.102  1.00  0.00     0.035 C 
ATOM      6  C   UNL     1      21.729  18.085  29.574  1.00  0.00     0.066 C 
ATOM      7  O   UNL     1      20.717  17.098  29.363  1.00  0.00    -0.369 OA
ATOM      8  C   UNL     1      23.076  17.568  28.991  1.00  0.00     0.035 C 
ATOM      9  C   UNL     1      23.507  16.277  29.730  1.00  0.00     0.009 C 
ATOM     10  C   UNL     1      21.309  19.381  28.875  1.00  0.00     0.042 C 
ATOM     11  C   UNL     1      19.875  15.497  30.959  1.00  0.00     0.042 C 
ENDROOT
TORSDOF 0
ENDMDL
MODEL 2
REMARK VINA RESULT:    -2.550      1.325      3.029
REMARK INTER + INTRA:          -2.550
REMARK INTER:                  -2.550
REMARK INTRA:                   0.000
REMARK UNBOUND:                 0.000
REMARK SMILES CC1(C)O[C@]2(C)CC[C@H]1CC2
REMARK SMILES IDX 1 1 2 2 9 3 8 4 7 5 5 6 4 7 11 8 10 9 6 10 3 11
REMARK H PARENT
REMARK Flexibility Score: inf
ROOT
ATOM      1  C   UNL     1      20.266  18.321  28.910  1.00  0.00     0.042 C 
ATOM      2  C   UNL     1      21.460  18.523  29.869  1.00  0.00     0.066 C 
ATOM      3  C   UNL     1      21.114  17.987  31.312  1.00  0.00     0.021 C 
ATOM      4  C   UNL     1      22.358  18.167  32.213  1.00  0.00     0.009 C 
ATOM      5  C   UNL     1      23.589  17.542  31.511  1.00  0.00     0.035 C 
ATOM      6  C   UNL     1      23.150  16.863  30.182  1.00  0.00     0.066 C 
ATOM      7  O   UNL     1      22.600  17.852  29.310  1.00  0.00    -0.369 OA
ATOM      8  C   UNL     1      22.062  15.796  30.495  1.00  0.00     0.035 C 
ATOM      9  C   UNL     1      20.867  16.461  31.222  1.00  0.00     0.009 C 
ATOM     10  C   UNL     1      24.353  16.211  29.494  1.00  0.00     0.042 C 
ATOM     11  C   UNL     1      21.766  20.036  29.908  1.00  0.00     0.042 C 
ENDROOT
TORSDOF 0
ENDMDL
MODEL 3
REMARK VINA RESULT:    -2.548      1.154      2.333
REMARK INTER + INTRA:          -2.548
REMARK INTER:                  -2.548
REMARK INTRA:                   0.000
REMARK UNBOUND:                 0.000
REMARK SMILES CC1(C)O[C@]2(C)CC[C@H]1CC2
REMARK SMILES IDX 1 1 2 2 9 3 8 4 7 5 5 6 4 7 11 8 10 9 6 10 3 11
REMARK H PARENT
REMARK Flexibility Score: inf
ROOT
ATOM      1  C   UNL     1      19.761  16.591  28.896  1.00  0.00     0.042 C 
ATOM      2  C   UNL     1      21.083  16.260  29.622  1.00  0.00     0.066 C 
ATOM      3  C   UNL     1      22.309  16.913  28.875  1.00  0.00     0.021 C 
ATOM      4  C   UNL     1      23.596  16.593  29.672  1.00  0.00     0.009 C 
ATOM      5  C   UNL     1      23.388  16.989  31.154  1.00  0.00     0.035 C 
ATOM      6  C   UNL     1      21.995  17.659  31.330  1.00  0.00     0.066 C 
ATOM      7  O   UNL     1      20.976  16.722  30.977  1.00  0.00    -0.369 OA
ATOM      8  C   UNL     1      21.904  18.892  30.386  1.00  0.00     0.035 C 
ATOM      9  C   UNL     1      22.148  18.453  28.922  1.00  0.00     0.009 C 
ATOM     10  C   UNL     1      21.790  18.087  32.787  1.00  0.00     0.042 C 
ATOM     11  C   UNL     1      21.218  14.722  29.650  1.00  0.00     0.042 C 
ENDROOT
TORSDOF 0
ENDMDL
MODEL 4
REMARK VINA RESULT:    -2.311      1.436      3.106
REMARK INTER + INTRA:          -2.311
REMARK INTER:                  -2.311
REMARK INTRA:                   0.000
REMARK UNBOUND:                 0.000
REMARK SMILES CC1(C)O[C@]2(C)CC[C@H]1CC2
REMARK SMILES IDX 1 1 2 2 9 3 8 4 7 5 5 6 4 7 11 8 10 9 6 10 3 11
REMARK H PARENT
REMARK Flexibility Score: inf
ROOT
ATOM      1  C   UNL     1      22.392  18.537  32.286  1.00  0.00     0.042 C 
ATOM      2  C   UNL     1      22.022  17.340  31.384  1.00  0.00     0.066 C 
ATOM      3  C   UNL     1      20.991  17.776  30.272  1.00  0.00     0.021 C 
ATOM      4  C   UNL     1      20.696  16.555  29.369  1.00  0.00     0.009 C 
ATOM      5  C   UNL     1      22.036  15.949  28.882  1.00  0.00     0.035 C 
ATOM      6  C   UNL     1      23.223  16.821  29.385  1.00  0.00     0.066 C 
ATOM      7  O   UNL     1      23.233  16.821  30.813  1.00  0.00    -0.369 OA
ATOM      8  C   UNL     1      23.031  18.278  28.875  1.00  0.00     0.035 C 
ATOM      9  C   UNL     1      21.668  18.830  29.362  1.00  0.00     0.009 C 
ATOM     10  C   UNL     1      24.553  16.251  28.881  1.00  0.00     0.042 C 
ATOM     11  C   UNL     1      21.414  16.250  32.293  1.00  0.00     0.042 C 
ENDROOT
TORSDOF 0
ENDMDL
MODEL 5
REMARK VINA RESULT:    -2.159      1.220      2.127
REMARK INTER + INTRA:          -2.159
REMARK INTER:                  -2.159
REMARK INTRA:                   0.000
REMARK UNBOUND:                 0.000
REMARK SMILES CC1(C)O[C@]2(C)CC[C@H]1CC2
REMARK SMILES IDX 1 1 2 2 9 3 8 4 7 5 5 6 4 7 11 8 10 9 6 10 3 11
REMARK H PARENT
REMARK Flexibility Score: inf
ROOT
ATOM      1  C   UNL     1      24.163  16.441  29.518  1.00  0.00     0.042 C 
ATOM      2  C   UNL     1      22.679  16.643  29.895  1.00  0.00     0.066 C 
ATOM      3  C   UNL     1      22.485  16.557  31.459  1.00  0.00     0.021 C 
ATOM      4  C   UNL     1      20.994  16.816  31.782  1.00  0.00     0.009 C 
ATOM      5  C   UNL     1      20.544  18.127  31.092  1.00  0.00     0.035 C 
ATOM      6  C   UNL     1      21.759  18.793  30.382  1.00  0.00     0.066 C 
ATOM      7  O   UNL     1      22.254  17.911  29.374  1.00  0.00    -0.369 OA
ATOM      8  C   UNL     1      22.879  19.049  31.431  1.00  0.00     0.035 C 
ATOM      9  C   UNL     1      23.273  17.717  32.115  1.00  0.00     0.009 C 
ATOM     10  C   UNL     1      21.335  20.109  29.723  1.00  0.00     0.042 C 
ATOM     11  C   UNL     1      21.870  15.536  29.184  1.00  0.00     0.042 C 
ENDROOT
TORSDOF 0
ENDMDL
MODEL 6
REMARK VINA RESULT:    -2.044      1.140      2.459
REMARK INTER + INTRA:          -2.044
REMARK INTER:                  -2.044
REMARK INTRA:                   0.000
REMARK UNBOUND:                 0.000
REMARK SMILES CC1(C)O[C@]2(C)CC[C@H]1CC2
REMARK SMILES IDX 1 1 2 2 9 3 8 4 7 5 5 6 4 7 11 8 10 9 6 10 3 11
REMARK H PARENT
REMARK Flexibility Score: inf
ROOT
ATOM      1  C   UNL     1      21.004  16.488  32.298  1.00  0.00     0.042 C 
ATOM      2  C   UNL     1      22.008  17.226  31.386  1.00  0.00     0.066 C 
ATOM      3  C   UNL     1      22.569  16.257  30.275  1.00  0.00     0.021 C 
ATOM      4  C   UNL     1      23.527  17.059  29.363  1.00  0.00     0.009 C 
ATOM      5  C   UNL     1      22.809  18.342  28.875  1.00  0.00     0.035 C 
ATOM      6  C   UNL     1      21.339  18.351  29.387  1.00  0.00     0.066 C 
ATOM      7  O   UNL     1      21.341  18.362  30.816  1.00  0.00    -0.369 OA
ATOM      8  C   UNL     1      20.622  17.064  28.887  1.00  0.00     0.035 C 
ATOM      9  C   UNL     1      21.392  15.811  29.373  1.00  0.00     0.009 C 
ATOM     10  C   UNL     1      20.607  19.598  28.883  1.00  0.00     0.042 C 
ATOM     11  C   UNL     1      23.151  17.744  32.286  1.00  0.00     0.042 C 
ENDROOT
TORSDOF 0
ENDMDL
MODEL 7
REMARK VINA RESULT:    -1.971      1.243      3.232
REMARK INTER + INTRA:          -1.971
REMARK INTER:                  -1.971
REMARK INTRA:                   0.000
REMARK UNBOUND:                 0.000
REMARK SMILES CC1(C)O[C@]2(C)CC[C@H]1CC2
REMARK SMILES IDX 1 1 2 2 9 3 8 4 7 5 5 6 4 7 11 8 10 9 6 10 3 11
REMARK H PARENT
REMARK Flexibility Score: inf
ROOT
ATOM      1  C   UNL     1      22.445  18.123  32.759  1.00  0.00     0.042 C 
ATOM      2  C   UNL     1      21.912  18.093  31.311  1.00  0.00     0.066 C 
ATOM      3  C   UNL     1      23.058  17.693  30.302  1.00  0.00     0.021 C 
ATOM      4  C   UNL     1      22.457  17.630  28.878  1.00  0.00     0.009 C 
ATOM      5  C   UNL     1      21.197  16.730  28.898  1.00  0.00     0.035 C 
ATOM      6  C   UNL     1      21.008  16.118  30.316  1.00  0.00     0.066 C 
ATOM      7  O   UNL     1      20.811  17.173  31.259  1.00  0.00    -0.369 OA
ATOM      8  C   UNL     1      22.290  15.323  30.698  1.00  0.00     0.035 C 
ATOM      9  C   UNL     1      23.524  16.255  30.636  1.00  0.00     0.009 C 
ATOM     10  C   UNL     1      19.783  15.198  30.340  1.00  0.00     0.042 C 
ATOM     11  C   UNL     1      21.372  19.504  30.991  1.00  0.00     0.042 C 
ENDROOT
TORSDOF 0
ENDMDL
MODEL 8
REMARK VINA RESULT:    -1.714      1.274      3.063
REMARK INTER + INTRA:          -1.714
REMARK INTER:                  -1.714
REMARK INTRA:                   0.000
REMARK UNBOUND:                 0.000
REMARK SMILES CC1(C)O[C@]2(C)CC[C@H]1CC2
REMARK SMILES IDX 1 1 2 2 9 3 8 4 7 5 5 6 4 7 11 8 10 9 6 10 3 11
REMARK H PARENT
REMARK Flexibility Score: inf
ROOT
ATOM      1  C   UNL     1      22.457  19.619  28.875  1.00  0.00     0.042 C 
ATOM      2  C   UNL     1      21.481  18.632  29.551  1.00  0.00     0.066 C 
ATOM      3  C   UNL     1      21.745  17.158  29.054  1.00  0.00     0.021 C 
ATOM      4  C   UNL     1      20.777  16.208  29.799  1.00  0.00     0.009 C 
ATOM      5  C   UNL     1      20.886  16.464  31.322  1.00  0.00     0.035 C 
ATOM      6  C   UNL     1      21.995  17.520  31.602  1.00  0.00     0.066 C 
ATOM      7  O   UNL     1      21.638  18.752  30.973  1.00  0.00    -0.369 OA
ATOM      8  C   UNL     1      23.338  17.012  31.005  1.00  0.00     0.035 C 
ATOM      9  C   UNL     1      23.172  16.743  29.490  1.00  0.00     0.009 C 
ATOM     10  C   UNL     1      22.136  17.757  33.109  1.00  0.00     0.042 C 
ATOM     11  C   UNL     1      20.049  19.081  29.187  1.00  0.00     0.042 C 
ENDROOT
TORSDOF 0
ENDMDL
