MODEL 1
REMARK VINA RESULT:    -6.295      0.000      0.000
REMARK INTER + INTRA:         -14.092
REMARK INTER:                 -12.183
REMARK INTRA:                  -1.909
REMARK UNBOUND:                -1.909
REMARK SMILES CCCCCCCCCCCCCCCCCC(=O)[O-]
REMARK SMILES IDX 10 1 11 2 12 3 13 4 14 5 15 6 16 7 17 8 18 9 19 10 20 11
REMARK SMILES IDX 9 12 8 13 7 14 6 15 5 16 4 17 3 18 2 19 1 20
REMARK H PARENT
REMARK Flexibility Score: inf
ROOT
ATOM      1  C   UNL     1       4.819  12.121  19.064  1.00  0.00     0.000 C 
ENDROOT
BRANCH   1   2
ATOM      2  C   UNL     1       5.721  11.437  18.030  1.00  0.00     0.000 C 
BRANCH   2   3
ATOM      3  C   UNL     1       6.084  12.403  16.893  1.00  0.00     0.000 C 
BRANCH   3   4
ATOM      4  C   UNL     1       4.941  13.373  16.542  1.00  0.00     0.000 C 
BRANCH   4   5
ATOM      5  C   UNL     1       4.229  13.085  15.208  1.00  0.00     0.000 C 
BRANCH   5   6
ATOM      6  C   UNL     1       3.486  11.738  15.142  1.00  0.00     0.000 C 
BRANCH   6   7
ATOM      7  C   UNL     1       4.220  10.663  14.312  1.00  0.00     0.006 C 
BRANCH   7   8
ATOM      8  C   UNL     1       4.535   9.404  15.130  1.00  0.00     0.053 C 
BRANCH   8   9
ATOM      9  C   UNL     1       4.943   8.283  14.227  1.00  0.00     0.041 C 
ATOM     10  O   UNL     1       6.081   8.286  13.687  1.00  0.00    -0.550 OA
ATOM     11  O   UNL     1       4.088   7.209  14.019  1.00  0.00    -0.550 OA
ENDBRANCH   8   9
ENDBRANCH   7   8
ENDBRANCH   6   7
ENDBRANCH   5   6
ENDBRANCH   4   5
ENDBRANCH   3   4
ENDBRANCH   2   3
ENDBRANCH   1   2
BRANCH   1  12
ATOM     12  C   UNL     1       3.438  11.455  19.117  1.00  0.00     0.000 C 
BRANCH  12  13
ATOM     13  C   UNL     1       3.523   9.982  18.692  1.00  0.00    -0.000 C 
BRANCH  13  14
ATOM     14  C   UNL     1       2.282   9.517  17.912  1.00  0.00    -0.000 C 
BRANCH  14  15
ATOM     15  C   UNL     1       1.933   8.042  18.175  1.00  0.00    -0.000 C 
BRANCH  15  16
ATOM     16  C   UNL     1       0.427   7.835  18.445  1.00  0.00    -0.000 C 
BRANCH  16  17
ATOM     17  C   UNL     1      -0.062   6.402  18.162  1.00  0.00    -0.000 C 
BRANCH  17  18
ATOM     18  C   UNL     1       1.041   5.326  18.169  1.00  0.00    -0.000 C 
BRANCH  18  19
ATOM     19  C   UNL     1       1.181   4.555  19.495  1.00  0.00    -0.003 C 
ATOM     20  C   UNL     1       2.635   4.373  19.927  1.00  0.00     0.004 C 
ENDBRANCH  18  19
ENDBRANCH  17  18
ENDBRANCH  16  17
ENDBRANCH  15  16
ENDBRANCH  14  15
ENDBRANCH  13  14
ENDBRANCH  12  13
ENDBRANCH   1  12
TORSDOF 16
ENDMDL
MODEL 2
REMARK VINA RESULT:    -6.236      1.060      1.825
REMARK INTER + INTRA:         -13.978
REMARK INTER:                 -12.213
REMARK INTRA:                  -1.765
REMARK UNBOUND:                -1.909
REMARK SMILES CCCCCCCCCCCCCCCCCC(=O)[O-]
REMARK SMILES IDX 10 1 11 2 12 3 13 4 14 5 15 6 16 7 17 8 18 9 19 10 20 11
REMARK SMILES IDX 9 12 8 13 7 14 6 15 5 16 4 17 3 18 2 19 1 20
REMARK H PARENT
REMARK Flexibility Score: inf
ROOT
ATOM      1  C   UNL     1       3.200  11.669  18.828  1.00  0.00     0.000 C 
ENDROOT
BRANCH   1   2
ATOM      2  C   UNL     1       4.329  11.158  19.731  1.00  0.00     0.000 C 
BRANCH   2   3
ATOM      3  C   UNL     1       5.694  11.673  19.251  1.00  0.00     0.000 C 
BRANCH   3   4
ATOM      4  C   UNL     1       5.950  11.391  17.759  1.00  0.00     0.000 C 
BRANCH   4   5
ATOM      5  C   UNL     1       6.155  12.642  16.886  1.00  0.00     0.000 C 
BRANCH   5   6
ATOM      6  C   UNL     1       4.892  13.150  16.166  1.00  0.00     0.000 C 
BRANCH   6   7
ATOM      7  C   UNL     1       4.687  12.539  14.764  1.00  0.00     0.006 C 
BRANCH   7   8
ATOM      8  C   UNL     1       3.687  11.375  14.770  1.00  0.00     0.053 C 
BRANCH   8   9
ATOM      9  C   UNL     1       4.378  10.090  14.441  1.00  0.00     0.041 C 
ATOM     10  O   UNL     1       4.944   9.425  15.349  1.00  0.00    -0.550 OA
ATOM     11  O   UNL     1       4.357   9.600  13.142  1.00  0.00    -0.550 OA
ENDBRANCH   8   9
ENDBRANCH   7   8
ENDBRANCH   6   7
ENDBRANCH   5   6
ENDBRANCH   4   5
ENDBRANCH   3   4
ENDBRANCH   2   3
ENDBRANCH   1   2
BRANCH   1  12
ATOM     12  C   UNL     1       2.298  10.518  18.368  1.00  0.00     0.000 C 
BRANCH  12  13
ATOM     13  C   UNL     1       3.091   9.206  18.267  1.00  0.00    -0.000 C 
BRANCH  13  14
ATOM     14  C   UNL     1       2.188   7.983  18.037  1.00  0.00    -0.000 C 
BRANCH  14  15
ATOM     15  C   UNL     1       0.715   8.258  18.385  1.00  0.00    -0.000 C 
BRANCH  15  16
ATOM     16  C   UNL     1      -0.094   6.958  18.582  1.00  0.00    -0.000 C 
BRANCH  16  17
ATOM     17  C   UNL     1       0.287   5.836  17.598  1.00  0.00    -0.000 C 
BRANCH  17  18
ATOM     18  C   UNL     1       0.934   4.596  18.245  1.00  0.00    -0.000 C 
BRANCH  18  19
ATOM     19  C   UNL     1       1.319   4.769  19.727  1.00  0.00    -0.003 C 
ATOM     20  C   UNL     1       2.776   4.406  20.009  1.00  0.00     0.004 C 
ENDBRANCH  18  19
ENDBRANCH  17  18
ENDBRANCH  16  17
ENDBRANCH  15  16
ENDBRANCH  14  15
ENDBRANCH  13  14
ENDBRANCH  12  13
ENDBRANCH   1  12
TORSDOF 16
ENDMDL
MODEL 3
REMARK VINA RESULT:    -6.226      2.514      3.766
REMARK INTER + INTRA:         -13.957
REMARK INTER:                 -12.028
REMARK INTRA:                  -1.929
REMARK UNBOUND:                -1.909
REMARK SMILES CCCCCCCCCCCCCCCCCC(=O)[O-]
REMARK SMILES IDX 10 1 11 2 12 3 13 4 14 5 15 6 16 7 17 8 18 9 19 10 20 11
REMARK SMILES IDX 9 12 8 13 7 14 6 15 5 16 4 17 3 18 2 19 1 20
REMARK H PARENT
REMARK Flexibility Score: inf
ROOT
ATOM      1  C   UNL     1       4.962   9.530  15.186  1.00  0.00     0.000 C 
ENDROOT
BRANCH   1   2
ATOM      2  C   UNL     1       4.169  10.300  14.122  1.00  0.00     0.000 C 
BRANCH   2   3
ATOM      3  C   UNL     1       4.389  11.813  14.260  1.00  0.00     0.000 C 
BRANCH   3   4
ATOM      4  C   UNL     1       3.417  12.472  15.256  1.00  0.00     0.000 C 
BRANCH   4   5
ATOM      5  C   UNL     1       4.085  13.137  16.474  1.00  0.00     0.000 C 
BRANCH   5   6
ATOM      6  C   UNL     1       5.619  13.011  16.527  1.00  0.00     0.000 C 
BRANCH   6   7
ATOM      7  C   UNL     1       6.138  12.247  17.763  1.00  0.00     0.006 C 
BRANCH   7   8
ATOM      8  C   UNL     1       5.172  12.329  18.952  1.00  0.00     0.053 C 
BRANCH   8   9
ATOM      9  C   UNL     1       5.628  11.432  20.059  1.00  0.00     0.041 C 
ATOM     10  O   UNL     1       6.858  11.246  20.258  1.00  0.00    -0.550 OA
ATOM     11  O   UNL     1       4.698  10.838  20.902  1.00  0.00    -0.550 OA
ENDBRANCH   8   9
ENDBRANCH   7   8
ENDBRANCH   6   7
ENDBRANCH   5   6
ENDBRANCH   4   5
ENDBRANCH   3   4
ENDBRANCH   2   3
ENDBRANCH   1   2
BRANCH   1  12
ATOM     12  C   UNL     1       4.023   8.772  16.132  1.00  0.00     0.000 C 
BRANCH  12  13
ATOM     13  C   UNL     1       3.841   9.536  17.452  1.00  0.00    -0.000 C 
BRANCH  13  14
ATOM     14  C   UNL     1       2.401   9.460  17.986  1.00  0.00    -0.000 C 
BRANCH  14  15
ATOM     15  C   UNL     1       1.937   8.016  18.242  1.00  0.00    -0.000 C 
BRANCH  15  16
ATOM     16  C   UNL     1       0.406   7.913  18.411  1.00  0.00    -0.000 C 
BRANCH  16  17
ATOM     17  C   UNL     1      -0.109   6.466  18.528  1.00  0.00    -0.000 C 
BRANCH  17  18
ATOM     18  C   UNL     1       0.887   5.383  18.073  1.00  0.00    -0.000 C 
BRANCH  18  19
ATOM     19  C   UNL     1       1.214   4.319  19.139  1.00  0.00    -0.003 C 
ATOM     20  C   UNL     1       2.466   4.653  19.948  1.00  0.00     0.004 C 
ENDBRANCH  18  19
ENDBRANCH  17  18
ENDBRANCH  16  17
ENDBRANCH  15  16
ENDBRANCH  14  15
ENDBRANCH  13  14
ENDBRANCH  12  13
ENDBRANCH   1  12
TORSDOF 16
ENDMDL
MODEL 4
REMARK VINA RESULT:    -6.182      2.335      5.658
REMARK INTER + INTRA:         -13.873
REMARK INTER:                 -11.568
REMARK INTRA:                  -2.305
REMARK UNBOUND:                -1.909
REMARK SMILES CCCCCCCCCCCCCCCCCC(=O)[O-]
REMARK SMILES IDX 10 1 11 2 12 3 13 4 14 5 15 6 16 7 17 8 18 9 19 10 20 11
REMARK SMILES IDX 9 12 8 13 7 14 6 15 5 16 4 17 3 18 2 19 1 20
REMARK H PARENT
REMARK Flexibility Score: inf
ROOT
ATOM      1  C   UNL     1       5.328  12.078  19.508  1.00  0.00     0.000 C 
ENDROOT
BRANCH   1   2
ATOM      2  C   UNL     1       4.191  11.061  19.669  1.00  0.00     0.000 C 
BRANCH   2   3
ATOM      3  C   UNL     1       2.957  11.483  18.860  1.00  0.00     0.000 C 
BRANCH   3   4
ATOM      4  C   UNL     1       2.426  10.362  17.947  1.00  0.00     0.000 C 
BRANCH   4   5
ATOM      5  C   UNL     1       3.387   9.175  17.749  1.00  0.00     0.000 C 
BRANCH   5   6
ATOM      6  C   UNL     1       2.712   7.791  17.698  1.00  0.00     0.000 C 
BRANCH   6   7
ATOM      7  C   UNL     1       1.320   7.753  18.361  1.00  0.00     0.006 C 
BRANCH   7   8
ATOM      8  C   UNL     1       1.199   6.639  19.409  1.00  0.00     0.053 C 
BRANCH   8   9
ATOM      9  C   UNL     1       1.162   5.299  18.745  1.00  0.00     0.041 C 
ATOM     10  O   UNL     1       0.423   5.108  17.743  1.00  0.00    -0.550 OA
ATOM     11  O   UNL     1       1.979   4.273  19.201  1.00  0.00    -0.550 OA
ENDBRANCH   8   9
ENDBRANCH   7   8
ENDBRANCH   6   7
ENDBRANCH   5   6
ENDBRANCH   4   5
ENDBRANCH   3   4
ENDBRANCH   2   3
ENDBRANCH   1   2
BRANCH   1  12
ATOM     12  C   UNL     1       6.455  11.511  18.637  1.00  0.00     0.000 C 
BRANCH  12  13
ATOM     13  C   UNL     1       6.095  11.603  17.146  1.00  0.00    -0.000 C 
BRANCH  13  14
ATOM     14  C   UNL     1       5.759  13.037  16.704  1.00  0.00    -0.000 C 
BRANCH  14  15
ATOM     15  C   UNL     1       4.447  13.120  15.906  1.00  0.00    -0.000 C 
BRANCH  15  16
ATOM     16  C   UNL     1       4.555  12.437  14.526  1.00  0.00    -0.000 C 
BRANCH  16  17
ATOM     17  C   UNL     1       3.619  11.226  14.358  1.00  0.00    -0.000 C 
BRANCH  17  18
ATOM     18  C   UNL     1       4.247  10.013  13.643  1.00  0.00    -0.000 C 
BRANCH  18  19
ATOM     19  C   UNL     1       4.798   8.926  14.583  1.00  0.00    -0.003 C 
ATOM     20  C   UNL     1       4.469   7.510  14.114  1.00  0.00     0.004 C 
ENDBRANCH  18  19
ENDBRANCH  17  18
ENDBRANCH  16  17
ENDBRANCH  15  16
ENDBRANCH  14  15
ENDBRANCH  13  14
ENDBRANCH  12  13
ENDBRANCH   1  12
TORSDOF 16
ENDMDL
MODEL 5
REMARK VINA RESULT:    -6.081      2.362      5.933
REMARK INTER + INTRA:         -13.678
REMARK INTER:                 -11.360
REMARK INTRA:                  -2.318
REMARK UNBOUND:                -1.909
REMARK SMILES CCCCCCCCCCCCCCCCCC(=O)[O-]
REMARK SMILES IDX 10 1 11 2 12 3 13 4 14 5 15 6 16 7 17 8 18 9 19 10 20 11
REMARK SMILES IDX 9 12 8 13 7 14 6 15 5 16 4 17 3 18 2 19 1 20
REMARK H PARENT
REMARK Flexibility Score: inf
ROOT
ATOM      1  C   UNL     1       4.173  12.035  18.660  1.00  0.00     0.000 C 
ENDROOT
BRANCH   1   2
ATOM      2  C   UNL     1       2.960  11.099  18.583  1.00  0.00     0.000 C 
BRANCH   2   3
ATOM      3  C   UNL     1       3.393   9.629  18.677  1.00  0.00     0.000 C 
BRANCH   3   4
ATOM      4  C   UNL     1       2.345   8.657  18.106  1.00  0.00     0.000 C 
BRANCH   4   5
ATOM      5  C   UNL     1       0.937   9.254  17.921  1.00  0.00     0.000 C 
BRANCH   5   6
ATOM      6  C   UNL     1      -0.225   8.281  18.194  1.00  0.00     0.000 C 
BRANCH   6   7
ATOM      7  C   UNL     1       0.172   7.062  19.053  1.00  0.00     0.006 C 
BRANCH   7   8
ATOM      8  C   UNL     1       0.404   5.801  18.210  1.00  0.00     0.053 C 
BRANCH   8   9
ATOM      9  C   UNL     1       1.345   4.871  18.909  1.00  0.00     0.041 C 
ATOM     10  O   UNL     1       1.852   5.196  20.015  1.00  0.00    -0.550 OA
ATOM     11  O   UNL     1       1.627   3.626  18.363  1.00  0.00    -0.550 OA
ENDBRANCH   8   9
ENDBRANCH   7   8
ENDBRANCH   6   7
ENDBRANCH   5   6
ENDBRANCH   4   5
ENDBRANCH   3   4
ENDBRANCH   2   3
ENDBRANCH   1   2
BRANCH   1  12
ATOM     12  C   UNL     1       5.482  11.258  18.470  1.00  0.00     0.000 C 
BRANCH  12  13
ATOM     13  C   UNL     1       6.277  11.807  17.276  1.00  0.00    -0.000 C 
BRANCH  13  14
ATOM     14  C   UNL     1       5.683  13.110  16.716  1.00  0.00    -0.000 C 
BRANCH  14  15
ATOM     15  C   UNL     1       5.267  12.987  15.240  1.00  0.00    -0.000 C 
BRANCH  15  16
ATOM     16  C   UNL     1       3.735  12.893  15.069  1.00  0.00    -0.000 C 
BRANCH  16  17
ATOM     17  C   UNL     1       3.222  11.457  14.854  1.00  0.00    -0.000 C 
BRANCH  17  18
ATOM     18  C   UNL     1       4.260  10.475  14.276  1.00  0.00    -0.000 C 
BRANCH  18  19
ATOM     19  C   UNL     1       4.523   9.231  15.145  1.00  0.00    -0.003 C 
ATOM     20  C   UNL     1       4.599   7.941  14.331  1.00  0.00     0.004 C 
ENDBRANCH  18  19
ENDBRANCH  17  18
ENDBRANCH  16  17
ENDBRANCH  15  16
ENDBRANCH  14  15
ENDBRANCH  13  14
ENDBRANCH  12  13
ENDBRANCH   1  12
TORSDOF 16
ENDMDL
MODEL 6
REMARK VINA RESULT:    -6.012      2.460      6.301
REMARK INTER + INTRA:         -13.545
REMARK INTER:                 -11.669
REMARK INTRA:                  -1.876
REMARK UNBOUND:                -1.909
REMARK SMILES CCCCCCCCCCCCCCCCCC(=O)[O-]
REMARK SMILES IDX 10 1 11 2 12 3 13 4 14 5 15 6 16 7 17 8 18 9 19 10 20 11
REMARK SMILES IDX 9 12 8 13 7 14 6 15 5 16 4 17 3 18 2 19 1 20
REMARK H PARENT
REMARK Flexibility Score: inf
ROOT
ATOM      1  C   UNL     1       4.702   8.957  14.919  1.00  0.00     0.000 C 
ENDROOT
BRANCH   1   2
ATOM      2  C   UNL     1       4.380   9.263  16.387  1.00  0.00     0.000 C 
BRANCH   2   3
ATOM      3  C   UNL     1       3.270   8.339  16.911  1.00  0.00     0.000 C 
BRANCH   3   4
ATOM      4  C   UNL     1       2.603   8.870  18.192  1.00  0.00     0.000 C 
BRANCH   4   5
ATOM      5  C   UNL     1       1.105   9.199  18.057  1.00  0.00     0.000 C 
BRANCH   5   6
ATOM      6  C   UNL     1       0.151   8.016  18.311  1.00  0.00     0.000 C 
BRANCH   6   7
ATOM      7  C   UNL     1       0.768   6.894  19.171  1.00  0.00     0.006 C 
BRANCH   7   8
ATOM      8  C   UNL     1       0.678   5.519  18.496  1.00  0.00     0.053 C 
BRANCH   8   9
ATOM      9  C   UNL     1       1.589   4.543  19.172  1.00  0.00     0.041 C 
ATOM     10  O   UNL     1       1.954   3.498  18.572  1.00  0.00    -0.550 OA
ATOM     11  O   UNL     1       2.075   4.811  20.444  1.00  0.00    -0.550 OA
ENDBRANCH   8   9
ENDBRANCH   7   8
ENDBRANCH   6   7
ENDBRANCH   5   6
ENDBRANCH   4   5
ENDBRANCH   3   4
ENDBRANCH   2   3
ENDBRANCH   1   2
BRANCH   1  12
ATOM     12  C   UNL     1       3.964   9.919  13.981  1.00  0.00     0.000 C 
BRANCH  12  13
ATOM     13  C   UNL     1       4.371  11.375  14.256  1.00  0.00    -0.000 C 
BRANCH  13  14
ATOM     14  C   UNL     1       3.181  12.255  14.671  1.00  0.00    -0.000 C 
BRANCH  14  15
ATOM     15  C   UNL     1       3.572  13.340  15.690  1.00  0.00    -0.000 C 
BRANCH  15  16
ATOM     16  C   UNL     1       4.304  12.755  16.917  1.00  0.00    -0.000 C 
BRANCH  16  17
ATOM     17  C   UNL     1       3.371  12.429  18.098  1.00  0.00    -0.000 C 
BRANCH  17  18
ATOM     18  C   UNL     1       4.089  12.036  19.404  1.00  0.00    -0.000 C 
BRANCH  18  19
ATOM     19  C   UNL     1       5.529  11.522  19.218  1.00  0.00    -0.003 C 
ATOM     20  C   UNL     1       6.245  11.265  20.543  1.00  0.00     0.004 C 
ENDBRANCH  18  19
ENDBRANCH  17  18
ENDBRANCH  16  17
ENDBRANCH  15  16
ENDBRANCH  14  15
ENDBRANCH  13  14
ENDBRANCH  12  13
ENDBRANCH   1  12
TORSDOF 16
ENDMDL
MODEL 7
REMARK VINA RESULT:    -5.887      2.129      2.963
REMARK INTER + INTRA:         -13.301
REMARK INTER:                 -11.440
REMARK INTRA:                  -1.862
REMARK UNBOUND:                -1.909
REMARK SMILES CCCCCCCCCCCCCCCCCC(=O)[O-]
REMARK SMILES IDX 10 1 11 2 12 3 13 4 14 5 15 6 16 7 17 8 18 9 19 10 20 11
REMARK SMILES IDX 9 12 8 13 7 14 6 15 5 16 4 17 3 18 2 19 1 20
REMARK H PARENT
REMARK Flexibility Score: inf
ROOT
ATOM      1  C   UNL     1       2.834  11.486  18.741  1.00  0.00     0.000 C 
ENDROOT
BRANCH   1   2
ATOM      2  C   UNL     1       4.032  12.368  19.116  1.00  0.00     0.000 C 
BRANCH   2   3
ATOM      3  C   UNL     1       5.166  11.527  19.720  1.00  0.00     0.000 C 
BRANCH   3   4
ATOM      4  C   UNL     1       6.432  11.510  18.844  1.00  0.00     0.000 C 
BRANCH   4   5
ATOM      5  C   UNL     1       6.200  11.845  17.359  1.00  0.00     0.000 C 
BRANCH   5   6
ATOM      6  C   UNL     1       5.672  10.679  16.502  1.00  0.00     0.000 C 
BRANCH   6   7
ATOM      7  C   UNL     1       4.807  11.130  15.305  1.00  0.00     0.006 C 
BRANCH   7   8
ATOM      8  C   UNL     1       4.477  12.627  15.350  1.00  0.00     0.053 C 
BRANCH   8   9
ATOM      9  C   UNL     1       3.067  12.865  14.910  1.00  0.00     0.041 C 
ATOM     10  O   UNL     1       2.523  12.090  14.080  1.00  0.00    -0.550 OA
ATOM     11  O   UNL     1       2.336  13.914  15.451  1.00  0.00    -0.550 OA
ENDBRANCH   8   9
ENDBRANCH   7   8
ENDBRANCH   6   7
ENDBRANCH   5   6
ENDBRANCH   4   5
ENDBRANCH   3   4
ENDBRANCH   2   3
ENDBRANCH   1   2
BRANCH   1  12
ATOM     12  C   UNL     1       3.168   9.999  18.914  1.00  0.00     0.000 C 
BRANCH  12  13
ATOM     13  C   UNL     1       2.747   9.195  17.675  1.00  0.00    -0.000 C 
BRANCH  13  14
ATOM     14  C   UNL     1       2.314   7.760  18.018  1.00  0.00    -0.000 C 
BRANCH  14  15
ATOM     15  C   UNL     1       1.121   7.716  18.989  1.00  0.00    -0.000 C 
BRANCH  15  16
ATOM     16  C   UNL     1      -0.097   6.982  18.388  1.00  0.00    -0.000 C 
BRANCH  16  17
ATOM     17  C   UNL     1       0.262   5.659  17.684  1.00  0.00    -0.000 C 
BRANCH  17  18
ATOM     18  C   UNL     1       0.488   4.462  18.627  1.00  0.00    -0.000 C 
BRANCH  18  19
ATOM     19  C   UNL     1       1.965   4.094  18.858  1.00  0.00    -0.003 C 
ATOM     20  C   UNL     1       2.470   4.499  20.242  1.00  0.00     0.004 C 
ENDBRANCH  18  19
ENDBRANCH  17  18
ENDBRANCH  16  17
ENDBRANCH  15  16
ENDBRANCH  14  15
ENDBRANCH  13  14
ENDBRANCH  12  13
ENDBRANCH   1  12
TORSDOF 16
ENDMDL
MODEL 8
REMARK VINA RESULT:    -5.808      2.707      3.965
REMARK INTER + INTRA:         -13.150
REMARK INTER:                 -11.275
REMARK INTRA:                  -1.875
REMARK UNBOUND:                -1.909
REMARK SMILES CCCCCCCCCCCCCCCCCC(=O)[O-]
REMARK SMILES IDX 10 1 11 2 12 3 13 4 14 5 15 6 16 7 17 8 18 9 19 10 20 11
REMARK SMILES IDX 9 12 8 13 7 14 6 15 5 16 4 17 3 18 2 19 1 20
REMARK H PARENT
REMARK Flexibility Score: inf
ROOT
ATOM      1  C   UNL     1       4.270   8.491  15.384  1.00  0.00     0.000 C 
ENDROOT
BRANCH   1   2
ATOM      2  C   UNL     1       4.358   8.929  13.917  1.00  0.00     0.000 C 
BRANCH   2   3
ATOM      3  C   UNL     1       4.518  10.452  13.806  1.00  0.00     0.000 C 
BRANCH   3   4
ATOM      4  C   UNL     1       3.175  11.202  13.869  1.00  0.00     0.000 C 
BRANCH   4   5
ATOM      5  C   UNL     1       3.261  12.648  14.390  1.00  0.00     0.000 C 
BRANCH   5   6
ATOM      6  C   UNL     1       4.583  13.012  15.092  1.00  0.00     0.000 C 
BRANCH   6   7
ATOM      7  C   UNL     1       4.432  13.272  16.606  1.00  0.00     0.006 C 
BRANCH   7   8
ATOM      8  C   UNL     1       2.992  13.073  17.095  1.00  0.00     0.053 C 
BRANCH   8   9
ATOM      9  C   UNL     1       2.931  13.155  18.588  1.00  0.00     0.041 C 
ATOM     10  O   UNL     1       2.085  13.902  19.147  1.00  0.00    -0.550 OA
ATOM     11  O   UNL     1       3.774  12.371  19.363  1.00  0.00    -0.550 OA
ENDBRANCH   8   9
ENDBRANCH   7   8
ENDBRANCH   6   7
ENDBRANCH   5   6
ENDBRANCH   4   5
ENDBRANCH   3   4
ENDBRANCH   2   3
ENDBRANCH   1   2
BRANCH   1  12
ATOM     12  C   UNL     1       4.808   9.582  16.318  1.00  0.00     0.000 C 
BRANCH  12  13
ATOM     13  C   UNL     1       4.052   9.581  17.655  1.00  0.00    -0.000 C 
BRANCH  13  14
ATOM     14  C   UNL     1       2.539   9.372  17.481  1.00  0.00    -0.000 C 
BRANCH  14  15
ATOM     15  C   UNL     1       1.994   8.224  18.347  1.00  0.00    -0.000 C 
BRANCH  15  16
ATOM     16  C   UNL     1       0.456   8.112  18.273  1.00  0.00    -0.000 C 
BRANCH  16  17
ATOM     17  C   UNL     1      -0.053   6.669  18.093  1.00  0.00    -0.000 C 
BRANCH  17  18
ATOM     18  C   UNL     1       1.051   5.600  17.981  1.00  0.00    -0.000 C 
BRANCH  18  19
ATOM     19  C   UNL     1       1.050   4.551  19.108  1.00  0.00    -0.003 C 
ATOM     20  C   UNL     1       2.359   4.520  19.895  1.00  0.00     0.004 C 
ENDBRANCH  18  19
ENDBRANCH  17  18
ENDBRANCH  16  17
ENDBRANCH  15  16
ENDBRANCH  14  15
ENDBRANCH  13  14
ENDBRANCH  12  13
ENDBRANCH   1  12
TORSDOF 16
ENDMDL
MODEL 9
REMARK VINA RESULT:    -5.773      2.401      6.009
REMARK INTER + INTRA:         -13.081
REMARK INTER:                 -11.011
REMARK INTRA:                  -2.070
REMARK UNBOUND:                -1.909
REMARK SMILES CCCCCCCCCCCCCCCCCC(=O)[O-]
REMARK SMILES IDX 10 1 11 2 12 3 13 4 14 5 15 6 16 7 17 8 18 9 19 10 20 11
REMARK SMILES IDX 9 12 8 13 7 14 6 15 5 16 4 17 3 18 2 19 1 20
REMARK H PARENT
REMARK Flexibility Score: inf
ROOT
ATOM      1  C   UNL     1       4.255  11.440  14.354  1.00  0.00     0.000 C 
ENDROOT
BRANCH   1   2
ATOM      2  C   UNL     1       4.337   9.965  13.942  1.00  0.00     0.000 C 
BRANCH   2   3
ATOM      3  C   UNL     1       5.042   9.131  15.021  1.00  0.00     0.000 C 
BRANCH   3   4
ATOM      4  C   UNL     1       4.421   9.310  16.418  1.00  0.00     0.000 C 
BRANCH   4   5
ATOM      5  C   UNL     1       3.146   8.486  16.675  1.00  0.00     0.000 C 
BRANCH   5   6
ATOM      6  C   UNL     1       2.690   8.429  18.145  1.00  0.00     0.000 C 
BRANCH   6   7
ATOM      7  C   UNL     1       1.348   7.695  18.351  1.00  0.00     0.006 C 
BRANCH   7   8
ATOM      8  C   UNL     1       1.410   6.666  19.488  1.00  0.00     0.053 C 
BRANCH   8   9
ATOM      9  C   UNL     1       1.310   5.277  18.941  1.00  0.00     0.041 C 
ATOM     10  O   UNL     1       0.633   5.052  17.903  1.00  0.00    -0.550 OA
ATOM     11  O   UNL     1       2.002   4.238  19.549  1.00  0.00    -0.550 OA
ENDBRANCH   8   9
ENDBRANCH   7   8
ENDBRANCH   6   7
ENDBRANCH   5   6
ENDBRANCH   4   5
ENDBRANCH   3   4
ENDBRANCH   2   3
ENDBRANCH   1   2
BRANCH   1  12
ATOM     12  C   UNL     1       2.812  11.954  14.278  1.00  0.00     0.000 C 
BRANCH  12  13
ATOM     13  C   UNL     1       2.683  13.327  14.955  1.00  0.00    -0.000 C 
BRANCH  13  14
ATOM     14  C   UNL     1       3.626  13.486  16.159  1.00  0.00    -0.000 C 
BRANCH  14  15
ATOM     15  C   UNL     1       2.883  13.432  17.505  1.00  0.00    -0.000 C 
BRANCH  15  16
ATOM     16  C   UNL     1       3.097  12.092  18.240  1.00  0.00    -0.000 C 
BRANCH  16  17
ATOM     17  C   UNL     1       4.057  12.189  19.441  1.00  0.00    -0.000 C 
BRANCH  17  18
ATOM     18  C   UNL     1       5.134  11.088  19.503  1.00  0.00    -0.000 C 
BRANCH  18  19
ATOM     19  C   UNL     1       6.535  11.529  19.040  1.00  0.00    -0.003 C 
ATOM     20  C   UNL     1       6.581  11.909  17.561  1.00  0.00     0.004 C 
ENDBRANCH  18  19
ENDBRANCH  17  18
ENDBRANCH  16  17
ENDBRANCH  15  16
ENDBRANCH  14  15
ENDBRANCH  13  14
ENDBRANCH  12  13
ENDBRANCH   1  12
TORSDOF 16
ENDMDL
