MODEL 1
REMARK VINA RESULT:    -7.950      0.000      0.000
REMARK INTER + INTRA:          -9.907
REMARK INTER:                  -9.576
REMARK INTRA:                  -0.331
REMARK UNBOUND:                -0.331
REMARK SMILES O=c1c(O)c(-c2ccc(O)c(O)c2)oc2cc(O)cc(O)c12
REMARK SMILES IDX 5 1 3 2 2 3 1 4 22 5 20 6 19 7 17 8 16 9 15 10 14 11 6 12
REMARK SMILES IDX 7 13 8 14 9 15 13 16 11 17 10 18 12 20 4 22 21 24 18 26
REMARK H PARENT 10 19 12 21 4 23 21 25 18 27
REMARK Flexibility Score: inf
ROOT
ATOM      1  C   UNL     1      40.367   5.302   0.433  1.00  0.00     0.180 A 
ATOM      2  C   UNL     1      40.803   4.561  -0.681  1.00  0.00     0.208 A 
ATOM      3  C   UNL     1      39.890   4.282  -1.709  1.00  0.00     0.238 A 
ATOM      4  O   UNL     1      40.272   3.628  -2.718  1.00  0.00    -0.285 OA
ATOM      5  C   UNL     1      38.556   4.727  -1.597  1.00  0.00     0.111 A 
ATOM      6  C   UNL     1      37.573   4.484  -2.587  1.00  0.00     0.134 A 
ATOM      7  C   UNL     1      36.264   4.952  -2.396  1.00  0.00     0.093 A 
ATOM      8  C   UNL     1      35.921   5.658  -1.237  1.00  0.00     0.123 A 
ATOM      9  C   UNL     1      36.888   5.901  -0.260  1.00  0.00     0.094 A 
ATOM     10  C   UNL     1      38.197   5.443  -0.431  1.00  0.00     0.146 A 
ATOM     11  O   UNL     1      39.098   5.693   0.512  1.00  0.00    -0.452 OA
ENDROOT
BRANCH   1  12
ATOM     12  C   UNL     1      41.276   5.654   1.549  1.00  0.00     0.025 A 
ATOM     13  C   UNL     1      42.087   6.801   1.499  1.00  0.00     0.016 A 
ATOM     14  C   UNL     1      42.918   7.125   2.574  1.00  0.00     0.051 A 
ATOM     15  C   UNL     1      42.942   6.317   3.719  1.00  0.00     0.157 A 
ATOM     16  C   UNL     1      41.288   4.859   2.707  1.00  0.00     0.062 A 
ATOM     17  C   UNL     1      42.120   5.180   3.785  1.00  0.00     0.158 A 
BRANCH  15  18
ATOM     18  O   UNL     1      43.774   6.643   4.788  1.00  0.00    -0.504 OA
ATOM     19  H   UNL     1      44.142   7.579   4.909  1.00  0.00     0.293 HD
ENDBRANCH  15  18
BRANCH  17  20
ATOM     20  O   UNL     1      42.116   4.360   4.913  1.00  0.00    -0.504 OA
ATOM     21  H   UNL     1      42.414   3.392   4.876  1.00  0.00     0.293 HD
ENDBRANCH  17  20
ENDBRANCH   1  12
BRANCH   2  22
ATOM     22  O   UNL     1      42.117   4.089  -0.746  1.00  0.00    -0.502 OA
ATOM     23  H   UNL     1      42.611   3.978  -1.623  1.00  0.00     0.293 HD
ENDBRANCH   2  22
BRANCH   6  24
ATOM     24  O   UNL     1      37.884   3.781  -3.752  1.00  0.00    -0.507 OA
ATOM     25  H   UNL     1      37.385   3.940  -4.619  1.00  0.00     0.293 HD
ENDBRANCH   6  24
BRANCH   8  26
ATOM     26  O   UNL     1      34.622   6.123  -1.048  1.00  0.00    -0.508 OA
ATOM     27  H   UNL     1      33.817   5.569  -1.314  1.00  0.00     0.293 HD
ENDBRANCH   8  26
TORSDOF 6
ENDMDL
MODEL 2
REMARK VINA RESULT:    -7.659      6.318      8.610
REMARK INTER + INTRA:          -9.557
REMARK INTER:                  -9.407
REMARK INTRA:                  -0.149
REMARK UNBOUND:                -0.331
REMARK SMILES O=c1c(O)c(-c2ccc(O)c(O)c2)oc2cc(O)cc(O)c12
REMARK SMILES IDX 5 1 3 2 2 3 1 4 22 5 20 6 19 7 17 8 16 9 15 10 14 11 6 12
REMARK SMILES IDX 7 13 8 14 9 15 13 16 11 17 10 18 12 20 4 22 21 24 18 26
REMARK H PARENT 10 19 12 21 4 23 21 25 18 27
REMARK Flexibility Score: inf
ROOT
ATOM      1  C   UNL     1      36.157   1.575  -3.740  1.00  0.00     0.180 A 
ATOM      2  C   UNL     1      35.347   0.758  -4.551  1.00  0.00     0.208 A 
ATOM      3  C   UNL     1      35.676  -0.599  -4.689  1.00  0.00     0.238 A 
ATOM      4  O   UNL     1      34.951  -1.344  -5.404  1.00  0.00    -0.285 OA
ATOM      5  C   UNL     1      36.817  -1.110  -4.036  1.00  0.00     0.111 A 
ATOM      6  C   UNL     1      37.221  -2.464  -4.128  1.00  0.00     0.134 A 
ATOM      7  C   UNL     1      38.374  -2.893  -3.455  1.00  0.00     0.093 A 
ATOM      8  C   UNL     1      39.132  -1.994  -2.694  1.00  0.00     0.123 A 
ATOM      9  C   UNL     1      38.736  -0.659  -2.600  1.00  0.00     0.094 A 
ATOM     10  C   UNL     1      37.589  -0.212  -3.263  1.00  0.00     0.146 A 
ATOM     11  O   UNL     1      37.234   1.063  -3.152  1.00  0.00    -0.452 OA
ENDROOT
BRANCH   1  12
ATOM     12  C   UNL     1      35.864   3.012  -3.529  1.00  0.00     0.025 A 
ATOM     13  C   UNL     1      35.572   3.519  -2.250  1.00  0.00     0.016 A 
ATOM     14  C   UNL     1      35.322   4.882  -2.072  1.00  0.00     0.051 A 
ATOM     15  C   UNL     1      35.374   5.760  -3.163  1.00  0.00     0.157 A 
ATOM     16  C   UNL     1      35.935   3.899  -4.616  1.00  0.00     0.062 A 
ATOM     17  C   UNL     1      35.685   5.265  -4.440  1.00  0.00     0.158 A 
BRANCH  15  18
ATOM     18  O   UNL     1      35.122   7.118  -2.981  1.00  0.00    -0.504 OA
ATOM     19  H   UNL     1      34.615   7.662  -3.670  1.00  0.00     0.293 HD
ENDBRANCH  15  18
BRANCH  17  20
ATOM     20  O   UNL     1      35.750   6.113  -5.545  1.00  0.00    -0.504 OA
ATOM     21  H   UNL     1      36.627   6.346  -5.995  1.00  0.00     0.293 HD
ENDBRANCH  17  20
ENDBRANCH   1  12
BRANCH   2  22
ATOM     22  O   UNL     1      34.250   1.299  -5.227  1.00  0.00    -0.502 OA
ATOM     23  H   UNL     1      33.612   0.729  -5.770  1.00  0.00     0.293 HD
ENDBRANCH   2  22
BRANCH   6  24
ATOM     24  O   UNL     1      36.488  -3.383  -4.881  1.00  0.00    -0.507 OA
ATOM     25  H   UNL     1      36.417  -4.357  -4.610  1.00  0.00     0.293 HD
ENDBRANCH   6  24
BRANCH   8  26
ATOM     26  O   UNL     1      40.277  -2.419  -2.027  1.00  0.00    -0.508 OA
ATOM     27  H   UNL     1      40.251  -3.185  -1.364  1.00  0.00     0.293 HD
ENDBRANCH   8  26
TORSDOF 6
ENDMDL
MODEL 3
REMARK VINA RESULT:    -7.593      2.352      4.370
REMARK INTER + INTRA:          -9.478
REMARK INTER:                  -9.222
REMARK INTRA:                  -0.256
REMARK UNBOUND:                -0.331
REMARK SMILES O=c1c(O)c(-c2ccc(O)c(O)c2)oc2cc(O)cc(O)c12
REMARK SMILES IDX 5 1 3 2 2 3 1 4 22 5 20 6 19 7 17 8 16 9 15 10 14 11 6 12
REMARK SMILES IDX 7 13 8 14 9 15 13 16 11 17 10 18 12 20 4 22 21 24 18 26
REMARK H PARENT 10 19 12 21 4 23 21 25 18 27
REMARK Flexibility Score: inf
ROOT
ATOM      1  C   UNL     1      38.281   5.248  -1.330  1.00  0.00     0.180 A 
ATOM      2  C   UNL     1      37.226   5.716  -0.523  1.00  0.00     0.208 A 
ATOM      3  C   UNL     1      35.912   5.623  -1.005  1.00  0.00     0.238 A 
ATOM      4  O   UNL     1      34.957   6.028  -0.287  1.00  0.00    -0.285 OA
ATOM      5  C   UNL     1      35.675   5.086  -2.288  1.00  0.00     0.111 A 
ATOM      6  C   UNL     1      34.381   4.961  -2.849  1.00  0.00     0.134 A 
ATOM      7  C   UNL     1      34.230   4.425  -4.136  1.00  0.00     0.093 A 
ATOM      8  C   UNL     1      35.347   4.012  -4.872  1.00  0.00     0.123 A 
ATOM      9  C   UNL     1      36.625   4.133  -4.322  1.00  0.00     0.094 A 
ATOM     10  C   UNL     1      36.796   4.664  -3.041  1.00  0.00     0.146 A 
ATOM     11  O   UNL     1      38.022   4.762  -2.540  1.00  0.00    -0.452 OA
ENDROOT
BRANCH   1  12
ATOM     12  C   UNL     1      39.693   5.295  -0.883  1.00  0.00     0.025 A 
ATOM     13  C   UNL     1      40.173   4.431   0.117  1.00  0.00     0.016 A 
ATOM     14  C   UNL     1      41.514   4.477   0.504  1.00  0.00     0.051 A 
ATOM     15  C   UNL     1      42.398   5.374  -0.110  1.00  0.00     0.157 A 
ATOM     16  C   UNL     1      40.588   6.177  -1.511  1.00  0.00     0.062 A 
ATOM     17  C   UNL     1      41.932   6.226  -1.126  1.00  0.00     0.158 A 
BRANCH  15  18
ATOM     18  O   UNL     1      43.736   5.418   0.280  1.00  0.00    -0.504 OA
ATOM     19  H   UNL     1      44.476   5.618  -0.383  1.00  0.00     0.293 HD
ENDBRANCH  15  18
BRANCH  17  20
ATOM     20  O   UNL     1      42.787   7.125  -1.761  1.00  0.00    -0.504 OA
ATOM     21  H   UNL     1      42.728   8.125  -1.608  1.00  0.00     0.293 HD
ENDBRANCH  17  20
ENDBRANCH   1  12
BRANCH   2  22
ATOM     22  O   UNL     1      37.491   6.289   0.723  1.00  0.00    -0.502 OA
ATOM     23  H   UNL     1      36.793   6.811   1.240  1.00  0.00     0.293 HD
ENDBRANCH   2  22
BRANCH   6  24
ATOM     24  O   UNL     1      33.249   5.366  -2.140  1.00  0.00    -0.507 OA
ATOM     25  H   UNL     1      32.755   6.221  -2.368  1.00  0.00     0.293 HD
ENDBRANCH   6  24
BRANCH   8  26
ATOM     26  O   UNL     1      35.198   3.480  -6.151  1.00  0.00    -0.508 OA
ATOM     27  H   UNL     1      34.452   3.782  -6.766  1.00  0.00     0.293 HD
ENDBRANCH   8  26
TORSDOF 6
ENDMDL
MODEL 4
REMARK VINA RESULT:    -7.467      1.697      7.071
REMARK INTER + INTRA:          -9.326
REMARK INTER:                  -9.022
REMARK INTRA:                  -0.304
REMARK UNBOUND:                -0.331
REMARK SMILES O=c1c(O)c(-c2ccc(O)c(O)c2)oc2cc(O)cc(O)c12
REMARK SMILES IDX 5 1 3 2 2 3 1 4 22 5 20 6 19 7 17 8 16 9 15 10 14 11 6 12
REMARK SMILES IDX 7 13 8 14 9 15 13 16 11 17 10 18 12 20 4 22 21 24 18 26
REMARK H PARENT 10 19 12 21 4 23 21 25 18 27
REMARK Flexibility Score: inf
ROOT
ATOM      1  C   UNL     1      41.281   4.988   0.438  1.00  0.00     0.180 A 
ATOM      2  C   UNL     1      42.256   5.997   0.328  1.00  0.00     0.208 A 
ATOM      3  C   UNL     1      43.114   6.231   1.413  1.00  0.00     0.238 A 
ATOM      4  O   UNL     1      44.000   7.125   1.323  1.00  0.00    -0.285 OA
ATOM      5  C   UNL     1      42.970   5.472   2.593  1.00  0.00     0.111 A 
ATOM      6  C   UNL     1      43.791   5.648   3.733  1.00  0.00     0.134 A 
ATOM      7  C   UNL     1      43.578   4.859   4.873  1.00  0.00     0.093 A 
ATOM      8  C   UNL     1      42.560   3.897   4.894  1.00  0.00     0.123 A 
ATOM      9  C   UNL     1      41.750   3.720   3.771  1.00  0.00     0.094 A 
ATOM     10  C   UNL     1      41.946   4.496   2.626  1.00  0.00     0.146 A 
ATOM     11  O   UNL     1      41.164   4.302   1.571  1.00  0.00    -0.452 OA
ENDROOT
BRANCH   1  12
ATOM     12  C   UNL     1      40.352   4.668  -0.671  1.00  0.00     0.025 A 
ATOM     13  C   UNL     1      40.579   3.574  -1.524  1.00  0.00     0.016 A 
ATOM     14  C   UNL     1      39.676   3.278  -2.547  1.00  0.00     0.051 A 
ATOM     15  C   UNL     1      38.527   4.059  -2.726  1.00  0.00     0.157 A 
ATOM     16  C   UNL     1      39.187   5.436  -0.841  1.00  0.00     0.062 A 
ATOM     17  C   UNL     1      38.281   5.142  -1.865  1.00  0.00     0.158 A 
BRANCH  15  18
ATOM     18  O   UNL     1      37.629   3.761  -3.749  1.00  0.00    -0.504 OA
ATOM     19  H   UNL     1      36.933   4.431  -4.057  1.00  0.00     0.293 HD
ENDBRANCH  15  18
BRANCH  17  20
ATOM     20  O   UNL     1      37.144   5.936  -2.012  1.00  0.00    -0.504 OA
ATOM     21  H   UNL     1      37.015   6.795  -1.492  1.00  0.00     0.293 HD
ENDBRANCH  17  20
ENDBRANCH   1  12
BRANCH   2  22
ATOM     22  O   UNL     1      42.347   6.769  -0.833  1.00  0.00    -0.502 OA
ATOM     23  H   UNL     1      41.872   7.659  -0.932  1.00  0.00     0.293 HD
ENDBRANCH   2  22
BRANCH   6  24
ATOM     24  O   UNL     1      44.812   6.600   3.743  1.00  0.00    -0.507 OA
ATOM     25  H   UNL     1      44.877   7.319   3.032  1.00  0.00     0.293 HD
ENDBRANCH   6  24
BRANCH   8  26
ATOM     26  O   UNL     1      42.348   3.113   6.025  1.00  0.00    -0.508 OA
ATOM     27  H   UNL     1      42.225   3.528   6.942  1.00  0.00     0.293 HD
ENDBRANCH   8  26
TORSDOF 6
ENDMDL
MODEL 5
REMARK VINA RESULT:    -7.415      3.669      8.865
REMARK INTER + INTRA:          -9.264
REMARK INTER:                  -8.939
REMARK INTRA:                  -0.325
REMARK UNBOUND:                -0.331
REMARK SMILES O=c1c(O)c(-c2ccc(O)c(O)c2)oc2cc(O)cc(O)c12
REMARK SMILES IDX 5 1 3 2 2 3 1 4 22 5 20 6 19 7 17 8 16 9 15 10 14 11 6 12
REMARK SMILES IDX 7 13 8 14 9 15 13 16 11 17 10 18 12 20 4 22 21 24 18 26
REMARK H PARENT 10 19 12 21 4 23 21 25 18 27
REMARK Flexibility Score: inf
ROOT
ATOM      1  C   UNL     1      36.052   2.602  -3.129  1.00  0.00     0.180 A 
ATOM      2  C   UNL     1      35.460   3.819  -2.743  1.00  0.00     0.208 A 
ATOM      3  C   UNL     1      36.265   4.810  -2.160  1.00  0.00     0.238 A 
ATOM      4  O   UNL     1      35.748   5.909  -1.820  1.00  0.00    -0.285 OA
ATOM      5  C   UNL     1      37.638   4.561  -1.954  1.00  0.00     0.111 A 
ATOM      6  C   UNL     1      38.517   5.505  -1.370  1.00  0.00     0.134 A 
ATOM      7  C   UNL     1      39.869   5.178  -1.191  1.00  0.00     0.093 A 
ATOM      8  C   UNL     1      40.358   3.926  -1.584  1.00  0.00     0.123 A 
ATOM      9  C   UNL     1      39.495   2.994  -2.162  1.00  0.00     0.094 A 
ATOM     10  C   UNL     1      38.145   3.300  -2.349  1.00  0.00     0.146 A 
ATOM     11  O   UNL     1      37.347   2.396  -2.906  1.00  0.00    -0.452 OA
ENDROOT
BRANCH   1  12
ATOM     12  C   UNL     1      35.273   1.515  -3.768  1.00  0.00     0.025 A 
ATOM     13  C   UNL     1      34.621   0.534  -3.001  1.00  0.00     0.016 A 
ATOM     14  C   UNL     1      33.873  -0.466  -3.625  1.00  0.00     0.051 A 
ATOM     15  C   UNL     1      33.753  -0.495  -5.021  1.00  0.00     0.157 A 
ATOM     16  C   UNL     1      35.133   1.495  -5.166  1.00  0.00     0.062 A 
ATOM     17  C   UNL     1      34.384   0.494  -5.794  1.00  0.00     0.158 A 
BRANCH  15  18
ATOM     18  O   UNL     1      33.006  -1.496  -5.640  1.00  0.00    -0.504 OA
ATOM     19  H   UNL     1      33.281  -1.888  -6.533  1.00  0.00     0.293 HD
ENDBRANCH  15  18
BRANCH  17  20
ATOM     20  O   UNL     1      34.279   0.498  -7.184  1.00  0.00    -0.504 OA
ATOM     21  H   UNL     1      33.426   0.765  -7.660  1.00  0.00     0.293 HD
ENDBRANCH  17  20
ENDBRANCH   1  12
BRANCH   2  22
ATOM     22  O   UNL     1      34.088   4.022  -2.912  1.00  0.00    -0.502 OA
ATOM     23  H   UNL     1      33.716   4.672  -3.595  1.00  0.00     0.293 HD
ENDBRANCH   2  22
BRANCH   6  24
ATOM     24  O   UNL     1      38.059   6.760  -0.966  1.00  0.00    -0.507 OA
ATOM     25  H   UNL     1      38.601   7.601  -1.124  1.00  0.00     0.293 HD
ENDBRANCH   6  24
BRANCH   8  26
ATOM     26  O   UNL     1      41.701   3.600  -1.405  1.00  0.00    -0.508 OA
ATOM     27  H   UNL     1      41.981   2.728  -0.973  1.00  0.00     0.293 HD
ENDBRANCH   8  26
TORSDOF 6
ENDMDL
MODEL 6
REMARK VINA RESULT:    -7.376      4.838      9.220
REMARK INTER + INTRA:          -9.217
REMARK INTER:                  -8.895
REMARK INTRA:                  -0.322
REMARK UNBOUND:                -0.331
REMARK SMILES O=c1c(O)c(-c2ccc(O)c(O)c2)oc2cc(O)cc(O)c12
REMARK SMILES IDX 5 1 3 2 2 3 1 4 22 5 20 6 19 7 17 8 16 9 15 10 14 11 6 12
REMARK SMILES IDX 7 13 8 14 9 15 13 16 11 17 10 18 12 20 4 22 21 24 18 26
REMARK H PARENT 10 19 12 21 4 23 21 25 18 27
REMARK Flexibility Score: inf
ROOT
ATOM      1  C   UNL     1      35.929   0.898  -3.593  1.00  0.00     0.180 A 
ATOM      2  C   UNL     1      34.738   1.634  -3.446  1.00  0.00     0.208 A 
ATOM      3  C   UNL     1      34.815   2.973  -3.034  1.00  0.00     0.238 A 
ATOM      4  O   UNL     1      33.756   3.647  -2.910  1.00  0.00    -0.285 OA
ATOM      5  C   UNL     1      36.074   3.545  -2.754  1.00  0.00     0.111 A 
ATOM      6  C   UNL     1      36.238   4.886  -2.329  1.00  0.00     0.134 A 
ATOM      7  C   UNL     1      37.524   5.379  -2.063  1.00  0.00     0.093 A 
ATOM      8  C   UNL     1      38.648   4.557  -2.212  1.00  0.00     0.123 A 
ATOM      9  C   UNL     1      38.490   3.235  -2.632  1.00  0.00     0.094 A 
ATOM     10  C   UNL     1      37.217   2.726  -2.903  1.00  0.00     0.146 A 
ATOM     11  O   UNL     1      37.097   1.466  -3.306  1.00  0.00    -0.452 OA
ENDROOT
BRANCH   1  12
ATOM     12  C   UNL     1      35.931  -0.514  -4.043  1.00  0.00     0.025 A 
ATOM     13  C   UNL     1      35.891  -1.575  -3.122  1.00  0.00     0.016 A 
ATOM     14  C   UNL     1      35.870  -2.898  -3.571  1.00  0.00     0.051 A 
ATOM     15  C   UNL     1      35.874  -3.180  -4.943  1.00  0.00     0.157 A 
ATOM     16  C   UNL     1      35.914  -0.801  -5.418  1.00  0.00     0.062 A 
ATOM     17  C   UNL     1      35.894  -2.124  -5.870  1.00  0.00     0.158 A 
BRANCH  15  18
ATOM     18  O   UNL     1      35.855  -4.501  -5.387  1.00  0.00    -0.504 OA
ATOM     19  H   UNL     1      35.236  -5.190  -4.976  1.00  0.00     0.293 HD
ENDBRANCH  15  18
BRANCH  17  20
ATOM     20  O   UNL     1      35.893  -2.371  -7.243  1.00  0.00    -0.504 OA
ATOM     21  H   UNL     1      36.226  -1.689  -7.913  1.00  0.00     0.293 HD
ENDBRANCH  17  20
ENDBRANCH   1  12
BRANCH   2  22
ATOM     22  O   UNL     1      33.501   1.030  -3.681  1.00  0.00    -0.502 OA
ATOM     23  H   UNL     1      33.219   0.172  -3.221  1.00  0.00     0.293 HD
ENDBRANCH   2  22
BRANCH   6  24
ATOM     24  O   UNL     1      35.137   5.729  -2.170  1.00  0.00    -0.507 OA
ATOM     25  H   UNL     1      34.629   5.782  -1.295  1.00  0.00     0.293 HD
ENDBRANCH   6  24
BRANCH   8  26
ATOM     26  O   UNL     1      39.924   5.045  -1.946  1.00  0.00    -0.508 OA
ATOM     27  H   UNL     1      40.171   6.011  -2.129  1.00  0.00     0.293 HD
ENDBRANCH   8  26
TORSDOF 6
ENDMDL
MODEL 7
REMARK VINA RESULT:    -7.351      4.542      7.304
REMARK INTER + INTRA:          -9.186
REMARK INTER:                  -9.150
REMARK INTRA:                  -0.036
REMARK UNBOUND:                -0.331
REMARK SMILES O=c1c(O)c(-c2ccc(O)c(O)c2)oc2cc(O)cc(O)c12
REMARK SMILES IDX 5 1 3 2 2 3 1 4 22 5 20 6 19 7 17 8 16 9 15 10 14 11 6 12
REMARK SMILES IDX 7 13 8 14 9 15 13 16 11 17 10 18 12 20 4 22 21 24 18 26
REMARK H PARENT 10 19 12 21 4 23 21 25 18 27
REMARK Flexibility Score: inf
ROOT
ATOM      1  C   UNL     1      36.817   1.966  -3.235  1.00  0.00     0.180 A 
ATOM      2  C   UNL     1      35.668   1.920  -4.047  1.00  0.00     0.208 A 
ATOM      3  C   UNL     1      35.267   0.687  -4.585  1.00  0.00     0.238 A 
ATOM      4  O   UNL     1      34.232   0.631  -5.303  1.00  0.00    -0.285 OA
ATOM      5  C   UNL     1      36.031  -0.470  -4.322  1.00  0.00     0.111 A 
ATOM      6  C   UNL     1      35.698  -1.749  -4.830  1.00  0.00     0.134 A 
ATOM      7  C   UNL     1      36.514  -2.849  -4.531  1.00  0.00     0.093 A 
ATOM      8  C   UNL     1      37.656  -2.695  -3.735  1.00  0.00     0.123 A 
ATOM      9  C   UNL     1      37.986  -1.436  -3.232  1.00  0.00     0.094 A 
ATOM     10  C   UNL     1      37.186  -0.327  -3.518  1.00  0.00     0.146 A 
ATOM     11  O   UNL     1      37.521   0.859  -3.022  1.00  0.00    -0.452 OA
ENDROOT
BRANCH   1  12
ATOM     12  C   UNL     1      37.292   3.225  -2.616  1.00  0.00     0.025 A 
ATOM     13  C   UNL     1      36.429   4.045  -1.869  1.00  0.00     0.016 A 
ATOM     14  C   UNL     1      36.906   5.215  -1.274  1.00  0.00     0.051 A 
ATOM     15  C   UNL     1      38.253   5.577  -1.403  1.00  0.00     0.157 A 
ATOM     16  C   UNL     1      38.647   3.581  -2.725  1.00  0.00     0.062 A 
ATOM     17  C   UNL     1      39.128   4.753  -2.130  1.00  0.00     0.158 A 
BRANCH  15  18
ATOM     18  O   UNL     1      38.725   6.746  -0.809  1.00  0.00    -0.504 OA
ATOM     19  H   UNL     1      38.347   7.655  -1.051  1.00  0.00     0.293 HD
ENDBRANCH  15  18
BRANCH  17  20
ATOM     20  O   UNL     1      40.475   5.081  -2.273  1.00  0.00    -0.504 OA
ATOM     21  H   UNL     1      40.862   5.942  -1.904  1.00  0.00     0.293 HD
ENDBRANCH  17  20
ENDBRANCH   1  12
BRANCH   2  22
ATOM     22  O   UNL     1      34.957   3.088  -4.332  1.00  0.00    -0.502 OA
ATOM     23  H   UNL     1      35.376   4.008  -4.268  1.00  0.00     0.293 HD
ENDBRANCH   2  22
BRANCH   6  24
ATOM     24  O   UNL     1      34.567  -1.934  -5.627  1.00  0.00    -0.507 OA
ATOM     25  H   UNL     1      33.636  -1.731  -5.285  1.00  0.00     0.293 HD
ENDBRANCH   6  24
BRANCH   8  26
ATOM     26  O   UNL     1      38.468  -3.788  -3.439  1.00  0.00    -0.508 OA
ATOM     27  H   UNL     1      39.465  -3.684  -3.298  1.00  0.00     0.293 HD
ENDBRANCH   8  26
TORSDOF 6
ENDMDL
MODEL 8
REMARK VINA RESULT:    -7.328      1.866      2.844
REMARK INTER + INTRA:          -9.159
REMARK INTER:                  -8.847
REMARK INTRA:                  -0.311
REMARK UNBOUND:                -0.331
REMARK SMILES O=c1c(O)c(-c2ccc(O)c(O)c2)oc2cc(O)cc(O)c12
REMARK SMILES IDX 5 1 3 2 2 3 1 4 22 5 20 6 19 7 17 8 16 9 15 10 14 11 6 12
REMARK SMILES IDX 7 13 8 14 9 15 13 16 11 17 10 18 12 20 4 22 21 24 18 26
REMARK H PARENT 10 19 12 21 4 23 21 25 18 27
REMARK Flexibility Score: inf
ROOT
ATOM      1  C   UNL     1      39.150   4.769  -0.974  1.00  0.00     0.180 A 
ATOM      2  C   UNL     1      39.139   3.499  -1.581  1.00  0.00     0.208 A 
ATOM      3  C   UNL     1      37.965   3.060  -2.213  1.00  0.00     0.238 A 
ATOM      4  O   UNL     1      37.946   1.928  -2.771  1.00  0.00    -0.285 OA
ATOM      5  C   UNL     1      36.820   3.884  -2.208  1.00  0.00     0.111 A 
ATOM      6  C   UNL     1      35.597   3.514  -2.817  1.00  0.00     0.134 A 
ATOM      7  C   UNL     1      34.500   4.386  -2.761  1.00  0.00     0.093 A 
ATOM      8  C   UNL     1      34.603   5.620  -2.107  1.00  0.00     0.123 A 
ATOM      9  C   UNL     1      35.808   5.989  -1.506  1.00  0.00     0.094 A 
ATOM     10  C   UNL     1      36.912   5.134  -1.552  1.00  0.00     0.146 A 
ATOM     11  O   UNL     1      38.048   5.512  -0.976  1.00  0.00    -0.452 OA
ENDROOT
BRANCH   1  12
ATOM     12  C   UNL     1      40.356   5.310  -0.305  1.00  0.00     0.025 A 
ATOM     13  C   UNL     1      40.548   5.173   1.081  1.00  0.00     0.016 A 
ATOM     14  C   UNL     1      41.705   5.671   1.685  1.00  0.00     0.051 A 
ATOM     15  C   UNL     1      42.692   6.300   0.915  1.00  0.00     0.157 A 
ATOM     16  C   UNL     1      41.358   5.923  -1.076  1.00  0.00     0.062 A 
ATOM     17  C   UNL     1      42.517   6.423  -0.474  1.00  0.00     0.158 A 
BRANCH  15  18
ATOM     18  O   UNL     1      43.843   6.797   1.522  1.00  0.00    -0.504 OA
ATOM     19  H   UNL     1      43.922   6.874   2.530  1.00  0.00     0.293 HD
ENDBRANCH  15  18
BRANCH  17  20
ATOM     20  O   UNL     1      43.483   7.038  -1.269  1.00  0.00    -0.504 OA
ATOM     21  H   UNL     1      44.462   7.056  -1.011  1.00  0.00     0.293 HD
ENDBRANCH  17  20
ENDBRANCH   1  12
BRANCH   2  22
ATOM     22  O   UNL     1      40.270   2.681  -1.530  1.00  0.00    -0.502 OA
ATOM     23  H   UNL     1      40.209   1.670  -1.500  1.00  0.00     0.293 HD
ENDBRANCH   2  22
BRANCH   6  24
ATOM     24  O   UNL     1      35.463   2.290  -3.475  1.00  0.00    -0.507 OA
ATOM     25  H   UNL     1      34.558   1.857  -3.616  1.00  0.00     0.293 HD
ENDBRANCH   6  24
BRANCH   8  26
ATOM     26  O   UNL     1      33.514   6.486  -2.051  1.00  0.00    -0.508 OA
ATOM     27  H   UNL     1      33.526   7.315  -1.467  1.00  0.00     0.293 HD
ENDBRANCH   8  26
TORSDOF 6
ENDMDL
MODEL 9
REMARK VINA RESULT:    -7.291      5.040      7.490
REMARK INTER + INTRA:          -9.114
REMARK INTER:                  -8.903
REMARK INTRA:                  -0.212
REMARK UNBOUND:                -0.331
REMARK SMILES O=c1c(O)c(-c2ccc(O)c(O)c2)oc2cc(O)cc(O)c12
REMARK SMILES IDX 5 1 3 2 2 3 1 4 22 5 20 6 19 7 17 8 16 9 15 10 14 11 6 12
REMARK SMILES IDX 7 13 8 14 9 15 13 16 11 17 10 18 12 20 4 22 21 24 18 26
REMARK H PARENT 10 19 12 21 4 23 21 25 18 27
REMARK Flexibility Score: inf
ROOT
ATOM      1  C   UNL     1      37.488   2.003  -2.869  1.00  0.00     0.180 A 
ATOM      2  C   UNL     1      38.774   1.793  -2.337  1.00  0.00     0.208 A 
ATOM      3  C   UNL     1      39.311   0.497  -2.351  1.00  0.00     0.238 A 
ATOM      4  O   UNL     1      40.467   0.298  -1.887  1.00  0.00    -0.285 OA
ATOM      5  C   UNL     1      38.548  -0.568  -2.875  1.00  0.00     0.111 A 
ATOM      6  C   UNL     1      39.014  -1.904  -2.922  1.00  0.00     0.134 A 
ATOM      7  C   UNL     1      38.190  -2.909  -3.451  1.00  0.00     0.093 A 
ATOM      8  C   UNL     1      36.911  -2.604  -3.932  1.00  0.00     0.123 A 
ATOM      9  C   UNL     1      36.450  -1.287  -3.888  1.00  0.00     0.094 A 
ATOM     10  C   UNL     1      37.255  -0.271  -3.366  1.00  0.00     0.146 A 
ATOM     11  O   UNL     1      36.792   0.973  -3.341  1.00  0.00    -0.452 OA
ENDROOT
BRANCH   1  12
ATOM     12  C   UNL     1      36.861   3.345  -2.908  1.00  0.00     0.025 A 
ATOM     13  C   UNL     1      36.637   4.014  -4.124  1.00  0.00     0.016 A 
ATOM     14  C   UNL     1      36.023   5.268  -4.137  1.00  0.00     0.051 A 
ATOM     15  C   UNL     1      35.611   5.867  -2.939  1.00  0.00     0.157 A 
ATOM     16  C   UNL     1      36.428   3.940  -1.711  1.00  0.00     0.062 A 
ATOM     17  C   UNL     1      35.812   5.197  -1.721  1.00  0.00     0.158 A 
BRANCH  15  18
ATOM     18  O   UNL     1      35.000   7.120  -2.956  1.00  0.00    -0.504 OA
ATOM     19  H   UNL     1      34.022   7.237  -2.716  1.00  0.00     0.293 HD
ENDBRANCH  15  18
BRANCH  17  20
ATOM     20  O   UNL     1      35.409   5.763  -0.512  1.00  0.00    -0.504 OA
ATOM     21  H   UNL     1      35.411   6.764  -0.358  1.00  0.00     0.293 HD
ENDBRANCH  17  20
ENDBRANCH   1  12
BRANCH   2  22
ATOM     22  O   UNL     1      39.489   2.856  -1.778  1.00  0.00    -0.502 OA
ATOM     23  H   UNL     1      40.331   2.716  -1.232  1.00  0.00     0.293 HD
ENDBRANCH   2  22
BRANCH   6  24
ATOM     24  O   UNL     1      40.283  -2.240  -2.449  1.00  0.00    -0.507 OA
ATOM     25  H   UNL     1      41.116  -2.087  -3.004  1.00  0.00     0.293 HD
ENDBRANCH   6  24
BRANCH   8  26
ATOM     26  O   UNL     1      36.093  -3.601  -4.457  1.00  0.00    -0.508 OA
ATOM     27  H   UNL     1      35.776  -3.575  -5.419  1.00  0.00     0.293 HD
ENDBRANCH   8  26
TORSDOF 6
ENDMDL
