MODEL 1
REMARK VINA RESULT:    -4.272      0.000      0.000
REMARK INTER + INTRA:          -9.741
REMARK INTER:                  -7.768
REMARK INTRA:                  -1.972
REMARK UNBOUND:                -1.972
REMARK SMILES CCCCCCCCCCCCCCCC(=O)[O-]
REMARK SMILES IDX 9 1 10 2 11 3 12 4 13 5 14 6 15 7 16 8 17 9 18 10 8 11 7 12
REMARK SMILES IDX 6 13 5 14 4 15 3 16 2 17 1 18
REMARK H PARENT
REMARK Flexibility Score: inf
ROOT
ATOM      1  C   UNL     1     -35.080  20.722 -30.828  1.00  0.00     0.000 C 
ENDROOT
BRANCH   1   2
ATOM      2  C   UNL     1     -34.209  19.513 -30.444  1.00  0.00     0.000 C 
BRANCH   2   3
ATOM      3  C   UNL     1     -34.957  18.527 -29.519  1.00  0.00     0.000 C 
BRANCH   3   4
ATOM      4  C   UNL     1     -35.293  19.112 -28.137  1.00  0.00     0.000 C 
BRANCH   4   5
ATOM      5  C   UNL     1     -36.767  18.910 -27.746  1.00  0.00     0.000 C 
BRANCH   5   6
ATOM      6  C   UNL     1     -37.524  18.020 -28.743  1.00  0.00     0.006 C 
BRANCH   6   7
ATOM      7  C   UNL     1     -38.733  18.727 -29.368  1.00  0.00     0.053 C 
BRANCH   7   8
ATOM      8  C   UNL     1     -38.674  18.641 -30.861  1.00  0.00     0.041 C 
ATOM      9  O   UNL     1     -38.924  17.553 -31.444  1.00  0.00    -0.550 OA
ATOM     10  O   UNL     1     -38.293  19.749 -31.607  1.00  0.00    -0.550 OA
ENDBRANCH   7   8
ENDBRANCH   6   7
ENDBRANCH   5   6
ENDBRANCH   4   5
ENDBRANCH   3   4
ENDBRANCH   2   3
ENDBRANCH   1   2
BRANCH   1  11
ATOM     11  C   UNL     1     -34.319  22.060 -30.714  1.00  0.00     0.000 C 
BRANCH  11  12
ATOM     12  C   UNL     1     -35.089  23.149 -29.942  1.00  0.00    -0.000 C 
BRANCH  12  13
ATOM     13  C   UNL     1     -35.475  22.776 -28.497  1.00  0.00    -0.000 C 
BRANCH  13  14
ATOM     14  C   UNL     1     -36.953  23.012 -28.138  1.00  0.00    -0.000 C 
BRANCH  14  15
ATOM     15  C   UNL     1     -37.961  22.165 -28.937  1.00  0.00    -0.000 C 
BRANCH  15  16
ATOM     16  C   UNL     1     -39.397  22.732 -28.927  1.00  0.00    -0.000 C 
BRANCH  16  17
ATOM     17  C   UNL     1     -40.273  22.126 -30.033  1.00  0.00    -0.003 C 
ATOM     18  C   UNL     1     -41.605  22.864 -30.146  1.00  0.00     0.004 C 
ENDBRANCH  16  17
ENDBRANCH  15  16
ENDBRANCH  14  15
ENDBRANCH  13  14
ENDBRANCH  12  13
ENDBRANCH  11  12
ENDBRANCH   1  11
TORSDOF 14
ENDMDL
MODEL 2
REMARK VINA RESULT:    -4.225     14.883     16.693
REMARK INTER + INTRA:          -9.654
REMARK INTER:                  -7.761
REMARK INTRA:                  -1.893
REMARK UNBOUND:                -1.972
REMARK SMILES CCCCCCCCCCCCCCCC(=O)[O-]
REMARK SMILES IDX 9 1 10 2 11 3 12 4 13 5 14 6 15 7 16 8 17 9 18 10 8 11 7 12
REMARK SMILES IDX 6 13 5 14 4 15 3 16 2 17 1 18
REMARK H PARENT
REMARK Flexibility Score: inf
ROOT
ATOM      1  C   UNL     1     -46.950   9.467 -29.980  1.00  0.00     0.000 C 
ENDROOT
BRANCH   1   2
ATOM      2  C   UNL     1     -48.346   9.864 -29.469  1.00  0.00     0.000 C 
BRANCH   2   3
ATOM      3  C   UNL     1     -48.370  11.300 -28.899  1.00  0.00     0.000 C 
BRANCH   3   4
ATOM      4  C   UNL     1     -49.640  12.087 -29.261  1.00  0.00     0.000 C 
BRANCH   4   5
ATOM      5  C   UNL     1     -49.563  12.737 -30.651  1.00  0.00     0.000 C 
BRANCH   5   6
ATOM      6  C   UNL     1     -50.902  13.349 -31.092  1.00  0.00     0.006 C 
BRANCH   6   7
ATOM      7  C   UNL     1     -50.872  14.882 -31.117  1.00  0.00     0.053 C 
BRANCH   7   8
ATOM      8  C   UNL     1     -51.921  15.440 -30.208  1.00  0.00     0.041 C 
ATOM      9  O   UNL     1     -52.005  15.042 -29.017  1.00  0.00    -0.550 OA
ATOM     10  O   UNL     1     -52.840  16.364 -30.691  1.00  0.00    -0.550 OA
ENDBRANCH   7   8
ENDBRANCH   6   7
ENDBRANCH   5   6
ENDBRANCH   4   5
ENDBRANCH   3   4
ENDBRANCH   2   3
ENDBRANCH   1   2
BRANCH   1  11
ATOM     11  C   UNL     1     -46.652   7.965 -29.778  1.00  0.00     0.000 C 
BRANCH  11  12
ATOM     12  C   UNL     1     -47.732   7.033 -30.359  1.00  0.00    -0.000 C 
BRANCH  12  13
ATOM     13  C   UNL     1     -47.351   6.335 -31.679  1.00  0.00    -0.000 C 
BRANCH  13  14
ATOM     14  C   UNL     1     -47.782   7.079 -32.956  1.00  0.00    -0.000 C 
BRANCH  14  15
ATOM     15  C   UNL     1     -49.202   7.673 -32.916  1.00  0.00    -0.000 C 
BRANCH  15  16
ATOM     16  C   UNL     1     -49.237   9.213 -33.026  1.00  0.00    -0.000 C 
BRANCH  16  17
ATOM     17  C   UNL     1     -50.582   9.802 -32.577  1.00  0.00    -0.003 C 
ATOM     18  C   UNL     1     -51.242   8.922 -31.519  1.00  0.00     0.004 C 
ENDBRANCH  16  17
ENDBRANCH  15  16
ENDBRANCH  14  15
ENDBRANCH  13  14
ENDBRANCH  12  13
ENDBRANCH  11  12
ENDBRANCH   1  11
TORSDOF 14
ENDMDL
MODEL 3
REMARK VINA RESULT:    -4.206     14.492     16.637
REMARK INTER + INTRA:          -9.621
REMARK INTER:                  -7.419
REMARK INTRA:                  -2.202
REMARK UNBOUND:                -1.972
REMARK SMILES CCCCCCCCCCCCCCCC(=O)[O-]
REMARK SMILES IDX 9 1 10 2 11 3 12 4 13 5 14 6 15 7 16 8 17 9 18 10 8 11 7 12
REMARK SMILES IDX 6 13 5 14 4 15 3 16 2 17 1 18
REMARK H PARENT
REMARK Flexibility Score: inf
ROOT
ATOM      1  C   UNL     1     -53.798  13.837 -29.150  1.00  0.00     0.000 C 
ENDROOT
BRANCH   1   2
ATOM      2  C   UNL     1     -53.142  12.471 -28.882  1.00  0.00     0.000 C 
BRANCH   2   3
ATOM      3  C   UNL     1     -53.467  11.443 -29.988  1.00  0.00     0.000 C 
BRANCH   3   4
ATOM      4  C   UNL     1     -52.321  10.456 -30.270  1.00  0.00     0.000 C 
BRANCH   4   5
ATOM      5  C   UNL     1     -51.689  10.657 -31.657  1.00  0.00     0.000 C 
BRANCH   5   6
ATOM      6  C   UNL     1     -50.649   9.577 -31.993  1.00  0.00     0.006 C 
BRANCH   6   7
ATOM      7  C   UNL     1     -49.214  10.119 -31.999  1.00  0.00     0.053 C 
BRANCH   7   8
ATOM      8  C   UNL     1     -48.424   9.517 -30.879  1.00  0.00     0.041 C 
ATOM      9  O   UNL     1     -48.889   9.504 -29.710  1.00  0.00    -0.550 OA
ATOM     10  O   UNL     1     -47.150   9.017 -31.119  1.00  0.00    -0.550 OA
ENDBRANCH   7   8
ENDBRANCH   6   7
ENDBRANCH   5   6
ENDBRANCH   4   5
ENDBRANCH   3   4
ENDBRANCH   2   3
ENDBRANCH   1   2
BRANCH   1  11
ATOM     11  C   UNL     1     -53.368  14.911 -28.126  1.00  0.00     0.000 C 
BRANCH  11  12
ATOM     12  C   UNL     1     -52.596  16.089 -28.749  1.00  0.00    -0.000 C 
BRANCH  12  13
ATOM     13  C   UNL     1     -52.667  16.177 -30.287  1.00  0.00    -0.000 C 
BRANCH  13  14
ATOM     14  C   UNL     1     -51.370  16.648 -30.971  1.00  0.00    -0.000 C 
BRANCH  14  15
ATOM     15  C   UNL     1     -50.685  15.596 -31.863  1.00  0.00    -0.000 C 
BRANCH  15  16
ATOM     16  C   UNL     1     -50.773  14.158 -31.308  1.00  0.00    -0.000 C 
BRANCH  16  17
ATOM     17  C   UNL     1     -49.432  13.663 -30.748  1.00  0.00    -0.003 C 
ATOM     18  C   UNL     1     -49.621  12.960 -29.407  1.00  0.00     0.004 C 
ENDBRANCH  16  17
ENDBRANCH  15  16
ENDBRANCH  14  15
ENDBRANCH  13  14
ENDBRANCH  12  13
ENDBRANCH  11  12
ENDBRANCH   1  11
TORSDOF 14
ENDMDL
MODEL 4
REMARK VINA RESULT:    -4.205      1.569      4.000
REMARK INTER + INTRA:          -9.618
REMARK INTER:                  -7.442
REMARK INTRA:                  -2.176
REMARK UNBOUND:                -1.972
REMARK SMILES CCCCCCCCCCCCCCCC(=O)[O-]
REMARK SMILES IDX 9 1 10 2 11 3 12 4 13 5 14 6 15 7 16 8 17 9 18 10 8 11 7 12
REMARK SMILES IDX 6 13 5 14 4 15 3 16 2 17 1 18
REMARK H PARENT
REMARK Flexibility Score: inf
ROOT
ATOM      1  C   UNL     1     -33.969  20.814 -30.327  1.00  0.00     0.000 C 
ENDROOT
BRANCH   1   2
ATOM      2  C   UNL     1     -34.887  21.561 -31.312  1.00  0.00     0.000 C 
BRANCH   2   3
ATOM      3  C   UNL     1     -35.410  22.890 -30.725  1.00  0.00     0.000 C 
BRANCH   3   4
ATOM      4  C   UNL     1     -35.140  23.049 -29.219  1.00  0.00     0.000 C 
BRANCH   4   5
ATOM      5  C   UNL     1     -36.431  23.125 -28.387  1.00  0.00     0.000 C 
BRANCH   5   6
ATOM      6  C   UNL     1     -37.549  22.233 -28.950  1.00  0.00     0.006 C 
BRANCH   6   7
ATOM      7  C   UNL     1     -38.950  22.747 -28.597  1.00  0.00     0.053 C 
BRANCH   7   8
ATOM      8  C   UNL     1     -39.997  21.901 -29.251  1.00  0.00     0.041 C 
ATOM      9  O   UNL     1     -40.236  20.743 -28.822  1.00  0.00    -0.550 OA
ATOM     10  O   UNL     1     -40.673  22.374 -30.369  1.00  0.00    -0.550 OA
ENDBRANCH   7   8
ENDBRANCH   6   7
ENDBRANCH   5   6
ENDBRANCH   4   5
ENDBRANCH   3   4
ENDBRANCH   2   3
ENDBRANCH   1   2
BRANCH   1  11
ATOM     11  C   UNL     1     -34.212  19.289 -30.333  1.00  0.00     0.000 C 
BRANCH  11  12
ATOM     12  C   UNL     1     -34.341  18.675 -28.925  1.00  0.00    -0.000 C 
BRANCH  12  13
ATOM     13  C   UNL     1     -35.276  19.436 -27.964  1.00  0.00    -0.000 C 
BRANCH  13  14
ATOM     14  C   UNL     1     -36.483  18.625 -27.456  1.00  0.00    -0.000 C 
BRANCH  14  15
ATOM     15  C   UNL     1     -37.735  18.692 -28.349  1.00  0.00    -0.000 C 
BRANCH  15  16
ATOM     16  C   UNL     1     -37.624  17.850 -29.639  1.00  0.00    -0.000 C 
BRANCH  16  17
ATOM     17  C   UNL     1     -38.556  18.355 -30.750  1.00  0.00    -0.003 C 
ATOM     18  C   UNL     1     -38.030  19.652 -31.361  1.00  0.00     0.004 C 
ENDBRANCH  16  17
ENDBRANCH  15  16
ENDBRANCH  14  15
ENDBRANCH  13  14
ENDBRANCH  12  13
ENDBRANCH  11  12
ENDBRANCH   1  11
TORSDOF 14
ENDMDL
MODEL 5
REMARK VINA RESULT:    -4.193     14.406     17.178
REMARK INTER + INTRA:          -9.597
REMARK INTER:                  -7.931
REMARK INTRA:                  -1.666
REMARK UNBOUND:                -1.972
REMARK SMILES CCCCCCCCCCCCCCCC(=O)[O-]
REMARK SMILES IDX 9 1 10 2 11 3 12 4 13 5 14 6 15 7 16 8 17 9 18 10 8 11 7 12
REMARK SMILES IDX 6 13 5 14 4 15 3 16 2 17 1 18
REMARK H PARENT
REMARK Flexibility Score: inf
ROOT
ATOM      1  C   UNL     1     -50.740  10.064 -30.941  1.00  0.00     0.000 C 
ENDROOT
BRANCH   1   2
ATOM      2  C   UNL     1     -49.434  10.879 -30.965  1.00  0.00     0.000 C 
BRANCH   2   3
ATOM      3  C   UNL     1     -49.091  11.468 -29.579  1.00  0.00     0.000 C 
BRANCH   3   4
ATOM      4  C   UNL     1     -49.523  12.934 -29.408  1.00  0.00     0.000 C 
BRANCH   4   5
ATOM      5  C   UNL     1     -49.439  13.737 -30.716  1.00  0.00     0.000 C 
BRANCH   5   6
ATOM      6  C   UNL     1     -50.784  14.368 -31.108  1.00  0.00     0.006 C 
BRANCH   6   7
ATOM      7  C   UNL     1     -50.625  15.758 -31.736  1.00  0.00     0.053 C 
BRANCH   7   8
ATOM      8  C   UNL     1     -51.461  16.761 -31.004  1.00  0.00     0.041 C 
ATOM      9  O   UNL     1     -52.690  16.556 -30.830  1.00  0.00    -0.550 OA
ATOM     10  O   UNL     1     -50.890  17.947 -30.558  1.00  0.00    -0.550 OA
ENDBRANCH   7   8
ENDBRANCH   6   7
ENDBRANCH   5   6
ENDBRANCH   4   5
ENDBRANCH   3   4
ENDBRANCH   2   3
ENDBRANCH   1   2
BRANCH   1  11
ATOM     11  C   UNL     1     -51.588  10.267 -32.215  1.00  0.00     0.000 C 
BRANCH  11  12
ATOM     12  C   UNL     1     -51.925   8.956 -32.952  1.00  0.00    -0.000 C 
BRANCH  12  13
ATOM     13  C   UNL     1     -51.236   7.696 -32.393  1.00  0.00    -0.000 C 
BRANCH  13  14
ATOM     14  C   UNL     1     -50.399   6.905 -33.415  1.00  0.00    -0.000 C 
BRANCH  14  15
ATOM     15  C   UNL     1     -48.902   6.787 -33.080  1.00  0.00    -0.000 C 
BRANCH  15  16
ATOM     16  C   UNL     1     -48.161   8.141 -33.052  1.00  0.00    -0.000 C 
BRANCH  16  17
ATOM     17  C   UNL     1     -47.151   8.234 -31.899  1.00  0.00    -0.003 C 
ATOM     18  C   UNL     1     -47.721   7.628 -30.619  1.00  0.00     0.004 C 
ENDBRANCH  16  17
ENDBRANCH  15  16
ENDBRANCH  14  15
ENDBRANCH  13  14
ENDBRANCH  12  13
ENDBRANCH  11  12
ENDBRANCH   1  11
TORSDOF 14
ENDMDL
MODEL 6
REMARK VINA RESULT:    -4.173     14.701     17.705
REMARK INTER + INTRA:          -9.561
REMARK INTER:                  -8.191
REMARK INTRA:                  -1.370
REMARK UNBOUND:                -1.972
REMARK SMILES CCCCCCCCCCCCCCCC(=O)[O-]
REMARK SMILES IDX 9 1 10 2 11 3 12 4 13 5 14 6 15 7 16 8 17 9 18 10 8 11 7 12
REMARK SMILES IDX 6 13 5 14 4 15 3 16 2 17 1 18
REMARK H PARENT
REMARK Flexibility Score: inf
ROOT
ATOM      1  C   UNL     1     -52.239  10.648 -29.887  1.00  0.00     0.000 C 
ENDROOT
BRANCH   1   2
ATOM      2  C   UNL     1     -51.318  11.417 -28.922  1.00  0.00     0.000 C 
BRANCH   2   3
ATOM      3  C   UNL     1     -49.883  11.558 -29.476  1.00  0.00     0.000 C 
BRANCH   3   4
ATOM      4  C   UNL     1     -49.332  12.992 -29.403  1.00  0.00     0.000 C 
BRANCH   4   5
ATOM      5  C   UNL     1     -49.387  13.722 -30.755  1.00  0.00     0.000 C 
BRANCH   5   6
ATOM      6  C   UNL     1     -50.750  14.383 -31.014  1.00  0.00     0.006 C 
BRANCH   6   7
ATOM      7  C   UNL     1     -50.632  15.694 -31.801  1.00  0.00     0.053 C 
BRANCH   7   8
ATOM      8  C   UNL     1     -51.412  16.779 -31.128  1.00  0.00     0.041 C 
ATOM      9  O   UNL     1     -52.664  16.694 -31.031  1.00  0.00    -0.550 OA
ATOM     10  O   UNL     1     -50.760  17.911 -30.653  1.00  0.00    -0.550 OA
ENDBRANCH   7   8
ENDBRANCH   6   7
ENDBRANCH   5   6
ENDBRANCH   4   5
ENDBRANCH   3   4
ENDBRANCH   2   3
ENDBRANCH   1   2
BRANCH   1  11
ATOM     11  C   UNL     1     -51.940  10.967 -31.369  1.00  0.00     0.000 C 
BRANCH  11  12
ATOM     12  C   UNL     1     -51.589   9.726 -32.212  1.00  0.00    -0.000 C 
BRANCH  12  13
ATOM     13  C   UNL     1     -50.134   9.670 -32.717  1.00  0.00    -0.000 C 
BRANCH  13  14
ATOM     14  C   UNL     1     -49.472   8.282 -32.637  1.00  0.00    -0.000 C 
BRANCH  14  15
ATOM     15  C   UNL     1     -50.442   7.111 -32.393  1.00  0.00    -0.000 C 
BRANCH  15  16
ATOM     16  C   UNL     1     -50.995   6.480 -33.689  1.00  0.00    -0.000 C 
BRANCH  16  17
ATOM     17  C   UNL     1     -52.514   6.262 -33.633  1.00  0.00    -0.003 C 
ATOM     18  C   UNL     1     -53.250   7.300 -34.476  1.00  0.00     0.004 C 
ENDBRANCH  16  17
ENDBRANCH  15  16
ENDBRANCH  14  15
ENDBRANCH  13  14
ENDBRANCH  12  13
ENDBRANCH  11  12
ENDBRANCH   1  11
TORSDOF 14
ENDMDL
MODEL 7
REMARK VINA RESULT:    -4.161      2.025      4.247
REMARK INTER + INTRA:          -9.538
REMARK INTER:                  -7.474
REMARK INTRA:                  -2.065
REMARK UNBOUND:                -1.972
REMARK SMILES CCCCCCCCCCCCCCCC(=O)[O-]
REMARK SMILES IDX 9 1 10 2 11 3 12 4 13 5 14 6 15 7 16 8 17 9 18 10 8 11 7 12
REMARK SMILES IDX 6 13 5 14 4 15 3 16 2 17 1 18
REMARK H PARENT
REMARK Flexibility Score: inf
ROOT
ATOM      1  C   UNL     1     -37.259  17.782 -28.209  1.00  0.00     0.000 C 
ENDROOT
BRANCH   1   2
ATOM      2  C   UNL     1     -36.652  17.493 -29.593  1.00  0.00     0.000 C 
BRANCH   2   3
ATOM      3  C   UNL     1     -37.735  17.192 -30.652  1.00  0.00     0.000 C 
BRANCH   3   4
ATOM      4  C   UNL     1     -38.683  18.373 -30.919  1.00  0.00     0.000 C 
BRANCH   4   5
ATOM      5  C   UNL     1     -37.944  19.635 -31.392  1.00  0.00     0.000 C 
BRANCH   5   6
ATOM      6  C   UNL     1     -38.705  20.926 -31.052  1.00  0.00     0.006 C 
BRANCH   6   7
ATOM      7  C   UNL     1     -38.996  21.064 -29.553  1.00  0.00     0.053 C 
BRANCH   7   8
ATOM      8  C   UNL     1     -39.868  22.253 -29.297  1.00  0.00     0.041 C 
ATOM      9  O   UNL     1     -39.594  23.051 -28.363  1.00  0.00    -0.550 OA
ATOM     10  O   UNL     1     -41.014  22.451 -30.058  1.00  0.00    -0.550 OA
ENDBRANCH   7   8
ENDBRANCH   6   7
ENDBRANCH   5   6
ENDBRANCH   4   5
ENDBRANCH   3   4
ENDBRANCH   2   3
ENDBRANCH   1   2
BRANCH   1  11
ATOM     11  C   UNL     1     -36.554  18.951 -27.486  1.00  0.00     0.000 C 
BRANCH  11  12
ATOM     12  C   UNL     1     -35.401  19.576 -28.294  1.00  0.00    -0.000 C 
BRANCH  12  13
ATOM     13  C   UNL     1     -34.568  20.629 -27.536  1.00  0.00    -0.000 C 
BRANCH  13  14
ATOM     14  C   UNL     1     -34.579  22.037 -28.159  1.00  0.00    -0.000 C 
BRANCH  14  15
ATOM     15  C   UNL     1     -35.862  22.399 -28.928  1.00  0.00    -0.000 C 
BRANCH  15  16
ATOM     16  C   UNL     1     -35.602  22.986 -30.332  1.00  0.00    -0.000 C 
BRANCH  16  17
ATOM     17  C   UNL     1     -35.236  21.906 -31.361  1.00  0.00    -0.003 C 
ATOM     18  C   UNL     1     -34.932  22.524 -32.723  1.00  0.00     0.004 C 
ENDBRANCH  16  17
ENDBRANCH  15  16
ENDBRANCH  14  15
ENDBRANCH  13  14
ENDBRANCH  12  13
ENDBRANCH  11  12
ENDBRANCH   1  11
TORSDOF 14
ENDMDL
MODEL 8
REMARK VINA RESULT:    -4.149     15.438     17.843
REMARK INTER + INTRA:          -9.517
REMARK INTER:                  -7.428
REMARK INTRA:                  -2.089
REMARK UNBOUND:                -1.972
REMARK SMILES CCCCCCCCCCCCCCCC(=O)[O-]
REMARK SMILES IDX 9 1 10 2 11 3 12 4 13 5 14 6 15 7 16 8 17 9 18 10 8 11 7 12
REMARK SMILES IDX 6 13 5 14 4 15 3 16 2 17 1 18
REMARK H PARENT
REMARK Flexibility Score: inf
ROOT
ATOM      1  C   UNL     1     -48.872   9.958 -30.229  1.00  0.00     0.000 C 
ENDROOT
BRANCH   1   2
ATOM      2  C   UNL     1     -49.280  10.332 -31.665  1.00  0.00     0.000 C 
BRANCH   2   3
ATOM      3  C   UNL     1     -50.800  10.184 -31.894  1.00  0.00     0.000 C 
BRANCH   3   4
ATOM      4  C   UNL     1     -51.556   9.622 -30.679  1.00  0.00     0.000 C 
BRANCH   4   5
ATOM      5  C   UNL     1     -52.666  10.562 -30.179  1.00  0.00     0.000 C 
BRANCH   5   6
ATOM      6  C   UNL     1     -52.244  11.364 -28.939  1.00  0.00     0.006 C 
BRANCH   6   7
ATOM      7  C   UNL     1     -52.290  12.880 -29.171  1.00  0.00     0.053 C 
BRANCH   7   8
ATOM      8  C   UNL     1     -51.112  13.320 -29.983  1.00  0.00     0.041 C 
ATOM      9  O   UNL     1     -51.269  13.704 -31.172  1.00  0.00    -0.550 OA
ATOM     10  O   UNL     1     -49.833  13.256 -29.443  1.00  0.00    -0.550 OA
ENDBRANCH   7   8
ENDBRANCH   6   7
ENDBRANCH   5   6
ENDBRANCH   4   5
ENDBRANCH   3   4
ENDBRANCH   2   3
ENDBRANCH   1   2
BRANCH   1  11
ATOM     11  C   UNL     1     -47.514   9.224 -30.172  1.00  0.00     0.000 C 
BRANCH  11  12
ATOM     12  C   UNL     1     -47.070   8.633 -31.523  1.00  0.00    -0.000 C 
BRANCH  12  13
ATOM     13  C   UNL     1     -47.444   7.153 -31.743  1.00  0.00    -0.000 C 
BRANCH  13  14
ATOM     14  C   UNL     1     -48.355   6.887 -32.956  1.00  0.00    -0.000 C 
BRANCH  14  15
ATOM     15  C   UNL     1     -49.855   6.763 -32.629  1.00  0.00    -0.000 C 
BRANCH  15  16
ATOM     16  C   UNL     1     -50.752   6.599 -33.875  1.00  0.00    -0.000 C 
BRANCH  16  17
ATOM     17  C   UNL     1     -52.241   6.493 -33.515  1.00  0.00    -0.003 C 
ATOM     18  C   UNL     1     -53.001   7.746 -33.941  1.00  0.00     0.004 C 
ENDBRANCH  16  17
ENDBRANCH  15  16
ENDBRANCH  14  15
ENDBRANCH  13  14
ENDBRANCH  12  13
ENDBRANCH  11  12
ENDBRANCH   1  11
TORSDOF 14
ENDMDL
MODEL 9
REMARK VINA RESULT:    -4.110      2.438      4.826
REMARK INTER + INTRA:          -9.446
REMARK INTER:                  -7.157
REMARK INTRA:                  -2.288
REMARK UNBOUND:                -1.972
REMARK SMILES CCCCCCCCCCCCCCCC(=O)[O-]
REMARK SMILES IDX 9 1 10 2 11 3 12 4 13 5 14 6 15 7 16 8 17 9 18 10 8 11 7 12
REMARK SMILES IDX 6 13 5 14 4 15 3 16 2 17 1 18
REMARK H PARENT
REMARK Flexibility Score: inf
ROOT
ATOM      1  C   UNL     1     -35.708  19.563 -28.145  1.00  0.00     0.000 C 
ENDROOT
BRANCH   1   2
ATOM      2  C   UNL     1     -34.563  18.868 -28.903  1.00  0.00     0.000 C 
BRANCH   2   3
ATOM      3  C   UNL     1     -34.453  19.358 -30.364  1.00  0.00     0.000 C 
BRANCH   3   4
ATOM      4  C   UNL     1     -34.094  20.848 -30.491  1.00  0.00     0.000 C 
BRANCH   4   5
ATOM      5  C   UNL     1     -35.233  21.686 -31.094  1.00  0.00     0.000 C 
BRANCH   5   6
ATOM      6  C   UNL     1     -35.515  22.964 -30.289  1.00  0.00     0.006 C 
BRANCH   6   7
ATOM      7  C   UNL     1     -34.479  23.208 -29.185  1.00  0.00     0.053 C 
BRANCH   7   8
ATOM      8  C   UNL     1     -35.151  23.314 -27.852  1.00  0.00     0.041 C 
ATOM      9  O   UNL     1     -36.392  23.508 -27.782  1.00  0.00    -0.550 OA
ATOM     10  O   UNL     1     -34.396  23.250 -26.687  1.00  0.00    -0.550 OA
ENDBRANCH   7   8
ENDBRANCH   6   7
ENDBRANCH   5   6
ENDBRANCH   4   5
ENDBRANCH   3   4
ENDBRANCH   2   3
ENDBRANCH   1   2
BRANCH   1  11
ATOM     11  C   UNL     1     -36.904  18.621 -27.885  1.00  0.00     0.000 C 
BRANCH  11  12
ATOM     12  C   UNL     1     -36.886  17.344 -28.747  1.00  0.00    -0.000 C 
BRANCH  12  13
ATOM     13  C   UNL     1     -37.575  17.473 -30.120  1.00  0.00    -0.000 C 
BRANCH  13  14
ATOM     14  C   UNL     1     -38.638  18.583 -30.212  1.00  0.00    -0.000 C 
BRANCH  14  15
ATOM     15  C   UNL     1     -38.397  19.624 -31.321  1.00  0.00    -0.000 C 
BRANCH  15  16
ATOM     16  C   UNL     1     -38.729  21.072 -30.898  1.00  0.00    -0.000 C 
BRANCH  16  17
ATOM     17  C   UNL     1     -38.842  21.226 -29.374  1.00  0.00    -0.003 C 
ATOM     18  C   UNL     1     -39.532  22.535 -29.003  1.00  0.00     0.004 C 
ENDBRANCH  16  17
ENDBRANCH  15  16
ENDBRANCH  14  15
ENDBRANCH  13  14
ENDBRANCH  12  13
ENDBRANCH  11  12
ENDBRANCH   1  11
TORSDOF 14
ENDMDL
