MODEL 1
REMARK VINA RESULT:    -5.023      0.000      0.000
REMARK INTER + INTRA:         -14.138
REMARK INTER:                 -10.896
REMARK INTRA:                  -3.242
REMARK UNBOUND:                -3.242
REMARK SMILES CCCCCCCCCCCCCCCCCCCCCC(=O)[O-]
REMARK SMILES IDX 12 1 11 2 10 3 9 4 8 5 7 6 6 7 5 8 4 9 3 10 2 11 1 12 13 13
REMARK SMILES IDX 14 14 15 15 16 16 17 17 18 18 19 19 20 20 21 21 22 22 23 23
REMARK SMILES IDX 24 24
REMARK H PARENT
REMARK Flexibility Score: inf
ROOT
ATOM      1  C   UNL     1      13.830  19.968  28.974  1.00  0.00     0.000 C 
ENDROOT
BRANCH   1   2
ATOM      2  C   UNL     1      14.777  18.879  29.504  1.00  0.00     0.000 C 
BRANCH   2   3
ATOM      3  C   UNL     1      15.395  19.235  30.867  1.00  0.00     0.000 C 
BRANCH   3   4
ATOM      4  C   UNL     1      16.868  19.688  30.781  1.00  0.00    -0.000 C 
BRANCH   4   5
ATOM      5  C   UNL     1      17.165  20.873  31.717  1.00  0.00    -0.000 C 
BRANCH   5   6
ATOM      6  C   UNL     1      17.071  22.235  31.009  1.00  0.00    -0.000 C 
BRANCH   6   7
ATOM      7  C   UNL     1      17.244  22.123  29.484  1.00  0.00    -0.000 C 
BRANCH   7   8
ATOM      8  C   UNL     1      17.575  23.470  28.823  1.00  0.00    -0.000 C 
BRANCH   8   9
ATOM      9  C   UNL     1      16.817  23.690  27.504  1.00  0.00    -0.000 C 
BRANCH   9  10
ATOM     10  C   UNL     1      16.131  22.394  27.044  1.00  0.00    -0.000 C 
BRANCH  10  11
ATOM     11  C   UNL     1      16.733  21.834  25.744  1.00  0.00    -0.003 C 
ATOM     12  C   UNL     1      15.890  22.165  24.512  1.00  0.00     0.004 C 
ENDBRANCH  10  11
ENDBRANCH   9  10
ENDBRANCH   8   9
ENDBRANCH   7   8
ENDBRANCH   6   7
ENDBRANCH   5   6
ENDBRANCH   4   5
ENDBRANCH   3   4
ENDBRANCH   2   3
ENDBRANCH   1   2
BRANCH   1  13
ATOM     13  C   UNL     1      13.602  21.098  29.991  1.00  0.00     0.000 C 
BRANCH  13  14
ATOM     14  C   UNL     1      13.134  22.401  29.329  1.00  0.00     0.000 C 
BRANCH  14  15
ATOM     15  C   UNL     1      13.944  23.599  29.841  1.00  0.00     0.000 C 
BRANCH  15  16
ATOM     16  C   UNL     1      13.029  24.796  30.131  1.00  0.00     0.000 C 
BRANCH  16  17
ATOM     17  C   UNL     1      12.130  24.584  31.365  1.00  0.00     0.000 C 
BRANCH  17  18
ATOM     18  C   UNL     1      10.623  24.473  31.062  1.00  0.00     0.000 C 
BRANCH  18  19
ATOM     19  C   UNL     1       9.842  23.508  31.974  1.00  0.00     0.000 C 
BRANCH  19  20
ATOM     20  C   UNL     1      10.339  22.046  31.911  1.00  0.00     0.006 C 
BRANCH  20  21
ATOM     21  C   UNL     1       9.405  21.104  31.135  1.00  0.00     0.053 C 
BRANCH  21  22
ATOM     22  C   UNL     1      10.165  20.079  30.346  1.00  0.00     0.041 C 
ATOM     23  O   UNL     1      10.679  19.086  30.926  1.00  0.00    -0.550 OA
ATOM     24  O   UNL     1      10.294  20.214  28.968  1.00  0.00    -0.550 OA
ENDBRANCH  21  22
ENDBRANCH  20  21
ENDBRANCH  19  20
ENDBRANCH  18  19
ENDBRANCH  17  18
ENDBRANCH  16  17
ENDBRANCH  15  16
ENDBRANCH  14  15
ENDBRANCH  13  14
ENDBRANCH   1  13
TORSDOF 20
ENDMDL
MODEL 2
REMARK VINA RESULT:    -5.006      2.624      6.645
REMARK INTER + INTRA:         -14.101
REMARK INTER:                 -10.764
REMARK INTRA:                  -3.337
REMARK UNBOUND:                -3.242
REMARK SMILES CCCCCCCCCCCCCCCCCCCCCC(=O)[O-]
REMARK SMILES IDX 12 1 11 2 10 3 9 4 8 5 7 6 6 7 5 8 4 9 3 10 2 11 1 12 13 13
REMARK SMILES IDX 14 14 15 15 16 16 17 17 18 18 19 19 20 20 21 21 22 22 23 23
REMARK SMILES IDX 24 24
REMARK H PARENT
REMARK Flexibility Score: inf
ROOT
ATOM      1  C   UNL     1      13.153  20.764  28.688  1.00  0.00     0.000 C 
ENDROOT
BRANCH   1   2
ATOM      2  C   UNL     1      11.634  20.977  28.803  1.00  0.00     0.000 C 
BRANCH   2   3
ATOM      3  C   UNL     1      10.947  19.920  29.684  1.00  0.00     0.000 C 
BRANCH   3   4
ATOM      4  C   UNL     1      10.110  20.521  30.833  1.00  0.00    -0.000 C 
BRANCH   4   5
ATOM      5  C   UNL     1       8.782  21.117  30.332  1.00  0.00    -0.000 C 
BRANCH   5   6
ATOM      6  C   UNL     1       8.573  22.574  30.779  1.00  0.00    -0.000 C 
BRANCH   6   7
ATOM      7  C   UNL     1       9.342  22.914  32.068  1.00  0.00    -0.000 C 
BRANCH   7   8
ATOM      8  C   UNL     1      10.244  24.149  31.914  1.00  0.00    -0.000 C 
BRANCH   8   9
ATOM      9  C   UNL     1      11.080  24.120  30.624  1.00  0.00    -0.000 C 
BRANCH   9  10
ATOM     10  C   UNL     1      12.569  23.911  30.941  1.00  0.00    -0.000 C 
BRANCH  10  11
ATOM     11  C   UNL     1      13.484  24.847  30.135  1.00  0.00    -0.003 C 
ATOM     12  C   UNL     1      14.261  24.115  29.040  1.00  0.00     0.004 C 
ENDBRANCH  10  11
ENDBRANCH   9  10
ENDBRANCH   8   9
ENDBRANCH   7   8
ENDBRANCH   6   7
ENDBRANCH   5   6
ENDBRANCH   4   5
ENDBRANCH   3   4
ENDBRANCH   2   3
ENDBRANCH   1   2
BRANCH   1  13
ATOM     13  C   UNL     1      13.723  19.940  29.852  1.00  0.00     0.000 C 
BRANCH  13  14
ATOM     14  C   UNL     1      14.230  20.818  31.005  1.00  0.00     0.000 C 
BRANCH  14  15
ATOM     15  C   UNL     1      15.329  20.101  31.800  1.00  0.00     0.000 C 
BRANCH  15  16
ATOM     16  C   UNL     1      16.651  20.878  31.729  1.00  0.00     0.000 C 
BRANCH  16  17
ATOM     17  C   UNL     1      16.529  22.206  30.958  1.00  0.00     0.000 C 
BRANCH  17  18
ATOM     18  C   UNL     1      17.342  22.277  29.650  1.00  0.00     0.000 C 
BRANCH  18  19
ATOM     19  C   UNL     1      17.118  21.104  28.676  1.00  0.00     0.000 C 
BRANCH  19  20
ATOM     20  C   UNL     1      16.728  21.542  27.246  1.00  0.00     0.006 C 
BRANCH  20  21
ATOM     21  C   UNL     1      16.977  23.032  26.962  1.00  0.00     0.053 C 
BRANCH  21  22
ATOM     22  C   UNL     1      16.263  23.499  25.728  1.00  0.00     0.041 C 
ATOM     23  O   UNL     1      15.888  24.697  25.627  1.00  0.00    -0.550 OA
ATOM     24  O   UNL     1      16.026  22.613  24.682  1.00  0.00    -0.550 OA
ENDBRANCH  21  22
ENDBRANCH  20  21
ENDBRANCH  19  20
ENDBRANCH  18  19
ENDBRANCH  17  18
ENDBRANCH  16  17
ENDBRANCH  15  16
ENDBRANCH  14  15
ENDBRANCH  13  14
ENDBRANCH   1  13
TORSDOF 20
ENDMDL
MODEL 3
REMARK VINA RESULT:    -4.813      2.436      4.943
REMARK INTER + INTRA:         -13.683
REMARK INTER:                 -10.895
REMARK INTRA:                  -2.787
REMARK UNBOUND:                -3.242
REMARK SMILES CCCCCCCCCCCCCCCCCCCCCC(=O)[O-]
REMARK SMILES IDX 12 1 11 2 10 3 9 4 8 5 7 6 6 7 5 8 4 9 3 10 2 11 1 12 13 13
REMARK SMILES IDX 14 14 15 15 16 16 17 17 18 18 19 19 20 20 21 21 22 22 23 23
REMARK SMILES IDX 24 24
REMARK H PARENT
REMARK Flexibility Score: inf
ROOT
ATOM      1  C   UNL     1       8.761  22.202  30.439  1.00  0.00     0.000 C 
ENDROOT
BRANCH   1   2
ATOM      2  C   UNL     1       9.525  20.946  29.987  1.00  0.00     0.000 C 
BRANCH   2   3
ATOM      3  C   UNL     1      10.388  20.336  31.105  1.00  0.00     0.000 C 
BRANCH   3   4
ATOM      4  C   UNL     1      11.232  19.128  30.647  1.00  0.00    -0.000 C 
BRANCH   4   5
ATOM      5  C   UNL     1      12.075  19.451  29.400  1.00  0.00    -0.000 C 
BRANCH   5   6
ATOM      6  C   UNL     1      13.588  19.433  29.678  1.00  0.00    -0.000 C 
BRANCH   6   7
ATOM      7  C   UNL     1      14.403  20.100  28.556  1.00  0.00    -0.000 C 
BRANCH   7   8
ATOM      8  C   UNL     1      13.552  21.026  27.673  1.00  0.00    -0.000 C 
BRANCH   8   9
ATOM      9  C   UNL     1      14.241  21.385  26.347  1.00  0.00    -0.000 C 
BRANCH   9  10
ATOM     10  C   UNL     1      15.686  21.849  26.588  1.00  0.00    -0.000 C 
BRANCH  10  11
ATOM     11  C   UNL     1      16.275  22.604  25.385  1.00  0.00    -0.003 C 
ATOM     12  C   UNL     1      15.810  22.034  24.044  1.00  0.00     0.004 C 
ENDBRANCH  10  11
ENDBRANCH   9  10
ENDBRANCH   8   9
ENDBRANCH   7   8
ENDBRANCH   6   7
ENDBRANCH   5   6
ENDBRANCH   4   5
ENDBRANCH   3   4
ENDBRANCH   2   3
ENDBRANCH   1   2
BRANCH   1  13
ATOM     13  C   UNL     1       9.431  22.903  31.632  1.00  0.00     0.000 C 
BRANCH  13  14
ATOM     14  C   UNL     1       9.888  24.329  31.297  1.00  0.00     0.000 C 
BRANCH  14  15
ATOM     15  C   UNL     1      11.375  24.520  31.622  1.00  0.00     0.000 C 
BRANCH  15  16
ATOM     16  C   UNL     1      12.177  23.256  31.280  1.00  0.00     0.000 C 
BRANCH  16  17
ATOM     17  C   UNL     1      12.752  23.276  29.851  1.00  0.00     0.000 C 
BRANCH  17  18
ATOM     18  C   UNL     1      13.927  24.249  29.634  1.00  0.00     0.000 C 
BRANCH  18  19
ATOM     19  C   UNL     1      15.322  23.595  29.611  1.00  0.00     0.000 C 
BRANCH  19  20
ATOM     20  C   UNL     1      15.526  22.513  30.696  1.00  0.00     0.006 C 
BRANCH  20  21
ATOM     21  C   UNL     1      16.999  22.264  31.059  1.00  0.00     0.053 C 
BRANCH  21  22
ATOM     22  C   UNL     1      17.475  20.919  30.595  1.00  0.00     0.041 C 
ATOM     23  O   UNL     1      17.626  19.981  31.421  1.00  0.00    -0.550 OA
ATOM     24  O   UNL     1      17.739  20.699  29.247  1.00  0.00    -0.550 OA
ENDBRANCH  21  22
ENDBRANCH  20  21
ENDBRANCH  19  20
ENDBRANCH  18  19
ENDBRANCH  17  18
ENDBRANCH  16  17
ENDBRANCH  15  16
ENDBRANCH  14  15
ENDBRANCH  13  14
ENDBRANCH   1  13
TORSDOF 20
ENDMDL
MODEL 4
REMARK VINA RESULT:    -4.800      1.724      2.821
REMARK INTER + INTRA:         -13.655
REMARK INTER:                 -10.597
REMARK INTRA:                  -3.058
REMARK UNBOUND:                -3.242
REMARK SMILES CCCCCCCCCCCCCCCCCCCCCC(=O)[O-]
REMARK SMILES IDX 12 1 11 2 10 3 9 4 8 5 7 6 6 7 5 8 4 9 3 10 2 11 1 12 13 13
REMARK SMILES IDX 14 14 15 15 16 16 17 17 18 18 19 19 20 20 21 21 22 22 23 23
REMARK SMILES IDX 24 24
REMARK H PARENT
REMARK Flexibility Score: inf
ROOT
ATOM      1  C   UNL     1      14.688  19.309  29.464  1.00  0.00     0.000 C 
ENDROOT
BRANCH   1   2
ATOM      2  C   UNL     1      14.562  19.192  30.992  1.00  0.00     0.000 C 
BRANCH   2   3
ATOM      3  C   UNL     1      15.126  20.416  31.734  1.00  0.00     0.000 C 
BRANCH   3   4
ATOM      4  C   UNL     1      16.621  20.289  32.092  1.00  0.00    -0.000 C 
BRANCH   4   5
ATOM      5  C   UNL     1      17.451  21.462  31.540  1.00  0.00    -0.000 C 
BRANCH   5   6
ATOM      6  C   UNL     1      17.673  21.377  30.021  1.00  0.00    -0.000 C 
BRANCH   6   7
ATOM      7  C   UNL     1      17.363  22.702  29.303  1.00  0.00    -0.000 C 
BRANCH   7   8
ATOM      8  C   UNL     1      15.856  22.935  29.110  1.00  0.00    -0.000 C 
BRANCH   8   9
ATOM      9  C   UNL     1      15.505  23.441  27.702  1.00  0.00    -0.000 C 
BRANCH   9  10
ATOM     10  C   UNL     1      15.247  22.266  26.746  1.00  0.00    -0.000 C 
BRANCH  10  11
ATOM     11  C   UNL     1      16.422  22.014  25.786  1.00  0.00    -0.003 C 
ATOM     12  C   UNL     1      16.013  22.100  24.315  1.00  0.00     0.004 C 
ENDBRANCH  10  11
ENDBRANCH   9  10
ENDBRANCH   8   9
ENDBRANCH   7   8
ENDBRANCH   6   7
ENDBRANCH   5   6
ENDBRANCH   4   5
ENDBRANCH   3   4
ENDBRANCH   2   3
ENDBRANCH   1   2
BRANCH   1  13
ATOM     13  C   UNL     1      13.325  19.286  28.756  1.00  0.00     0.000 C 
BRANCH  13  14
ATOM     14  C   UNL     1      12.641  20.660  28.747  1.00  0.00     0.000 C 
BRANCH  14  15
ATOM     15  C   UNL     1      11.150  20.534  29.086  1.00  0.00     0.000 C 
BRANCH  15  16
ATOM     16  C   UNL     1      10.949  19.739  30.384  1.00  0.00     0.000 C 
BRANCH  16  17
ATOM     17  C   UNL     1      10.366  20.590  31.528  1.00  0.00     0.000 C 
BRANCH  17  18
ATOM     18  C   UNL     1       9.074  21.355  31.178  1.00  0.00     0.000 C 
BRANCH  18  19
ATOM     19  C   UNL     1       8.962  22.765  31.789  1.00  0.00     0.000 C 
BRANCH  19  20
ATOM     20  C   UNL     1      10.323  23.466  32.000  1.00  0.00     0.006 C 
BRANCH  20  21
ATOM     21  C   UNL     1      10.834  24.220  30.761  1.00  0.00     0.053 C 
BRANCH  21  22
ATOM     22  C   UNL     1      12.307  24.025  30.549  1.00  0.00     0.041 C 
ATOM     23  O   UNL     1      12.902  23.055  31.088  1.00  0.00    -0.550 OA
ATOM     24  O   UNL     1      13.018  24.908  29.743  1.00  0.00    -0.550 OA
ENDBRANCH  21  22
ENDBRANCH  20  21
ENDBRANCH  19  20
ENDBRANCH  18  19
ENDBRANCH  17  18
ENDBRANCH  16  17
ENDBRANCH  15  16
ENDBRANCH  14  15
ENDBRANCH  13  14
ENDBRANCH   1  13
TORSDOF 20
ENDMDL
MODEL 5
REMARK VINA RESULT:    -4.746      2.650      5.850
REMARK INTER + INTRA:         -13.536
REMARK INTER:                 -10.502
REMARK INTRA:                  -3.035
REMARK UNBOUND:                -3.242
REMARK SMILES CCCCCCCCCCCCCCCCCCCCCC(=O)[O-]
REMARK SMILES IDX 12 1 11 2 10 3 9 4 8 5 7 6 6 7 5 8 4 9 3 10 2 11 1 12 13 13
REMARK SMILES IDX 14 14 15 15 16 16 17 17 18 18 19 19 20 20 21 21 22 22 23 23
REMARK SMILES IDX 24 24
REMARK H PARENT
REMARK Flexibility Score: inf
ROOT
ATOM      1  C   UNL     1       9.890  22.245  29.899  1.00  0.00     0.000 C 
ENDROOT
BRANCH   1   2
ATOM      2  C   UNL     1       9.442  20.821  30.267  1.00  0.00     0.000 C 
BRANCH   2   3
ATOM      3  C   UNL     1      10.234  20.231  31.446  1.00  0.00     0.000 C 
BRANCH   3   4
ATOM      4  C   UNL     1      10.967  18.917  31.104  1.00  0.00    -0.000 C 
BRANCH   4   5
ATOM      5  C   UNL     1      12.422  19.161  30.666  1.00  0.00    -0.000 C 
BRANCH   5   6
ATOM      6  C   UNL     1      12.563  19.386  29.152  1.00  0.00    -0.000 C 
BRANCH   6   7
ATOM      7  C   UNL     1      13.801  20.227  28.791  1.00  0.00    -0.000 C 
BRANCH   7   8
ATOM      8  C   UNL     1      14.777  20.384  29.968  1.00  0.00    -0.000 C 
BRANCH   8   9
ATOM      9  C   UNL     1      16.212  19.965  29.613  1.00  0.00    -0.000 C 
BRANCH   9  10
ATOM     10  C   UNL     1      17.018  19.640  30.881  1.00  0.00    -0.000 C 
BRANCH  10  11
ATOM     11  C   UNL     1      18.028  20.742  31.240  1.00  0.00    -0.003 C 
ATOM     12  C   UNL     1      17.369  21.960  31.889  1.00  0.00     0.004 C 
ENDBRANCH  10  11
ENDBRANCH   9  10
ENDBRANCH   8   9
ENDBRANCH   7   8
ENDBRANCH   6   7
ENDBRANCH   5   6
ENDBRANCH   4   5
ENDBRANCH   3   4
ENDBRANCH   2   3
ENDBRANCH   1   2
BRANCH   1  13
ATOM     13  C   UNL     1       9.568  23.268  31.000  1.00  0.00     0.000 C 
BRANCH  13  14
ATOM     14  C   UNL     1      10.788  24.110  31.398  1.00  0.00     0.000 C 
BRANCH  14  15
ATOM     15  C   UNL     1      12.093  23.417  30.985  1.00  0.00     0.000 C 
BRANCH  15  16
ATOM     16  C   UNL     1      12.831  24.232  29.913  1.00  0.00     0.000 C 
BRANCH  16  17
ATOM     17  C   UNL     1      14.362  24.082  29.990  1.00  0.00     0.000 C 
BRANCH  17  18
ATOM     18  C   UNL     1      15.054  23.772  28.648  1.00  0.00     0.000 C 
BRANCH  18  19
ATOM     19  C   UNL     1      16.552  23.423  28.750  1.00  0.00     0.000 C 
BRANCH  19  20
ATOM     20  C   UNL     1      17.182  22.971  27.413  1.00  0.00     0.006 C 
BRANCH  20  21
ATOM     21  C   UNL     1      16.238  22.144  26.527  1.00  0.00     0.053 C 
BRANCH  21  22
ATOM     22  C   UNL     1      16.025  22.777  25.183  1.00  0.00     0.041 C 
ATOM     23  O   UNL     1      16.003  24.031  25.070  1.00  0.00    -0.550 OA
ATOM     24  O   UNL     1      15.863  21.980  24.055  1.00  0.00    -0.550 OA
ENDBRANCH  21  22
ENDBRANCH  20  21
ENDBRANCH  19  20
ENDBRANCH  18  19
ENDBRANCH  17  18
ENDBRANCH  16  17
ENDBRANCH  15  16
ENDBRANCH  14  15
ENDBRANCH  13  14
ENDBRANCH   1  13
TORSDOF 20
ENDMDL
MODEL 6
REMARK VINA RESULT:    -4.724      2.085      6.560
REMARK INTER + INTRA:         -13.488
REMARK INTER:                 -10.080
REMARK INTRA:                  -3.408
REMARK UNBOUND:                -3.242
REMARK SMILES CCCCCCCCCCCCCCCCCCCCCC(=O)[O-]
REMARK SMILES IDX 12 1 11 2 10 3 9 4 8 5 7 6 6 7 5 8 4 9 3 10 2 11 1 12 13 13
REMARK SMILES IDX 14 14 15 15 16 16 17 17 18 18 19 19 20 20 21 21 22 22 23 23
REMARK SMILES IDX 24 24
REMARK H PARENT
REMARK Flexibility Score: inf
ROOT
ATOM      1  C   UNL     1      13.327  19.800  29.138  1.00  0.00     0.000 C 
ENDROOT
BRANCH   1   2
ATOM      2  C   UNL     1      13.330  21.337  29.097  1.00  0.00     0.000 C 
BRANCH   2   3
ATOM      3  C   UNL     1      13.321  21.974  30.497  1.00  0.00     0.000 C 
BRANCH   3   4
ATOM      4  C   UNL     1      13.949  23.383  30.542  1.00  0.00    -0.000 C 
BRANCH   4   5
ATOM      5  C   UNL     1      13.049  24.439  29.877  1.00  0.00    -0.000 C 
BRANCH   5   6
ATOM      6  C   UNL     1      11.557  24.239  30.189  1.00  0.00    -0.000 C 
BRANCH   6   7
ATOM      7  C   UNL     1      11.211  24.556  31.655  1.00  0.00    -0.000 C 
BRANCH   7   8
ATOM      8  C   UNL     1       9.921  23.866  32.124  1.00  0.00    -0.000 C 
BRANCH   8   9
ATOM      9  C   UNL     1       9.581  22.613  31.301  1.00  0.00    -0.000 C 
BRANCH   9  10
ATOM     10  C   UNL     1       9.836  21.336  32.116  1.00  0.00    -0.000 C 
BRANCH  10  11
ATOM     11  C   UNL     1      10.341  20.170  31.250  1.00  0.00    -0.003 C 
ATOM     12  C   UNL     1       9.656  20.107  29.885  1.00  0.00     0.004 C 
ENDBRANCH  10  11
ENDBRANCH   9  10
ENDBRANCH   8   9
ENDBRANCH   7   8
ENDBRANCH   6   7
ENDBRANCH   5   6
ENDBRANCH   4   5
ENDBRANCH   3   4
ENDBRANCH   2   3
ENDBRANCH   1   2
BRANCH   1  13
ATOM     13  C   UNL     1      14.745  19.208  29.163  1.00  0.00     0.000 C 
BRANCH  13  14
ATOM     14  C   UNL     1      15.295  19.052  30.588  1.00  0.00     0.000 C 
BRANCH  14  15
ATOM     15  C   UNL     1      16.829  19.057  30.587  1.00  0.00     0.000 C 
BRANCH  15  16
ATOM     16  C   UNL     1      17.374  20.089  31.584  1.00  0.00     0.000 C 
BRANCH  16  17
ATOM     17  C   UNL     1      16.948  21.532  31.251  1.00  0.00     0.000 C 
BRANCH  17  18
ATOM     18  C   UNL     1      17.716  22.184  30.084  1.00  0.00     0.000 C 
BRANCH  18  19
ATOM     19  C   UNL     1      16.994  22.144  28.723  1.00  0.00     0.000 C 
BRANCH  19  20
ATOM     20  C   UNL     1      16.827  23.530  28.061  1.00  0.00     0.006 C 
BRANCH  20  21
ATOM     21  C   UNL     1      15.543  23.671  27.227  1.00  0.00     0.053 C 
BRANCH  21  22
ATOM     22  C   UNL     1      15.493  22.687  26.096  1.00  0.00     0.041 C 
ATOM     23  O   UNL     1      14.748  21.673  26.171  1.00  0.00    -0.550 OA
ATOM     24  O   UNL     1      16.258  22.896  24.954  1.00  0.00    -0.550 OA
ENDBRANCH  21  22
ENDBRANCH  20  21
ENDBRANCH  19  20
ENDBRANCH  18  19
ENDBRANCH  17  18
ENDBRANCH  16  17
ENDBRANCH  15  16
ENDBRANCH  14  15
ENDBRANCH  13  14
ENDBRANCH   1  13
TORSDOF 20
ENDMDL
MODEL 7
REMARK VINA RESULT:    -4.420      2.593      6.704
REMARK INTER + INTRA:         -12.830
REMARK INTER:                  -9.806
REMARK INTRA:                  -3.025
REMARK UNBOUND:                -3.242
REMARK SMILES CCCCCCCCCCCCCCCCCCCCCC(=O)[O-]
REMARK SMILES IDX 12 1 11 2 10 3 9 4 8 5 7 6 6 7 5 8 4 9 3 10 2 11 1 12 13 13
REMARK SMILES IDX 14 14 15 15 16 16 17 17 18 18 19 19 20 20 21 21 22 22 23 23
REMARK SMILES IDX 24 24
REMARK H PARENT
REMARK Flexibility Score: inf
ROOT
ATOM      1  C   UNL     1      12.324  23.808  29.777  1.00  0.00     0.000 C 
ENDROOT
BRANCH   1   2
ATOM      2  C   UNL     1      11.761  23.809  31.207  1.00  0.00     0.000 C 
BRANCH   2   3
ATOM      3  C   UNL     1      10.279  24.217  31.266  1.00  0.00     0.000 C 
BRANCH   3   4
ATOM      4  C   UNL     1       9.324  23.045  31.575  1.00  0.00    -0.000 C 
BRANCH   4   5
ATOM      5  C   UNL     1       8.843  22.337  30.296  1.00  0.00    -0.000 C 
BRANCH   5   6
ATOM      6  C   UNL     1       9.156  20.831  30.290  1.00  0.00    -0.000 C 
BRANCH   6   7
ATOM      7  C   UNL     1      10.548  20.518  29.712  1.00  0.00    -0.000 C 
BRANCH   7   8
ATOM      8  C   UNL     1      11.578  20.171  30.798  1.00  0.00    -0.000 C 
BRANCH   8   9
ATOM      9  C   UNL     1      12.528  19.037  30.379  1.00  0.00    -0.000 C 
BRANCH   9  10
ATOM     10  C   UNL     1      12.741  19.035  28.857  1.00  0.00    -0.000 C 
BRANCH  10  11
ATOM     11  C   UNL     1      13.964  19.862  28.429  1.00  0.00    -0.003 C 
ATOM     12  C   UNL     1      13.595  21.033  27.516  1.00  0.00     0.004 C 
ENDBRANCH  10  11
ENDBRANCH   9  10
ENDBRANCH   8   9
ENDBRANCH   7   8
ENDBRANCH   6   7
ENDBRANCH   5   6
ENDBRANCH   4   5
ENDBRANCH   3   4
ENDBRANCH   2   3
ENDBRANCH   1   2
BRANCH   1  13
ATOM     13  C   UNL     1      13.850  23.989  29.744  1.00  0.00     0.000 C 
BRANCH  13  14
ATOM     14  C   UNL     1      14.549  23.334  30.943  1.00  0.00     0.000 C 
BRANCH  14  15
ATOM     15  C   UNL     1      14.928  21.880  30.630  1.00  0.00     0.000 C 
BRANCH  15  16
ATOM     16  C   UNL     1      16.077  21.408  31.532  1.00  0.00     0.000 C 
BRANCH  16  17
ATOM     17  C   UNL     1      17.271  20.842  30.740  1.00  0.00     0.000 C 
BRANCH  17  18
ATOM     18  C   UNL     1      17.339  21.279  29.264  1.00  0.00     0.000 C 
BRANCH  18  19
ATOM     19  C   UNL     1      17.630  22.775  29.037  1.00  0.00     0.000 C 
BRANCH  19  20
ATOM     20  C   UNL     1      16.978  23.354  27.761  1.00  0.00     0.006 C 
BRANCH  20  21
ATOM     21  C   UNL     1      16.836  22.337  26.617  1.00  0.00     0.053 C 
BRANCH  21  22
ATOM     22  C   UNL     1      16.182  22.935  25.407  1.00  0.00     0.041 C 
ATOM     23  O   UNL     1      15.762  22.191  24.481  1.00  0.00    -0.550 OA
ATOM     24  O   UNL     1      16.025  24.313  25.308  1.00  0.00    -0.550 OA
ENDBRANCH  21  22
ENDBRANCH  20  21
ENDBRANCH  19  20
ENDBRANCH  18  19
ENDBRANCH  17  18
ENDBRANCH  16  17
ENDBRANCH  15  16
ENDBRANCH  14  15
ENDBRANCH  13  14
ENDBRANCH   1  13
TORSDOF 20
ENDMDL
MODEL 8
REMARK VINA RESULT:    -4.386      1.574      3.026
REMARK INTER + INTRA:         -12.756
REMARK INTER:                  -9.980
REMARK INTRA:                  -2.776
REMARK UNBOUND:                -3.242
REMARK SMILES CCCCCCCCCCCCCCCCCCCCCC(=O)[O-]
REMARK SMILES IDX 12 1 11 2 10 3 9 4 8 5 7 6 6 7 5 8 4 9 3 10 2 11 1 12 13 13
REMARK SMILES IDX 14 14 15 15 16 16 17 17 18 18 19 19 20 20 21 21 22 22 23 23
REMARK SMILES IDX 24 24
REMARK H PARENT
REMARK Flexibility Score: inf
ROOT
ATOM      1  C   UNL     1      14.124  23.705  29.639  1.00  0.00     0.000 C 
ENDROOT
BRANCH   1   2
ATOM      2  C   UNL     1      14.901  23.007  30.767  1.00  0.00     0.000 C 
BRANCH   2   3
ATOM      3  C   UNL     1      14.315  21.634  31.137  1.00  0.00     0.000 C 
BRANCH   3   4
ATOM      4  C   UNL     1      15.383  20.543  31.358  1.00  0.00    -0.000 C 
BRANCH   4   5
ATOM      5  C   UNL     1      16.783  21.141  31.588  1.00  0.00    -0.000 C 
BRANCH   5   6
ATOM      6  C   UNL     1      17.741  20.894  30.411  1.00  0.00    -0.000 C 
BRANCH   6   7
ATOM      7  C   UNL     1      17.002  20.500  29.119  1.00  0.00    -0.000 C 
BRANCH   7   8
ATOM      8  C   UNL     1      17.043  21.605  28.051  1.00  0.00    -0.000 C 
BRANCH   8   9
ATOM      9  C   UNL     1      17.648  22.917  28.573  1.00  0.00    -0.000 C 
BRANCH   9  10
ATOM     10  C   UNL     1      17.123  24.120  27.773  1.00  0.00    -0.000 C 
BRANCH  10  11
ATOM     11  C   UNL     1      16.052  23.724  26.743  1.00  0.00    -0.003 C 
ATOM     12  C   UNL     1      16.176  24.501  25.432  1.00  0.00     0.004 C 
ENDBRANCH  10  11
ENDBRANCH   9  10
ENDBRANCH   8   9
ENDBRANCH   7   8
ENDBRANCH   6   7
ENDBRANCH   5   6
ENDBRANCH   4   5
ENDBRANCH   3   4
ENDBRANCH   2   3
ENDBRANCH   1   2
BRANCH   1  13
ATOM     13  C   UNL     1      13.206  24.823  30.158  1.00  0.00     0.000 C 
BRANCH  13  14
ATOM     14  C   UNL     1      11.728  24.406  30.189  1.00  0.00     0.000 C 
BRANCH  14  15
ATOM     15  C   UNL     1      11.273  24.103  31.622  1.00  0.00     0.000 C 
BRANCH  15  16
ATOM     16  C   UNL     1       9.744  23.994  31.699  1.00  0.00     0.000 C 
BRANCH  16  17
ATOM     17  C   UNL     1       9.248  22.541  31.825  1.00  0.00     0.000 C 
BRANCH  17  18
ATOM     18  C   UNL     1       9.127  21.776  30.492  1.00  0.00     0.000 C 
BRANCH  18  19
ATOM     19  C   UNL     1       9.903  20.446  30.429  1.00  0.00     0.000 C 
BRANCH  19  20
ATOM     20  C   UNL     1      10.521  20.146  29.044  1.00  0.00     0.006 C 
BRANCH  20  21
ATOM     21  C   UNL     1      11.638  21.120  28.637  1.00  0.00     0.053 C 
BRANCH  21  22
ATOM     22  C   UNL     1      12.924  20.409  28.335  1.00  0.00     0.041 C 
ATOM     23  O   UNL     1      13.795  20.957  27.608  1.00  0.00    -0.550 OA
ATOM     24  O   UNL     1      13.166  19.148  28.868  1.00  0.00    -0.550 OA
ENDBRANCH  21  22
ENDBRANCH  20  21
ENDBRANCH  19  20
ENDBRANCH  18  19
ENDBRANCH  17  18
ENDBRANCH  16  17
ENDBRANCH  15  16
ENDBRANCH  14  15
ENDBRANCH  13  14
ENDBRANCH   1  13
TORSDOF 20
ENDMDL
MODEL 9
REMARK VINA RESULT:    -4.319      1.814      5.983
REMARK INTER + INTRA:         -12.610
REMARK INTER:                  -9.447
REMARK INTRA:                  -3.163
REMARK UNBOUND:                -3.242
REMARK SMILES CCCCCCCCCCCCCCCCCCCCCC(=O)[O-]
REMARK SMILES IDX 12 1 11 2 10 3 9 4 8 5 7 6 6 7 5 8 4 9 3 10 2 11 1 12 13 13
REMARK SMILES IDX 14 14 15 15 16 16 17 17 18 18 19 19 20 20 21 21 22 22 23 23
REMARK SMILES IDX 24 24
REMARK H PARENT
REMARK Flexibility Score: inf
ROOT
ATOM      1  C   UNL     1      15.929  23.252  25.356  1.00  0.00     0.000 C 
ENDROOT
BRANCH   1   2
ATOM      2  C   UNL     1      15.364  21.842  25.594  1.00  0.00     0.000 C 
BRANCH   2   3
ATOM      3  C   UNL     1      14.331  21.796  26.734  1.00  0.00     0.000 C 
BRANCH   3   4
ATOM      4  C   UNL     1      14.446  20.540  27.623  1.00  0.00    -0.000 C 
BRANCH   4   5
ATOM      5  C   UNL     1      13.133  20.234  28.366  1.00  0.00    -0.000 C 
BRANCH   5   6
ATOM      6  C   UNL     1      13.246  19.025  29.309  1.00  0.00    -0.000 C 
BRANCH   6   7
ATOM      7  C   UNL     1      12.126  18.992  30.365  1.00  0.00    -0.000 C 
BRANCH   7   8
ATOM      8  C   UNL     1      11.977  20.326  31.114  1.00  0.00    -0.000 C 
BRANCH   8   9
ATOM      9  C   UNL     1      10.553  20.555  31.646  1.00  0.00    -0.000 C 
BRANCH   9  10
ATOM     10  C   UNL     1       9.518  20.422  30.518  1.00  0.00    -0.000 C 
BRANCH  10  11
ATOM     11  C   UNL     1       8.448  21.525  30.562  1.00  0.00    -0.003 C 
ATOM     12  C   UNL     1       8.487  22.335  31.858  1.00  0.00     0.004 C 
ENDBRANCH  10  11
ENDBRANCH   9  10
ENDBRANCH   8   9
ENDBRANCH   7   8
ENDBRANCH   6   7
ENDBRANCH   5   6
ENDBRANCH   4   5
ENDBRANCH   3   4
ENDBRANCH   2   3
ENDBRANCH   1   2
BRANCH   1  13
ATOM     13  C   UNL     1      15.995  24.087  26.644  1.00  0.00     0.000 C 
BRANCH  13  14
ATOM     14  C   UNL     1      17.386  24.065  27.291  1.00  0.00     0.000 C 
BRANCH  14  15
ATOM     15  C   UNL     1      17.299  23.655  28.767  1.00  0.00     0.000 C 
BRANCH  15  16
ATOM     16  C   UNL     1      17.372  22.129  28.916  1.00  0.00     0.000 C 
BRANCH  16  17
ATOM     17  C   UNL     1      17.171  21.655  30.368  1.00  0.00     0.000 C 
BRANCH  17  18
ATOM     18  C   UNL     1      15.704  21.422  30.781  1.00  0.00     0.000 C 
BRANCH  18  19
ATOM     19  C   UNL     1      14.915  22.697  31.136  1.00  0.00     0.000 C 
BRANCH  19  20
ATOM     20  C   UNL     1      14.070  23.256  29.969  1.00  0.00     0.006 C 
BRANCH  20  21
ATOM     21  C   UNL     1      13.294  24.536  30.319  1.00  0.00     0.053 C 
BRANCH  21  22
ATOM     22  C   UNL     1      11.859  24.254  30.654  1.00  0.00     0.041 C 
ATOM     23  O   UNL     1      11.390  24.596  31.772  1.00  0.00    -0.550 OA
ATOM     24  O   UNL     1      11.037  23.626  29.725  1.00  0.00    -0.550 OA
ENDBRANCH  21  22
ENDBRANCH  20  21
ENDBRANCH  19  20
ENDBRANCH  18  19
ENDBRANCH  17  18
ENDBRANCH  16  17
ENDBRANCH  15  16
ENDBRANCH  14  15
ENDBRANCH  13  14
ENDBRANCH   1  13
TORSDOF 20
ENDMDL
