MODEL 1
REMARK VINA RESULT:    28.146      0.000      0.000
REMARK INTER + INTRA:          49.458
REMARK INTER:                  38.841
REMARK INTRA:                  10.617
REMARK UNBOUND:                10.617
REMARK SMILES CC[C@H](CC[C@@H](C)[C@@H]1CC[C@@H]2[C@H]3CC=C4C[C@@H](O)CC[C@]4(C)[C@H]3CC[C@@]21C)C(C)C
REMARK SMILES IDX 5 1 4 2 3 3 2 4 1 5 28 6 29 7 30 8 6 9 7 10 8 11 9 12 26 13
REMARK SMILES IDX 10 14 11 15 25 16 27 17 12 18 24 19 23 20 13 21 21 22 14 23
REMARK SMILES IDX 15 24 20 25 22 26 16 27 19 28 17 29 18 30
REMARK H PARENT 18 31
REMARK Flexibility Score: inf
ROOT
ATOM      1  C   UNL     1      -4.281  60.959  -3.129  1.00  0.00     0.004 C 
ENDROOT
BRANCH   1   2
ATOM      2  C   UNL     1      -4.560  61.647  -4.465  1.00  0.00     0.004 C 
BRANCH   2   3
ATOM      3  C   UNL     1      -5.003  60.838  -5.725  1.00  0.00    -0.009 C 
BRANCH   3   4
ATOM      4  C   UNL     1      -4.788  61.815  -6.905  1.00  0.00     0.000 C 
ATOM      5  C   UNL     1      -4.083  61.139  -8.069  1.00  0.00     0.004 C 
ENDBRANCH   3   4
BRANCH   3   6
ATOM      6  C   UNL     1      -4.291  59.499  -6.004  1.00  0.00    -0.014 C 
ATOM      7  C   UNL     1      -4.520  59.034  -7.460  1.00  0.00     0.007 C 
ATOM      8  C   UNL     1      -2.809  59.412  -5.610  1.00  0.00     0.007 C 
ENDBRANCH   3   6
ENDBRANCH   2   3
ENDBRANCH   1   2
BRANCH   1   9
ATOM      9  C   UNL     1      -2.890  60.326  -2.959  1.00  0.00    -0.011 C 
ATOM     10  C   UNL     1      -2.949  58.938  -3.533  1.00  0.00     0.008 C 
BRANCH   9  11
ATOM     11  C   UNL     1      -1.723  61.168  -3.677  1.00  0.00    -0.002 C 
ATOM     12  C   UNL     1      -2.025  61.740  -5.047  1.00  0.00     0.005 C 
ATOM     13  C   UNL     1      -0.383  60.424  -3.831  1.00  0.00    -0.026 C 
ATOM     14  C   UNL     1      -0.625  61.998  -5.653  1.00  0.00     0.005 C 
ATOM     15  C   UNL     1       0.389  61.537  -4.590  1.00  0.00    -0.001 C 
ATOM     16  C   UNL     1      -0.299  59.069  -4.664  1.00  0.00     0.007 C 
ATOM     17  C   UNL     1       0.150  60.233  -2.360  1.00  0.00     0.012 C 
ATOM     18  C   UNL     1       1.769  61.084  -5.060  1.00  0.00     0.000 C 
ATOM     19  C   UNL     1       0.481  59.074  -6.045  1.00  0.00     0.005 C 
ATOM     20  C   UNL     1       1.622  60.216  -6.290  1.00  0.00     0.003 C 
ATOM     21  C   UNL     1       2.627  60.224  -4.023  1.00  0.00     0.031 C 
ATOM     22  C   UNL     1       3.044  59.914  -6.983  1.00  0.00    -0.008 C 
ATOM     23  C   UNL     1       3.829  59.589  -4.607  1.00  0.00    -0.027 C 
ATOM     24  C   UNL     1       3.999  59.325  -5.933  1.00  0.00    -0.065 C 
ATOM     25  C   UNL     1       3.708  61.236  -7.574  1.00  0.00     0.014 C 
ATOM     26  C   UNL     1       2.833  58.985  -8.123  1.00  0.00     0.016 C 
ATOM     27  C   UNL     1       5.318  58.884  -6.401  1.00  0.00     0.063 C 
ATOM     28  C   UNL     1       5.225  61.138  -7.765  1.00  0.00     0.033 C 
ATOM     29  C   UNL     1       6.093  60.159  -6.856  1.00  0.00     0.118 C 
BRANCH  29  30
ATOM     30  O   UNL     1       7.293  59.855  -7.566  1.00  0.00    -0.393 OA
ATOM     31  H   UNL     1       7.673  58.993  -7.155  1.00  0.00     0.210 HD
ENDBRANCH  29  30
ENDBRANCH   9  11
ENDBRANCH   1   9
TORSDOF 7
ENDMDL
