MODEL 1
REMARK VINA RESULT:    -5.120      0.000      0.000
REMARK INTER + INTRA:         -15.955
REMARK INTER:                 -13.501
REMARK INTRA:                  -2.454
REMARK UNBOUND:                -2.454
REMARK SMILES CCCCCCCCCCCCCCCCCCCCCCCCCCCCCC(=O)[O-]
REMARK SMILES IDX 16 1 17 2 18 3 19 4 20 5 21 6 22 7 23 8 24 9 25 10 26 11
REMARK SMILES IDX 27 12 28 13 29 14 30 15 31 16 32 17 15 18 14 19 13 20 12 21
REMARK SMILES IDX 11 22 10 23 9 24 8 25 7 26 6 27 5 28 4 29 3 30 2 31 1 32
REMARK H PARENT
REMARK Flexibility Score: inf
ROOT
ATOM      1  C   UNL     1      55.296 143.875 -24.262  1.00  0.00     0.000 C 
ENDROOT
BRANCH   1   2
ATOM      2  C   UNL     1      54.378 142.726 -23.821  1.00  0.00     0.000 C 
BRANCH   2   3
ATOM      3  C   UNL     1      55.027 141.362 -24.104  1.00  0.00     0.000 C 
BRANCH   3   4
ATOM      4  C   UNL     1      56.561 141.440 -24.153  1.00  0.00     0.000 C 
BRANCH   4   5
ATOM      5  C   UNL     1      57.230 140.673 -22.997  1.00  0.00     0.000 C 
BRANCH   5   6
ATOM      6  C   UNL     1      58.018 141.600 -22.056  1.00  0.00     0.000 C 
BRANCH   6   7
ATOM      7  C   UNL     1      58.170 143.021 -22.624  1.00  0.00     0.000 C 
BRANCH   7   8
ATOM      8  C   UNL     1      59.064 143.918 -21.742  1.00  0.00     0.000 C 
BRANCH   8   9
ATOM      9  C   UNL     1      60.357 143.231 -21.263  1.00  0.00     0.000 C 
BRANCH   9  10
ATOM     10  C   UNL     1      60.805 143.602 -19.835  1.00  0.00     0.000 C 
BRANCH  10  11
ATOM     11  C   UNL     1      59.799 143.246 -18.725  1.00  0.00     0.000 C 
BRANCH  11  12
ATOM     12  C   UNL     1      59.103 144.448 -18.056  1.00  0.00     0.000 C 
BRANCH  12  13
ATOM     13  C   UNL     1      59.448 145.812 -18.694  1.00  0.00     0.006 C 
BRANCH  13  14
ATOM     14  C   UNL     1      60.378 146.665 -17.812  1.00  0.00     0.053 C 
BRANCH  14  15
ATOM     15  C   UNL     1      60.131 148.133 -18.001  1.00  0.00     0.041 C 
ATOM     16  O   UNL     1      59.567 148.811 -17.098  1.00  0.00    -0.550 OA
ATOM     17  O   UNL     1      60.449 148.733 -19.215  1.00  0.00    -0.550 OA
ENDBRANCH  14  15
ENDBRANCH  13  14
ENDBRANCH  12  13
ENDBRANCH  11  12
ENDBRANCH  10  11
ENDBRANCH   9  10
ENDBRANCH   8   9
ENDBRANCH   7   8
ENDBRANCH   6   7
ENDBRANCH   5   6
ENDBRANCH   4   5
ENDBRANCH   3   4
ENDBRANCH   2   3
ENDBRANCH   1   2
BRANCH   1  18
ATOM     18  C   UNL     1      54.732 144.665 -25.458  1.00  0.00     0.000 C 
BRANCH  18  19
ATOM     19  C   UNL     1      55.111 144.108 -26.846  1.00  0.00     0.000 C 
BRANCH  19  20
ATOM     20  C   UNL     1      56.618 143.894 -27.077  1.00  0.00     0.000 C 
BRANCH  20  21
ATOM     21  C   UNL     1      57.174 144.510 -28.375  1.00  0.00     0.000 C 
BRANCH  21  22
ATOM     22  C   UNL     1      56.938 143.645 -29.632  1.00  0.00     0.000 C 
BRANCH  22  23
ATOM     23  C   UNL     1      57.759 144.118 -30.845  1.00  0.00     0.000 C 
BRANCH  23  24
ATOM     24  C   UNL     1      59.126 143.404 -30.934  1.00  0.00    -0.000 C 
BRANCH  24  25
ATOM     25  C   UNL     1      59.734 143.420 -32.347  1.00  0.00    -0.000 C 
BRANCH  25  26
ATOM     26  C   UNL     1      59.391 144.696 -33.128  1.00  0.00    -0.000 C 
BRANCH  26  27
ATOM     27  C   UNL     1      60.016 144.663 -34.529  1.00  0.00    -0.000 C 
BRANCH  27  28
ATOM     28  C   UNL     1      61.498 145.072 -34.524  1.00  0.00    -0.000 C 
BRANCH  28  29
ATOM     29  C   UNL     1      61.729 146.450 -33.886  1.00  0.00    -0.000 C 
BRANCH  29  30
ATOM     30  C   UNL     1      61.313 147.573 -34.848  1.00  0.00    -0.000 C 
BRANCH  30  31
ATOM     31  C   UNL     1      60.066 148.332 -34.370  1.00  0.00    -0.003 C 
ATOM     32  C   UNL     1      59.844 148.220 -32.860  1.00  0.00     0.004 C 
ENDBRANCH  30  31
ENDBRANCH  29  30
ENDBRANCH  28  29
ENDBRANCH  27  28
ENDBRANCH  26  27
ENDBRANCH  25  26
ENDBRANCH  24  25
ENDBRANCH  23  24
ENDBRANCH  22  23
ENDBRANCH  21  22
ENDBRANCH  20  21
ENDBRANCH  19  20
ENDBRANCH  18  19
ENDBRANCH   1  18
TORSDOF 28
ENDMDL
MODEL 2
REMARK VINA RESULT:    -4.925      1.320      2.043
REMARK INTER + INTRA:         -15.442
REMARK INTER:                 -13.937
REMARK INTRA:                  -1.505
REMARK UNBOUND:                -2.454
REMARK SMILES CCCCCCCCCCCCCCCCCCCCCCCCCCCCCC(=O)[O-]
REMARK SMILES IDX 16 1 17 2 18 3 19 4 20 5 21 6 22 7 23 8 24 9 25 10 26 11
REMARK SMILES IDX 27 12 28 13 29 14 30 15 31 16 32 17 15 18 14 19 13 20 12 21
REMARK SMILES IDX 11 22 10 23 9 24 8 25 7 26 6 27 5 28 4 29 3 30 2 31 1 32
REMARK H PARENT
REMARK Flexibility Score: inf
ROOT
ATOM      1  C   UNL     1      54.690 142.924 -23.828  1.00  0.00     0.000 C 
ENDROOT
BRANCH   1   2
ATOM      2  C   UNL     1      55.616 141.779 -24.261  1.00  0.00     0.000 C 
BRANCH   2   3
ATOM      3  C   UNL     1      56.688 141.504 -23.195  1.00  0.00     0.000 C 
BRANCH   3   4
ATOM      4  C   UNL     1      57.669 142.675 -23.030  1.00  0.00     0.000 C 
BRANCH   4   5
ATOM      5  C   UNL     1      58.273 142.748 -21.615  1.00  0.00     0.000 C 
BRANCH   5   6
ATOM      6  C   UNL     1      59.331 143.856 -21.484  1.00  0.00     0.000 C 
BRANCH   6   7
ATOM      7  C   UNL     1      60.449 143.725 -22.532  1.00  0.00     0.000 C 
BRANCH   7   8
ATOM      8  C   UNL     1      61.792 144.308 -22.040  1.00  0.00     0.000 C 
BRANCH   8   9
ATOM      9  C   UNL     1      61.662 145.201 -20.791  1.00  0.00     0.000 C 
BRANCH   9  10
ATOM     10  C   UNL     1      62.957 145.369 -19.971  1.00  0.00     0.000 C 
BRANCH  10  11
ATOM     11  C   UNL     1      62.747 145.558 -18.457  1.00  0.00     0.000 C 
BRANCH  11  12
ATOM     12  C   UNL     1      62.509 147.011 -18.001  1.00  0.00     0.000 C 
BRANCH  12  13
ATOM     13  C   UNL     1      61.860 147.138 -16.606  1.00  0.00     0.006 C 
BRANCH  13  14
ATOM     14  C   UNL     1      60.404 147.634 -16.667  1.00  0.00     0.053 C 
BRANCH  14  15
ATOM     15  C   UNL     1      59.918 147.757 -18.081  1.00  0.00     0.041 C 
ATOM     16  O   UNL     1      59.302 146.805 -18.635  1.00  0.00    -0.550 OA
ATOM     17  O   UNL     1      60.225 148.897 -18.817  1.00  0.00    -0.550 OA
ENDBRANCH  14  15
ENDBRANCH  13  14
ENDBRANCH  12  13
ENDBRANCH  11  12
ENDBRANCH  10  11
ENDBRANCH   9  10
ENDBRANCH   8   9
ENDBRANCH   7   8
ENDBRANCH   6   7
ENDBRANCH   5   6
ENDBRANCH   4   5
ENDBRANCH   3   4
ENDBRANCH   2   3
ENDBRANCH   1   2
BRANCH   1  18
ATOM     18  C   UNL     1      55.010 144.253 -24.536  1.00  0.00     0.000 C 
BRANCH  18  19
ATOM     19  C   UNL     1      55.815 144.118 -25.845  1.00  0.00     0.000 C 
BRANCH  19  20
ATOM     20  C   UNL     1      54.996 144.285 -27.138  1.00  0.00     0.000 C 
BRANCH  20  21
ATOM     21  C   UNL     1      55.565 143.556 -28.370  1.00  0.00     0.000 C 
BRANCH  21  22
ATOM     22  C   UNL     1      56.925 144.104 -28.852  1.00  0.00     0.000 C 
BRANCH  22  23
ATOM     23  C   UNL     1      57.287 143.636 -30.273  1.00  0.00     0.000 C 
BRANCH  23  24
ATOM     24  C   UNL     1      58.555 144.336 -30.809  1.00  0.00    -0.000 C 
BRANCH  24  25
ATOM     25  C   UNL     1      59.671 143.358 -31.212  1.00  0.00    -0.000 C 
BRANCH  25  26
ATOM     26  C   UNL     1      59.791 143.186 -32.733  1.00  0.00    -0.000 C 
BRANCH  26  27
ATOM     27  C   UNL     1      59.722 144.545 -33.443  1.00  0.00    -0.000 C 
BRANCH  27  28
ATOM     28  C   UNL     1      61.020 144.885 -34.194  1.00  0.00    -0.000 C 
BRANCH  28  29
ATOM     29  C   UNL     1      61.584 146.261 -33.807  1.00  0.00    -0.000 C 
BRANCH  29  30
ATOM     30  C   UNL     1      60.610 147.011 -32.885  1.00  0.00    -0.000 C 
BRANCH  30  31
ATOM     31  C   UNL     1      59.818 148.102 -33.622  1.00  0.00    -0.003 C 
ATOM     32  C   UNL     1      60.615 148.757 -34.751  1.00  0.00     0.004 C 
ENDBRANCH  30  31
ENDBRANCH  29  30
ENDBRANCH  28  29
ENDBRANCH  27  28
ENDBRANCH  26  27
ENDBRANCH  25  26
ENDBRANCH  24  25
ENDBRANCH  23  24
ENDBRANCH  22  23
ENDBRANCH  21  22
ENDBRANCH  20  21
ENDBRANCH  19  20
ENDBRANCH  18  19
ENDBRANCH   1  18
TORSDOF 28
ENDMDL
MODEL 3
REMARK VINA RESULT:    -4.809      3.963     12.548
REMARK INTER + INTRA:         -15.135
REMARK INTER:                 -12.818
REMARK INTRA:                  -2.318
REMARK UNBOUND:                -2.454
REMARK SMILES CCCCCCCCCCCCCCCCCCCCCCCCCCCCCC(=O)[O-]
REMARK SMILES IDX 16 1 17 2 18 3 19 4 20 5 21 6 22 7 23 8 24 9 25 10 26 11
REMARK SMILES IDX 27 12 28 13 29 14 30 15 31 16 32 17 15 18 14 19 13 20 12 21
REMARK SMILES IDX 11 22 10 23 9 24 8 25 7 26 6 27 5 28 4 29 3 30 2 31 1 32
REMARK H PARENT
REMARK Flexibility Score: inf
ROOT
ATOM      1  C   UNL     1      56.857 142.736 -23.923  1.00  0.00     0.000 C 
ENDROOT
BRANCH   1   2
ATOM      2  C   UNL     1      55.675 143.716 -23.926  1.00  0.00     0.000 C 
BRANCH   2   3
ATOM      3  C   UNL     1      55.157 143.950 -25.353  1.00  0.00     0.000 C 
BRANCH   3   4
ATOM      4  C   UNL     1      55.197 142.675 -26.211  1.00  0.00     0.000 C 
BRANCH   4   5
ATOM      5  C   UNL     1      55.299 142.978 -27.717  1.00  0.00     0.000 C 
BRANCH   5   6
ATOM      6  C   UNL     1      55.800 144.405 -27.997  1.00  0.00     0.000 C 
BRANCH   6   7
ATOM      7  C   UNL     1      57.215 144.422 -28.598  1.00  0.00     0.000 C 
BRANCH   7   8
ATOM      8  C   UNL     1      57.281 143.731 -29.977  1.00  0.00     0.000 C 
BRANCH   8   9
ATOM      9  C   UNL     1      58.672 143.787 -30.636  1.00  0.00     0.000 C 
BRANCH   9  10
ATOM     10  C   UNL     1      58.712 144.457 -32.024  1.00  0.00     0.000 C 
BRANCH  10  11
ATOM     11  C   UNL     1      59.883 144.021 -32.924  1.00  0.00     0.000 C 
BRANCH  11  12
ATOM     12  C   UNL     1      60.011 144.786 -34.256  1.00  0.00     0.000 C 
BRANCH  12  13
ATOM     13  C   UNL     1      61.411 145.391 -34.504  1.00  0.00     0.006 C 
BRANCH  13  14
ATOM     14  C   UNL     1      61.630 146.716 -33.752  1.00  0.00     0.053 C 
BRANCH  14  15
ATOM     15  C   UNL     1      60.541 147.706 -34.040  1.00  0.00     0.041 C 
ATOM     16  O   UNL     1      60.675 148.560 -34.960  1.00  0.00    -0.550 OA
ATOM     17  O   UNL     1      59.410 147.739 -33.230  1.00  0.00    -0.550 OA
ENDBRANCH  14  15
ENDBRANCH  13  14
ENDBRANCH  12  13
ENDBRANCH  11  12
ENDBRANCH  10  11
ENDBRANCH   9  10
ENDBRANCH   8   9
ENDBRANCH   7   8
ENDBRANCH   6   7
ENDBRANCH   5   6
ENDBRANCH   4   5
ENDBRANCH   3   4
ENDBRANCH   2   3
ENDBRANCH   1   2
BRANCH   1  18
ATOM     18  C   UNL     1      56.588 141.476 -23.079  1.00  0.00     0.000 C 
BRANCH  18  19
ATOM     19  C   UNL     1      57.703 140.411 -23.123  1.00  0.00     0.000 C 
BRANCH  19  20
ATOM     20  C   UNL     1      58.661 140.414 -21.918  1.00  0.00     0.000 C 
BRANCH  20  21
ATOM     21  C   UNL     1      58.175 141.223 -20.700  1.00  0.00     0.000 C 
BRANCH  21  22
ATOM     22  C   UNL     1      59.245 142.160 -20.101  1.00  0.00     0.000 C 
BRANCH  22  23
ATOM     23  C   UNL     1      58.813 143.637 -20.101  1.00  0.00     0.000 C 
BRANCH  23  24
ATOM     24  C   UNL     1      58.814 144.242 -18.680  1.00  0.00    -0.000 C 
BRANCH  24  25
ATOM     25  C   UNL     1      58.746 143.186 -17.565  1.00  0.00    -0.000 C 
BRANCH  25  26
ATOM     26  C   UNL     1      59.600 143.554 -16.344  1.00  0.00    -0.000 C 
BRANCH  26  27
ATOM     27  C   UNL     1      60.958 144.123 -16.779  1.00  0.00    -0.000 C 
BRANCH  27  28
ATOM     28  C   UNL     1      61.563 145.072 -15.732  1.00  0.00    -0.000 C 
BRANCH  28  29
ATOM     29  C   UNL     1      61.698 146.513 -16.249  1.00  0.00    -0.000 C 
BRANCH  29  30
ATOM     30  C   UNL     1      60.318 147.167 -16.410  1.00  0.00    -0.000 C 
BRANCH  30  31
ATOM     31  C   UNL     1      60.099 147.753 -17.813  1.00  0.00    -0.003 C 
ATOM     32  C   UNL     1      61.068 147.186 -18.852  1.00  0.00     0.004 C 
ENDBRANCH  30  31
ENDBRANCH  29  30
ENDBRANCH  28  29
ENDBRANCH  27  28
ENDBRANCH  26  27
ENDBRANCH  25  26
ENDBRANCH  24  25
ENDBRANCH  23  24
ENDBRANCH  22  23
ENDBRANCH  21  22
ENDBRANCH  20  21
ENDBRANCH  19  20
ENDBRANCH  18  19
ENDBRANCH   1  18
TORSDOF 28
ENDMDL
MODEL 4
REMARK VINA RESULT:    -4.757      2.263      3.017
REMARK INTER + INTRA:         -14.997
REMARK INTER:                 -12.401
REMARK INTRA:                  -2.597
REMARK UNBOUND:                -2.454
REMARK SMILES CCCCCCCCCCCCCCCCCCCCCCCCCCCCCC(=O)[O-]
REMARK SMILES IDX 16 1 17 2 18 3 19 4 20 5 21 6 22 7 23 8 24 9 25 10 26 11
REMARK SMILES IDX 27 12 28 13 29 14 30 15 31 16 32 17 15 18 14 19 13 20 12 21
REMARK SMILES IDX 11 22 10 23 9 24 8 25 7 26 6 27 5 28 4 29 3 30 2 31 1 32
REMARK H PARENT
REMARK Flexibility Score: inf
ROOT
ATOM      1  C   UNL     1      56.860 143.034 -23.505  1.00  0.00     0.000 C 
ENDROOT
BRANCH   1   2
ATOM      2  C   UNL     1      57.573 142.180 -22.446  1.00  0.00     0.000 C 
BRANCH   2   3
ATOM      3  C   UNL     1      56.968 140.769 -22.380  1.00  0.00     0.000 C 
BRANCH   3   4
ATOM      4  C   UNL     1      58.019 139.668 -22.592  1.00  0.00     0.000 C 
BRANCH   4   5
ATOM      5  C   UNL     1      59.457 140.218 -22.615  1.00  0.00     0.000 C 
BRANCH   5   6
ATOM      6  C   UNL     1      60.134 140.150 -21.236  1.00  0.00     0.000 C 
BRANCH   6   7
ATOM      7  C   UNL     1      61.193 141.249 -21.047  1.00  0.00     0.000 C 
BRANCH   7   8
ATOM      8  C   UNL     1      61.356 142.135 -22.301  1.00  0.00     0.000 C 
BRANCH   8   9
ATOM      9  C   UNL     1      61.626 143.618 -21.985  1.00  0.00     0.000 C 
BRANCH   9  10
ATOM     10  C   UNL     1      60.392 144.425 -21.533  1.00  0.00     0.000 C 
BRANCH  10  11
ATOM     11  C   UNL     1      60.494 145.035 -20.123  1.00  0.00     0.000 C 
BRANCH  11  12
ATOM     12  C   UNL     1      59.208 144.961 -19.277  1.00  0.00     0.000 C 
BRANCH  12  13
ATOM     13  C   UNL     1      59.378 144.223 -17.931  1.00  0.00     0.006 C 
BRANCH  13  14
ATOM     14  C   UNL     1      59.235 142.696 -18.066  1.00  0.00     0.053 C 
BRANCH  14  15
ATOM     15  C   UNL     1      58.540 142.096 -16.880  1.00  0.00     0.041 C 
ATOM     16  O   UNL     1      59.164 141.898 -15.801  1.00  0.00    -0.550 OA
ATOM     17  O   UNL     1      57.220 141.674 -16.998  1.00  0.00    -0.550 OA
ENDBRANCH  14  15
ENDBRANCH  13  14
ENDBRANCH  12  13
ENDBRANCH  11  12
ENDBRANCH  10  11
ENDBRANCH   9  10
ENDBRANCH   8   9
ENDBRANCH   7   8
ENDBRANCH   6   7
ENDBRANCH   5   6
ENDBRANCH   4   5
ENDBRANCH   3   4
ENDBRANCH   2   3
ENDBRANCH   1   2
BRANCH   1  18
ATOM     18  C   UNL     1      55.787 142.250 -24.283  1.00  0.00     0.000 C 
BRANCH  18  19
ATOM     19  C   UNL     1      55.766 142.507 -25.804  1.00  0.00     0.000 C 
BRANCH  19  20
ATOM     20  C   UNL     1      55.902 143.982 -26.222  1.00  0.00     0.000 C 
BRANCH  20  21
ATOM     21  C   UNL     1      56.574 144.215 -27.589  1.00  0.00     0.000 C 
BRANCH  21  22
ATOM     22  C   UNL     1      55.980 143.367 -28.734  1.00  0.00     0.000 C 
BRANCH  22  23
ATOM     23  C   UNL     1      56.451 143.828 -30.124  1.00  0.00     0.000 C 
BRANCH  23  24
ATOM     24  C   UNL     1      57.991 143.824 -30.246  1.00  0.00    -0.000 C 
BRANCH  24  25
ATOM     25  C   UNL     1      58.498 144.286 -31.623  1.00  0.00    -0.000 C 
BRANCH  25  26
ATOM     26  C   UNL     1      59.719 143.491 -32.105  1.00  0.00    -0.000 C 
BRANCH  26  27
ATOM     27  C   UNL     1      60.008 143.779 -33.585  1.00  0.00    -0.000 C 
BRANCH  27  28
ATOM     28  C   UNL     1      61.160 144.778 -33.778  1.00  0.00    -0.000 C 
BRANCH  28  29
ATOM     29  C   UNL     1      60.985 145.647 -35.033  1.00  0.00    -0.000 C 
BRANCH  29  30
ATOM     30  C   UNL     1      59.651 146.406 -34.990  1.00  0.00    -0.000 C 
BRANCH  30  31
ATOM     31  C   UNL     1      59.804 147.844 -34.471  1.00  0.00    -0.003 C 
ATOM     32  C   UNL     1      59.811 147.928 -32.944  1.00  0.00     0.004 C 
ENDBRANCH  30  31
ENDBRANCH  29  30
ENDBRANCH  28  29
ENDBRANCH  27  28
ENDBRANCH  26  27
ENDBRANCH  25  26
ENDBRANCH  24  25
ENDBRANCH  23  24
ENDBRANCH  22  23
ENDBRANCH  21  22
ENDBRANCH  20  21
ENDBRANCH  19  20
ENDBRANCH  18  19
ENDBRANCH   1  18
TORSDOF 28
ENDMDL
MODEL 5
REMARK VINA RESULT:    -4.737      3.923      6.754
REMARK INTER + INTRA:         -14.945
REMARK INTER:                 -10.120
REMARK INTRA:                  -4.825
REMARK UNBOUND:                -2.454
REMARK SMILES CCCCCCCCCCCCCCCCCCCCCCCCCCCCCC(=O)[O-]
REMARK SMILES IDX 16 1 17 2 18 3 19 4 20 5 21 6 22 7 23 8 24 9 25 10 26 11
REMARK SMILES IDX 27 12 28 13 29 14 30 15 31 16 32 17 15 18 14 19 13 20 12 21
REMARK SMILES IDX 11 22 10 23 9 24 8 25 7 26 6 27 5 28 4 29 3 30 2 31 1 32
REMARK H PARENT
REMARK Flexibility Score: inf
ROOT
ATOM      1  C   UNL     1      59.456 143.419 -22.933  1.00  0.00     0.000 C 
ENDROOT
BRANCH   1   2
ATOM      2  C   UNL     1      60.489 143.986 -21.948  1.00  0.00     0.000 C 
BRANCH   2   3
ATOM      3  C   UNL     1      61.414 142.878 -21.422  1.00  0.00     0.000 C 
BRANCH   3   4
ATOM      4  C   UNL     1      61.117 142.506 -19.961  1.00  0.00     0.000 C 
BRANCH   4   5
ATOM      5  C   UNL     1      60.437 141.131 -19.827  1.00  0.00     0.000 C 
BRANCH   5   6
ATOM      6  C   UNL     1      59.301 141.136 -18.791  1.00  0.00     0.000 C 
BRANCH   6   7
ATOM      7  C   UNL     1      58.613 142.507 -18.682  1.00  0.00     0.000 C 
BRANCH   7   8
ATOM      8  C   UNL     1      58.023 142.763 -17.278  1.00  0.00     0.000 C 
BRANCH   8   9
ATOM      9  C   UNL     1      58.629 141.873 -16.177  1.00  0.00     0.000 C 
BRANCH   9  10
ATOM     10  C   UNL     1      59.708 142.551 -15.308  1.00  0.00     0.000 C 
BRANCH  10  11
ATOM     11  C   UNL     1      60.967 143.002 -16.072  1.00  0.00     0.000 C 
BRANCH  11  12
ATOM     12  C   UNL     1      61.598 144.321 -15.582  1.00  0.00     0.000 C 
BRANCH  12  13
ATOM     13  C   UNL     1      61.059 145.581 -16.295  1.00  0.00     0.006 C 
BRANCH  13  14
ATOM     14  C   UNL     1      60.848 145.368 -17.805  1.00  0.00     0.053 C 
BRANCH  14  15
ATOM     15  C   UNL     1      59.838 146.325 -18.366  1.00  0.00     0.041 C 
ATOM     16  O   UNL     1      59.667 147.460 -17.841  1.00  0.00    -0.550 OA
ATOM     17  O   UNL     1      59.022 145.925 -19.419  1.00  0.00    -0.550 OA
ENDBRANCH  14  15
ENDBRANCH  13  14
ENDBRANCH  12  13
ENDBRANCH  11  12
ENDBRANCH  10  11
ENDBRANCH   9  10
ENDBRANCH   8   9
ENDBRANCH   7   8
ENDBRANCH   6   7
ENDBRANCH   5   6
ENDBRANCH   4   5
ENDBRANCH   3   4
ENDBRANCH   2   3
ENDBRANCH   1   2
BRANCH   1  18
ATOM     18  C   UNL     1      58.087 143.157 -22.280  1.00  0.00     0.000 C 
BRANCH  18  19
ATOM     19  C   UNL     1      57.733 141.668 -22.082  1.00  0.00     0.000 C 
BRANCH  19  20
ATOM     20  C   UNL     1      58.167 140.733 -23.226  1.00  0.00     0.000 C 
BRANCH  20  21
ATOM     21  C   UNL     1      57.424 139.385 -23.285  1.00  0.00     0.000 C 
BRANCH  21  22
ATOM     22  C   UNL     1      56.685 139.132 -24.615  1.00  0.00     0.000 C 
BRANCH  22  23
ATOM     23  C   UNL     1      56.320 140.433 -25.352  1.00  0.00     0.000 C 
BRANCH  23  24
ATOM     24  C   UNL     1      54.819 140.495 -25.712  1.00  0.00    -0.000 C 
BRANCH  24  25
ATOM     25  C   UNL     1      53.923 140.899 -24.530  1.00  0.00    -0.000 C 
BRANCH  25  26
ATOM     26  C   UNL     1      54.619 141.860 -23.556  1.00  0.00    -0.000 C 
BRANCH  26  27
ATOM     27  C   UNL     1      54.169 143.307 -23.802  1.00  0.00    -0.000 C 
BRANCH  27  28
ATOM     28  C   UNL     1      55.272 144.169 -24.437  1.00  0.00    -0.000 C 
BRANCH  28  29
ATOM     29  C   UNL     1      55.205 144.178 -25.972  1.00  0.00    -0.000 C 
BRANCH  29  30
ATOM     30  C   UNL     1      56.594 143.931 -26.580  1.00  0.00    -0.000 C 
BRANCH  30  31
ATOM     31  C   UNL     1      56.672 144.328 -28.062  1.00  0.00    -0.003 C 
ATOM     32  C   UNL     1      55.548 143.717 -28.901  1.00  0.00     0.004 C 
ENDBRANCH  30  31
ENDBRANCH  29  30
ENDBRANCH  28  29
ENDBRANCH  27  28
ENDBRANCH  26  27
ENDBRANCH  25  26
ENDBRANCH  24  25
ENDBRANCH  23  24
ENDBRANCH  22  23
ENDBRANCH  21  22
ENDBRANCH  20  21
ENDBRANCH  19  20
ENDBRANCH  18  19
ENDBRANCH   1  18
TORSDOF 28
ENDMDL
MODEL 6
REMARK VINA RESULT:    -4.731     12.599     15.191
REMARK INTER + INTRA:         -14.930
REMARK INTER:                 -10.273
REMARK INTRA:                  -4.657
REMARK UNBOUND:                -2.454
REMARK SMILES CCCCCCCCCCCCCCCCCCCCCCCCCCCCCC(=O)[O-]
REMARK SMILES IDX 16 1 17 2 18 3 19 4 20 5 21 6 22 7 23 8 24 9 25 10 26 11
REMARK SMILES IDX 27 12 28 13 29 14 30 15 31 16 32 17 15 18 14 19 13 20 12 21
REMARK SMILES IDX 11 22 10 23 9 24 8 25 7 26 6 27 5 28 4 29 3 30 2 31 1 32
REMARK H PARENT
REMARK Flexibility Score: inf
ROOT
ATOM      1  C   UNL     1      45.635 154.965 -27.480  1.00  0.00     0.000 C 
ENDROOT
BRANCH   1   2
ATOM      2  C   UNL     1      46.115 153.516 -27.648  1.00  0.00     0.000 C 
BRANCH   2   3
ATOM      3  C   UNL     1      45.296 152.786 -28.724  1.00  0.00     0.000 C 
BRANCH   3   4
ATOM      4  C   UNL     1      46.183 152.060 -29.747  1.00  0.00     0.000 C 
BRANCH   4   5
ATOM      5  C   UNL     1      47.134 153.017 -30.490  1.00  0.00     0.000 C 
BRANCH   5   6
ATOM      6  C   UNL     1      48.601 152.563 -30.415  1.00  0.00     0.000 C 
BRANCH   6   7
ATOM      7  C   UNL     1      49.522 153.650 -29.835  1.00  0.00     0.000 C 
BRANCH   7   8
ATOM      8  C   UNL     1      49.062 155.076 -30.207  1.00  0.00     0.000 C 
BRANCH   8   9
ATOM      9  C   UNL     1      48.988 156.039 -29.007  1.00  0.00     0.000 C 
BRANCH   9  10
ATOM     10  C   UNL     1      49.358 155.416 -27.645  1.00  0.00     0.000 C 
BRANCH  10  11
ATOM     11  C   UNL     1      50.663 155.944 -27.022  1.00  0.00     0.000 C 
BRANCH  11  12
ATOM     12  C   UNL     1      51.146 155.190 -25.767  1.00  0.00     0.000 C 
BRANCH  12  13
ATOM     13  C   UNL     1      50.006 154.688 -24.854  1.00  0.00     0.006 C 
BRANCH  13  14
ATOM     14  C   UNL     1      50.500 154.270 -23.457  1.00  0.00     0.053 C 
BRANCH  14  15
ATOM     15  C   UNL     1      50.697 152.786 -23.358  1.00  0.00     0.041 C 
ATOM     16  O   UNL     1      50.940 152.100 -24.388  1.00  0.00    -0.550 OA
ATOM     17  O   UNL     1      50.523 152.150 -22.133  1.00  0.00    -0.550 OA
ENDBRANCH  14  15
ENDBRANCH  13  14
ENDBRANCH  12  13
ENDBRANCH  11  12
ENDBRANCH  10  11
ENDBRANCH   9  10
ENDBRANCH   8   9
ENDBRANCH   7   8
ENDBRANCH   6   7
ENDBRANCH   5   6
ENDBRANCH   4   5
ENDBRANCH   3   4
ENDBRANCH   2   3
ENDBRANCH   1   2
BRANCH   1  18
ATOM     18  C   UNL     1      44.616 155.386 -28.555  1.00  0.00     0.000 C 
BRANCH  18  19
ATOM     19  C   UNL     1      45.176 156.304 -29.662  1.00  0.00     0.000 C 
BRANCH  19  20
ATOM     20  C   UNL     1      44.894 155.841 -31.102  1.00  0.00     0.000 C 
BRANCH  20  21
ATOM     21  C   UNL     1      46.015 156.140 -32.116  1.00  0.00     0.000 C 
BRANCH  21  22
ATOM     22  C   UNL     1      45.589 157.074 -33.268  1.00  0.00     0.000 C 
BRANCH  22  23
ATOM     23  C   UNL     1      46.661 157.196 -34.365  1.00  0.00     0.000 C 
BRANCH  23  24
ATOM     24  C   UNL     1      48.029 156.648 -33.904  1.00  0.00    -0.000 C 
BRANCH  24  25
ATOM     25  C   UNL     1      48.636 155.621 -34.875  1.00  0.00    -0.000 C 
BRANCH  25  26
ATOM     26  C   UNL     1      48.108 154.199 -34.643  1.00  0.00    -0.000 C 
BRANCH  26  27
ATOM     27  C   UNL     1      49.128 153.358 -33.863  1.00  0.00    -0.000 C 
BRANCH  27  28
ATOM     28  C   UNL     1      50.580 153.707 -34.224  1.00  0.00    -0.000 C 
BRANCH  28  29
ATOM     29  C   UNL     1      51.390 154.194 -33.012  1.00  0.00    -0.000 C 
BRANCH  29  30
ATOM     30  C   UNL     1      52.582 155.052 -33.461  1.00  0.00    -0.000 C 
BRANCH  30  31
ATOM     31  C   UNL     1      53.826 154.213 -33.792  1.00  0.00    -0.003 C 
ATOM     32  C   UNL     1      54.456 153.571 -32.555  1.00  0.00     0.004 C 
ENDBRANCH  30  31
ENDBRANCH  29  30
ENDBRANCH  28  29
ENDBRANCH  27  28
ENDBRANCH  26  27
ENDBRANCH  25  26
ENDBRANCH  24  25
ENDBRANCH  23  24
ENDBRANCH  22  23
ENDBRANCH  21  22
ENDBRANCH  20  21
ENDBRANCH  19  20
ENDBRANCH  18  19
ENDBRANCH   1  18
TORSDOF 28
ENDMDL
MODEL 7
REMARK VINA RESULT:    -4.729     13.021     17.523
REMARK INTER + INTRA:         -14.925
REMARK INTER:                  -9.290
REMARK INTRA:                  -5.635
REMARK UNBOUND:                -2.454
REMARK SMILES CCCCCCCCCCCCCCCCCCCCCCCCCCCCCC(=O)[O-]
REMARK SMILES IDX 16 1 17 2 18 3 19 4 20 5 21 6 22 7 23 8 24 9 25 10 26 11
REMARK SMILES IDX 27 12 28 13 29 14 30 15 31 16 32 17 15 18 14 19 13 20 12 21
REMARK SMILES IDX 11 22 10 23 9 24 8 25 7 26 6 27 5 28 4 29 3 30 2 31 1 32
REMARK H PARENT
REMARK Flexibility Score: inf
ROOT
ATOM      1  C   UNL     1      49.397 154.065 -29.900  1.00  0.00     0.000 C 
ENDROOT
BRANCH   1   2
ATOM      2  C   UNL     1      48.636 152.750 -30.118  1.00  0.00     0.000 C 
BRANCH   2   3
ATOM      3  C   UNL     1      47.145 153.013 -30.377  1.00  0.00     0.000 C 
BRANCH   3   4
ATOM      4  C   UNL     1      46.305 152.964 -29.091  1.00  0.00     0.000 C 
BRANCH   4   5
ATOM      5  C   UNL     1      45.613 154.305 -28.784  1.00  0.00     0.000 C 
BRANCH   5   6
ATOM      6  C   UNL     1      45.723 155.302 -29.949  1.00  0.00     0.000 C 
BRANCH   6   7
ATOM      7  C   UNL     1      46.432 156.605 -29.541  1.00  0.00     0.000 C 
BRANCH   7   8
ATOM      8  C   UNL     1      47.303 157.185 -30.677  1.00  0.00     0.000 C 
BRANCH   8   9
ATOM      9  C   UNL     1      47.329 156.314 -31.947  1.00  0.00     0.000 C 
BRANCH   9  10
ATOM     10  C   UNL     1      48.299 156.791 -33.047  1.00  0.00     0.000 C 
BRANCH  10  11
ATOM     11  C   UNL     1      48.575 155.764 -34.161  1.00  0.00     0.000 C 
BRANCH  11  12
ATOM     12  C   UNL     1      48.713 154.303 -33.691  1.00  0.00     0.000 C 
BRANCH  12  13
ATOM     13  C   UNL     1      50.117 153.698 -33.914  1.00  0.00     0.006 C 
BRANCH  13  14
ATOM     14  C   UNL     1      51.164 154.235 -32.921  1.00  0.00     0.053 C 
BRANCH  14  15
ATOM     15  C   UNL     1      52.282 154.946 -33.623  1.00  0.00     0.041 C 
ATOM     16  O   UNL     1      52.145 156.142 -34.003  1.00  0.00    -0.550 OA
ATOM     17  O   UNL     1      53.448 154.255 -33.935  1.00  0.00    -0.550 OA
ENDBRANCH  14  15
ENDBRANCH  13  14
ENDBRANCH  12  13
ENDBRANCH  11  12
ENDBRANCH  10  11
ENDBRANCH   9  10
ENDBRANCH   8   9
ENDBRANCH   7   8
ENDBRANCH   6   7
ENDBRANCH   5   6
ENDBRANCH   4   5
ENDBRANCH   3   4
ENDBRANCH   2   3
ENDBRANCH   1   2
BRANCH   1  18
ATOM     18  C   UNL     1      49.899 154.235 -28.454  1.00  0.00     0.000 C 
BRANCH  18  19
ATOM     19  C   UNL     1      49.424 155.520 -27.745  1.00  0.00     0.000 C 
BRANCH  19  20
ATOM     20  C   UNL     1      48.401 155.307 -26.616  1.00  0.00     0.000 C 
BRANCH  20  21
ATOM     21  C   UNL     1      47.790 156.597 -26.035  1.00  0.00     0.000 C 
BRANCH  21  22
ATOM     22  C   UNL     1      48.755 157.801 -26.028  1.00  0.00     0.000 C 
BRANCH  22  23
ATOM     23  C   UNL     1      49.617 157.869 -24.755  1.00  0.00     0.000 C 
BRANCH  23  24
ATOM     24  C   UNL     1      51.066 158.309 -25.058  1.00  0.00    -0.000 C 
BRANCH  24  25
ATOM     25  C   UNL     1      51.530 157.951 -26.480  1.00  0.00    -0.000 C 
BRANCH  25  26
ATOM     26  C   UNL     1      52.657 156.909 -26.493  1.00  0.00    -0.000 C 
BRANCH  26  27
ATOM     27  C   UNL     1      52.613 156.041 -25.228  1.00  0.00    -0.000 C 
BRANCH  27  28
ATOM     28  C   UNL     1      52.245 154.579 -25.529  1.00  0.00    -0.000 C 
BRANCH  28  29
ATOM     29  C   UNL     1      51.761 153.823 -24.281  1.00  0.00    -0.000 C 
BRANCH  29  30
ATOM     30  C   UNL     1      50.393 154.348 -23.821  1.00  0.00    -0.000 C 
BRANCH  30  31
ATOM     31  C   UNL     1      49.418 153.220 -23.452  1.00  0.00    -0.003 C 
ATOM     32  C   UNL     1      49.389 152.926 -21.951  1.00  0.00     0.004 C 
ENDBRANCH  30  31
ENDBRANCH  29  30
ENDBRANCH  28  29
ENDBRANCH  27  28
ENDBRANCH  26  27
ENDBRANCH  25  26
ENDBRANCH  24  25
ENDBRANCH  23  24
ENDBRANCH  22  23
ENDBRANCH  21  22
ENDBRANCH  20  21
ENDBRANCH  19  20
ENDBRANCH  18  19
ENDBRANCH   1  18
TORSDOF 28
ENDMDL
MODEL 8
REMARK VINA RESULT:    -4.715      5.588      8.140
REMARK INTER + INTRA:         -14.888
REMARK INTER:                  -8.861
REMARK INTRA:                  -6.027
REMARK UNBOUND:                -2.454
REMARK SMILES CCCCCCCCCCCCCCCCCCCCCCCCCCCCCC(=O)[O-]
REMARK SMILES IDX 16 1 17 2 18 3 19 4 20 5 21 6 22 7 23 8 24 9 25 10 26 11
REMARK SMILES IDX 27 12 28 13 29 14 30 15 31 16 32 17 15 18 14 19 13 20 12 21
REMARK SMILES IDX 11 22 10 23 9 24 8 25 7 26 6 27 5 28 4 29 3 30 2 31 1 32
REMARK H PARENT
REMARK Flexibility Score: inf
ROOT
ATOM      1  C   UNL     1      58.937 142.514 -19.062  1.00  0.00     0.000 C 
ENDROOT
BRANCH   1   2
ATOM      2  C   UNL     1      58.205 143.107 -17.849  1.00  0.00     0.000 C 
BRANCH   2   3
ATOM      3  C   UNL     1      58.312 142.176 -16.632  1.00  0.00     0.000 C 
BRANCH   3   4
ATOM      4  C   UNL     1      59.229 142.742 -15.536  1.00  0.00     0.000 C 
BRANCH   4   5
ATOM      5  C   UNL     1      60.276 141.720 -15.054  1.00  0.00     0.000 C 
BRANCH   5   6
ATOM      6  C   UNL     1      60.312 140.458 -15.932  1.00  0.00     0.000 C 
BRANCH   6   7
ATOM      7  C   UNL     1      61.609 140.351 -16.752  1.00  0.00     0.000 C 
BRANCH   7   8
ATOM      8  C   UNL     1      62.354 141.700 -16.860  1.00  0.00     0.000 C 
BRANCH   8   9
ATOM      9  C   UNL     1      62.418 142.262 -18.293  1.00  0.00     0.000 C 
BRANCH   9  10
ATOM     10  C   UNL     1      62.922 143.715 -18.403  1.00  0.00     0.000 C 
BRANCH  10  11
ATOM     11  C   UNL     1      61.820 144.790 -18.372  1.00  0.00     0.000 C 
BRANCH  11  12
ATOM     12  C   UNL     1      61.400 145.262 -16.966  1.00  0.00     0.000 C 
BRANCH  12  13
ATOM     13  C   UNL     1      60.127 146.137 -16.947  1.00  0.00     0.006 C 
BRANCH  13  14
ATOM     14  C   UNL     1      60.420 147.611 -16.612  1.00  0.00     0.053 C 
BRANCH  14  15
ATOM     15  C   UNL     1      60.005 148.527 -17.725  1.00  0.00     0.041 C 
ATOM     16  O   UNL     1      59.267 149.525 -17.495  1.00  0.00    -0.550 OA
ATOM     17  O   UNL     1      60.365 148.226 -19.034  1.00  0.00    -0.550 OA
ENDBRANCH  14  15
ENDBRANCH  13  14
ENDBRANCH  12  13
ENDBRANCH  11  12
ENDBRANCH  10  11
ENDBRANCH   9  10
ENDBRANCH   8   9
ENDBRANCH   7   8
ENDBRANCH   6   7
ENDBRANCH   5   6
ENDBRANCH   4   5
ENDBRANCH   3   4
ENDBRANCH   2   3
ENDBRANCH   1   2
BRANCH   1  18
ATOM     18  C   UNL     1      58.563 141.043 -19.326  1.00  0.00     0.000 C 
BRANCH  18  19
ATOM     19  C   UNL     1      59.717 140.159 -19.843  1.00  0.00     0.000 C 
BRANCH  19  20
ATOM     20  C   UNL     1      59.474 139.499 -21.212  1.00  0.00     0.000 C 
BRANCH  20  21
ATOM     21  C   UNL     1      60.503 139.856 -22.302  1.00  0.00     0.000 C 
BRANCH  21  22
ATOM     22  C   UNL     1      61.585 140.855 -21.841  1.00  0.00     0.000 C 
BRANCH  22  23
ATOM     23  C   UNL     1      61.571 142.165 -22.647  1.00  0.00     0.000 C 
BRANCH  23  24
ATOM     24  C   UNL     1      61.325 143.397 -21.749  1.00  0.00    -0.000 C 
BRANCH  24  25
ATOM     25  C   UNL     1      60.026 144.148 -22.082  1.00  0.00    -0.000 C 
BRANCH  25  26
ATOM     26  C   UNL     1      59.123 143.374 -23.052  1.00  0.00    -0.000 C 
BRANCH  26  27
ATOM     27  C   UNL     1      57.797 142.993 -22.377  1.00  0.00    -0.000 C 
BRANCH  27  28
ATOM     28  C   UNL     1      57.173 141.723 -22.977  1.00  0.00    -0.000 C 
BRANCH  28  29
ATOM     29  C   UNL     1      55.814 141.990 -23.642  1.00  0.00    -0.000 C 
BRANCH  29  30
ATOM     30  C   UNL     1      56.001 142.521 -25.071  1.00  0.00    -0.000 C 
BRANCH  30  31
ATOM     31  C   UNL     1      55.571 143.989 -25.219  1.00  0.00    -0.003 C 
ATOM     32  C   UNL     1      54.724 144.482 -24.044  1.00  0.00     0.004 C 
ENDBRANCH  30  31
ENDBRANCH  29  30
ENDBRANCH  28  29
ENDBRANCH  27  28
ENDBRANCH  26  27
ENDBRANCH  25  26
ENDBRANCH  24  25
ENDBRANCH  23  24
ENDBRANCH  22  23
ENDBRANCH  21  22
ENDBRANCH  20  21
ENDBRANCH  19  20
ENDBRANCH  18  19
ENDBRANCH   1  18
TORSDOF 28
ENDMDL
MODEL 9
REMARK VINA RESULT:    -4.669     12.729     15.194
REMARK INTER + INTRA:         -14.766
REMARK INTER:                  -9.330
REMARK INTRA:                  -5.436
REMARK UNBOUND:                -2.454
REMARK SMILES CCCCCCCCCCCCCCCCCCCCCCCCCCCCCC(=O)[O-]
REMARK SMILES IDX 16 1 17 2 18 3 19 4 20 5 21 6 22 7 23 8 24 9 25 10 26 11
REMARK SMILES IDX 27 12 28 13 29 14 30 15 31 16 32 17 15 18 14 19 13 20 12 21
REMARK SMILES IDX 11 22 10 23 9 24 8 25 7 26 6 27 5 28 4 29 3 30 2 31 1 32
REMARK H PARENT
REMARK Flexibility Score: inf
ROOT
ATOM      1  C   UNL     1      49.507 154.604 -30.421  1.00  0.00     0.000 C 
ENDROOT
BRANCH   1   2
ATOM      2  C   UNL     1      49.112 155.634 -29.353  1.00  0.00     0.000 C 
BRANCH   2   3
ATOM      3  C   UNL     1      49.247 155.042 -27.941  1.00  0.00     0.000 C 
BRANCH   3   4
ATOM      4  C   UNL     1      47.966 155.208 -27.108  1.00  0.00     0.000 C 
BRANCH   4   5
ATOM      5  C   UNL     1      47.707 156.672 -26.706  1.00  0.00     0.000 C 
BRANCH   5   6
ATOM      6  C   UNL     1      48.739 157.194 -25.693  1.00  0.00     0.000 C 
BRANCH   6   7
ATOM      7  C   UNL     1      49.716 158.204 -26.318  1.00  0.00     0.000 C 
BRANCH   7   8
ATOM      8  C   UNL     1      51.115 158.158 -25.666  1.00  0.00     0.000 C 
BRANCH   8   9
ATOM      9  C   UNL     1      52.160 157.383 -26.490  1.00  0.00     0.000 C 
BRANCH   9  10
ATOM     10  C   UNL     1      52.779 156.162 -25.779  1.00  0.00     0.000 C 
BRANCH  10  11
ATOM     11  C   UNL     1      52.113 154.812 -26.107  1.00  0.00     0.000 C 
BRANCH  11  12
ATOM     12  C   UNL     1      51.646 153.995 -24.887  1.00  0.00     0.000 C 
BRANCH  12  13
ATOM     13  C   UNL     1      50.411 154.581 -24.168  1.00  0.00     0.006 C 
BRANCH  13  14
ATOM     14  C   UNL     1      49.434 153.497 -23.679  1.00  0.00     0.053 C 
BRANCH  14  15
ATOM     15  C   UNL     1      49.792 153.004 -22.308  1.00  0.00     0.041 C 
ATOM     16  O   UNL     1      50.641 152.083 -22.157  1.00  0.00    -0.550 OA
ATOM     17  O   UNL     1      49.119 153.506 -21.199  1.00  0.00    -0.550 OA
ENDBRANCH  14  15
ENDBRANCH  13  14
ENDBRANCH  12  13
ENDBRANCH  11  12
ENDBRANCH  10  11
ENDBRANCH   9  10
ENDBRANCH   8   9
ENDBRANCH   7   8
ENDBRANCH   6   7
ENDBRANCH   5   6
ENDBRANCH   4   5
ENDBRANCH   3   4
ENDBRANCH   2   3
ENDBRANCH   1   2
BRANCH   1  18
ATOM     18  C   UNL     1      49.417 153.152 -29.915  1.00  0.00     0.000 C 
BRANCH  18  19
ATOM     19  C   UNL     1      48.179 152.368 -30.397  1.00  0.00     0.000 C 
BRANCH  19  20
ATOM     20  C   UNL     1      46.865 152.706 -29.671  1.00  0.00     0.000 C 
BRANCH  20  21
ATOM     21  C   UNL     1      45.849 153.513 -30.502  1.00  0.00     0.000 C 
BRANCH  21  22
ATOM     22  C   UNL     1      45.580 154.932 -29.959  1.00  0.00     0.000 C 
BRANCH  22  23
ATOM     23  C   UNL     1      45.375 155.971 -31.076  1.00  0.00     0.000 C 
BRANCH  23  24
ATOM     24  C   UNL     1      46.516 155.935 -32.117  1.00  0.00    -0.000 C 
BRANCH  24  25
ATOM     25  C   UNL     1      47.304 157.253 -32.207  1.00  0.00    -0.000 C 
BRANCH  25  26
ATOM     26  C   UNL     1      48.211 157.321 -33.443  1.00  0.00    -0.000 C 
BRANCH  26  27
ATOM     27  C   UNL     1      49.659 157.635 -33.041  1.00  0.00    -0.000 C 
BRANCH  27  28
ATOM     28  C   UNL     1      50.606 156.447 -33.269  1.00  0.00    -0.000 C 
BRANCH  28  29
ATOM     29  C   UNL     1      50.120 155.509 -34.384  1.00  0.00    -0.000 C 
BRANCH  29  30
ATOM     30  C   UNL     1      50.402 154.042 -34.026  1.00  0.00    -0.000 C 
BRANCH  30  31
ATOM     31  C   UNL     1      49.124 153.191 -33.964  1.00  0.00    -0.003 C 
ATOM     32  C   UNL     1      47.957 153.813 -34.733  1.00  0.00     0.004 C 
ENDBRANCH  30  31
ENDBRANCH  29  30
ENDBRANCH  28  29
ENDBRANCH  27  28
ENDBRANCH  26  27
ENDBRANCH  25  26
ENDBRANCH  24  25
ENDBRANCH  23  24
ENDBRANCH  22  23
ENDBRANCH  21  22
ENDBRANCH  20  21
ENDBRANCH  19  20
ENDBRANCH  18  19
ENDBRANCH   1  18
TORSDOF 28
ENDMDL
