MODEL 1
REMARK VINA RESULT:    -4.709      0.000      0.000
REMARK INTER + INTRA:         -12.251
REMARK INTER:                 -10.766
REMARK INTRA:                  -1.485
REMARK UNBOUND:                -1.485
REMARK SMILES CCCCCCCCCCCCCCCCCCCCCCCC(=O)[O-]
REMARK SMILES IDX 13 1 14 2 15 3 16 4 17 5 18 6 19 7 20 8 21 9 22 10 23 11
REMARK SMILES IDX 24 12 25 13 26 14 12 15 11 16 10 17 9 18 8 19 7 20 6 21 5 22
REMARK SMILES IDX 4 23 3 24 2 25 1 26
REMARK H PARENT
REMARK Flexibility Score: inf
ROOT
ATOM      1  C   UNL     1      43.259  66.058  53.253  1.00  0.00     0.000 C 
ENDROOT
BRANCH   1   2
ATOM      2  C   UNL     1      44.382  65.307  52.521  1.00  0.00     0.000 C 
BRANCH   2   3
ATOM      3  C   UNL     1      45.290  66.242  51.707  1.00  0.00     0.000 C 
BRANCH   3   4
ATOM      4  C   UNL     1      45.416  65.815  50.234  1.00  0.00     0.000 C 
BRANCH   4   5
ATOM      5  C   UNL     1      44.468  66.580  49.286  1.00  0.00     0.000 C 
BRANCH   5   6
ATOM      6  C   UNL     1      44.005  67.920  49.881  1.00  0.00     0.000 C 
BRANCH   6   7
ATOM      7  C   UNL     1      42.484  67.982  50.101  1.00  0.00     0.000 C 
BRANCH   7   8
ATOM      8  C   UNL     1      41.675  68.061  48.788  1.00  0.00     0.000 C 
BRANCH   8   9
ATOM      9  C   UNL     1      40.280  67.424  48.922  1.00  0.00     0.000 C 
BRANCH   9  10
ATOM     10  C   UNL     1      39.846  66.650  47.665  1.00  0.00     0.006 C 
BRANCH  10  11
ATOM     11  C   UNL     1      40.998  66.332  46.697  1.00  0.00     0.053 C 
BRANCH  11  12
ATOM     12  C   UNL     1      41.340  64.874  46.665  1.00  0.00     0.041 C 
ATOM     13  O   UNL     1      40.523  64.024  47.110  1.00  0.00    -0.550 OA
ATOM     14  O   UNL     1      42.548  64.449  46.124  1.00  0.00    -0.550 OA
ENDBRANCH  11  12
ENDBRANCH  10  11
ENDBRANCH   9  10
ENDBRANCH   8   9
ENDBRANCH   7   8
ENDBRANCH   6   7
ENDBRANCH   5   6
ENDBRANCH   4   5
ENDBRANCH   3   4
ENDBRANCH   2   3
ENDBRANCH   1   2
BRANCH   1  15
ATOM     15  C   UNL     1      42.291  65.108  53.980  1.00  0.00     0.000 C 
BRANCH  15  16
ATOM     16  C   UNL     1      42.854  64.612  55.322  1.00  0.00     0.000 C 
BRANCH  16  17
ATOM     17  C   UNL     1      42.462  65.526  56.496  1.00  0.00     0.000 C 
BRANCH  17  18
ATOM     18  C   UNL     1      41.589  64.812  57.544  1.00  0.00    -0.000 C 
BRANCH  18  19
ATOM     19  C   UNL     1      40.316  64.147  56.985  1.00  0.00    -0.000 C 
BRANCH  19  20
ATOM     20  C   UNL     1      39.729  63.018  57.855  1.00  0.00    -0.000 C 
BRANCH  20  21
ATOM     21  C   UNL     1      38.308  62.574  57.468  1.00  0.00    -0.000 C 
BRANCH  21  22
ATOM     22  C   UNL     1      38.292  61.595  56.282  1.00  0.00    -0.000 C 
BRANCH  22  23
ATOM     23  C   UNL     1      37.243  60.475  56.462  1.00  0.00    -0.000 C 
BRANCH  23  24
ATOM     24  C   UNL     1      37.142  59.520  55.255  1.00  0.00    -0.000 C 
BRANCH  24  25
ATOM     25  C   UNL     1      37.263  58.027  55.606  1.00  0.00    -0.003 C 
ATOM     26  C   UNL     1      37.689  57.792  57.055  1.00  0.00     0.004 C 
ENDBRANCH  24  25
ENDBRANCH  23  24
ENDBRANCH  22  23
ENDBRANCH  21  22
ENDBRANCH  20  21
ENDBRANCH  19  20
ENDBRANCH  18  19
ENDBRANCH  17  18
ENDBRANCH  16  17
ENDBRANCH  15  16
ENDBRANCH   1  15
TORSDOF 22
ENDMDL
MODEL 2
REMARK VINA RESULT:    -4.647      3.568      9.288
REMARK INTER + INTRA:         -12.109
REMARK INTER:                 -10.131
REMARK INTRA:                  -1.978
REMARK UNBOUND:                -1.485
REMARK SMILES CCCCCCCCCCCCCCCCCCCCCCCC(=O)[O-]
REMARK SMILES IDX 13 1 14 2 15 3 16 4 17 5 18 6 19 7 20 8 21 9 22 10 23 11
REMARK SMILES IDX 24 12 25 13 26 14 12 15 11 16 10 17 9 18 8 19 7 20 6 21 5 22
REMARK SMILES IDX 4 23 3 24 2 25 1 26
REMARK H PARENT
REMARK Flexibility Score: inf
ROOT
ATOM      1  C   UNL     1      42.950  65.285  54.089  1.00  0.00     0.000 C 
ENDROOT
BRANCH   1   2
ATOM      2  C   UNL     1      43.765  64.075  54.571  1.00  0.00     0.000 C 
BRANCH   2   3
ATOM      3  C   UNL     1      43.644  63.843  56.086  1.00  0.00     0.000 C 
BRANCH   3   4
ATOM      4  C   UNL     1      42.579  64.739  56.742  1.00  0.00     0.000 C 
BRANCH   4   5
ATOM      5  C   UNL     1      41.535  63.955  57.565  1.00  0.00     0.000 C 
BRANCH   5   6
ATOM      6  C   UNL     1      40.110  64.498  57.367  1.00  0.00     0.000 C 
BRANCH   6   7
ATOM      7  C   UNL     1      39.882  65.077  55.960  1.00  0.00     0.000 C 
BRANCH   7   8
ATOM      8  C   UNL     1      38.410  65.008  55.497  1.00  0.00     0.000 C 
BRANCH   8   9
ATOM      9  C   UNL     1      37.720  63.705  55.936  1.00  0.00     0.000 C 
BRANCH   9  10
ATOM     10  C   UNL     1      36.187  63.760  55.804  1.00  0.00     0.006 C 
BRANCH  10  11
ATOM     11  C   UNL     1      35.560  65.061  56.333  1.00  0.00     0.053 C 
BRANCH  11  12
ATOM     12  C   UNL     1      34.770  65.787  55.287  1.00  0.00     0.041 C 
ATOM     13  O   UNL     1      35.362  66.376  54.343  1.00  0.00    -0.550 OA
ATOM     14  O   UNL     1      33.381  65.797  55.339  1.00  0.00    -0.550 OA
ENDBRANCH  11  12
ENDBRANCH  10  11
ENDBRANCH   9  10
ENDBRANCH   8   9
ENDBRANCH   7   8
ENDBRANCH   6   7
ENDBRANCH   5   6
ENDBRANCH   4   5
ENDBRANCH   3   4
ENDBRANCH   2   3
ENDBRANCH   1   2
BRANCH   1  15
ATOM     15  C   UNL     1      43.608  66.003  52.897  1.00  0.00     0.000 C 
BRANCH  15  16
ATOM     16  C   UNL     1      44.734  65.171  52.262  1.00  0.00     0.000 C 
BRANCH  16  17
ATOM     17  C   UNL     1      45.307  65.832  50.995  1.00  0.00     0.000 C 
BRANCH  17  18
ATOM     18  C   UNL     1      44.737  67.240  50.746  1.00  0.00    -0.000 C 
BRANCH  18  19
ATOM     19  C   UNL     1      43.997  67.414  49.404  1.00  0.00    -0.000 C 
BRANCH  19  20
ATOM     20  C   UNL     1      44.182  66.261  48.398  1.00  0.00    -0.000 C 
BRANCH  20  21
ATOM     21  C   UNL     1      43.571  66.508  47.009  1.00  0.00    -0.000 C 
BRANCH  21  22
ATOM     22  C   UNL     1      42.816  65.284  46.463  1.00  0.00    -0.000 C 
BRANCH  22  23
ATOM     23  C   UNL     1      41.457  65.666  45.836  1.00  0.00    -0.000 C 
BRANCH  23  24
ATOM     24  C   UNL     1      40.848  66.958  46.416  1.00  0.00    -0.000 C 
BRANCH  24  25
ATOM     25  C   UNL     1      39.897  66.743  47.607  1.00  0.00    -0.003 C 
ATOM     26  C   UNL     1      40.408  67.385  48.896  1.00  0.00     0.004 C 
ENDBRANCH  24  25
ENDBRANCH  23  24
ENDBRANCH  22  23
ENDBRANCH  21  22
ENDBRANCH  20  21
ENDBRANCH  19  20
ENDBRANCH  18  19
ENDBRANCH  17  18
ENDBRANCH  16  17
ENDBRANCH  15  16
ENDBRANCH   1  15
TORSDOF 22
ENDMDL
MODEL 3
REMARK VINA RESULT:    -4.614      3.489      9.608
REMARK INTER + INTRA:         -12.034
REMARK INTER:                 -10.632
REMARK INTRA:                  -1.402
REMARK UNBOUND:                -1.485
REMARK SMILES CCCCCCCCCCCCCCCCCCCCCCCC(=O)[O-]
REMARK SMILES IDX 13 1 14 2 15 3 16 4 17 5 18 6 19 7 20 8 21 9 22 10 23 11
REMARK SMILES IDX 24 12 25 13 26 14 12 15 11 16 10 17 9 18 8 19 7 20 6 21 5 22
REMARK SMILES IDX 4 23 3 24 2 25 1 26
REMARK H PARENT
REMARK Flexibility Score: inf
ROOT
ATOM      1  C   UNL     1      43.573  64.062  56.450  1.00  0.00     0.000 C 
ENDROOT
BRANCH   1   2
ATOM      2  C   UNL     1      43.086  64.593  57.806  1.00  0.00     0.000 C 
BRANCH   2   3
ATOM      3  C   UNL     1      41.593  64.318  58.051  1.00  0.00     0.000 C 
BRANCH   3   4
ATOM      4  C   UNL     1      40.729  65.587  57.944  1.00  0.00     0.000 C 
BRANCH   4   5
ATOM      5  C   UNL     1      39.637  65.500  56.857  1.00  0.00     0.000 C 
BRANCH   5   6
ATOM      6  C   UNL     1      38.680  64.318  57.086  1.00  0.00     0.000 C 
BRANCH   6   7
ATOM      7  C   UNL     1      38.556  63.403  55.855  1.00  0.00     0.000 C 
BRANCH   7   8
ATOM      8  C   UNL     1      38.178  61.947  56.205  1.00  0.00     0.000 C 
BRANCH   8   9
ATOM      9  C   UNL     1      36.657  61.757  56.348  1.00  0.00     0.000 C 
BRANCH   9  10
ATOM     10  C   UNL     1      36.196  60.323  56.029  1.00  0.00     0.006 C 
BRANCH  10  11
ATOM     11  C   UNL     1      37.206  59.510  55.203  1.00  0.00     0.053 C 
BRANCH  11  12
ATOM     12  C   UNL     1      37.282  58.077  55.632  1.00  0.00     0.041 C 
ATOM     13  O   UNL     1      37.752  57.780  56.763  1.00  0.00    -0.550 OA
ATOM     14  O   UNL     1      36.814  57.069  54.797  1.00  0.00    -0.550 OA
ENDBRANCH  11  12
ENDBRANCH  10  11
ENDBRANCH   9  10
ENDBRANCH   8   9
ENDBRANCH   7   8
ENDBRANCH   6   7
ENDBRANCH   5   6
ENDBRANCH   4   5
ENDBRANCH   3   4
ENDBRANCH   2   3
ENDBRANCH   1   2
BRANCH   1  15
ATOM     15  C   UNL     1      43.145  64.962  55.277  1.00  0.00     0.000 C 
BRANCH  15  16
ATOM     16  C   UNL     1      43.617  64.418  53.919  1.00  0.00     0.000 C 
BRANCH  16  17
ATOM     17  C   UNL     1      43.959  65.541  52.924  1.00  0.00     0.000 C 
BRANCH  17  18
ATOM     18  C   UNL     1      45.017  65.120  51.888  1.00  0.00    -0.000 C 
BRANCH  18  19
ATOM     19  C   UNL     1      45.382  66.204  50.853  1.00  0.00    -0.000 C 
BRANCH  19  20
ATOM     20  C   UNL     1      44.380  67.370  50.744  1.00  0.00    -0.000 C 
BRANCH  20  21
ATOM     21  C   UNL     1      43.769  67.570  49.346  1.00  0.00    -0.000 C 
BRANCH  21  22
ATOM     22  C   UNL     1      44.155  66.452  48.362  1.00  0.00    -0.000 C 
BRANCH  22  23
ATOM     23  C   UNL     1      43.172  66.353  47.175  1.00  0.00    -0.000 C 
BRANCH  23  24
ATOM     24  C   UNL     1      41.757  66.873  47.497  1.00  0.00    -0.000 C 
BRANCH  24  25
ATOM     25  C   UNL     1      40.625  65.864  47.233  1.00  0.00    -0.003 C 
ATOM     26  C   UNL     1      41.127  64.565  46.602  1.00  0.00     0.004 C 
ENDBRANCH  24  25
ENDBRANCH  23  24
ENDBRANCH  22  23
ENDBRANCH  21  22
ENDBRANCH  20  21
ENDBRANCH  19  20
ENDBRANCH  18  19
ENDBRANCH  17  18
ENDBRANCH  16  17
ENDBRANCH  15  16
ENDBRANCH   1  15
TORSDOF 22
ENDMDL
MODEL 4
REMARK VINA RESULT:    -4.602      2.577      4.004
REMARK INTER + INTRA:         -12.005
REMARK INTER:                 -10.163
REMARK INTRA:                  -1.842
REMARK UNBOUND:                -1.485
REMARK SMILES CCCCCCCCCCCCCCCCCCCCCCCC(=O)[O-]
REMARK SMILES IDX 13 1 14 2 15 3 16 4 17 5 18 6 19 7 20 8 21 9 22 10 23 11
REMARK SMILES IDX 24 12 25 13 26 14 12 15 11 16 10 17 9 18 8 19 7 20 6 21 5 22
REMARK SMILES IDX 4 23 3 24 2 25 1 26
REMARK H PARENT
REMARK Flexibility Score: inf
ROOT
ATOM      1  C   UNL     1      45.122  65.114  51.379  1.00  0.00     0.000 C 
ENDROOT
BRANCH   1   2
ATOM      2  C   UNL     1      45.464  66.221  50.371  1.00  0.00     0.000 C 
BRANCH   2   3
ATOM      3  C   UNL     1      44.385  66.393  49.289  1.00  0.00     0.000 C 
BRANCH   3   4
ATOM      4  C   UNL     1      43.564  67.683  49.467  1.00  0.00     0.000 C 
BRANCH   4   5
ATOM      5  C   UNL     1      42.066  67.512  49.135  1.00  0.00     0.000 C 
BRANCH   5   6
ATOM      6  C   UNL     1      41.759  67.813  47.658  1.00  0.00     0.000 C 
BRANCH   6   7
ATOM      7  C   UNL     1      40.705  66.863  47.062  1.00  0.00     0.000 C 
BRANCH   7   8
ATOM      8  C   UNL     1      41.067  65.370  47.212  1.00  0.00     0.000 C 
BRANCH   8   9
ATOM      9  C   UNL     1      41.733  64.800  45.946  1.00  0.00     0.000 C 
BRANCH   9  10
ATOM     10  C   UNL     1      43.270  64.789  46.027  1.00  0.00     0.006 C 
BRANCH  10  11
ATOM     11  C   UNL     1      43.942  65.980  45.322  1.00  0.00     0.053 C 
BRANCH  11  12
ATOM     12  C   UNL     1      44.355  65.661  43.918  1.00  0.00     0.041 C 
ATOM     13  O   UNL     1      43.515  65.193  43.103  1.00  0.00    -0.550 OA
ATOM     14  O   UNL     1      45.658  65.902  43.499  1.00  0.00    -0.550 OA
ENDBRANCH  11  12
ENDBRANCH  10  11
ENDBRANCH   9  10
ENDBRANCH   8   9
ENDBRANCH   7   8
ENDBRANCH   6   7
ENDBRANCH   5   6
ENDBRANCH   4   5
ENDBRANCH   3   4
ENDBRANCH   2   3
ENDBRANCH   1   2
BRANCH   1  15
ATOM     15  C   UNL     1      44.254  65.624  52.543  1.00  0.00     0.000 C 
BRANCH  15  16
ATOM     16  C   UNL     1      43.957  64.526  53.577  1.00  0.00     0.000 C 
BRANCH  16  17
ATOM     17  C   UNL     1      42.922  64.973  54.625  1.00  0.00     0.000 C 
BRANCH  17  18
ATOM     18  C   UNL     1      41.645  65.555  53.992  1.00  0.00    -0.000 C 
BRANCH  18  19
ATOM     19  C   UNL     1      40.387  64.674  54.138  1.00  0.00    -0.000 C 
BRANCH  19  20
ATOM     20  C   UNL     1      39.599  64.866  55.448  1.00  0.00    -0.000 C 
BRANCH  20  21
ATOM     21  C   UNL     1      38.876  63.608  55.960  1.00  0.00    -0.000 C 
BRANCH  21  22
ATOM     22  C   UNL     1      37.469  63.909  56.503  1.00  0.00    -0.000 C 
BRANCH  22  23
ATOM     23  C   UNL     1      36.359  63.511  55.505  1.00  0.00    -0.000 C 
BRANCH  23  24
ATOM     24  C   UNL     1      36.070  64.585  54.438  1.00  0.00    -0.000 C 
BRANCH  24  25
ATOM     25  C   UNL     1      35.599  65.938  54.999  1.00  0.00    -0.003 C 
ATOM     26  C   UNL     1      34.179  65.881  55.564  1.00  0.00     0.004 C 
ENDBRANCH  24  25
ENDBRANCH  23  24
ENDBRANCH  22  23
ENDBRANCH  21  22
ENDBRANCH  20  21
ENDBRANCH  19  20
ENDBRANCH  18  19
ENDBRANCH  17  18
ENDBRANCH  16  17
ENDBRANCH  15  16
ENDBRANCH   1  15
TORSDOF 22
ENDMDL
MODEL 5
REMARK VINA RESULT:    -4.597      4.437     10.862
REMARK INTER + INTRA:         -11.995
REMARK INTER:                  -9.210
REMARK INTRA:                  -2.785
REMARK UNBOUND:                -1.485
REMARK SMILES CCCCCCCCCCCCCCCCCCCCCCCC(=O)[O-]
REMARK SMILES IDX 13 1 14 2 15 3 16 4 17 5 18 6 19 7 20 8 21 9 22 10 23 11
REMARK SMILES IDX 24 12 25 13 26 14 12 15 11 16 10 17 9 18 8 19 7 20 6 21 5 22
REMARK SMILES IDX 4 23 3 24 2 25 1 26
REMARK H PARENT
REMARK Flexibility Score: inf
ROOT
ATOM      1  C   UNL     1      40.530  65.874  47.221  1.00  0.00     0.000 C 
ENDROOT
BRANCH   1   2
ATOM      2  C   UNL     1      41.369  67.102  47.604  1.00  0.00     0.000 C 
BRANCH   2   3
ATOM      3  C   UNL     1      40.983  67.681  48.975  1.00  0.00     0.000 C 
BRANCH   3   4
ATOM      4  C   UNL     1      42.179  67.776  49.939  1.00  0.00     0.000 C 
BRANCH   4   5
ATOM      5  C   UNL     1      43.535  67.463  49.272  1.00  0.00     0.000 C 
BRANCH   5   6
ATOM      6  C   UNL     1      44.663  67.286  50.303  1.00  0.00     0.000 C 
BRANCH   6   7
ATOM      7  C   UNL     1      45.248  65.863  50.309  1.00  0.00     0.000 C 
BRANCH   7   8
ATOM      8  C   UNL     1      45.078  65.133  51.659  1.00  0.00     0.000 C 
BRANCH   8   9
ATOM      9  C   UNL     1      44.112  65.870  52.604  1.00  0.00     0.000 C 
BRANCH   9  10
ATOM     10  C   UNL     1      43.549  64.967  53.717  1.00  0.00     0.006 C 
BRANCH  10  11
ATOM     11  C   UNL     1      42.068  65.222  54.040  1.00  0.00     0.053 C 
BRANCH  11  12
ATOM     12  C   UNL     1      41.793  65.243  55.512  1.00  0.00     0.041 C 
ATOM     13  O   UNL     1      40.605  65.281  55.933  1.00  0.00    -0.550 OA
ATOM     14  O   UNL     1      42.843  65.196  56.422  1.00  0.00    -0.550 OA
ENDBRANCH  11  12
ENDBRANCH  10  11
ENDBRANCH   9  10
ENDBRANCH   8   9
ENDBRANCH   7   8
ENDBRANCH   6   7
ENDBRANCH   5   6
ENDBRANCH   4   5
ENDBRANCH   3   4
ENDBRANCH   2   3
ENDBRANCH   1   2
BRANCH   1  15
ATOM     15  C   UNL     1      41.361  64.790  46.511  1.00  0.00     0.000 C 
BRANCH  15  16
ATOM     16  C   UNL     1      42.867  65.093  46.541  1.00  0.00     0.000 C 
BRANCH  16  17
ATOM     17  C   UNL     1      43.587  64.613  45.268  1.00  0.00     0.000 C 
BRANCH  17  18
ATOM     18  C   UNL     1      44.384  65.732  44.573  1.00  0.00    -0.000 C 
BRANCH  18  19
ATOM     19  C   UNL     1      43.941  67.165  44.934  1.00  0.00    -0.000 C 
BRANCH  19  20
ATOM     20  C   UNL     1      43.056  67.862  43.882  1.00  0.00    -0.000 C 
BRANCH  20  21
ATOM     21  C   UNL     1      41.591  67.396  43.856  1.00  0.00    -0.000 C 
BRANCH  21  22
ATOM     22  C   UNL     1      41.341  66.275  42.832  1.00  0.00    -0.000 C 
BRANCH  22  23
ATOM     23  C   UNL     1      42.176  66.462  41.546  1.00  0.00    -0.000 C 
BRANCH  23  24
ATOM     24  C   UNL     1      42.261  65.194  40.673  1.00  0.00    -0.000 C 
BRANCH  24  25
ATOM     25  C   UNL     1      43.692  64.729  40.352  1.00  0.00    -0.003 C 
ATOM     26  C   UNL     1      43.773  63.235  40.040  1.00  0.00     0.004 C 
ENDBRANCH  24  25
ENDBRANCH  23  24
ENDBRANCH  22  23
ENDBRANCH  21  22
ENDBRANCH  20  21
ENDBRANCH  19  20
ENDBRANCH  18  19
ENDBRANCH  17  18
ENDBRANCH  16  17
ENDBRANCH  15  16
ENDBRANCH   1  15
TORSDOF 22
ENDMDL
MODEL 6
REMARK VINA RESULT:    -4.515      7.987     12.564
REMARK INTER + INTRA:         -11.807
REMARK INTER:                 -10.275
REMARK INTRA:                  -1.531
REMARK UNBOUND:                -1.485
REMARK SMILES CCCCCCCCCCCCCCCCCCCCCCCC(=O)[O-]
REMARK SMILES IDX 13 1 14 2 15 3 16 4 17 5 18 6 19 7 20 8 21 9 22 10 23 11
REMARK SMILES IDX 24 12 25 13 26 14 12 15 11 16 10 17 9 18 8 19 7 20 6 21 5 22
REMARK SMILES IDX 4 23 3 24 2 25 1 26
REMARK H PARENT
REMARK Flexibility Score: inf
ROOT
ATOM      1  C   UNL     1      36.197  60.760  55.869  1.00  0.00     0.000 C 
ENDROOT
BRANCH   1   2
ATOM      2  C   UNL     1      37.187  59.634  55.535  1.00  0.00     0.000 C 
BRANCH   2   3
ATOM      3  C   UNL     1      37.628  58.843  56.777  1.00  0.00     0.000 C 
BRANCH   3   4
ATOM      4  C   UNL     1      37.637  57.322  56.542  1.00  0.00     0.000 C 
BRANCH   4   5
ATOM      5  C   UNL     1      37.323  56.500  57.810  1.00  0.00     0.000 C 
BRANCH   5   6
ATOM      6  C   UNL     1      36.014  55.703  57.680  1.00  0.00     0.000 C 
BRANCH   6   7
ATOM      7  C   UNL     1      36.183  54.405  56.873  1.00  0.00     0.000 C 
BRANCH   7   8
ATOM      8  C   UNL     1      35.020  54.131  55.895  1.00  0.00     0.000 C 
BRANCH   8   9
ATOM      9  C   UNL     1      33.880  53.332  56.552  1.00  0.00     0.000 C 
BRANCH   9  10
ATOM     10  C   UNL     1      33.743  51.904  55.993  1.00  0.00     0.006 C 
BRANCH  10  11
ATOM     11  C   UNL     1      34.289  51.736  54.566  1.00  0.00     0.053 C 
BRANCH  11  12
ATOM     12  C   UNL     1      33.222  51.860  53.521  1.00  0.00     0.041 C 
ATOM     13  O   UNL     1      32.009  51.911  53.861  1.00  0.00    -0.550 OA
ATOM     14  O   UNL     1      33.563  51.942  52.177  1.00  0.00    -0.550 OA
ENDBRANCH  11  12
ENDBRANCH  10  11
ENDBRANCH   9  10
ENDBRANCH   8   9
ENDBRANCH   7   8
ENDBRANCH   6   7
ENDBRANCH   5   6
ENDBRANCH   4   5
ENDBRANCH   3   4
ENDBRANCH   2   3
ENDBRANCH   1   2
BRANCH   1  15
ATOM     15  C   UNL     1      36.813  62.159  55.688  1.00  0.00     0.000 C 
BRANCH  15  16
ATOM     16  C   UNL     1      36.492  63.097  56.862  1.00  0.00     0.000 C 
BRANCH  16  17
ATOM     17  C   UNL     1      36.411  64.572  56.429  1.00  0.00     0.000 C 
BRANCH  17  18
ATOM     18  C   UNL     1      35.639  64.766  55.111  1.00  0.00    -0.000 C 
BRANCH  18  19
ATOM     19  C   UNL     1      35.340  66.233  54.743  1.00  0.00    -0.000 C 
BRANCH  19  20
ATOM     20  C   UNL     1      34.830  67.110  55.904  1.00  0.00    -0.000 C 
BRANCH  20  21
ATOM     21  C   UNL     1      33.365  66.865  56.306  1.00  0.00    -0.000 C 
BRANCH  21  22
ATOM     22  C   UNL     1      32.367  67.603  55.396  1.00  0.00    -0.000 C 
BRANCH  22  23
ATOM     23  C   UNL     1      31.728  66.665  54.348  1.00  0.00    -0.000 C 
BRANCH  23  24
ATOM     24  C   UNL     1      31.715  67.249  52.921  1.00  0.00    -0.000 C 
BRANCH  24  25
ATOM     25  C   UNL     1      32.958  68.078  52.554  1.00  0.00    -0.003 C 
ATOM     26  C   UNL     1      33.867  67.369  51.552  1.00  0.00     0.004 C 
ENDBRANCH  24  25
ENDBRANCH  23  24
ENDBRANCH  22  23
ENDBRANCH  21  22
ENDBRANCH  20  21
ENDBRANCH  19  20
ENDBRANCH  18  19
ENDBRANCH  17  18
ENDBRANCH  16  17
ENDBRANCH  15  16
ENDBRANCH   1  15
TORSDOF 22
ENDMDL
MODEL 7
REMARK VINA RESULT:    -4.504      1.544      2.278
REMARK INTER + INTRA:         -11.781
REMARK INTER:                 -10.286
REMARK INTRA:                  -1.495
REMARK UNBOUND:                -1.485
REMARK SMILES CCCCCCCCCCCCCCCCCCCCCCCC(=O)[O-]
REMARK SMILES IDX 13 1 14 2 15 3 16 4 17 5 18 6 19 7 20 8 21 9 22 10 23 11
REMARK SMILES IDX 24 12 25 13 26 14 12 15 11 16 10 17 9 18 8 19 7 20 6 21 5 22
REMARK SMILES IDX 4 23 3 24 2 25 1 26
REMARK H PARENT
REMARK Flexibility Score: inf
ROOT
ATOM      1  C   UNL     1      43.806  65.954  53.059  1.00  0.00     0.000 C 
ENDROOT
BRANCH   1   2
ATOM      2  C   UNL     1      44.710  65.133  52.129  1.00  0.00     0.000 C 
BRANCH   2   3
ATOM      3  C   UNL     1      45.193  65.935  50.909  1.00  0.00     0.000 C 
BRANCH   3   4
ATOM      4  C   UNL     1      44.814  67.425  50.989  1.00  0.00     0.000 C 
BRANCH   4   5
ATOM      5  C   UNL     1      43.686  67.827  50.016  1.00  0.00     0.000 C 
BRANCH   5   6
ATOM      6  C   UNL     1      43.680  66.967  48.742  1.00  0.00     0.000 C 
BRANCH   6   7
ATOM      7  C   UNL     1      42.729  67.507  47.660  1.00  0.00     0.000 C 
BRANCH   7   8
ATOM      8  C   UNL     1      41.451  66.658  47.483  1.00  0.00     0.000 C 
BRANCH   8   9
ATOM      9  C   UNL     1      41.368  66.011  46.090  1.00  0.00     0.000 C 
BRANCH   9  10
ATOM     10  C   UNL     1      41.907  64.569  46.061  1.00  0.00     0.006 C 
BRANCH  10  11
ATOM     11  C   UNL     1      43.381  64.460  45.634  1.00  0.00     0.053 C 
BRANCH  11  12
ATOM     12  C   UNL     1      43.736  65.415  44.535  1.00  0.00     0.041 C 
ATOM     13  O   UNL     1      44.506  66.386  44.766  1.00  0.00    -0.550 OA
ATOM     14  O   UNL     1      43.238  65.223  43.252  1.00  0.00    -0.550 OA
ENDBRANCH  11  12
ENDBRANCH  10  11
ENDBRANCH   9  10
ENDBRANCH   8   9
ENDBRANCH   7   8
ENDBRANCH   6   7
ENDBRANCH   5   6
ENDBRANCH   4   5
ENDBRANCH   3   4
ENDBRANCH   2   3
ENDBRANCH   1   2
BRANCH   1  15
ATOM     15  C   UNL     1      42.942  65.068  53.975  1.00  0.00     0.000 C 
BRANCH  15  16
ATOM     16  C   UNL     1      43.780  64.056  54.771  1.00  0.00     0.000 C 
BRANCH  16  17
ATOM     17  C   UNL     1      43.489  64.113  56.282  1.00  0.00     0.000 C 
BRANCH  17  18
ATOM     18  C   UNL     1      42.289  65.015  56.625  1.00  0.00    -0.000 C 
BRANCH  18  19
ATOM     19  C   UNL     1      41.161  64.324  57.416  1.00  0.00    -0.000 C 
BRANCH  19  20
ATOM     20  C   UNL     1      39.783  65.009  57.330  1.00  0.00    -0.000 C 
BRANCH  20  21
ATOM     21  C   UNL     1      38.658  64.133  56.754  1.00  0.00    -0.000 C 
BRANCH  21  22
ATOM     22  C   UNL     1      38.915  62.629  56.950  1.00  0.00    -0.000 C 
BRANCH  22  23
ATOM     23  C   UNL     1      38.222  61.771  55.869  1.00  0.00    -0.000 C 
BRANCH  23  24
ATOM     24  C   UNL     1      36.703  61.611  56.085  1.00  0.00    -0.000 C 
BRANCH  24  25
ATOM     25  C   UNL     1      36.210  60.154  56.127  1.00  0.00    -0.003 C 
ATOM     26  C   UNL     1      37.165  59.186  55.430  1.00  0.00     0.004 C 
ENDBRANCH  24  25
ENDBRANCH  23  24
ENDBRANCH  22  23
ENDBRANCH  21  22
ENDBRANCH  20  21
ENDBRANCH  19  20
ENDBRANCH  18  19
ENDBRANCH  17  18
ENDBRANCH  16  17
ENDBRANCH  15  16
ENDBRANCH   1  15
TORSDOF 22
ENDMDL
MODEL 8
REMARK VINA RESULT:    -4.483      3.668      9.282
REMARK INTER + INTRA:         -11.734
REMARK INTER:                  -9.146
REMARK INTRA:                  -2.588
REMARK UNBOUND:                -1.485
REMARK SMILES CCCCCCCCCCCCCCCCCCCCCCCC(=O)[O-]
REMARK SMILES IDX 13 1 14 2 15 3 16 4 17 5 18 6 19 7 20 8 21 9 22 10 23 11
REMARK SMILES IDX 24 12 25 13 26 14 12 15 11 16 10 17 9 18 8 19 7 20 6 21 5 22
REMARK SMILES IDX 4 23 3 24 2 25 1 26
REMARK H PARENT
REMARK Flexibility Score: inf
ROOT
ATOM      1  C   UNL     1      44.973  65.789  51.210  1.00  0.00     0.000 C 
ENDROOT
BRANCH   1   2
ATOM      2  C   UNL     1      44.506  65.137  52.520  1.00  0.00     0.000 C 
BRANCH   2   3
ATOM      3  C   UNL     1      43.385  65.929  53.211  1.00  0.00     0.000 C 
BRANCH   3   4
ATOM      4  C   UNL     1      42.702  65.134  54.339  1.00  0.00     0.000 C 
BRANCH   4   5
ATOM      5  C   UNL     1      43.600  64.039  54.952  1.00  0.00     0.000 C 
BRANCH   5   6
ATOM      6  C   UNL     1      43.755  64.197  56.474  1.00  0.00     0.000 C 
BRANCH   6   7
ATOM      7  C   UNL     1      42.763  65.208  57.074  1.00  0.00     0.000 C 
BRANCH   7   8
ATOM      8  C   UNL     1      41.792  64.585  58.100  1.00  0.00     0.000 C 
BRANCH   8   9
ATOM      9  C   UNL     1      40.486  64.097  57.448  1.00  0.00     0.000 C 
BRANCH   9  10
ATOM     10  C   UNL     1      39.808  65.172  56.579  1.00  0.00     0.006 C 
BRANCH  10  11
ATOM     11  C   UNL     1      38.962  64.604  55.427  1.00  0.00     0.053 C 
BRANCH  11  12
ATOM     12  C   UNL     1      37.649  64.054  55.892  1.00  0.00     0.041 C 
ATOM     13  O   UNL     1      36.753  64.832  56.316  1.00  0.00    -0.550 OA
ATOM     14  O   UNL     1      37.402  62.687  55.837  1.00  0.00    -0.550 OA
ENDBRANCH  11  12
ENDBRANCH  10  11
ENDBRANCH   9  10
ENDBRANCH   8   9
ENDBRANCH   7   8
ENDBRANCH   6   7
ENDBRANCH   5   6
ENDBRANCH   4   5
ENDBRANCH   3   4
ENDBRANCH   2   3
ENDBRANCH   1   2
BRANCH   1  15
ATOM     15  C   UNL     1      44.938  67.326  51.272  1.00  0.00     0.000 C 
BRANCH  15  16
ATOM     16  C   UNL     1      44.365  67.952  49.990  1.00  0.00     0.000 C 
BRANCH  16  17
ATOM     17  C   UNL     1      44.194  66.920  48.860  1.00  0.00     0.000 C 
BRANCH  17  18
ATOM     18  C   UNL     1      43.863  67.569  47.504  1.00  0.00    -0.000 C 
BRANCH  18  19
ATOM     19  C   UNL     1      44.216  66.713  46.271  1.00  0.00    -0.000 C 
BRANCH  19  20
ATOM     20  C   UNL     1      43.017  66.040  45.574  1.00  0.00    -0.000 C 
BRANCH  20  21
ATOM     21  C   UNL     1      42.471  64.791  46.288  1.00  0.00    -0.000 C 
BRANCH  21  22
ATOM     22  C   UNL     1      40.936  64.790  46.395  1.00  0.00    -0.000 C 
BRANCH  22  23
ATOM     23  C   UNL     1      40.438  65.534  47.654  1.00  0.00    -0.000 C 
BRANCH  23  24
ATOM     24  C   UNL     1      39.781  66.895  47.350  1.00  0.00    -0.000 C 
BRANCH  24  25
ATOM     25  C   UNL     1      40.418  68.093  48.077  1.00  0.00    -0.003 C 
ATOM     26  C   UNL     1      40.690  67.811  49.555  1.00  0.00     0.004 C 
ENDBRANCH  24  25
ENDBRANCH  23  24
ENDBRANCH  22  23
ENDBRANCH  21  22
ENDBRANCH  20  21
ENDBRANCH  19  20
ENDBRANCH  18  19
ENDBRANCH  17  18
ENDBRANCH  16  17
ENDBRANCH  15  16
ENDBRANCH   1  15
TORSDOF 22
ENDMDL
MODEL 9
REMARK VINA RESULT:    -4.472      4.703      8.544
REMARK INTER + INTRA:         -11.709
REMARK INTER:                  -8.853
REMARK INTRA:                  -2.857
REMARK UNBOUND:                -1.485
REMARK SMILES CCCCCCCCCCCCCCCCCCCCCCCC(=O)[O-]
REMARK SMILES IDX 13 1 14 2 15 3 16 4 17 5 18 6 19 7 20 8 21 9 22 10 23 11
REMARK SMILES IDX 24 12 25 13 26 14 12 15 11 16 10 17 9 18 8 19 7 20 6 21 5 22
REMARK SMILES IDX 4 23 3 24 2 25 1 26
REMARK H PARENT
REMARK Flexibility Score: inf
ROOT
ATOM      1  C   UNL     1      42.468  64.758  46.339  1.00  0.00     0.000 C 
ENDROOT
BRANCH   1   2
ATOM      2  C   UNL     1      42.889  65.031  44.887  1.00  0.00     0.000 C 
BRANCH   2   3
ATOM      3  C   UNL     1      42.246  66.304  44.312  1.00  0.00     0.000 C 
BRANCH   3   4
ATOM      4  C   UNL     1      43.140  67.546  44.470  1.00  0.00     0.000 C 
BRANCH   4   5
ATOM      5  C   UNL     1      44.628  67.210  44.707  1.00  0.00     0.000 C 
BRANCH   5   6
ATOM      6  C   UNL     1      45.563  68.046  43.817  1.00  0.00     0.000 C 
BRANCH   6   7
ATOM      7  C   UNL     1      46.795  67.259  43.339  1.00  0.00     0.000 C 
BRANCH   7   8
ATOM      8  C   UNL     1      46.452  65.868  42.761  1.00  0.00     0.000 C 
BRANCH   8   9
ATOM      9  C   UNL     1      45.636  65.962  41.459  1.00  0.00     0.000 C 
BRANCH   9  10
ATOM     10  C   UNL     1      44.327  65.152  41.507  1.00  0.00     0.006 C 
BRANCH  10  11
ATOM     11  C   UNL     1      43.674  64.936  40.132  1.00  0.00     0.053 C 
BRANCH  11  12
ATOM     12  C   UNL     1      42.198  65.188  40.148  1.00  0.00     0.041 C 
ATOM     13  O   UNL     1      41.747  66.275  40.599  1.00  0.00    -0.550 OA
ATOM     14  O   UNL     1      41.319  64.235  39.646  1.00  0.00    -0.550 OA
ENDBRANCH  11  12
ENDBRANCH  10  11
ENDBRANCH   9  10
ENDBRANCH   8   9
ENDBRANCH   7   8
ENDBRANCH   6   7
ENDBRANCH   5   6
ENDBRANCH   4   5
ENDBRANCH   3   4
ENDBRANCH   2   3
ENDBRANCH   1   2
BRANCH   1  15
ATOM     15  C   UNL     1      40.978  64.392  46.461  1.00  0.00     0.000 C 
BRANCH  15  16
ATOM     16  C   UNL     1      40.270  65.183  47.573  1.00  0.00     0.000 C 
BRANCH  16  17
ATOM     17  C   UNL     1      40.363  66.705  47.360  1.00  0.00     0.000 C 
BRANCH  17  18
ATOM     18  C   UNL     1      40.243  67.500  48.672  1.00  0.00    -0.000 C 
BRANCH  18  19
ATOM     19  C   UNL     1      41.587  67.879  49.328  1.00  0.00    -0.000 C 
BRANCH  19  20
ATOM     20  C   UNL     1      42.821  67.754  48.414  1.00  0.00    -0.000 C 
BRANCH  20  21
ATOM     21  C   UNL     1      43.920  66.811  48.934  1.00  0.00    -0.000 C 
BRANCH  21  22
ATOM     22  C   UNL     1      44.338  67.126  50.381  1.00  0.00    -0.000 C 
BRANCH  22  23
ATOM     23  C   UNL     1      45.447  66.177  50.889  1.00  0.00    -0.000 C 
BRANCH  23  24
ATOM     24  C   UNL     1      44.961  65.165  51.945  1.00  0.00    -0.000 C 
BRANCH  24  25
ATOM     25  C   UNL     1      43.738  65.622  52.760  1.00  0.00    -0.003 C 
ATOM     26  C   UNL     1      43.563  64.832  54.057  1.00  0.00     0.004 C 
ENDBRANCH  24  25
ENDBRANCH  23  24
ENDBRANCH  22  23
ENDBRANCH  21  22
ENDBRANCH  20  21
ENDBRANCH  19  20
ENDBRANCH  18  19
ENDBRANCH  17  18
ENDBRANCH  16  17
ENDBRANCH  15  16
ENDBRANCH   1  15
TORSDOF 22
ENDMDL
