MODEL 1
REMARK VINA RESULT:    -2.811      0.000      0.000
REMARK INTER + INTRA:          -7.914
REMARK INTER:                  -5.275
REMARK INTRA:                  -2.639
REMARK UNBOUND:                -2.639
REMARK SMILES CCCCCCCCC=CCCCCCCCC(=O)[O-]
REMARK SMILES IDX 10 1 9 2 11 3 12 4 13 5 14 6 15 7 16 8 17 9 18 10 19 11
REMARK SMILES IDX 20 12 8 13 7 14 6 15 5 16 4 17 3 18 2 19 1 20
REMARK H PARENT
REMARK Flexibility Score: inf
ROOT
ATOM      1  C   UNL     1     141.844 -37.488  68.030  1.00  0.00    -0.031 C 
ATOM      2  C   UNL     1     142.263 -37.086  66.822  1.00  0.00    -0.031 C 
ENDROOT
BRANCH   1   3
ATOM      3  C   UNL     1     142.229 -36.752  69.286  1.00  0.00     0.027 C 
BRANCH   3   4
ATOM      4  C   UNL     1     143.677 -36.233  69.249  1.00  0.00     0.004 C 
BRANCH   4   5
ATOM      5  C   UNL     1     143.804 -34.709  69.050  1.00  0.00     0.000 C 
BRANCH   5   6
ATOM      6  C   UNL     1     142.534 -33.900  69.380  1.00  0.00     0.000 C 
BRANCH   6   7
ATOM      7  C   UNL     1     142.412 -33.453  70.848  1.00  0.00     0.000 C 
BRANCH   7   8
ATOM      8  C   UNL     1     141.605 -32.156  71.010  1.00  0.00     0.006 C 
BRANCH   8   9
ATOM      9  C   UNL     1     140.752 -31.883  69.768  1.00  0.00     0.053 C 
BRANCH   9  10
ATOM     10  C   UNL     1     139.297 -31.907  70.113  1.00  0.00     0.041 C 
ATOM     11  O   UNL     1     138.932 -31.911  71.319  1.00  0.00    -0.550 OA
ATOM     12  O   UNL     1     138.342 -31.974  69.106  1.00  0.00    -0.550 OA
ENDBRANCH   9  10
ENDBRANCH   8   9
ENDBRANCH   7   8
ENDBRANCH   6   7
ENDBRANCH   5   6
ENDBRANCH   4   5
ENDBRANCH   3   4
ENDBRANCH   1   3
BRANCH   2  13
ATOM     13  C   UNL     1     141.862 -37.839  65.581  1.00  0.00     0.027 C 
BRANCH  13  14
ATOM     14  C   UNL     1     140.659 -37.199  64.876  1.00  0.00     0.004 C 
BRANCH  14  15
ATOM     15  C   UNL     1     140.700 -35.662  64.947  1.00  0.00     0.000 C 
BRANCH  15  16
ATOM     16  C   UNL     1     139.437 -35.063  65.588  1.00  0.00     0.000 C 
BRANCH  16  17
ATOM     17  C   UNL     1     139.679 -34.570  67.024  1.00  0.00    -0.000 C 
BRANCH  17  18
ATOM     18  C   UNL     1     138.788 -35.285  68.052  1.00  0.00    -0.000 C 
BRANCH  18  19
ATOM     19  C   UNL     1     138.092 -36.526  67.472  1.00  0.00    -0.003 C 
ATOM     20  C   UNL     1     138.221 -37.718  68.417  1.00  0.00     0.004 C 
ENDBRANCH  18  19
ENDBRANCH  17  18
ENDBRANCH  16  17
ENDBRANCH  15  16
ENDBRANCH  14  15
ENDBRANCH  13  14
ENDBRANCH   2  13
TORSDOF 15
ENDMDL
MODEL 2
REMARK VINA RESULT:    -2.788     17.520     19.739
REMARK INTER + INTRA:          -7.872
REMARK INTER:                  -4.809
REMARK INTRA:                  -3.063
REMARK UNBOUND:                -2.639
REMARK SMILES CCCCCCCCC=CCCCCCCCC(=O)[O-]
REMARK SMILES IDX 10 1 9 2 11 3 12 4 13 5 14 6 15 7 16 8 17 9 18 10 19 11
REMARK SMILES IDX 20 12 8 13 7 14 6 15 5 16 4 17 3 18 2 19 1 20
REMARK H PARENT
REMARK Flexibility Score: inf
ROOT
ATOM      1  C   UNL     1     125.846 -36.162  80.594  1.00  0.00    -0.031 C 
ATOM      2  C   UNL     1     125.254 -36.160  81.796  1.00  0.00    -0.031 C 
ENDROOT
BRANCH   1   3
ATOM      3  C   UNL     1     125.869 -34.935  79.722  1.00  0.00     0.027 C 
BRANCH   3   4
ATOM      4  C   UNL     1     124.875 -33.857  80.189  1.00  0.00     0.004 C 
BRANCH   4   5
ATOM      5  C   UNL     1     125.522 -32.502  80.542  1.00  0.00     0.000 C 
BRANCH   5   6
ATOM      6  C   UNL     1     125.931 -32.340  82.019  1.00  0.00     0.000 C 
BRANCH   6   7
ATOM      7  C   UNL     1     127.341 -32.852  82.363  1.00  0.00     0.000 C 
BRANCH   7   8
ATOM      8  C   UNL     1     128.349 -32.632  81.225  1.00  0.00     0.006 C 
BRANCH   8   9
ATOM      9  C   UNL     1     129.490 -33.649  81.300  1.00  0.00     0.053 C 
BRANCH   9  10
ATOM     10  C   UNL     1     130.533 -33.200  82.276  1.00  0.00     0.041 C 
ATOM     11  O   UNL     1     130.771 -33.883  83.306  1.00  0.00    -0.550 OA
ATOM     12  O   UNL     1     131.206 -32.003  82.073  1.00  0.00    -0.550 OA
ENDBRANCH   9  10
ENDBRANCH   8   9
ENDBRANCH   7   8
ENDBRANCH   6   7
ENDBRANCH   5   6
ENDBRANCH   4   5
ENDBRANCH   3   4
ENDBRANCH   1   3
BRANCH   2  13
ATOM     13  C   UNL     1     125.246 -37.401  82.650  1.00  0.00     0.027 C 
BRANCH  13  14
ATOM     14  C   UNL     1     125.858 -37.156  84.036  1.00  0.00     0.004 C 
BRANCH  14  15
ATOM     15  C   UNL     1     126.383 -35.717  84.188  1.00  0.00     0.000 C 
BRANCH  15  16
ATOM     16  C   UNL     1     127.906 -35.660  84.396  1.00  0.00     0.000 C 
BRANCH  16  17
ATOM     17  C   UNL     1     128.549 -37.056  84.438  1.00  0.00    -0.000 C 
BRANCH  17  18
ATOM     18  C   UNL     1     129.705 -37.203  83.435  1.00  0.00    -0.000 C 
BRANCH  18  19
ATOM     19  C   UNL     1     129.220 -37.289  81.979  1.00  0.00    -0.003 C 
ATOM     20  C   UNL     1     128.591 -38.650  81.690  1.00  0.00     0.004 C 
ENDBRANCH  18  19
ENDBRANCH  17  18
ENDBRANCH  16  17
ENDBRANCH  15  16
ENDBRANCH  14  15
ENDBRANCH  13  14
ENDBRANCH   2  13
TORSDOF 15
ENDMDL
MODEL 3
REMARK VINA RESULT:    -2.773     17.339     19.654
REMARK INTER + INTRA:          -7.844
REMARK INTER:                  -4.499
REMARK INTRA:                  -3.346
REMARK UNBOUND:                -2.639
REMARK SMILES CCCCCCCCC=CCCCCCCCC(=O)[O-]
REMARK SMILES IDX 10 1 9 2 11 3 12 4 13 5 14 6 15 7 16 8 17 9 18 10 19 11
REMARK SMILES IDX 20 12 8 13 7 14 6 15 5 16 4 17 3 18 2 19 1 20
REMARK H PARENT
REMARK Flexibility Score: inf
ROOT
ATOM      1  C   UNL     1     128.213 -37.161  80.563  1.00  0.00    -0.031 C 
ATOM      2  C   UNL     1     127.419 -36.085  80.636  1.00  0.00    -0.031 C 
ENDROOT
BRANCH   1   3
ATOM      3  C   UNL     1     129.130 -37.546  81.693  1.00  0.00     0.027 C 
BRANCH   3   4
ATOM      4  C   UNL     1     130.095 -36.412  82.086  1.00  0.00     0.004 C 
BRANCH   4   5
ATOM      5  C   UNL     1     129.910 -35.888  83.525  1.00  0.00     0.000 C 
BRANCH   5   6
ATOM      6  C   UNL     1     128.677 -36.441  84.267  1.00  0.00     0.000 C 
BRANCH   6   7
ATOM      7  C   UNL     1     127.533 -35.431  84.469  1.00  0.00     0.000 C 
BRANCH   7   8
ATOM      8  C   UNL     1     126.156 -36.015  84.120  1.00  0.00     0.006 C 
BRANCH   8   9
ATOM      9  C   UNL     1     126.218 -37.541  84.020  1.00  0.00     0.053 C 
BRANCH   9  10
ATOM     10  C   UNL     1     125.293 -38.036  82.952  1.00  0.00     0.041 C 
ATOM     11  O   UNL     1     124.490 -37.243  82.394  1.00  0.00    -0.550 OA
ATOM     12  O   UNL     1     125.282 -39.382  82.608  1.00  0.00    -0.550 OA
ENDBRANCH   9  10
ENDBRANCH   8   9
ENDBRANCH   7   8
ENDBRANCH   6   7
ENDBRANCH   5   6
ENDBRANCH   4   5
ENDBRANCH   3   4
ENDBRANCH   1   3
BRANCH   2  13
ATOM     13  C   UNL     1     126.509 -35.723  79.491  1.00  0.00     0.027 C 
BRANCH  13  14
ATOM     14  C   UNL     1     125.690 -34.458  79.779  1.00  0.00     0.004 C 
BRANCH  14  15
ATOM     15  C   UNL     1     125.793 -34.027  81.253  1.00  0.00     0.000 C 
BRANCH  15  16
ATOM     16  C   UNL     1     125.728 -32.501  81.432  1.00  0.00     0.000 C 
BRANCH  16  17
ATOM     17  C   UNL     1     127.112 -31.875  81.671  1.00  0.00    -0.000 C 
BRANCH  17  18
ATOM     18  C   UNL     1     128.189 -32.926  81.987  1.00  0.00    -0.000 C 
BRANCH  18  19
ATOM     19  C   UNL     1     129.539 -32.610  81.326  1.00  0.00    -0.003 C 
ATOM     20  C   UNL     1     129.667 -33.311  79.976  1.00  0.00     0.004 C 
ENDBRANCH  18  19
ENDBRANCH  17  18
ENDBRANCH  16  17
ENDBRANCH  15  16
ENDBRANCH  14  15
ENDBRANCH  13  14
ENDBRANCH   2  13
TORSDOF 15
ENDMDL
MODEL 4
REMARK VINA RESULT:    -2.723     18.679     20.451
REMARK INTER + INTRA:          -7.750
REMARK INTER:                  -4.735
REMARK INTRA:                  -3.014
REMARK UNBOUND:                -2.639
REMARK SMILES CCCCCCCCC=CCCCCCCCC(=O)[O-]
REMARK SMILES IDX 10 1 9 2 11 3 12 4 13 5 14 6 15 7 16 8 17 9 18 10 19 11
REMARK SMILES IDX 20 12 8 13 7 14 6 15 5 16 4 17 3 18 2 19 1 20
REMARK H PARENT
REMARK Flexibility Score: inf
ROOT
ATOM      1  C   UNL     1     125.656 -35.755  82.634  1.00  0.00    -0.031 C 
ATOM      2  C   UNL     1     126.464 -35.811  81.567  1.00  0.00    -0.031 C 
ENDROOT
BRANCH   1   3
ATOM      3  C   UNL     1     126.170 -35.995  84.029  1.00  0.00     0.027 C 
BRANCH   3   4
ATOM      4  C   UNL     1     127.552 -35.363  84.269  1.00  0.00     0.004 C 
BRANCH   4   5
ATOM      5  C   UNL     1     128.694 -36.382  84.466  1.00  0.00     0.000 C 
BRANCH   5   6
ATOM      6  C   UNL     1     128.240 -37.845  84.633  1.00  0.00     0.000 C 
BRANCH   6   7
ATOM      7  C   UNL     1     128.817 -38.827  83.597  1.00  0.00     0.000 C 
BRANCH   7   8
ATOM      8  C   UNL     1     127.898 -39.017  82.381  1.00  0.00     0.006 C 
BRANCH   8   9
ATOM      9  C   UNL     1     126.721 -39.935  82.723  1.00  0.00     0.053 C 
BRANCH   9  10
ATOM     10  C   UNL     1     125.439 -39.360  82.209  1.00  0.00     0.041 C 
ATOM     11  O   UNL     1     125.281 -39.169  80.974  1.00  0.00    -0.550 OA
ATOM     12  O   UNL     1     124.437 -38.989  83.095  1.00  0.00    -0.550 OA
ENDBRANCH   9  10
ENDBRANCH   8   9
ENDBRANCH   7   8
ENDBRANCH   6   7
ENDBRANCH   5   6
ENDBRANCH   4   5
ENDBRANCH   3   4
ENDBRANCH   1   3
BRANCH   2  13
ATOM     13  C   UNL     1     125.925 -35.566  80.182  1.00  0.00     0.027 C 
BRANCH  13  14
ATOM     14  C   UNL     1     124.720 -34.616  80.188  1.00  0.00     0.004 C 
BRANCH  14  15
ATOM     15  C   UNL     1     124.896 -33.455  79.192  1.00  0.00     0.000 C 
BRANCH  15  16
ATOM     16  C   UNL     1     125.594 -32.237  79.818  1.00  0.00     0.000 C 
BRANCH  16  17
ATOM     17  C   UNL     1     125.344 -32.125  81.331  1.00  0.00    -0.000 C 
BRANCH  17  18
ATOM     18  C   UNL     1     126.643 -32.177  82.150  1.00  0.00    -0.000 C 
BRANCH  18  19
ATOM     19  C   UNL     1     127.901 -32.185  81.267  1.00  0.00    -0.003 C 
ATOM     20  C   UNL     1     128.974 -33.102  81.850  1.00  0.00     0.004 C 
ENDBRANCH  18  19
ENDBRANCH  17  18
ENDBRANCH  16  17
ENDBRANCH  15  16
ENDBRANCH  14  15
ENDBRANCH  13  14
ENDBRANCH   2  13
TORSDOF 15
ENDMDL
MODEL 5
REMARK VINA RESULT:    -2.674     17.160     19.679
REMARK INTER + INTRA:          -7.658
REMARK INTER:                  -4.430
REMARK INTRA:                  -3.228
REMARK UNBOUND:                -2.639
REMARK SMILES CCCCCCCCC=CCCCCCCCC(=O)[O-]
REMARK SMILES IDX 10 1 9 2 11 3 12 4 13 5 14 6 15 7 16 8 17 9 18 10 19 11
REMARK SMILES IDX 20 12 8 13 7 14 6 15 5 16 4 17 3 18 2 19 1 20
REMARK H PARENT
REMARK Flexibility Score: inf
ROOT
ATOM      1  C   UNL     1     125.170 -35.934  81.591  1.00  0.00    -0.031 C 
ATOM      2  C   UNL     1     125.591 -35.908  80.320  1.00  0.00    -0.031 C 
ENDROOT
BRANCH   1   3
ATOM      3  C   UNL     1     125.124 -37.213  82.384  1.00  0.00     0.027 C 
BRANCH   3   4
ATOM      4  C   UNL     1     125.855 -37.102  83.733  1.00  0.00     0.004 C 
BRANCH   4   5
ATOM      5  C   UNL     1     126.258 -35.665  84.124  1.00  0.00     0.000 C 
BRANCH   5   6
ATOM      6  C   UNL     1     127.741 -35.484  84.503  1.00  0.00     0.000 C 
BRANCH   6   7
ATOM      7  C   UNL     1     128.686 -36.579  83.977  1.00  0.00     0.000 C 
BRANCH   7   8
ATOM      8  C   UNL     1     129.424 -36.163  82.697  1.00  0.00     0.006 C 
BRANCH   8   9
ATOM      9  C   UNL     1     128.871 -36.908  81.479  1.00  0.00     0.053 C 
BRANCH   9  10
ATOM     10  C   UNL     1     129.025 -38.387  81.653  1.00  0.00     0.041 C 
ATOM     11  O   UNL     1     128.011 -39.134  81.642  1.00  0.00    -0.550 OA
ATOM     12  O   UNL     1     130.282 -38.935  81.875  1.00  0.00    -0.550 OA
ENDBRANCH   9  10
ENDBRANCH   8   9
ENDBRANCH   7   8
ENDBRANCH   6   7
ENDBRANCH   5   6
ENDBRANCH   4   5
ENDBRANCH   3   4
ENDBRANCH   1   3
BRANCH   2  13
ATOM     13  C   UNL     1     125.629 -34.614  79.549  1.00  0.00     0.027 C 
BRANCH  13  14
ATOM     14  C   UNL     1     124.815 -33.508  80.234  1.00  0.00     0.004 C 
BRANCH  14  15
ATOM     15  C   UNL     1     125.695 -32.311  80.638  1.00  0.00     0.000 C 
BRANCH  15  16
ATOM     16  C   UNL     1     126.219 -32.420  82.079  1.00  0.00     0.000 C 
BRANCH  16  17
ATOM     17  C   UNL     1     127.690 -32.865  82.142  1.00  0.00    -0.000 C 
BRANCH  17  18
ATOM     18  C   UNL     1     128.548 -32.220  81.042  1.00  0.00    -0.000 C 
BRANCH  18  19
ATOM     19  C   UNL     1     129.660 -33.152  80.535  1.00  0.00    -0.003 C 
ATOM     20  C   UNL     1     129.224 -33.889  79.271  1.00  0.00     0.004 C 
ENDBRANCH  18  19
ENDBRANCH  17  18
ENDBRANCH  16  17
ENDBRANCH  15  16
ENDBRANCH  14  15
ENDBRANCH  13  14
ENDBRANCH   2  13
TORSDOF 15
ENDMDL
MODEL 6
REMARK VINA RESULT:    -2.671     12.704     14.618
REMARK INTER + INTRA:          -7.653
REMARK INTER:                  -4.407
REMARK INTRA:                  -3.246
REMARK UNBOUND:                -2.639
REMARK SMILES CCCCCCCCC=CCCCCCCCC(=O)[O-]
REMARK SMILES IDX 10 1 9 2 11 3 12 4 13 5 14 6 15 7 16 8 17 9 18 10 19 11
REMARK SMILES IDX 20 12 8 13 7 14 6 15 5 16 4 17 3 18 2 19 1 20
REMARK H PARENT
REMARK Flexibility Score: inf
ROOT
ATOM      1  C   UNL     1     140.740 -50.118  67.862  1.00  0.00    -0.031 C 
ATOM      2  C   UNL     1     140.055 -50.647  68.884  1.00  0.00    -0.031 C 
ENDROOT
BRANCH   1   3
ATOM      3  C   UNL     1     141.895 -49.179  68.086  1.00  0.00     0.027 C 
BRANCH   3   4
ATOM      4  C   UNL     1     141.674 -47.800  67.439  1.00  0.00     0.004 C 
BRANCH   4   5
ATOM      5  C   UNL     1     141.888 -46.606  68.392  1.00  0.00     0.000 C 
BRANCH   5   6
ATOM      6  C   UNL     1     142.189 -46.986  69.856  1.00  0.00     0.000 C 
BRANCH   6   7
ATOM      7  C   UNL     1     140.998 -46.852  70.821  1.00  0.00     0.000 C 
BRANCH   7   8
ATOM      8  C   UNL     1     140.691 -48.156  71.572  1.00  0.00     0.006 C 
BRANCH   8   9
ATOM      9  C   UNL     1     141.946 -49.025  71.696  1.00  0.00     0.053 C 
BRANCH   9  10
ATOM     10  C   UNL     1     141.711 -50.157  72.646  1.00  0.00     0.041 C 
ATOM     11  O   UNL     1     142.406 -50.260  73.691  1.00  0.00    -0.550 OA
ATOM     12  O   UNL     1     140.759 -51.125  72.355  1.00  0.00    -0.550 OA
ENDBRANCH   9  10
ENDBRANCH   8   9
ENDBRANCH   7   8
ENDBRANCH   6   7
ENDBRANCH   5   6
ENDBRANCH   4   5
ENDBRANCH   3   4
ENDBRANCH   1   3
BRANCH   2  13
ATOM     13  C   UNL     1     138.903 -51.585  68.632  1.00  0.00     0.027 C 
BRANCH  13  14
ATOM     14  C   UNL     1     138.480 -51.602  67.157  1.00  0.00     0.004 C 
BRANCH  14  15
ATOM     15  C   UNL     1     137.132 -50.891  66.936  1.00  0.00     0.000 C 
BRANCH  15  16
ATOM     16  C   UNL     1     137.196 -49.833  65.821  1.00  0.00     0.000 C 
BRANCH  16  17
ATOM     17  C   UNL     1     138.081 -48.633  66.194  1.00  0.00    -0.000 C 
BRANCH  17  18
ATOM     18  C   UNL     1     137.382 -47.663  67.160  1.00  0.00    -0.000 C 
BRANCH  18  19
ATOM     19  C   UNL     1     138.165 -47.459  68.467  1.00  0.00    -0.003 C 
ATOM     20  C   UNL     1     137.480 -48.168  69.633  1.00  0.00     0.004 C 
ENDBRANCH  18  19
ENDBRANCH  17  18
ENDBRANCH  16  17
ENDBRANCH  15  16
ENDBRANCH  14  15
ENDBRANCH  13  14
ENDBRANCH   2  13
TORSDOF 15
ENDMDL
MODEL 7
REMARK VINA RESULT:    -2.664     12.402     14.411
REMARK INTER + INTRA:          -7.639
REMARK INTER:                  -4.472
REMARK INTRA:                  -3.167
REMARK UNBOUND:                -2.639
REMARK SMILES CCCCCCCCC=CCCCCCCCC(=O)[O-]
REMARK SMILES IDX 10 1 9 2 11 3 12 4 13 5 14 6 15 7 16 8 17 9 18 10 19 11
REMARK SMILES IDX 20 12 8 13 7 14 6 15 5 16 4 17 3 18 2 19 1 20
REMARK H PARENT
REMARK Flexibility Score: inf
ROOT
ATOM      1  C   UNL     1     140.694 -49.866  68.344  1.00  0.00    -0.031 C 
ATOM      2  C   UNL     1     140.017 -50.886  67.801  1.00  0.00    -0.031 C 
ENDROOT
BRANCH   1   3
ATOM      3  C   UNL     1     141.626 -49.011  67.527  1.00  0.00     0.027 C 
BRANCH   3   4
ATOM      4  C   UNL     1     141.227 -47.524  67.535  1.00  0.00     0.004 C 
BRANCH   4   5
ATOM      5  C   UNL     1     142.257 -46.591  68.205  1.00  0.00     0.000 C 
BRANCH   5   6
ATOM      6  C   UNL     1     142.523 -46.876  69.696  1.00  0.00     0.000 C 
BRANCH   6   7
ATOM      7  C   UNL     1     141.322 -46.638  70.628  1.00  0.00     0.000 C 
BRANCH   7   8
ATOM      8  C   UNL     1     140.811 -47.929  71.284  1.00  0.00     0.006 C 
BRANCH   8   9
ATOM      9  C   UNL     1     141.975 -48.849  71.661  1.00  0.00     0.053 C 
BRANCH   9  10
ATOM     10  C   UNL     1     142.506 -48.497  73.016  1.00  0.00     0.041 C 
ATOM     11  O   UNL     1     141.769 -48.604  74.031  1.00  0.00    -0.550 OA
ATOM     12  O   UNL     1     143.797 -48.004  73.151  1.00  0.00    -0.550 OA
ENDBRANCH   9  10
ENDBRANCH   8   9
ENDBRANCH   7   8
ENDBRANCH   6   7
ENDBRANCH   5   6
ENDBRANCH   4   5
ENDBRANCH   3   4
ENDBRANCH   1   3
BRANCH   2  13
ATOM     13  C   UNL     1     139.090 -51.726  68.640  1.00  0.00     0.027 C 
BRANCH  13  14
ATOM     14  C   UNL     1     139.144 -51.342  70.125  1.00  0.00     0.004 C 
BRANCH  14  15
ATOM     15  C   UNL     1     137.769 -50.898  70.656  1.00  0.00     0.000 C 
BRANCH  15  16
ATOM     16  C   UNL     1     137.033 -49.961  69.684  1.00  0.00     0.000 C 
BRANCH  16  17
ATOM     17  C   UNL     1     137.488 -48.498  69.814  1.00  0.00    -0.000 C 
BRANCH  17  18
ATOM     18  C   UNL     1     137.657 -47.809  68.450  1.00  0.00    -0.000 C 
BRANCH  18  19
ATOM     19  C   UNL     1     137.112 -48.653  67.287  1.00  0.00    -0.003 C 
ATOM     20  C   UNL     1     137.915 -48.410  66.011  1.00  0.00     0.004 C 
ENDBRANCH  18  19
ENDBRANCH  17  18
ENDBRANCH  16  17
ENDBRANCH  15  16
ENDBRANCH  14  15
ENDBRANCH  13  14
ENDBRANCH   2  13
TORSDOF 15
ENDMDL
MODEL 8
REMARK VINA RESULT:    -2.653     17.784     20.322
REMARK INTER + INTRA:          -7.618
REMARK INTER:                  -4.631
REMARK INTRA:                  -2.987
REMARK UNBOUND:                -2.639
REMARK SMILES CCCCCCCCC=CCCCCCCCC(=O)[O-]
REMARK SMILES IDX 10 1 9 2 11 3 12 4 13 5 14 6 15 7 16 8 17 9 18 10 19 11
REMARK SMILES IDX 20 12 8 13 7 14 6 15 5 16 4 17 3 18 2 19 1 20
REMARK H PARENT
REMARK Flexibility Score: inf
ROOT
ATOM      1  C   UNL     1     128.018 -34.098  82.952  1.00  0.00    -0.031 C 
ATOM      2  C   UNL     1     128.492 -33.252  82.028  1.00  0.00    -0.031 C 
ENDROOT
BRANCH   1   3
ATOM      3  C   UNL     1     128.870 -35.197  83.530  1.00  0.00     0.027 C 
BRANCH   3   4
ATOM      4  C   UNL     1     128.049 -36.227  84.327  1.00  0.00     0.004 C 
BRANCH   4   5
ATOM      5  C   UNL     1     126.534 -35.939  84.371  1.00  0.00     0.000 C 
BRANCH   5   6
ATOM      6  C   UNL     1     125.652 -36.977  83.649  1.00  0.00     0.000 C 
BRANCH   6   7
ATOM      7  C   UNL     1     125.872 -38.435  84.089  1.00  0.00     0.000 C 
BRANCH   7   8
ATOM      8  C   UNL     1     126.203 -39.368  82.915  1.00  0.00     0.006 C 
BRANCH   8   9
ATOM      9  C   UNL     1     127.718 -39.503  82.734  1.00  0.00     0.053 C 
BRANCH   9  10
ATOM     10  C   UNL     1     128.271 -40.527  83.675  1.00  0.00     0.041 C 
ATOM     11  O   UNL     1     127.777 -41.685  83.711  1.00  0.00    -0.550 OA
ATOM     12  O   UNL     1     129.297 -40.189  84.547  1.00  0.00    -0.550 OA
ENDBRANCH   9  10
ENDBRANCH   8   9
ENDBRANCH   7   8
ENDBRANCH   6   7
ENDBRANCH   5   6
ENDBRANCH   4   5
ENDBRANCH   3   4
ENDBRANCH   1   3
BRANCH   2  13
ATOM     13  C   UNL     1     127.619 -32.161  81.467  1.00  0.00     0.027 C 
BRANCH  13  14
ATOM     14  C   UNL     1     126.142 -32.353  81.833  1.00  0.00     0.004 C 
BRANCH  14  15
ATOM     15  C   UNL     1     125.319 -32.887  80.646  1.00  0.00     0.000 C 
BRANCH  15  16
ATOM     16  C   UNL     1     125.068 -34.402  80.732  1.00  0.00     0.000 C 
BRANCH  16  17
ATOM     17  C   UNL     1     125.896 -35.197  79.710  1.00  0.00    -0.000 C 
BRANCH  17  18
ATOM     18  C   UNL     1     126.455 -36.504  80.293  1.00  0.00    -0.000 C 
BRANCH  18  19
ATOM     19  C   UNL     1     127.987 -36.589  80.198  1.00  0.00    -0.003 C 
ATOM     20  C   UNL     1     128.528 -35.601  79.167  1.00  0.00     0.004 C 
ENDBRANCH  18  19
ENDBRANCH  17  18
ENDBRANCH  16  17
ENDBRANCH  15  16
ENDBRANCH  14  15
ENDBRANCH  13  14
ENDBRANCH   2  13
TORSDOF 15
ENDMDL
MODEL 9
REMARK VINA RESULT:    -2.649     10.752     13.162
REMARK INTER + INTRA:          -7.611
REMARK INTER:                  -4.431
REMARK INTRA:                  -3.180
REMARK UNBOUND:                -2.639
REMARK SMILES CCCCCCCCC=CCCCCCCCC(=O)[O-]
REMARK SMILES IDX 10 1 9 2 11 3 12 4 13 5 14 6 15 7 16 8 17 9 18 10 19 11
REMARK SMILES IDX 20 12 8 13 7 14 6 15 5 16 4 17 3 18 2 19 1 20
REMARK H PARENT
REMARK Flexibility Score: inf
ROOT
ATOM      1  C   UNL     1     142.106 -46.732  67.521  1.00  0.00    -0.031 C 
ATOM      2  C   UNL     1     141.346 -47.759  67.120  1.00  0.00    -0.031 C 
ENDROOT
BRANCH   1   3
ATOM      3  C   UNL     1     141.939 -45.351  66.944  1.00  0.00     0.027 C 
BRANCH   3   4
ATOM      4  C   UNL     1     140.984 -45.324  65.738  1.00  0.00     0.004 C 
BRANCH   4   5
ATOM      5  C   UNL     1     139.613 -44.677  66.023  1.00  0.00     0.000 C 
BRANCH   5   6
ATOM      6  C   UNL     1     138.404 -45.622  65.884  1.00  0.00     0.000 C 
BRANCH   6   7
ATOM      7  C   UNL     1     137.849 -46.169  67.211  1.00  0.00     0.000 C 
BRANCH   7   8
ATOM      8  C   UNL     1     138.449 -45.471  68.440  1.00  0.00     0.006 C 
BRANCH   8   9
ATOM      9  C   UNL     1     138.805 -46.487  69.528  1.00  0.00     0.053 C 
BRANCH   9  10
ATOM     10  C   UNL     1     139.874 -45.946  70.424  1.00  0.00     0.041 C 
ATOM     11  O   UNL     1     140.419 -44.841  70.163  1.00  0.00    -0.550 OA
ATOM     12  O   UNL     1     140.305 -46.684  71.519  1.00  0.00    -0.550 OA
ENDBRANCH   9  10
ENDBRANCH   8   9
ENDBRANCH   7   8
ENDBRANCH   6   7
ENDBRANCH   5   6
ENDBRANCH   4   5
ENDBRANCH   3   4
ENDBRANCH   1   3
BRANCH   2  13
ATOM     13  C   UNL     1     141.533 -49.130  67.714  1.00  0.00     0.027 C 
BRANCH  13  14
ATOM     14  C   UNL     1     141.579 -49.097  69.248  1.00  0.00     0.004 C 
BRANCH  14  15
ATOM     15  C   UNL     1     140.405 -49.870  69.877  1.00  0.00     0.000 C 
BRANCH  15  16
ATOM     16  C   UNL     1     139.775 -50.884  68.907  1.00  0.00     0.000 C 
BRANCH  16  17
ATOM     17  C   UNL     1     138.239 -50.845  68.927  1.00  0.00    -0.000 C 
BRANCH  17  18
ATOM     18  C   UNL     1     137.664 -49.755  68.008  1.00  0.00    -0.000 C 
BRANCH  18  19
ATOM     19  C   UNL     1     138.175 -49.867  66.563  1.00  0.00    -0.003 C 
ATOM     20  C   UNL     1     137.094 -49.454  65.566  1.00  0.00     0.004 C 
ENDBRANCH  18  19
ENDBRANCH  17  18
ENDBRANCH  16  17
ENDBRANCH  15  16
ENDBRANCH  14  15
ENDBRANCH  13  14
ENDBRANCH   2  13
TORSDOF 15
ENDMDL
