MODEL 1
REMARK VINA RESULT:    28.625      0.000      0.000
REMARK INTER + INTRA:          46.142
REMARK INTER:                  47.033
REMARK INTRA:                  -0.891
REMARK UNBOUND:                -0.891
REMARK SMILES C[C@H]1O[C@H](OC[C@@H]2O[C@H](Oc3c(-c4ccc(O)c(O)c4)oc4cc(O)cc(O)c4c3=O)[C@H](O)[C@@H](O)[C@@H]2O)[C@@H](O)[C@H](O)[C@H]1O
REMARK SMILES IDX 7 1 36 2 34 3 32 4 9 5 8 6 6 7 5 8 4 9 1 10 2 11 42 12 3 13
REMARK SMILES IDX 40 14 38 15 43 16 41 18 39 20 37 22 35 24 10 26 11 27 12 28
REMARK SMILES IDX 30 29 21 30 29 31 31 32 22 33 27 34 23 35 26 36 24 37 13 38
REMARK SMILES IDX 20 39 14 40 18 41 15 42 16 43 19 44 17 46 28 48 25 50 33 52
REMARK H PARENT 43 17 41 19 39 21 37 23 35 25 19 45 17 47 28 49 25 51 33 53
REMARK Flexibility Score: inf
ROOT
ATOM      1  C   UNL     1     111.456 107.828 107.318  1.00  0.00     0.180 C 
ATOM      2  C   UNL     1     112.720 108.398 106.550  1.00  0.00     0.177 C 
ATOM      3  C   UNL     1     112.113 109.806 106.314  1.00  0.00     0.180 C 
ATOM      4  C   UNL     1     112.153 110.668 107.587  1.00  0.00     0.214 C 
ATOM      5  C   UNL     1     112.239 109.551 108.881  1.00  0.00     0.339 C 
ATOM      6  O   UNL     1     111.719 108.227 108.663  1.00  0.00    -0.332 OA
ENDROOT
BRANCH   1   7
ATOM      7  C   UNL     1     109.826 107.958 106.956  1.00  0.00     0.198 C 
BRANCH   7   8
ATOM      8  O   UNL     1     109.181 106.610 106.949  1.00  0.00    -0.347 OA
BRANCH   8   9
ATOM      9  C   UNL     1     109.000 106.141 105.639  1.00  0.00     0.281 C 
ATOM     10  C   UNL     1     107.797 102.663 105.513  1.00  0.00     0.041 C 
ATOM     11  C   UNL     1     108.277 103.857 106.439  1.00  0.00     0.150 C 
ATOM     12  C   UNL     1     107.042 104.755 106.840  1.00  0.00     0.174 C 
ATOM     13  O   UNL     1     109.090 104.692 105.477  1.00  0.00    -0.344 OA
ATOM     14  C   UNL     1     106.536 105.611 105.645  1.00  0.00     0.179 C 
ATOM     15  C   UNL     1     107.623 106.430 104.974  1.00  0.00     0.202 C 
BRANCH  12  16
ATOM     16  O   UNL     1     105.986 104.133 107.577  1.00  0.00    -0.388 OA
ATOM     17  H   UNL     1     106.016 103.140 107.267  1.00  0.00     0.211 HD
ENDBRANCH  12  16
BRANCH  14  18
ATOM     18  O   UNL     1     105.591 106.613 106.049  1.00  0.00    -0.387 OA
ATOM     19  H   UNL     1     104.785 106.798 105.440  1.00  0.00     0.211 HD
ENDBRANCH  14  18
BRANCH  15  20
ATOM     20  O   UNL     1     107.731 106.219 103.623  1.00  0.00    -0.385 OA
ATOM     21  H   UNL     1     106.804 105.783 103.395  1.00  0.00     0.211 HD
ENDBRANCH  15  20
ENDBRANCH   8   9
ENDBRANCH   7   8
ENDBRANCH   1   7
BRANCH   2  22
ATOM     22  O   UNL     1     113.125 107.999 105.237  1.00  0.00    -0.387 OA
ATOM     23  H   UNL     1     114.148 107.883 105.376  1.00  0.00     0.211 HD
ENDBRANCH   2  22
BRANCH   3  24
ATOM     24  O   UNL     1     112.672 110.376 105.149  1.00  0.00    -0.387 OA
ATOM     25  H   UNL     1     112.689 111.400 105.125  1.00  0.00     0.211 HD
ENDBRANCH   3  24
BRANCH   5  26
ATOM     26  O   UNL     1     111.749 110.216 110.066  1.00  0.00    -0.454 OA
BRANCH  26  27
ATOM     27  C   UNL     1     110.753 109.698 111.052  1.00  0.00     0.214 A 
ATOM     28  C   UNL     1     109.396 109.557 110.678  1.00  0.00     0.180 A 
ATOM     29  C   UNL     1     110.989 109.232 112.334  1.00  0.00     0.239 A 
ATOM     30  O   UNL     1     108.833 108.418 111.112  1.00  0.00    -0.452 OA
ATOM     31  C   UNL     1     110.731 107.879 112.401  1.00  0.00     0.111 A 
ATOM     32  O   UNL     1     110.376 109.758 113.412  1.00  0.00    -0.285 OA
ATOM     33  C   UNL     1     109.392 107.615 111.991  1.00  0.00     0.146 A 
ATOM     34  C   UNL     1     111.239 107.031 113.405  1.00  0.00     0.134 A 
ATOM     35  C   UNL     1     108.698 106.501 112.552  1.00  0.00     0.094 A 
ATOM     36  C   UNL     1     110.623 105.823 113.731  1.00  0.00     0.093 A 
ATOM     37  C   UNL     1     109.264 105.635 113.494  1.00  0.00     0.123 A 
BRANCH  28  38
ATOM     38  C   UNL     1     108.692 110.349 109.716  1.00  0.00     0.025 A 
ATOM     39  C   UNL     1     108.691 110.053 108.352  1.00  0.00     0.062 A 
ATOM     40  C   UNL     1     107.964 111.473 110.178  1.00  0.00     0.016 A 
ATOM     41  C   UNL     1     107.851 110.832 107.493  1.00  0.00     0.158 A 
ATOM     42  C   UNL     1     107.204 112.174 109.260  1.00  0.00     0.051 A 
ATOM     43  C   UNL     1     107.224 111.976 107.919  1.00  0.00     0.157 A 
BRANCH  41  44
ATOM     44  O   UNL     1     107.201 110.059 106.545  1.00  0.00    -0.504 OA
ATOM     45  H   UNL     1     106.555 110.498 105.877  1.00  0.00     0.293 HD
ENDBRANCH  41  44
BRANCH  43  46
ATOM     46  O   UNL     1     106.327 112.682 107.082  1.00  0.00    -0.504 OA
ATOM     47  H   UNL     1     106.606 113.556 106.639  1.00  0.00     0.293 HD
ENDBRANCH  43  46
ENDBRANCH  28  38
BRANCH  34  48
ATOM     48  O   UNL     1     112.506 107.227 113.908  1.00  0.00    -0.507 OA
ATOM     49  H   UNL     1     113.323 107.647 113.471  1.00  0.00     0.293 HD
ENDBRANCH  34  48
BRANCH  37  50
ATOM     50  O   UNL     1     108.670 104.543 114.124  1.00  0.00    -0.508 OA
ATOM     51  H   UNL     1     107.900 104.761 114.776  1.00  0.00     0.293 HD
ENDBRANCH  37  50
ENDBRANCH  26  27
ENDBRANCH   5  26
BRANCH   4  52
ATOM     52  O   UNL     1     110.970 111.420 107.510  1.00  0.00    -0.384 OA
ATOM     53  H   UNL     1     110.109 110.907 107.443  1.00  0.00     0.211 HD
ENDBRANCH   4  52
TORSDOF 16
ENDMDL
MODEL 2
REMARK VINA RESULT:    30.837      2.517      7.641
REMARK INTER + INTRA:          49.777
REMARK INTER:                  51.243
REMARK INTRA:                  -1.466
REMARK UNBOUND:                -0.891
REMARK SMILES C[C@H]1O[C@H](OC[C@@H]2O[C@H](Oc3c(-c4ccc(O)c(O)c4)oc4cc(O)cc(O)c4c3=O)[C@H](O)[C@@H](O)[C@@H]2O)[C@@H](O)[C@H](O)[C@H]1O
REMARK SMILES IDX 7 1 36 2 34 3 32 4 9 5 8 6 6 7 5 8 4 9 1 10 2 11 42 12 3 13
REMARK SMILES IDX 40 14 38 15 43 16 41 18 39 20 37 22 35 24 10 26 11 27 12 28
REMARK SMILES IDX 30 29 21 30 29 31 31 32 22 33 27 34 23 35 26 36 24 37 13 38
REMARK SMILES IDX 20 39 14 40 18 41 15 42 16 43 19 44 17 46 28 48 25 50 33 52
REMARK H PARENT 43 17 41 19 39 21 37 23 35 25 19 45 17 47 28 49 25 51 33 53
REMARK Flexibility Score: inf
ROOT
ATOM      1  C   UNL     1     109.890 108.944 108.467  1.00  0.00     0.180 C 
ATOM      2  C   UNL     1     110.748 110.143 107.886  1.00  0.00     0.177 C 
ATOM      3  C   UNL     1     111.923 109.252 107.407  1.00  0.00     0.180 C 
ATOM      4  C   UNL     1     111.580 108.503 106.107  1.00  0.00     0.214 C 
ATOM      5  C   UNL     1     109.871 108.438 106.065  1.00  0.00     0.339 C 
ATOM      6  O   UNL     1     109.164 108.512 107.316  1.00  0.00    -0.332 OA
ENDROOT
BRANCH   1   7
ATOM      7  C   UNL     1     110.356 107.643 109.412  1.00  0.00     0.198 C 
BRANCH   7   8
ATOM      8  O   UNL     1     111.359 108.069 110.434  1.00  0.00    -0.347 OA
BRANCH   8   9
ATOM      9  C   UNL     1     110.806 108.054 111.724  1.00  0.00     0.281 C 
ATOM     10  C   UNL     1     112.630 110.203 114.092  1.00  0.00     0.041 C 
ATOM     11  C   UNL     1     112.571 109.623 112.618  1.00  0.00     0.150 C 
ATOM     12  C   UNL     1     111.713 110.578 111.701  1.00  0.00     0.174 C 
ATOM     13  O   UNL     1     111.734 108.379 112.804  1.00  0.00    -0.344 OA
ATOM     14  C   UNL     1     110.195 110.481 112.021  1.00  0.00     0.179 C 
ATOM     15  C   UNL     1     109.655 109.063 112.006  1.00  0.00     0.202 C 
BRANCH  12  16
ATOM     16  O   UNL     1     112.171 111.923 111.538  1.00  0.00    -0.388 OA
ATOM     17  H   UNL     1     111.713 112.239 110.659  1.00  0.00     0.211 HD
ENDBRANCH  12  16
BRANCH  14  18
ATOM     18  O   UNL     1     109.382 111.139 111.039  1.00  0.00    -0.387 OA
ATOM     19  H   UNL     1     109.751 111.237 110.086  1.00  0.00     0.211 HD
ENDBRANCH  14  18
BRANCH  15  20
ATOM     20  O   UNL     1     109.015 108.692 113.161  1.00  0.00    -0.385 OA
ATOM     21  H   UNL     1     109.397 107.728 113.321  1.00  0.00     0.211 HD
ENDBRANCH  15  20
ENDBRANCH   8   9
ENDBRANCH   7   8
ENDBRANCH   1   7
BRANCH   2  22
ATOM     22  O   UNL     1     111.403 111.137 108.681  1.00  0.00    -0.387 OA
ATOM     23  H   UNL     1     110.852 111.981 108.430  1.00  0.00     0.211 HD
ENDBRANCH   2  22
BRANCH   3  24
ATOM     24  O   UNL     1     113.120 110.000 107.408  1.00  0.00    -0.387 OA
ATOM     25  H   UNL     1     113.141 110.795 108.054  1.00  0.00     0.211 HD
ENDBRANCH   3  24
BRANCH   5  26
ATOM     26  O   UNL     1     109.496 107.335 105.212  1.00  0.00    -0.454 OA
BRANCH  26  27
ATOM     27  C   UNL     1     108.132 106.756 105.022  1.00  0.00     0.214 A 
ATOM     28  C   UNL     1     107.614 106.585 103.716  1.00  0.00     0.180 A 
ATOM     29  C   UNL     1     107.277 106.257 105.989  1.00  0.00     0.239 A 
ATOM     30  O   UNL     1     106.977 105.416 103.538  1.00  0.00    -0.452 OA
ATOM     31  C   UNL     1     107.126 104.896 105.831  1.00  0.00     0.111 A 
ATOM     32  O   UNL     1     106.026 106.730 106.152  1.00  0.00    -0.285 OA
ATOM     33  C   UNL     1     106.652 104.603 104.520  1.00  0.00     0.146 A 
ATOM     34  C   UNL     1     106.674 104.032 106.849  1.00  0.00     0.134 A 
ATOM     35  C   UNL     1     105.835 103.451 104.315  1.00  0.00     0.094 A 
ATOM     36  C   UNL     1     106.094 102.797 106.564  1.00  0.00     0.093 A 
ATOM     37  C   UNL     1     105.468 102.575 105.341  1.00  0.00     0.123 A 
BRANCH  28  38
ATOM     38  C   UNL     1     107.917 107.385 102.569  1.00  0.00     0.025 A 
ATOM     39  C   UNL     1     108.953 108.320 102.555  1.00  0.00     0.062 A 
ATOM     40  C   UNL     1     107.132 107.207 101.403  1.00  0.00     0.016 A 
ATOM     41  C   UNL     1     109.255 108.974 101.318  1.00  0.00     0.158 A 
ATOM     42  C   UNL     1     107.494 107.909 100.267  1.00  0.00     0.051 A 
ATOM     43  C   UNL     1     108.440 108.878 100.218  1.00  0.00     0.157 A 
BRANCH  41  44
ATOM     44  O   UNL     1     110.619 109.089 101.098  1.00  0.00    -0.504 OA
ATOM     45  H   UNL     1     111.237 108.286 101.265  1.00  0.00     0.293 HD
ENDBRANCH  41  44
BRANCH  43  46
ATOM     46  O   UNL     1     108.801 109.458  98.978  1.00  0.00    -0.504 OA
ATOM     47  H   UNL     1     109.711 109.900  98.855  1.00  0.00     0.293 HD
ENDBRANCH  43  46
ENDBRANCH  28  38
BRANCH  34  48
ATOM     48  O   UNL     1     107.033 104.252 108.160  1.00  0.00    -0.507 OA
ATOM     49  H   UNL     1     106.604 104.851 108.862  1.00  0.00     0.293 HD
ENDBRANCH  34  48
BRANCH  37  50
ATOM     50  O   UNL     1     104.654 101.445 105.257  1.00  0.00    -0.508 OA
ATOM     51  H   UNL     1     103.944 101.454 104.508  1.00  0.00     0.293 HD
ENDBRANCH  37  50
ENDBRANCH  26  27
ENDBRANCH   5  26
BRANCH   4  52
ATOM     52  O   UNL     1     112.233 107.270 106.259  1.00  0.00    -0.384 OA
ATOM     53  H   UNL     1     112.303 106.904 107.192  1.00  0.00     0.211 HD
ENDBRANCH   4  52
TORSDOF 16
ENDMDL
MODEL 3
REMARK VINA RESULT:    31.191      2.456      7.610
REMARK INTER + INTRA:          50.357
REMARK INTER:                  50.391
REMARK INTRA:                  -0.034
REMARK UNBOUND:                -0.891
REMARK SMILES C[C@H]1O[C@H](OC[C@@H]2O[C@H](Oc3c(-c4ccc(O)c(O)c4)oc4cc(O)cc(O)c4c3=O)[C@H](O)[C@@H](O)[C@@H]2O)[C@@H](O)[C@H](O)[C@H]1O
REMARK SMILES IDX 7 1 36 2 34 3 32 4 9 5 8 6 6 7 5 8 4 9 1 10 2 11 42 12 3 13
REMARK SMILES IDX 40 14 38 15 43 16 41 18 39 20 37 22 35 24 10 26 11 27 12 28
REMARK SMILES IDX 30 29 21 30 29 31 31 32 22 33 27 34 23 35 26 36 24 37 13 38
REMARK SMILES IDX 20 39 14 40 18 41 15 42 16 43 19 44 17 46 28 48 25 50 33 52
REMARK H PARENT 43 17 41 19 39 21 37 23 35 25 19 45 17 47 28 49 25 51 33 53
REMARK Flexibility Score: inf
ROOT
ATOM      1  C   UNL     1     109.897 109.170 108.284  1.00  0.00     0.180 C 
ATOM      2  C   UNL     1     110.756 110.300 107.578  1.00  0.00     0.177 C 
ATOM      3  C   UNL     1     111.924 109.359 107.186  1.00  0.00     0.180 C 
ATOM      4  C   UNL     1     111.571 108.482 105.972  1.00  0.00     0.214 C 
ATOM      5  C   UNL     1     109.861 108.420 105.948  1.00  0.00     0.339 C 
ATOM      6  O   UNL     1     109.162 108.625 107.189  1.00  0.00    -0.332 OA
ENDROOT
BRANCH   1   7
ATOM      7  C   UNL     1     110.365 107.971 109.355  1.00  0.00     0.198 C 
BRANCH   7   8
ATOM      8  O   UNL     1     111.497 108.443 110.210  1.00  0.00    -0.347 OA
BRANCH   8   9
ATOM      9  C   UNL     1     111.233 109.714 110.743  1.00  0.00     0.281 C 
ATOM     10  C   UNL     1     108.647 109.659 113.364  1.00  0.00     0.041 C 
ATOM     11  C   UNL     1     109.453 108.813 112.292  1.00  0.00     0.150 C 
ATOM     12  C   UNL     1     110.776 108.247 112.942  1.00  0.00     0.174 C 
ATOM     13  O   UNL     1     109.902 109.882 111.323  1.00  0.00    -0.344 OA
ATOM     14  C   UNL     1     111.836 109.362 113.165  1.00  0.00     0.179 C 
ATOM     15  C   UNL     1     112.133 110.181 111.923  1.00  0.00     0.202 C 
BRANCH  12  16
ATOM     16  O   UNL     1     110.637 107.368 114.061  1.00  0.00    -0.388 OA
ATOM     17  H   UNL     1     111.358 107.702 114.733  1.00  0.00     0.211 HD
ENDBRANCH  12  16
BRANCH  14  18
ATOM     18  O   UNL     1     113.125 108.834 113.510  1.00  0.00    -0.387 OA
ATOM     19  H   UNL     1     113.957 109.267 113.094  1.00  0.00     0.211 HD
ENDBRANCH  14  18
BRANCH  15  20
ATOM     20  O   UNL     1     111.976 111.534 112.091  1.00  0.00    -0.385 OA
ATOM     21  H   UNL     1     111.660 111.593 113.090  1.00  0.00     0.211 HD
ENDBRANCH  15  20
ENDBRANCH   8   9
ENDBRANCH   7   8
ENDBRANCH   1   7
BRANCH   2  22
ATOM     22  O   UNL     1     111.420 111.367 108.263  1.00  0.00    -0.387 OA
ATOM     23  H   UNL     1     111.171 112.172 107.654  1.00  0.00     0.211 HD
ENDBRANCH   2  22
BRANCH   3  24
ATOM     24  O   UNL     1     113.124 110.098 107.102  1.00  0.00    -0.387 OA
ATOM     25  H   UNL     1     113.288 110.570 106.207  1.00  0.00     0.211 HD
ENDBRANCH   3  24
BRANCH   5  26
ATOM     26  O   UNL     1     109.477 107.236 105.215  1.00  0.00    -0.454 OA
BRANCH  26  27
ATOM     27  C   UNL     1     108.100 106.680 105.043  1.00  0.00     0.214 A 
ATOM     28  C   UNL     1     107.565 106.510 103.745  1.00  0.00     0.180 A 
ATOM     29  C   UNL     1     107.247 106.203 106.023  1.00  0.00     0.239 A 
ATOM     30  O   UNL     1     106.906 105.351 103.581  1.00  0.00    -0.452 OA
ATOM     31  C   UNL     1     107.071 104.843 105.876  1.00  0.00     0.111 A 
ATOM     32  O   UNL     1     106.007 106.699 106.197  1.00  0.00    -0.285 OA
ATOM     33  C   UNL     1     106.578 104.551 104.572  1.00  0.00     0.146 A 
ATOM     34  C   UNL     1     106.615 103.994 106.905  1.00  0.00     0.134 A 
ATOM     35  C   UNL     1     105.738 103.412 104.383  1.00  0.00     0.094 A 
ATOM     36  C   UNL     1     106.010 102.767 106.634  1.00  0.00     0.093 A 
ATOM     37  C   UNL     1     105.367 102.549 105.418  1.00  0.00     0.123 A 
BRANCH  28  38
ATOM     38  C   UNL     1     107.869 107.297 102.589  1.00  0.00     0.025 A 
ATOM     39  C   UNL     1     108.867 108.274 102.584  1.00  0.00     0.062 A 
ATOM     40  C   UNL     1     107.127 107.063 101.405  1.00  0.00     0.016 A 
ATOM     41  C   UNL     1     109.178 108.913 101.342  1.00  0.00     0.158 A 
ATOM     42  C   UNL     1     107.494 107.755 100.265  1.00  0.00     0.051 A 
ATOM     43  C   UNL     1     108.401 108.761 100.221  1.00  0.00     0.157 A 
BRANCH  41  44
ATOM     44  O   UNL     1     110.542 109.080 101.158  1.00  0.00    -0.504 OA
ATOM     45  H   UNL     1     110.967 108.883 100.244  1.00  0.00     0.293 HD
ENDBRANCH  41  44
BRANCH  43  46
ATOM     46  O   UNL     1     108.775 109.329  98.980  1.00  0.00    -0.504 OA
ATOM     47  H   UNL     1     108.662 108.807  98.112  1.00  0.00     0.293 HD
ENDBRANCH  43  46
ENDBRANCH  28  38
BRANCH  34  48
ATOM     48  O   UNL     1     106.992 104.216 108.210  1.00  0.00    -0.507 OA
ATOM     49  H   UNL     1     106.659 103.783 109.068  1.00  0.00     0.293 HD
ENDBRANCH  34  48
BRANCH  37  50
ATOM     50  O   UNL     1     104.533 101.434 105.351  1.00  0.00    -0.508 OA
ATOM     51  H   UNL     1     104.036 101.294 104.458  1.00  0.00     0.293 HD
ENDBRANCH  37  50
ENDBRANCH  26  27
ENDBRANCH   5  26
BRANCH   4  52
ATOM     52  O   UNL     1     112.220 107.268 106.246  1.00  0.00    -0.384 OA
ATOM     53  H   UNL     1     113.142 107.325 106.640  1.00  0.00     0.211 HD
ENDBRANCH   4  52
TORSDOF 16
ENDMDL
MODEL 4
REMARK VINA RESULT:    31.459      2.503      8.905
REMARK INTER + INTRA:          50.798
REMARK INTER:                  51.705
REMARK INTRA:                  -0.907
REMARK UNBOUND:                -0.891
REMARK SMILES C[C@H]1O[C@H](OC[C@@H]2O[C@H](Oc3c(-c4ccc(O)c(O)c4)oc4cc(O)cc(O)c4c3=O)[C@H](O)[C@@H](O)[C@@H]2O)[C@@H](O)[C@H](O)[C@H]1O
REMARK SMILES IDX 7 1 36 2 34 3 32 4 9 5 8 6 6 7 5 8 4 9 1 10 2 11 42 12 3 13
REMARK SMILES IDX 40 14 38 15 43 16 41 18 39 20 37 22 35 24 10 26 11 27 12 28
REMARK SMILES IDX 30 29 21 30 29 31 31 32 22 33 27 34 23 35 26 36 24 37 13 38
REMARK SMILES IDX 20 39 14 40 18 41 15 42 16 43 19 44 17 46 28 48 25 50 33 52
REMARK H PARENT 43 17 41 19 39 21 37 23 35 25 19 45 17 47 28 49 25 51 33 53
REMARK Flexibility Score: inf
ROOT
ATOM      1  C   UNL     1     109.420 109.452 108.542  1.00  0.00     0.180 C 
ATOM      2  C   UNL     1     110.715 109.896 107.744  1.00  0.00     0.177 C 
ATOM      3  C   UNL     1     111.268 108.457 107.568  1.00  0.00     0.180 C 
ATOM      4  C   UNL     1     110.518 107.686 106.469  1.00  0.00     0.214 C 
ATOM      5  C   UNL     1     108.997 108.460 106.337  1.00  0.00     0.339 C 
ATOM      6  O   UNL     1     108.502 109.169 107.486  1.00  0.00    -0.332 OA
ENDROOT
BRANCH   1   7
ATOM      7  C   UNL     1     109.250 108.360 109.800  1.00  0.00     0.198 C 
BRANCH   7   8
ATOM      8  O   UNL     1     110.566 108.120 110.468  1.00  0.00    -0.347 OA
BRANCH   8   9
ATOM      9  C   UNL     1     110.425 108.077 111.864  1.00  0.00     0.281 C 
ATOM     10  C   UNL     1     113.125 109.851 113.631  1.00  0.00     0.041 C 
ATOM     11  C   UNL     1     112.557 109.381 112.228  1.00  0.00     0.150 C 
ATOM     12  C   UNL     1     111.589 110.485 111.645  1.00  0.00     0.174 C 
ATOM     13  O   UNL     1     111.666 108.226 112.620  1.00  0.00    -0.344 OA
ATOM     14  C   UNL     1     110.236 110.531 112.410  1.00  0.00     0.179 C 
ATOM     15  C   UNL     1     109.545 109.184 112.514  1.00  0.00     0.202 C 
BRANCH  12  16
ATOM     16  O   UNL     1     112.141 111.780 111.394  1.00  0.00    -0.388 OA
ATOM     17  H   UNL     1     113.098 111.726 111.797  1.00  0.00     0.211 HD
ENDBRANCH  12  16
BRANCH  14  18
ATOM     18  O   UNL     1     109.255 111.338 111.742  1.00  0.00    -0.387 OA
ATOM     19  H   UNL     1     108.662 111.954 112.310  1.00  0.00     0.211 HD
ENDBRANCH  14  18
BRANCH  15  20
ATOM     20  O   UNL     1     109.238 108.808 113.797  1.00  0.00    -0.385 OA
ATOM     21  H   UNL     1     110.178 108.525 114.171  1.00  0.00     0.211 HD
ENDBRANCH  15  20
ENDBRANCH   8   9
ENDBRANCH   7   8
ENDBRANCH   1   7
BRANCH   2  22
ATOM     22  O   UNL     1     111.824 110.598 108.315  1.00  0.00    -0.387 OA
ATOM     23  H   UNL     1     112.367 109.809 108.717  1.00  0.00     0.211 HD
ENDBRANCH   2  22
BRANCH   3  24
ATOM     24  O   UNL     1     112.675 108.498 107.463  1.00  0.00    -0.387 OA
ATOM     25  H   UNL     1     113.081 109.431 107.345  1.00  0.00     0.211 HD
ENDBRANCH   3  24
BRANCH   5  26
ATOM     26  O   UNL     1     108.075 107.514 105.754  1.00  0.00    -0.454 OA
BRANCH  26  27
ATOM     27  C   UNL     1     108.120 106.931 104.379  1.00  0.00     0.214 A 
ATOM     28  C   UNL     1     107.237 105.883 104.027  1.00  0.00     0.180 A 
ATOM     29  C   UNL     1     108.891 107.343 103.305  1.00  0.00     0.239 A 
ATOM     30  O   UNL     1     106.699 106.019 102.804  1.00  0.00    -0.452 OA
ATOM     31  C   UNL     1     108.084 107.862 102.315  1.00  0.00     0.111 A 
ATOM     32  O   UNL     1     109.734 106.508 102.667  1.00  0.00    -0.285 OA
ATOM     33  C   UNL     1     107.114 106.897 101.917  1.00  0.00     0.146 A 
ATOM     34  C   UNL     1     108.544 108.719 101.295  1.00  0.00     0.134 A 
ATOM     35  C   UNL     1     106.632 106.906 100.573  1.00  0.00     0.094 A 
ATOM     36  C   UNL     1     107.869 108.851 100.082  1.00  0.00     0.093 A 
ATOM     37  C   UNL     1     107.060 107.823  99.607  1.00  0.00     0.123 A 
BRANCH  28  38
ATOM     38  C   UNL     1     106.699 104.891 104.908  1.00  0.00     0.025 A 
ATOM     39  C   UNL     1     106.469 105.134 106.263  1.00  0.00     0.062 A 
ATOM     40  C   UNL     1     106.386 103.618 104.371  1.00  0.00     0.016 A 
ATOM     41  C   UNL     1     105.809 104.118 107.027  1.00  0.00     0.158 A 
ATOM     42  C   UNL     1     105.773 102.699 105.203  1.00  0.00     0.051 A 
ATOM     43  C   UNL     1     105.593 102.854 106.537  1.00  0.00     0.157 A 
BRANCH  41  44
ATOM     44  O   UNL     1     104.865 104.639 107.897  1.00  0.00    -0.504 OA
ATOM     45  H   UNL     1     104.776 104.259 108.848  1.00  0.00     0.293 HD
ENDBRANCH  41  44
BRANCH  43  46
ATOM     46  O   UNL     1     104.860 101.892 107.274  1.00  0.00    -0.504 OA
ATOM     47  H   UNL     1     104.058 102.169 107.838  1.00  0.00     0.293 HD
ENDBRANCH  43  46
ENDBRANCH  28  38
BRANCH  34  48
ATOM     48  O   UNL     1     109.517 109.657 101.560  1.00  0.00    -0.507 OA
ATOM     49  H   UNL     1     109.442 110.564 102.015  1.00  0.00     0.293 HD
ENDBRANCH  34  48
BRANCH  37  50
ATOM     50  O   UNL     1     106.681 107.901  98.268  1.00  0.00    -0.508 OA
ATOM     51  H   UNL     1     106.936 107.094  97.678  1.00  0.00     0.293 HD
ENDBRANCH  37  50
ENDBRANCH  26  27
ENDBRANCH   5  26
BRANCH   4  52
ATOM     52  O   UNL     1     110.491 106.369 106.954  1.00  0.00    -0.384 OA
ATOM     53  H   UNL     1     111.364 105.982 107.267  1.00  0.00     0.211 HD
ENDBRANCH   4  52
TORSDOF 16
ENDMDL
MODEL 5
REMARK VINA RESULT:    31.459      2.495      8.884
REMARK INTER + INTRA:          50.799
REMARK INTER:                  51.333
REMARK INTRA:                  -0.534
REMARK UNBOUND:                -0.891
REMARK SMILES C[C@H]1O[C@H](OC[C@@H]2O[C@H](Oc3c(-c4ccc(O)c(O)c4)oc4cc(O)cc(O)c4c3=O)[C@H](O)[C@@H](O)[C@@H]2O)[C@@H](O)[C@H](O)[C@H]1O
REMARK SMILES IDX 7 1 36 2 34 3 32 4 9 5 8 6 6 7 5 8 4 9 1 10 2 11 42 12 3 13
REMARK SMILES IDX 40 14 38 15 43 16 41 18 39 20 37 22 35 24 10 26 11 27 12 28
REMARK SMILES IDX 30 29 21 30 29 31 31 32 22 33 27 34 23 35 26 36 24 37 13 38
REMARK SMILES IDX 20 39 14 40 18 41 15 42 16 43 19 44 17 46 28 48 25 50 33 52
REMARK H PARENT 43 17 41 19 39 21 37 23 35 25 19 45 17 47 28 49 25 51 33 53
REMARK Flexibility Score: inf
ROOT
ATOM      1  C   UNL     1     109.531 109.639 108.358  1.00  0.00     0.180 C 
ATOM      2  C   UNL     1     110.787 110.083 107.498  1.00  0.00     0.177 C 
ATOM      3  C   UNL     1     111.387 108.657 107.387  1.00  0.00     0.180 C 
ATOM      4  C   UNL     1     110.636 107.798 106.356  1.00  0.00     0.214 C 
ATOM      5  C   UNL     1     109.085 108.509 106.226  1.00  0.00     0.339 C 
ATOM      6  O   UNL     1     108.595 109.264 107.348  1.00  0.00    -0.332 OA
ENDROOT
BRANCH   1   7
ATOM      7  C   UNL     1     109.437 108.616 109.680  1.00  0.00     0.198 C 
BRANCH   7   8
ATOM      8  O   UNL     1     110.738 108.588 110.417  1.00  0.00    -0.347 OA
BRANCH   8   9
ATOM      9  C   UNL     1     110.911 109.753 111.180  1.00  0.00     0.281 C 
ATOM     10  C   UNL     1     108.660 109.909 114.089  1.00  0.00     0.041 C 
ATOM     11  C   UNL     1     109.082 109.099 112.794  1.00  0.00     0.150 C 
ATOM     12  C   UNL     1     110.225 108.072 113.155  1.00  0.00     0.174 C 
ATOM     13  O   UNL     1     109.746 110.168 111.958  1.00  0.00    -0.344 OA
ATOM     14  C   UNL     1     111.585 108.782 113.406  1.00  0.00     0.179 C 
ATOM     15  C   UNL     1     112.008 109.712 112.284  1.00  0.00     0.202 C 
BRANCH  12  16
ATOM     16  O   UNL     1     109.926 107.065 114.125  1.00  0.00    -0.388 OA
ATOM     17  H   UNL     1     109.330 106.388 113.606  1.00  0.00     0.211 HD
ENDBRANCH  12  16
BRANCH  14  18
ATOM     18  O   UNL     1     112.682 107.860 113.480  1.00  0.00    -0.387 OA
ATOM     19  H   UNL     1     112.667 107.033 112.871  1.00  0.00     0.211 HD
ENDBRANCH  14  18
BRANCH  15  20
ATOM     20  O   UNL     1     112.276 110.995 112.689  1.00  0.00    -0.385 OA
ATOM     21  H   UNL     1     112.210 110.912 113.733  1.00  0.00     0.211 HD
ENDBRANCH  15  20
ENDBRANCH   8   9
ENDBRANCH   7   8
ENDBRANCH   1   7
BRANCH   2  22
ATOM     22  O   UNL     1     111.884 110.855 107.996  1.00  0.00    -0.387 OA
ATOM     23  H   UNL     1     111.785 111.720 107.428  1.00  0.00     0.211 HD
ENDBRANCH   2  22
BRANCH   3  24
ATOM     24  O   UNL     1     112.789 108.741 107.238  1.00  0.00    -0.387 OA
ATOM     25  H   UNL     1     113.305 107.881 107.446  1.00  0.00     0.211 HD
ENDBRANCH   3  24
BRANCH   5  26
ATOM     26  O   UNL     1     108.182 107.499 105.725  1.00  0.00    -0.454 OA
BRANCH  26  27
ATOM     27  C   UNL     1     108.158 106.901 104.355  1.00  0.00     0.214 A 
ATOM     28  C   UNL     1     107.232 105.877 104.048  1.00  0.00     0.180 A 
ATOM     29  C   UNL     1     108.901 107.278 103.249  1.00  0.00     0.239 A 
ATOM     30  O   UNL     1     106.654 106.017 102.844  1.00  0.00    -0.452 OA
ATOM     31  C   UNL     1     108.074 107.812 102.284  1.00  0.00     0.111 A 
ATOM     32  O   UNL     1     109.694 106.412 102.590  1.00  0.00    -0.285 OA
ATOM     33  C   UNL     1     107.061 106.873 101.932  1.00  0.00     0.146 A 
ATOM     34  C   UNL     1     108.522 108.644 101.238  1.00  0.00     0.134 A 
ATOM     35  C   UNL     1     106.530 106.883 100.608  1.00  0.00     0.094 A 
ATOM     36  C   UNL     1     107.806 108.785 100.050  1.00  0.00     0.093 A 
ATOM     37  C   UNL     1     106.949 107.776  99.616  1.00  0.00     0.123 A 
BRANCH  28  38
ATOM     38  C   UNL     1     106.698 104.911 104.959  1.00  0.00     0.025 A 
ATOM     39  C   UNL     1     106.468 105.194 106.307  1.00  0.00     0.062 A 
ATOM     40  C   UNL     1     106.387 103.622 104.462  1.00  0.00     0.016 A 
ATOM     41  C   UNL     1     105.812 104.200 107.102  1.00  0.00     0.158 A 
ATOM     42  C   UNL     1     105.777 102.726 105.322  1.00  0.00     0.051 A 
ATOM     43  C   UNL     1     105.599 102.922 106.651  1.00  0.00     0.157 A 
BRANCH  41  44
ATOM     44  O   UNL     1     104.867 104.745 107.957  1.00  0.00    -0.504 OA
ATOM     45  H   UNL     1     105.126 104.993 108.920  1.00  0.00     0.293 HD
ENDBRANCH  41  44
BRANCH  43  46
ATOM     46  O   UNL     1     104.869 101.981 107.417  1.00  0.00    -0.504 OA
ATOM     47  H   UNL     1     105.270 101.571 108.259  1.00  0.00     0.293 HD
ENDBRANCH  43  46
ENDBRANCH  28  38
BRANCH  34  48
ATOM     48  O   UNL     1     109.531 109.554 101.457  1.00  0.00    -0.507 OA
ATOM     49  H   UNL     1     109.570 110.549 101.245  1.00  0.00     0.293 HD
ENDBRANCH  34  48
BRANCH  37  50
ATOM     50  O   UNL     1     106.523 107.853  98.291  1.00  0.00    -0.508 OA
ATOM     51  H   UNL     1     105.692 108.439  98.117  1.00  0.00     0.293 HD
ENDBRANCH  37  50
ENDBRANCH  26  27
ENDBRANCH   5  26
BRANCH   4  52
ATOM     52  O   UNL     1     110.672 106.511 106.915  1.00  0.00    -0.384 OA
ATOM     53  H   UNL     1     109.789 106.087 107.136  1.00  0.00     0.211 HD
ENDBRANCH   4  52
TORSDOF 16
ENDMDL
