MODEL 1
REMARK VINA RESULT:    -5.325      0.000      0.000
REMARK INTER + INTRA:          -5.481
REMARK INTER:                  -5.481
REMARK INTRA:                   0.000
REMARK UNBOUND:                 0.000
REMARK SMILES O=c1ccc2ccc(O)cc2o1
REMARK SMILES IDX 6 1 7 2 8 3 10 4 11 5 5 6 4 7 3 8 2 9 1 10 12 11 9 12
REMARK H PARENT 9 13
REMARK Flexibility Score: inf
ROOT
ATOM      1  C   UNL     1      21.130  -0.749 -22.294  1.00  0.00     0.016 A 
ATOM      2  C   UNL     1      21.511   0.389 -23.011  1.00  0.00     0.047 A 
ATOM      3  C   UNL     1      21.518   1.646 -22.393  1.00  0.00     0.119 A 
ATOM      4  C   UNL     1      21.141   1.766 -21.047  1.00  0.00     0.094 A 
ATOM      5  C   UNL     1      20.758   0.632 -20.322  1.00  0.00     0.142 A 
ATOM      6  C   UNL     1      20.753  -0.634 -20.948  1.00  0.00     0.018 A 
ATOM      7  C   UNL     1      20.366  -1.747 -20.197  1.00  0.00     0.019 A 
ATOM      8  C   UNL     1      19.999  -1.579 -18.862  1.00  0.00     0.094 A 
ATOM      9  C   UNL     1      20.028  -0.295 -18.308  1.00  0.00     0.336 A 
ATOM     10  O   UNL     1      19.700  -0.122 -17.105  1.00  0.00    -0.246 OA
ATOM     11  O   UNL     1      20.401   0.749 -19.045  1.00  0.00    -0.423 OA
ENDROOT
BRANCH   3  12
ATOM     12  O   UNL     1      21.901   2.768 -23.125  1.00  0.00    -0.508 OA
ATOM     13  H   UNL     1      22.779   3.242 -22.946  1.00  0.00     0.293 HD
ENDBRANCH   3  12
TORSDOF 1
ENDMDL
MODEL 2
REMARK VINA RESULT:    -5.243      0.769      4.228
REMARK INTER + INTRA:          -5.396
REMARK INTER:                  -5.396
REMARK INTRA:                   0.000
REMARK UNBOUND:                 0.000
REMARK SMILES O=c1ccc2ccc(O)cc2o1
REMARK SMILES IDX 6 1 7 2 8 3 10 4 11 5 5 6 4 7 3 8 2 9 1 10 12 11 9 12
REMARK H PARENT 9 13
REMARK Flexibility Score: inf
ROOT
ATOM      1  C   UNL     1      20.301  -1.598 -20.278  1.00  0.00     0.016 A 
ATOM      2  C   UNL     1      19.976  -1.379 -18.936  1.00  0.00     0.047 A 
ATOM      3  C   UNL     1      20.161  -0.116 -18.360  1.00  0.00     0.119 A 
ATOM      4  C   UNL     1      20.675   0.937 -19.131  1.00  0.00     0.094 A 
ATOM      5  C   UNL     1      21.003   0.727 -20.475  1.00  0.00     0.142 A 
ATOM      6  C   UNL     1      20.815  -0.548 -21.053  1.00  0.00     0.018 A 
ATOM      7  C   UNL     1      21.153  -0.726 -22.397  1.00  0.00     0.019 A 
ATOM      8  C   UNL     1      21.660   0.350 -23.124  1.00  0.00     0.094 A 
ATOM      9  C   UNL     1      21.820   1.585 -22.485  1.00  0.00     0.336 A 
ATOM     10  O   UNL     1      22.277   2.568 -23.125  1.00  0.00    -0.246 OA
ATOM     11  O   UNL     1      21.491   1.727 -21.204  1.00  0.00    -0.423 OA
ENDROOT
BRANCH   3  12
ATOM     12  O   UNL     1      19.831   0.081 -17.020  1.00  0.00    -0.508 OA
ATOM     13  H   UNL     1      18.898   0.365 -16.742  1.00  0.00     0.293 HD
ENDBRANCH   3  12
TORSDOF 1
ENDMDL
MODEL 3
REMARK VINA RESULT:    -5.106     16.084     18.861
REMARK INTER + INTRA:          -5.255
REMARK INTER:                  -5.255
REMARK INTRA:                   0.000
REMARK UNBOUND:                 0.000
REMARK SMILES O=c1ccc2ccc(O)cc2o1
REMARK SMILES IDX 6 1 7 2 8 3 10 4 11 5 5 6 4 7 3 8 2 9 1 10 12 11 9 12
REMARK H PARENT 9 13
REMARK Flexibility Score: inf
ROOT
ATOM      1  C   UNL     1       8.453  -8.204  -6.902  1.00  0.00     0.016 A 
ATOM      2  C   UNL     1       7.799  -7.376  -5.985  1.00  0.00     0.047 A 
ATOM      3  C   UNL     1       8.192  -6.041  -5.830  1.00  0.00     0.119 A 
ATOM      4  C   UNL     1       9.248  -5.529  -6.597  1.00  0.00     0.094 A 
ATOM      5  C   UNL     1       9.909  -6.350  -7.518  1.00  0.00     0.142 A 
ATOM      6  C   UNL     1       9.510  -7.696  -7.671  1.00  0.00     0.018 A 
ATOM      7  C   UNL     1      10.190  -8.490  -8.599  1.00  0.00     0.019 A 
ATOM      8  C   UNL     1      11.234  -7.937  -9.340  1.00  0.00     0.094 A 
ATOM      9  C   UNL     1      11.575  -6.596  -9.134  1.00  0.00     0.336 A 
ATOM     10  O   UNL     1      12.515  -6.079  -9.793  1.00  0.00    -0.246 OA
ATOM     11  O   UNL     1      10.911  -5.861  -8.245  1.00  0.00    -0.423 OA
ENDROOT
BRANCH   3  12
ATOM     12  O   UNL     1       7.527  -5.232  -4.910  1.00  0.00    -0.508 OA
ATOM     13  H   UNL     1       6.515  -5.179  -4.887  1.00  0.00     0.293 HD
ENDBRANCH   3  12
TORSDOF 1
ENDMDL
MODEL 4
REMARK VINA RESULT:    -5.087     18.488     20.217
REMARK INTER + INTRA:          -5.236
REMARK INTER:                  -5.236
REMARK INTRA:                   0.000
REMARK UNBOUND:                 0.000
REMARK SMILES O=c1ccc2ccc(O)cc2o1
REMARK SMILES IDX 6 1 7 2 8 3 10 4 11 5 5 6 4 7 3 8 2 9 1 10 12 11 9 12
REMARK H PARENT 9 13
REMARK Flexibility Score: inf
ROOT
ATOM      1  C   UNL     1       4.774   3.784  -7.182  1.00  0.00     0.016 A 
ATOM      2  C   UNL     1       5.750   2.783  -7.188  1.00  0.00     0.047 A 
ATOM      3  C   UNL     1       6.785   2.808  -8.130  1.00  0.00     0.119 A 
ATOM      4  C   UNL     1       6.846   3.842  -9.076  1.00  0.00     0.094 A 
ATOM      5  C   UNL     1       5.874   4.849  -9.078  1.00  0.00     0.142 A 
ATOM      6  C   UNL     1       4.831   4.820  -8.125  1.00  0.00     0.018 A 
ATOM      7  C   UNL     1       3.875   5.839  -8.153  1.00  0.00     0.019 A 
ATOM      8  C   UNL     1       3.977   6.847  -9.112  1.00  0.00     0.094 A 
ATOM      9  C   UNL     1       5.036   6.811 -10.024  1.00  0.00     0.336 A 
ATOM     10  O   UNL     1       5.145   7.712 -10.897  1.00  0.00    -0.246 OA
ATOM     11  O   UNL     1       5.933   5.829  -9.976  1.00  0.00    -0.423 OA
ENDROOT
BRANCH   3  12
ATOM     12  O   UNL     1       7.748   1.800  -8.119  1.00  0.00    -0.508 OA
ATOM     13  H   UNL     1       8.434   1.733  -7.376  1.00  0.00     0.293 HD
ENDBRANCH   3  12
TORSDOF 1
ENDMDL
MODEL 5
REMARK VINA RESULT:    -4.809     18.679     19.775
REMARK INTER + INTRA:          -4.949
REMARK INTER:                  -4.949
REMARK INTRA:                   0.000
REMARK UNBOUND:                 0.000
REMARK SMILES O=c1ccc2ccc(O)cc2o1
REMARK SMILES IDX 6 1 7 2 8 3 10 4 11 5 5 6 4 7 3 8 2 9 1 10 12 11 9 12
REMARK H PARENT 9 13
REMARK Flexibility Score: inf
ROOT
ATOM      1  C   UNL     1       3.945   5.401  -8.281  1.00  0.00     0.016 A 
ATOM      2  C   UNL     1       4.008   6.359  -9.298  1.00  0.00     0.047 A 
ATOM      3  C   UNL     1       5.113   6.409 -10.156  1.00  0.00     0.119 A 
ATOM      4  C   UNL     1       6.165   5.495  -9.997  1.00  0.00     0.094 A 
ATOM      5  C   UNL     1       6.111   4.532  -8.983  1.00  0.00     0.142 A 
ATOM      6  C   UNL     1       4.994   4.484  -8.119  1.00  0.00     0.018 A 
ATOM      7  C   UNL     1       4.970   3.512  -7.115  1.00  0.00     0.019 A 
ATOM      8  C   UNL     1       6.039   2.623  -6.996  1.00  0.00     0.094 A 
ATOM      9  C   UNL     1       7.112   2.731  -7.888  1.00  0.00     0.336 A 
ATOM     10  O   UNL     1       8.086   1.938  -7.796  1.00  0.00    -0.246 OA
ATOM     11  O   UNL     1       7.110   3.666  -8.834  1.00  0.00    -0.423 OA
ENDROOT
BRANCH   3  12
ATOM     12  O   UNL     1       5.156   7.372 -11.163  1.00  0.00    -0.508 OA
ATOM     13  H   UNL     1       4.921   8.341 -10.979  1.00  0.00     0.293 HD
ENDBRANCH   3  12
TORSDOF 1
ENDMDL
MODEL 6
REMARK VINA RESULT:    -4.806     15.171     18.037
REMARK INTER + INTRA:          -4.946
REMARK INTER:                  -4.946
REMARK INTRA:                   0.000
REMARK UNBOUND:                 0.000
REMARK SMILES O=c1ccc2ccc(O)cc2o1
REMARK SMILES IDX 6 1 7 2 8 3 10 4 11 5 5 6 4 7 3 8 2 9 1 10 12 11 9 12
REMARK H PARENT 9 13
REMARK Flexibility Score: inf
ROOT
ATOM      1  C   UNL     1      13.210   4.346  -3.531  1.00  0.00     0.016 A 
ATOM      2  C   UNL     1      12.113   3.769  -2.884  1.00  0.00     0.047 A 
ATOM      3  C   UNL     1      11.325   2.815  -3.539  1.00  0.00     0.119 A 
ATOM      4  C   UNL     1      11.637   2.433  -4.852  1.00  0.00     0.094 A 
ATOM      5  C   UNL     1      12.733   3.005  -5.508  1.00  0.00     0.142 A 
ATOM      6  C   UNL     1      13.525   3.967  -4.844  1.00  0.00     0.018 A 
ATOM      7  C   UNL     1      14.613   4.520  -5.525  1.00  0.00     0.019 A 
ATOM      8  C   UNL     1      14.884   4.109  -6.830  1.00  0.00     0.094 A 
ATOM      9  C   UNL     1      14.055   3.152  -7.425  1.00  0.00     0.336 A 
ATOM     10  O   UNL     1      14.284   2.769  -8.603  1.00  0.00    -0.246 OA
ATOM     11  O   UNL     1      13.026   2.641  -6.754  1.00  0.00    -0.423 OA
ENDROOT
BRANCH   3  12
ATOM     12  O   UNL     1      10.236   2.252  -2.876  1.00  0.00    -0.508 OA
ATOM     13  H   UNL     1      10.342   1.438  -2.282  1.00  0.00     0.293 HD
ENDBRANCH   3  12
TORSDOF 1
ENDMDL
MODEL 7
REMARK VINA RESULT:    -4.750      1.789      2.653
REMARK INTER + INTRA:          -4.889
REMARK INTER:                  -4.889
REMARK INTRA:                   0.000
REMARK UNBOUND:                 0.000
REMARK SMILES O=c1ccc2ccc(O)cc2o1
REMARK SMILES IDX 6 1 7 2 8 3 10 4 11 5 5 6 4 7 3 8 2 9 1 10 12 11 9 12
REMARK H PARENT 9 13
REMARK Flexibility Score: inf
ROOT
ATOM      1  C   UNL     1      21.054   1.057 -19.919  1.00  0.00     0.016 A 
ATOM      2  C   UNL     1      21.408   0.760 -21.239  1.00  0.00     0.047 A 
ATOM      3  C   UNL     1      21.059  -0.472 -21.806  1.00  0.00     0.119 A 
ATOM      4  C   UNL     1      20.350  -1.415 -21.048  1.00  0.00     0.094 A 
ATOM      5  C   UNL     1      19.991  -1.127 -19.726  1.00  0.00     0.142 A 
ATOM      6  C   UNL     1      20.345   0.116 -19.158  1.00  0.00     0.018 A 
ATOM      7  C   UNL     1      19.972   0.375 -17.836  1.00  0.00     0.019 A 
ATOM      8  C   UNL     1      19.267  -0.594 -17.121  1.00  0.00     0.094 A 
ATOM      9  C   UNL     1      18.952  -1.804 -17.749  1.00  0.00     0.336 A 
ATOM     10  O   UNL     1      18.316  -2.691 -17.121  1.00  0.00    -0.246 OA
ATOM     11  O   UNL     1      19.318  -2.024 -19.009  1.00  0.00    -0.423 OA
ENDROOT
BRANCH   3  12
ATOM     12  O   UNL     1      21.421  -0.748 -23.123  1.00  0.00    -0.508 OA
ATOM     13  H   UNL     1      20.727  -0.974 -23.826  1.00  0.00     0.293 HD
ENDBRANCH   3  12
TORSDOF 1
ENDMDL
MODEL 8
REMARK VINA RESULT:    -4.726     16.789     18.379
REMARK INTER + INTRA:          -4.864
REMARK INTER:                  -4.864
REMARK INTRA:                   0.000
REMARK UNBOUND:                 0.000
REMARK SMILES O=c1ccc2ccc(O)cc2o1
REMARK SMILES IDX 6 1 7 2 8 3 10 4 11 5 5 6 4 7 3 8 2 9 1 10 12 11 9 12
REMARK H PARENT 9 13
REMARK Flexibility Score: inf
ROOT
ATOM      1  C   UNL     1       7.735  -6.911  -7.467  1.00  0.00     0.016 A 
ATOM      2  C   UNL     1       8.437  -6.107  -6.563  1.00  0.00     0.047 A 
ATOM      3  C   UNL     1       9.733  -5.672  -6.861  1.00  0.00     0.119 A 
ATOM      4  C   UNL     1      10.335  -6.042  -8.072  1.00  0.00     0.094 A 
ATOM      5  C   UNL     1       9.641  -6.845  -8.984  1.00  0.00     0.142 A 
ATOM      6  C   UNL     1       8.332  -7.283  -8.680  1.00  0.00     0.018 A 
ATOM      7  C   UNL     1       7.665  -8.085  -9.610  1.00  0.00     0.019 A 
ATOM      8  C   UNL     1       8.303  -8.427 -10.802  1.00  0.00     0.094 A 
ATOM      9  C   UNL     1       9.600  -7.958 -11.035  1.00  0.00     0.336 A 
ATOM     10  O   UNL     1      10.193  -8.256 -12.105  1.00  0.00    -0.246 OA
ATOM     11  O   UNL     1      10.213  -7.195 -10.133  1.00  0.00    -0.423 OA
ENDROOT
BRANCH   3  12
ATOM     12  O   UNL     1      10.415  -4.871  -5.946  1.00  0.00    -0.508 OA
ATOM     13  H   UNL     1      11.193  -4.287  -6.231  1.00  0.00     0.293 HD
ENDBRANCH   3  12
TORSDOF 1
ENDMDL
MODEL 9
REMARK VINA RESULT:    -4.686     16.628     17.426
REMARK INTER + INTRA:          -4.823
REMARK INTER:                  -4.823
REMARK INTRA:                   0.000
REMARK UNBOUND:                 0.000
REMARK SMILES O=c1ccc2ccc(O)cc2o1
REMARK SMILES IDX 6 1 7 2 8 3 10 4 11 5 5 6 4 7 3 8 2 9 1 10 12 11 9 12
REMARK H PARENT 9 13
REMARK Flexibility Score: inf
ROOT
ATOM      1  C   UNL     1      10.698  -8.130  -8.876  1.00  0.00     0.016 A 
ATOM      2  C   UNL     1      10.861  -7.329  -7.741  1.00  0.00     0.047 A 
ATOM      3  C   UNL     1      10.272  -6.060  -7.679  1.00  0.00     0.119 A 
ATOM      4  C   UNL     1       9.515  -5.587  -8.760  1.00  0.00     0.094 A 
ATOM      5  C   UNL     1       9.346  -6.380  -9.900  1.00  0.00     0.142 A 
ATOM      6  C   UNL     1       9.941  -7.660  -9.959  1.00  0.00     0.018 A 
ATOM      7  C   UNL     1       9.754  -8.429 -11.111  1.00  0.00     0.019 A 
ATOM      8  C   UNL     1       8.993  -7.916 -12.161  1.00  0.00     0.094 A 
ATOM      9  C   UNL     1       8.435  -6.640 -12.033  1.00  0.00     0.336 A 
ATOM     10  O   UNL     1       7.744  -6.159 -12.970  1.00  0.00    -0.246 OA
ATOM     11  O   UNL     1       8.627  -5.929 -10.925  1.00  0.00    -0.423 OA
ENDROOT
BRANCH   3  12
ATOM     12  O   UNL     1      10.447  -5.278  -6.539  1.00  0.00    -0.508 OA
ATOM     13  H   UNL     1      10.165  -5.609  -5.623  1.00  0.00     0.293 HD
ENDBRANCH   3  12
TORSDOF 1
ENDMDL
