MODEL 1
REMARK VINA RESULT:    -4.570      0.000      0.000
REMARK INTER + INTRA:          -9.910
REMARK INTER:                  -8.310
REMARK INTRA:                  -1.601
REMARK UNBOUND:                -1.601
REMARK SMILES CCCCCCCCCCCCCCCC(=O)[O-]
REMARK SMILES IDX 9 1 10 2 11 3 12 4 13 5 14 6 15 7 16 8 17 9 18 10 8 11 7 12
REMARK SMILES IDX 6 13 5 14 4 15 3 16 2 17 1 18
REMARK H PARENT
REMARK Flexibility Score: inf
ROOT
ATOM      1  C   UNL     1     191.620 192.449 191.027  1.00  0.00     0.000 C 
ENDROOT
BRANCH   1   2
ATOM      2  C   UNL     1     192.762 193.373 191.485  1.00  0.00     0.000 C 
BRANCH   2   3
ATOM      3  C   UNL     1     192.638 194.793 190.911  1.00  0.00     0.000 C 
BRANCH   3   4
ATOM      4  C   UNL     1     191.445 195.567 191.493  1.00  0.00     0.000 C 
BRANCH   4   5
ATOM      5  C   UNL     1     191.867 196.385 192.720  1.00  0.00     0.000 C 
BRANCH   5   6
ATOM      6  C   UNL     1     191.245 197.785 192.690  1.00  0.00     0.006 C 
BRANCH   6   7
ATOM      7  C   UNL     1     191.782 198.601 191.511  1.00  0.00     0.053 C 
BRANCH   7   8
ATOM      8  C   UNL     1     192.737 199.649 191.989  1.00  0.00     0.041 C 
ATOM      9  O   UNL     1     193.402 199.467 193.043  1.00  0.00    -0.550 OA
ATOM     10  O   UNL     1     192.928 200.806 191.245  1.00  0.00    -0.550 OA
ENDBRANCH   7   8
ENDBRANCH   6   7
ENDBRANCH   5   6
ENDBRANCH   4   5
ENDBRANCH   3   4
ENDBRANCH   2   3
ENDBRANCH   1   2
BRANCH   1  11
ATOM     11  C   UNL     1     191.587 191.122 191.801  1.00  0.00     0.000 C 
BRANCH  11  12
ATOM     12  C   UNL     1     190.486 191.084 192.872  1.00  0.00    -0.000 C 
BRANCH  12  13
ATOM     13  C   UNL     1     189.634 192.359 192.828  1.00  0.00    -0.000 C 
BRANCH  13  14
ATOM     14  C   UNL     1     189.809 193.181 194.113  1.00  0.00    -0.000 C 
BRANCH  14  15
ATOM     15  C   UNL     1     189.029 194.506 194.082  1.00  0.00    -0.000 C 
BRANCH  15  16
ATOM     16  C   UNL     1     189.331 195.397 195.300  1.00  0.00    -0.000 C 
BRANCH  16  17
ATOM     17  C   UNL     1     188.187 196.374 195.612  1.00  0.00    -0.003 C 
ATOM     18  C   UNL     1     188.488 197.804 195.164  1.00  0.00     0.004 C 
ENDBRANCH  16  17
ENDBRANCH  15  16
ENDBRANCH  14  15
ENDBRANCH  13  14
ENDBRANCH  12  13
ENDBRANCH  11  12
ENDBRANCH   1  11
TORSDOF 14
ENDMDL
MODEL 2
REMARK VINA RESULT:    -4.564      3.757      5.713
REMARK INTER + INTRA:          -9.900
REMARK INTER:                  -7.987
REMARK INTRA:                  -1.913
REMARK UNBOUND:                -1.601
REMARK SMILES CCCCCCCCCCCCCCCC(=O)[O-]
REMARK SMILES IDX 9 1 10 2 11 3 12 4 13 5 14 6 15 7 16 8 17 9 18 10 8 11 7 12
REMARK SMILES IDX 6 13 5 14 4 15 3 16 2 17 1 18
REMARK H PARENT
REMARK Flexibility Score: inf
ROOT
ATOM      1  C   UNL     1     189.650 194.326 193.958  1.00  0.00     0.000 C 
ENDROOT
BRANCH   1   2
ATOM      2  C   UNL     1     190.256 195.713 193.683  1.00  0.00     0.000 C 
BRANCH   2   3
ATOM      3  C   UNL     1     191.441 195.655 192.706  1.00  0.00     0.000 C 
BRANCH   3   4
ATOM      4  C   UNL     1     191.169 194.749 191.495  1.00  0.00     0.000 C 
BRANCH   4   5
ATOM      5  C   UNL     1     192.368 193.836 191.212  1.00  0.00     0.000 C 
BRANCH   5   6
ATOM      6  C   UNL     1     192.126 192.424 191.757  1.00  0.00     0.006 C 
BRANCH   6   7
ATOM      7  C   UNL     1     190.788 191.866 191.263  1.00  0.00     0.053 C 
BRANCH   7   8
ATOM      8  C   UNL     1     190.141 191.035 192.326  1.00  0.00     0.041 C 
ATOM      9  O   UNL     1     188.923 190.730 192.238  1.00  0.00    -0.550 OA
ATOM     10  O   UNL     1     190.895 190.559 193.391  1.00  0.00    -0.550 OA
ENDBRANCH   7   8
ENDBRANCH   6   7
ENDBRANCH   5   6
ENDBRANCH   4   5
ENDBRANCH   3   4
ENDBRANCH   2   3
ENDBRANCH   1   2
BRANCH   1  11
ATOM     11  C   UNL     1     189.444 194.058 195.458  1.00  0.00     0.000 C 
BRANCH  11  12
ATOM     12  C   UNL     1     189.344 195.349 196.285  1.00  0.00    -0.000 C 
BRANCH  12  13
ATOM     13  C   UNL     1     188.346 195.186 197.439  1.00  0.00    -0.000 C 
BRANCH  13  14
ATOM     14  C   UNL     1     186.963 194.773 196.914  1.00  0.00    -0.000 C 
BRANCH  14  15
ATOM     15  C   UNL     1     186.203 195.940 196.262  1.00  0.00    -0.000 C 
BRANCH  15  16
ATOM     16  C   UNL     1     185.947 195.710 194.761  1.00  0.00    -0.000 C 
BRANCH  16  17
ATOM     17  C   UNL     1     185.805 194.222 194.409  1.00  0.00    -0.003 C 
ATOM     18  C   UNL     1     186.134 193.923 192.947  1.00  0.00     0.004 C 
ENDBRANCH  16  17
ENDBRANCH  15  16
ENDBRANCH  14  15
ENDBRANCH  13  14
ENDBRANCH  12  13
ENDBRANCH  11  12
ENDBRANCH   1  11
TORSDOF 14
ENDMDL
MODEL 3
REMARK VINA RESULT:    -4.545      2.513      4.785
REMARK INTER + INTRA:          -9.865
REMARK INTER:                  -8.204
REMARK INTRA:                  -1.660
REMARK UNBOUND:                -1.601
REMARK SMILES CCCCCCCCCCCCCCCC(=O)[O-]
REMARK SMILES IDX 9 1 10 2 11 3 12 4 13 5 14 6 15 7 16 8 17 9 18 10 8 11 7 12
REMARK SMILES IDX 6 13 5 14 4 15 3 16 2 17 1 18
REMARK H PARENT
REMARK Flexibility Score: inf
ROOT
ATOM      1  C   UNL     1     188.744 193.856 193.453  1.00  0.00     0.000 C 
ENDROOT
BRANCH   1   2
ATOM      2  C   UNL     1     189.653 193.901 194.693  1.00  0.00     0.000 C 
BRANCH   2   3
ATOM      3  C   UNL     1     189.418 195.154 195.552  1.00  0.00     0.000 C 
BRANCH   3   4
ATOM      4  C   UNL     1     189.075 196.394 194.711  1.00  0.00     0.000 C 
BRANCH   4   5
ATOM      5  C   UNL     1     189.185 197.673 195.550  1.00  0.00     0.000 C 
BRANCH   5   6
ATOM      6  C   UNL     1     189.356 197.343 197.038  1.00  0.00     0.006 C 
BRANCH   6   7
ATOM      7  C   UNL     1     190.543 198.104 197.636  1.00  0.00     0.053 C 
BRANCH   7   8
ATOM      8  C   UNL     1     190.182 199.537 197.873  1.00  0.00     0.041 C 
ATOM      9  O   UNL     1     188.995 199.855 198.147  1.00  0.00    -0.550 OA
ATOM     10  O   UNL     1     191.166 200.516 197.838  1.00  0.00    -0.550 OA
ENDBRANCH   7   8
ENDBRANCH   6   7
ENDBRANCH   5   6
ENDBRANCH   4   5
ENDBRANCH   3   4
ENDBRANCH   2   3
ENDBRANCH   1   2
BRANCH   1  11
ATOM     11  C   UNL     1     189.054 192.663 192.535  1.00  0.00     0.000 C 
BRANCH  11  12
ATOM     12  C   UNL     1     189.697 193.086 191.205  1.00  0.00    -0.000 C 
BRANCH  12  13
ATOM     13  C   UNL     1     191.128 192.546 191.090  1.00  0.00    -0.000 C 
BRANCH  13  14
ATOM     14  C   UNL     1     192.153 193.614 191.497  1.00  0.00    -0.000 C 
BRANCH  14  15
ATOM     15  C   UNL     1     191.632 195.046 191.294  1.00  0.00    -0.000 C 
BRANCH  15  16
ATOM     16  C   UNL     1     191.924 195.957 192.499  1.00  0.00    -0.000 C 
BRANCH  16  17
ATOM     17  C   UNL     1     191.530 197.419 192.241  1.00  0.00    -0.003 C 
ATOM     18  C   UNL     1     191.242 197.705 190.767  1.00  0.00     0.004 C 
ENDBRANCH  16  17
ENDBRANCH  15  16
ENDBRANCH  14  15
ENDBRANCH  13  14
ENDBRANCH  12  13
ENDBRANCH  11  12
ENDBRANCH   1  11
TORSDOF 14
ENDMDL
MODEL 4
REMARK VINA RESULT:    -4.501      2.150      4.583
REMARK INTER + INTRA:          -9.785
REMARK INTER:                  -8.078
REMARK INTRA:                  -1.707
REMARK UNBOUND:                -1.601
REMARK SMILES CCCCCCCCCCCCCCCC(=O)[O-]
REMARK SMILES IDX 9 1 10 2 11 3 12 4 13 5 14 6 15 7 16 8 17 9 18 10 8 11 7 12
REMARK SMILES IDX 6 13 5 14 4 15 3 16 2 17 1 18
REMARK H PARENT
REMARK Flexibility Score: inf
ROOT
ATOM      1  C   UNL     1     190.339 191.806 192.911  1.00  0.00     0.000 C 
ENDROOT
BRANCH   1   2
ATOM      2  C   UNL     1     189.342 192.837 192.355  1.00  0.00     0.000 C 
BRANCH   2   3
ATOM      3  C   UNL     1     188.675 193.669 193.462  1.00  0.00     0.000 C 
BRANCH   3   4
ATOM      4  C   UNL     1     189.532 193.760 194.734  1.00  0.00     0.000 C 
BRANCH   4   5
ATOM      5  C   UNL     1     188.799 194.536 195.835  1.00  0.00     0.000 C 
BRANCH   5   6
ATOM      6  C   UNL     1     189.160 196.025 195.795  1.00  0.00     0.006 C 
BRANCH   6   7
ATOM      7  C   UNL     1     189.852 196.458 197.091  1.00  0.00     0.053 C 
BRANCH   7   8
ATOM      8  C   UNL     1     189.969 197.948 197.150  1.00  0.00     0.041 C 
ATOM      9  O   UNL     1     188.940 198.669 197.064  1.00  0.00    -0.550 OA
ATOM     10  O   UNL     1     191.210 198.540 197.349  1.00  0.00    -0.550 OA
ENDBRANCH   7   8
ENDBRANCH   6   7
ENDBRANCH   5   6
ENDBRANCH   4   5
ENDBRANCH   3   4
ENDBRANCH   2   3
ENDBRANCH   1   2
BRANCH   1  11
ATOM     11  C   UNL     1     191.623 191.713 192.070  1.00  0.00     0.000 C 
BRANCH  11  12
ATOM     12  C   UNL     1     191.649 192.719 190.909  1.00  0.00    -0.000 C 
BRANCH  12  13
ATOM     13  C   UNL     1     192.776 193.743 191.095  1.00  0.00    -0.000 C 
BRANCH  13  14
ATOM     14  C   UNL     1     192.217 195.172 191.152  1.00  0.00    -0.000 C 
BRANCH  14  15
ATOM     15  C   UNL     1     191.856 195.612 192.580  1.00  0.00    -0.000 C 
BRANCH  15  16
ATOM     16  C   UNL     1     191.002 196.893 192.605  1.00  0.00    -0.000 C 
BRANCH  16  17
ATOM     17  C   UNL     1     191.243 197.783 191.377  1.00  0.00    -0.003 C 
ATOM     18  C   UNL     1     192.007 199.065 191.712  1.00  0.00     0.004 C 
ENDBRANCH  16  17
ENDBRANCH  15  16
ENDBRANCH  14  15
ENDBRANCH  13  14
ENDBRANCH  12  13
ENDBRANCH  11  12
ENDBRANCH   1  11
TORSDOF 14
ENDMDL
MODEL 5
REMARK VINA RESULT:    -4.485      1.467      2.116
REMARK INTER + INTRA:          -9.757
REMARK INTER:                  -8.049
REMARK INTRA:                  -1.708
REMARK UNBOUND:                -1.601
REMARK SMILES CCCCCCCCCCCCCCCC(=O)[O-]
REMARK SMILES IDX 9 1 10 2 11 3 12 4 13 5 14 6 15 7 16 8 17 9 18 10 8 11 7 12
REMARK SMILES IDX 6 13 5 14 4 15 3 16 2 17 1 18
REMARK H PARENT
REMARK Flexibility Score: inf
ROOT
ATOM      1  C   UNL     1     191.021 191.559 192.217  1.00  0.00     0.000 C 
ENDROOT
BRANCH   1   2
ATOM      2  C   UNL     1     191.548 192.186 190.915  1.00  0.00     0.000 C 
BRANCH   2   3
ATOM      3  C   UNL     1     192.332 193.486 191.162  1.00  0.00     0.000 C 
BRANCH   3   4
ATOM      4  C   UNL     1     191.486 194.567 191.852  1.00  0.00     0.000 C 
BRANCH   4   5
ATOM      5  C   UNL     1     191.658 195.924 191.158  1.00  0.00     0.000 C 
BRANCH   5   6
ATOM      6  C   UNL     1     191.382 197.078 192.128  1.00  0.00     0.006 C 
BRANCH   6   7
ATOM      7  C   UNL     1     191.470 198.429 191.414  1.00  0.00     0.053 C 
BRANCH   7   8
ATOM      8  C   UNL     1     192.511 199.294 192.052  1.00  0.00     0.041 C 
ATOM      9  O   UNL     1     193.129 198.893 193.073  1.00  0.00    -0.550 OA
ATOM     10  O   UNL     1     192.831 200.524 191.492  1.00  0.00    -0.550 OA
ENDBRANCH   7   8
ENDBRANCH   6   7
ENDBRANCH   5   6
ENDBRANCH   4   5
ENDBRANCH   3   4
ENDBRANCH   2   3
ENDBRANCH   1   2
BRANCH   1  11
ATOM     11  C   UNL     1     189.486 191.488 192.260  1.00  0.00     0.000 C 
BRANCH  11  12
ATOM     12  C   UNL     1     188.838 191.786 190.899  1.00  0.00    -0.000 C 
BRANCH  12  13
ATOM     13  C   UNL     1     187.548 192.598 191.071  1.00  0.00    -0.000 C 
BRANCH  13  14
ATOM     14  C   UNL     1     186.983 192.438 192.489  1.00  0.00    -0.000 C 
BRANCH  14  15
ATOM     15  C   UNL     1     186.380 193.742 193.039  1.00  0.00    -0.000 C 
BRANCH  15  16
ATOM     16  C   UNL     1     187.102 194.238 194.305  1.00  0.00    -0.000 C 
BRANCH  16  17
ATOM     17  C   UNL     1     188.550 194.668 194.025  1.00  0.00    -0.003 C 
ATOM     18  C   UNL     1     189.554 194.038 194.990  1.00  0.00     0.004 C 
ENDBRANCH  16  17
ENDBRANCH  15  16
ENDBRANCH  14  15
ENDBRANCH  13  14
ENDBRANCH  12  13
ENDBRANCH  11  12
ENDBRANCH   1  11
TORSDOF 14
ENDMDL
MODEL 6
REMARK VINA RESULT:    -4.458      4.007      6.385
REMARK INTER + INTRA:          -9.707
REMARK INTER:                  -7.925
REMARK INTRA:                  -1.782
REMARK UNBOUND:                -1.601
REMARK SMILES CCCCCCCCCCCCCCCC(=O)[O-]
REMARK SMILES IDX 9 1 10 2 11 3 12 4 13 5 14 6 15 7 16 8 17 9 18 10 8 11 7 12
REMARK SMILES IDX 6 13 5 14 4 15 3 16 2 17 1 18
REMARK H PARENT
REMARK Flexibility Score: inf
ROOT
ATOM      1  C   UNL     1     189.127 194.459 193.758  1.00  0.00     0.000 C 
ENDROOT
BRANCH   1   2
ATOM      2  C   UNL     1     189.687 195.248 194.954  1.00  0.00     0.000 C 
BRANCH   2   3
ATOM      3  C   UNL     1     189.118 194.764 196.298  1.00  0.00     0.000 C 
BRANCH   3   4
ATOM      4  C   UNL     1     187.618 194.439 196.225  1.00  0.00     0.000 C 
BRANCH   4   5
ATOM      5  C   UNL     1     186.774 195.653 196.629  1.00  0.00     0.000 C 
BRANCH   5   6
ATOM      6  C   UNL     1     186.160 196.332 195.399  1.00  0.00     0.006 C 
BRANCH   6   7
ATOM      7  C   UNL     1     185.505 195.304 194.473  1.00  0.00     0.053 C 
BRANCH   7   8
ATOM      8  C   UNL     1     184.016 195.451 194.494  1.00  0.00     0.041 C 
ATOM      9  O   UNL     1     183.351 195.312 193.434  1.00  0.00    -0.550 OA
ATOM     10  O   UNL     1     183.360 195.695 195.693  1.00  0.00    -0.550 OA
ENDBRANCH   7   8
ENDBRANCH   6   7
ENDBRANCH   5   6
ENDBRANCH   4   5
ENDBRANCH   3   4
ENDBRANCH   2   3
ENDBRANCH   1   2
BRANCH   1  11
ATOM     11  C   UNL     1     189.826 193.104 193.564  1.00  0.00     0.000 C 
BRANCH  11  12
ATOM     12  C   UNL     1     189.289 192.324 192.355  1.00  0.00    -0.000 C 
BRANCH  12  13
ATOM     13  C   UNL     1     190.304 192.327 191.204  1.00  0.00    -0.000 C 
BRANCH  13  14
ATOM     14  C   UNL     1     191.732 192.527 191.732  1.00  0.00    -0.000 C 
BRANCH  14  15
ATOM     15  C   UNL     1     192.479 193.660 191.010  1.00  0.00    -0.000 C 
BRANCH  15  16
ATOM     16  C   UNL     1     192.425 194.990 191.784  1.00  0.00    -0.000 C 
BRANCH  16  17
ATOM     17  C   UNL     1     191.531 196.033 191.098  1.00  0.00    -0.003 C 
ATOM     18  C   UNL     1     191.165 197.199 192.018  1.00  0.00     0.004 C 
ENDBRANCH  16  17
ENDBRANCH  15  16
ENDBRANCH  14  15
ENDBRANCH  13  14
ENDBRANCH  12  13
ENDBRANCH  11  12
ENDBRANCH   1  11
TORSDOF 14
ENDMDL
MODEL 7
REMARK VINA RESULT:    -4.434      2.516      5.324
REMARK INTER + INTRA:          -9.664
REMARK INTER:                  -7.865
REMARK INTRA:                  -1.799
REMARK UNBOUND:                -1.601
REMARK SMILES CCCCCCCCCCCCCCCC(=O)[O-]
REMARK SMILES IDX 9 1 10 2 11 3 12 4 13 5 14 6 15 7 16 8 17 9 18 10 8 11 7 12
REMARK SMILES IDX 6 13 5 14 4 15 3 16 2 17 1 18
REMARK H PARENT
REMARK Flexibility Score: inf
ROOT
ATOM      1  C   UNL     1     190.379 195.275 193.493  1.00  0.00     0.000 C 
ENDROOT
BRANCH   1   2
ATOM      2  C   UNL     1     189.508 194.225 194.204  1.00  0.00     0.000 C 
BRANCH   2   3
ATOM      3  C   UNL     1     188.004 194.500 194.041  1.00  0.00     0.000 C 
BRANCH   3   4
ATOM      4  C   UNL     1     187.257 194.530 195.384  1.00  0.00     0.000 C 
BRANCH   4   5
ATOM      5  C   UNL     1     186.470 195.835 195.544  1.00  0.00     0.000 C 
BRANCH   5   6
ATOM      6  C   UNL     1     187.410 197.046 195.583  1.00  0.00     0.006 C 
BRANCH   6   7
ATOM      7  C   UNL     1     188.416 196.924 196.730  1.00  0.00     0.053 C 
BRANCH   7   8
ATOM      8  C   UNL     1     189.429 198.023 196.659  1.00  0.00     0.041 C 
ATOM      9  O   UNL     1     190.413 197.928 195.879  1.00  0.00    -0.550 OA
ATOM     10  O   UNL     1     189.261 199.174 197.419  1.00  0.00    -0.550 OA
ENDBRANCH   7   8
ENDBRANCH   6   7
ENDBRANCH   5   6
ENDBRANCH   4   5
ENDBRANCH   3   4
ENDBRANCH   2   3
ENDBRANCH   1   2
BRANCH   1  11
ATOM     11  C   UNL     1     190.730 194.873 192.051  1.00  0.00     0.000 C 
BRANCH  11  12
ATOM     12  C   UNL     1     192.236 194.962 191.758  1.00  0.00    -0.000 C 
BRANCH  12  13
ATOM     13  C   UNL     1     192.823 193.574 191.472  1.00  0.00    -0.000 C 
BRANCH  13  14
ATOM     14  C   UNL     1     191.721 192.583 191.071  1.00  0.00    -0.000 C 
BRANCH  14  15
ATOM     15  C   UNL     1     191.502 191.481 192.121  1.00  0.00    -0.000 C 
BRANCH  15  16
ATOM     16  C   UNL     1     190.018 191.105 192.280  1.00  0.00    -0.000 C 
BRANCH  16  17
ATOM     17  C   UNL     1     189.151 191.629 191.125  1.00  0.00    -0.003 C 
ATOM     18  C   UNL     1     187.722 191.958 191.557  1.00  0.00     0.004 C 
ENDBRANCH  16  17
ENDBRANCH  15  16
ENDBRANCH  14  15
ENDBRANCH  13  14
ENDBRANCH  12  13
ENDBRANCH  11  12
ENDBRANCH   1  11
TORSDOF 14
ENDMDL
MODEL 8
REMARK VINA RESULT:    -4.378      2.346      5.339
REMARK INTER + INTRA:          -9.562
REMARK INTER:                  -7.965
REMARK INTRA:                  -1.596
REMARK UNBOUND:                -1.601
REMARK SMILES CCCCCCCCCCCCCCCC(=O)[O-]
REMARK SMILES IDX 9 1 10 2 11 3 12 4 13 5 14 6 15 7 16 8 17 9 18 10 8 11 7 12
REMARK SMILES IDX 6 13 5 14 4 15 3 16 2 17 1 18
REMARK H PARENT
REMARK Flexibility Score: inf
ROOT
ATOM      1  C   UNL     1     187.458 193.492 193.467  1.00  0.00     0.000 C 
ENDROOT
BRANCH   1   2
ATOM      2  C   UNL     1     186.449 194.465 194.102  1.00  0.00     0.000 C 
BRANCH   2   3
ATOM      3  C   UNL     1     186.336 194.287 195.624  1.00  0.00     0.000 C 
BRANCH   3   4
ATOM      4  C   UNL     1     187.106 195.362 196.407  1.00  0.00     0.000 C 
BRANCH   4   5
ATOM      5  C   UNL     1     187.148 196.682 195.628  1.00  0.00     0.000 C 
BRANCH   5   6
ATOM      6  C   UNL     1     188.582 197.215 195.523  1.00  0.00     0.006 C 
BRANCH   6   7
ATOM      7  C   UNL     1     188.909 198.149 196.691  1.00  0.00     0.053 C 
BRANCH   7   8
ATOM      8  C   UNL     1     190.219 197.777 197.310  1.00  0.00     0.041 C 
ATOM      9  O   UNL     1     190.338 196.693 197.940  1.00  0.00    -0.550 OA
ATOM     10  O   UNL     1     191.322 198.606 197.151  1.00  0.00    -0.550 OA
ENDBRANCH   7   8
ENDBRANCH   6   7
ENDBRANCH   5   6
ENDBRANCH   4   5
ENDBRANCH   3   4
ENDBRANCH   2   3
ENDBRANCH   1   2
BRANCH   1  11
ATOM     11  C   UNL     1     188.876 194.081 193.386  1.00  0.00     0.000 C 
BRANCH  11  12
ATOM     12  C   UNL     1     189.966 193.058 193.740  1.00  0.00    -0.000 C 
BRANCH  12  13
ATOM     13  C   UNL     1     190.078 191.977 192.657  1.00  0.00    -0.000 C 
BRANCH  13  14
ATOM     14  C   UNL     1     191.518 191.871 192.134  1.00  0.00    -0.000 C 
BRANCH  14  15
ATOM     15  C   UNL     1     191.799 192.832 190.967  1.00  0.00    -0.000 C 
BRANCH  15  16
ATOM     16  C   UNL     1     192.527 194.111 191.419  1.00  0.00    -0.000 C 
BRANCH  16  17
ATOM     17  C   UNL     1     191.685 195.376 191.197  1.00  0.00    -0.003 C 
ATOM     18  C   UNL     1     191.723 196.331 192.391  1.00  0.00     0.004 C 
ENDBRANCH  16  17
ENDBRANCH  15  16
ENDBRANCH  14  15
ENDBRANCH  13  14
ENDBRANCH  12  13
ENDBRANCH  11  12
ENDBRANCH   1  11
TORSDOF 14
ENDMDL
MODEL 9
REMARK VINA RESULT:    -4.347      2.796      5.328
REMARK INTER + INTRA:          -9.506
REMARK INTER:                  -7.135
REMARK INTRA:                  -2.371
REMARK UNBOUND:                -1.601
REMARK SMILES CCCCCCCCCCCCCCCC(=O)[O-]
REMARK SMILES IDX 9 1 10 2 11 3 12 4 13 5 14 6 15 7 16 8 17 9 18 10 8 11 7 12
REMARK SMILES IDX 6 13 5 14 4 15 3 16 2 17 1 18
REMARK H PARENT
REMARK Flexibility Score: inf
ROOT
ATOM      1  C   UNL     1     185.780 193.098 194.289  1.00  0.00     0.000 C 
ENDROOT
BRANCH   1   2
ATOM      2  C   UNL     1     186.658 192.225 193.377  1.00  0.00     0.000 C 
BRANCH   2   3
ATOM      3  C   UNL     1     187.225 193.006 192.180  1.00  0.00     0.000 C 
BRANCH   3   4
ATOM      4  C   UNL     1     188.443 192.319 191.544  1.00  0.00     0.000 C 
BRANCH   4   5
ATOM      5  C   UNL     1     189.437 191.861 192.619  1.00  0.00     0.000 C 
BRANCH   5   6
ATOM      6  C   UNL     1     190.850 192.373 192.317  1.00  0.00     0.006 C 
BRANCH   6   7
ATOM      7  C   UNL     1     190.811 193.552 191.342  1.00  0.00     0.053 C 
BRANCH   7   8
ATOM      8  C   UNL     1     192.080 194.341 191.421  1.00  0.00     0.041 C 
ATOM      9  O   UNL     1     192.154 195.350 192.171  1.00  0.00    -0.550 OA
ATOM     10  O   UNL     1     193.197 193.935 190.702  1.00  0.00    -0.550 OA
ENDBRANCH   7   8
ENDBRANCH   6   7
ENDBRANCH   5   6
ENDBRANCH   4   5
ENDBRANCH   3   4
ENDBRANCH   2   3
ENDBRANCH   1   2
BRANCH   1  11
ATOM     11  C   UNL     1     185.534 194.499 193.708  1.00  0.00     0.000 C 
BRANCH  11  12
ATOM     12  C   UNL     1     185.520 195.597 194.783  1.00  0.00    -0.000 C 
BRANCH  12  13
ATOM     13  C   UNL     1     185.108 195.025 196.146  1.00  0.00    -0.000 C 
BRANCH  13  14
ATOM     14  C   UNL     1     186.217 195.232 197.187  1.00  0.00    -0.000 C 
BRANCH  14  15
ATOM     15  C   UNL     1     187.511 195.792 196.573  1.00  0.00    -0.000 C 
BRANCH  15  16
ATOM     16  C   UNL     1     188.716 194.856 196.783  1.00  0.00    -0.000 C 
BRANCH  16  17
ATOM     17  C   UNL     1     189.238 194.265 195.465  1.00  0.00    -0.003 C 
ATOM     18  C   UNL     1     189.252 195.281 194.322  1.00  0.00     0.004 C 
ENDBRANCH  16  17
ENDBRANCH  15  16
ENDBRANCH  14  15
ENDBRANCH  13  14
ENDBRANCH  12  13
ENDBRANCH  11  12
ENDBRANCH   1  11
TORSDOF 14
ENDMDL
