MODEL 1
REMARK VINA RESULT:    -6.192      0.000      0.000
REMARK INTER + INTRA:          -7.572
REMARK INTER:                  -7.278
REMARK INTRA:                  -0.294
REMARK UNBOUND:                -0.294
REMARK SMILES O=c1cc(-c2ccc(O)c(O)c2)oc2cc(O)cc(O)c12
REMARK SMILES IDX 4 1 3 2 2 3 1 4 21 5 19 6 18 7 16 8 15 9 14 10 13 11 5 12
REMARK SMILES IDX 6 13 7 14 8 15 12 16 10 17 9 18 11 20 20 22 17 24
REMARK H PARENT 9 19 11 21 20 23 17 25
REMARK Flexibility Score: inf
ROOT
ATOM      1  C   UNL     1      27.487   4.262  41.095  1.00  0.00     0.138 A 
ATOM      2  C   UNL     1      27.017   4.388  42.410  1.00  0.00     0.100 A 
ATOM      3  C   UNL     1      25.692   4.065  42.705  1.00  0.00     0.197 A 
ATOM      4  O   UNL     1      25.287   4.242  43.882  1.00  0.00    -0.289 OA
ATOM      5  C   UNL     1      24.843   3.577  41.682  1.00  0.00     0.107 A 
ATOM      6  C   UNL     1      23.484   3.183  41.871  1.00  0.00     0.134 A 
ATOM      7  C   UNL     1      22.713   2.810  40.763  1.00  0.00     0.093 A 
ATOM      8  C   UNL     1      23.268   2.760  39.482  1.00  0.00     0.123 A 
ATOM      9  C   UNL     1      24.607   3.096  39.295  1.00  0.00     0.094 A 
ATOM     10  C   UNL     1      25.393   3.505  40.374  1.00  0.00     0.146 A 
ATOM     11  O   UNL     1      26.660   3.832  40.147  1.00  0.00    -0.456 OA
ENDROOT
BRANCH   1  12
ATOM     12  C   UNL     1      28.888   4.590  40.727  1.00  0.00     0.021 A 
ATOM     13  C   UNL     1      29.324   4.574  39.389  1.00  0.00     0.016 A 
ATOM     14  C   UNL     1      30.651   4.878  39.073  1.00  0.00     0.051 A 
ATOM     15  C   UNL     1      31.566   5.194  40.085  1.00  0.00     0.157 A 
ATOM     16  C   UNL     1      29.815   4.895  41.738  1.00  0.00     0.062 A 
ATOM     17  C   UNL     1      31.145   5.201  41.425  1.00  0.00     0.158 A 
BRANCH  15  18
ATOM     18  O   UNL     1      32.888   5.497  39.766  1.00  0.00    -0.504 OA
ATOM     19  H   UNL     1      33.549   4.776  39.499  1.00  0.00     0.293 HD
ENDBRANCH  15  18
BRANCH  17  20
ATOM     20  O   UNL     1      32.031   5.507  42.457  1.00  0.00    -0.504 OA
ATOM     21  H   UNL     1      32.968   5.124  42.493  1.00  0.00     0.293 HD
ENDBRANCH  17  20
ENDBRANCH   1  12
BRANCH   6  22
ATOM     22  O   UNL     1      22.853   3.119  43.118  1.00  0.00    -0.507 OA
ATOM     23  H   UNL     1      22.273   3.843  43.513  1.00  0.00     0.293 HD
ENDBRANCH   6  22
BRANCH   8  24
ATOM     24  O   UNL     1      22.497   2.373  38.388  1.00  0.00    -0.508 OA
ATOM     25  H   UNL     1      22.226   1.407  38.247  1.00  0.00     0.293 HD
ENDBRANCH   8  24
TORSDOF 5
ENDMDL
MODEL 2
REMARK VINA RESULT:    -5.967      1.508      7.617
REMARK INTER + INTRA:          -7.307
REMARK INTER:                  -7.013
REMARK INTRA:                  -0.295
REMARK UNBOUND:                -0.294
REMARK SMILES O=c1cc(-c2ccc(O)c(O)c2)oc2cc(O)cc(O)c12
REMARK SMILES IDX 4 1 3 2 2 3 1 4 21 5 19 6 18 7 16 8 15 9 14 10 13 11 5 12
REMARK SMILES IDX 6 13 7 14 8 15 12 16 10 17 9 18 11 20 20 22 17 24
REMARK H PARENT 9 19 11 21 20 23 17 25
REMARK Flexibility Score: inf
ROOT
ATOM      1  C   UNL     1      28.265   4.510  41.083  1.00  0.00     0.138 A 
ATOM      2  C   UNL     1      28.880   4.589  39.826  1.00  0.00     0.100 A 
ATOM      3  C   UNL     1      30.231   4.928  39.737  1.00  0.00     0.197 A 
ATOM      4  O   UNL     1      30.738   5.045  38.592  1.00  0.00    -0.289 OA
ATOM      5  C   UNL     1      30.979   5.153  40.918  1.00  0.00     0.107 A 
ATOM      6  C   UNL     1      32.370   5.471  40.952  1.00  0.00     0.134 A 
ATOM      7  C   UNL     1      32.980   5.769  42.177  1.00  0.00     0.093 A 
ATOM      8  C   UNL     1      32.263   5.705  43.374  1.00  0.00     0.123 A 
ATOM      9  C   UNL     1      30.916   5.347  43.356  1.00  0.00     0.094 A 
ATOM     10  C   UNL     1      30.271   5.077  42.148  1.00  0.00     0.146 A 
ATOM     11  O   UNL     1      28.982   4.757  42.175  1.00  0.00    -0.456 OA
ENDROOT
BRANCH   1  12
ATOM     12  C   UNL     1      26.832   4.151  41.236  1.00  0.00     0.021 A 
ATOM     13  C   UNL     1      26.211   4.104  42.498  1.00  0.00     0.016 A 
ATOM     14  C   UNL     1      24.863   3.753  42.612  1.00  0.00     0.051 A 
ATOM     15  C   UNL     1      24.115   3.438  41.471  1.00  0.00     0.157 A 
ATOM     16  C   UNL     1      26.078   3.820  40.097  1.00  0.00     0.062 A 
ATOM     17  C   UNL     1      24.727   3.470  40.207  1.00  0.00     0.158 A 
BRANCH  15  18
ATOM     18  O   UNL     1      22.770   3.090  41.588  1.00  0.00    -0.504 OA
ATOM     19  H   UNL     1      22.404   2.239  41.176  1.00  0.00     0.293 HD
ENDBRANCH  15  18
BRANCH  17  20
ATOM     20  O   UNL     1      24.011   3.156  39.052  1.00  0.00    -0.504 OA
ATOM     21  H   UNL     1      23.361   2.380  39.015  1.00  0.00     0.293 HD
ENDBRANCH  17  20
ENDBRANCH   1  12
BRANCH   6  22
ATOM     22  O   UNL     1      33.198   5.485  39.825  1.00  0.00    -0.507 OA
ATOM     23  H   UNL     1      33.446   6.308  39.298  1.00  0.00     0.293 HD
ENDBRANCH   6  22
BRANCH   8  24
ATOM     24  O   UNL     1      32.882   5.988  44.590  1.00  0.00    -0.508 OA
ATOM     25  H   UNL     1      33.353   5.268  45.125  1.00  0.00     0.293 HD
ENDBRANCH   8  24
TORSDOF 5
ENDMDL
MODEL 3
REMARK VINA RESULT:    -5.964      5.159      9.460
REMARK INTER + INTRA:          -7.304
REMARK INTER:                  -7.035
REMARK INTRA:                  -0.269
REMARK UNBOUND:                -0.294
REMARK SMILES O=c1cc(-c2ccc(O)c(O)c2)oc2cc(O)cc(O)c12
REMARK SMILES IDX 4 1 3 2 2 3 1 4 21 5 19 6 18 7 16 8 15 9 14 10 13 11 5 12
REMARK SMILES IDX 6 13 7 14 8 15 12 16 10 17 9 18 11 20 20 22 17 24
REMARK H PARENT 9 19 11 21 20 23 17 25
REMARK Flexibility Score: inf
ROOT
ATOM      1  C   UNL     1      33.266   6.045  41.784  1.00  0.00     0.138 A 
ATOM      2  C   UNL     1      33.437   7.355  41.314  1.00  0.00     0.100 A 
ATOM      3  C   UNL     1      34.329   7.604  40.270  1.00  0.00     0.197 A 
ATOM      4  O   UNL     1      34.500   8.797  39.910  1.00  0.00    -0.289 OA
ATOM      5  C   UNL     1      35.025   6.528  39.668  1.00  0.00     0.107 A 
ATOM      6  C   UNL     1      35.933   6.657  38.573  1.00  0.00     0.134 A 
ATOM      7  C   UNL     1      36.638   5.533  38.126  1.00  0.00     0.093 A 
ATOM      8  C   UNL     1      36.426   4.274  38.695  1.00  0.00     0.123 A 
ATOM      9  C   UNL     1      35.506   4.130  39.731  1.00  0.00     0.094 A 
ATOM     10  C   UNL     1      34.812   5.237  40.222  1.00  0.00     0.146 A 
ATOM     11  O   UNL     1      33.956   5.057  41.222  1.00  0.00    -0.456 OA
ENDROOT
BRANCH   1  12
ATOM     12  C   UNL     1      32.330   5.723  42.890  1.00  0.00     0.021 A 
ATOM     13  C   UNL     1      32.590   6.111  44.218  1.00  0.00     0.016 A 
ATOM     14  C   UNL     1      31.695   5.785  45.240  1.00  0.00     0.051 A 
ATOM     15  C   UNL     1      30.531   5.061  44.958  1.00  0.00     0.157 A 
ATOM     16  C   UNL     1      31.166   4.984  42.617  1.00  0.00     0.062 A 
ATOM     17  C   UNL     1      30.266   4.657  43.639  1.00  0.00     0.158 A 
BRANCH  15  18
ATOM     18  O   UNL     1      29.640   4.739  45.980  1.00  0.00    -0.504 OA
ATOM     19  H   UNL     1      28.945   5.401  46.307  1.00  0.00     0.293 HD
ENDBRANCH  15  18
BRANCH  17  20
ATOM     20  O   UNL     1      29.118   3.931  43.325  1.00  0.00    -0.504 OA
ATOM     21  H   UNL     1      28.964   2.991  43.669  1.00  0.00     0.293 HD
ENDBRANCH  17  20
ENDBRANCH   1  12
BRANCH   6  22
ATOM     22  O   UNL     1      36.160   7.850  37.880  1.00  0.00    -0.507 OA
ATOM     23  H   UNL     1      36.871   8.528  38.109  1.00  0.00     0.293 HD
ENDBRANCH   6  22
BRANCH   8  24
ATOM     24  O   UNL     1      37.122   3.159  38.233  1.00  0.00    -0.508 OA
ATOM     25  H   UNL     1      37.661   3.189  37.375  1.00  0.00     0.293 HD
ENDBRANCH   8  24
TORSDOF 5
ENDMDL
MODEL 4
REMARK VINA RESULT:    -5.885      3.330      5.752
REMARK INTER + INTRA:          -7.212
REMARK INTER:                  -6.938
REMARK INTRA:                  -0.274
REMARK UNBOUND:                -0.294
REMARK SMILES O=c1cc(-c2ccc(O)c(O)c2)oc2cc(O)cc(O)c12
REMARK SMILES IDX 4 1 3 2 2 3 1 4 21 5 19 6 18 7 16 8 15 9 14 10 13 11 5 12
REMARK SMILES IDX 6 13 7 14 8 15 12 16 10 17 9 18 11 20 20 22 17 24
REMARK H PARENT 9 19 11 21 20 23 17 25
REMARK Flexibility Score: inf
ROOT
ATOM      1  C   UNL     1      31.932   5.369  40.337  1.00  0.00     0.138 A 
ATOM      2  C   UNL     1      30.859   4.971  39.528  1.00  0.00     0.100 A 
ATOM      3  C   UNL     1      29.667   4.548  40.118  1.00  0.00     0.197 A 
ATOM      4  O   UNL     1      28.744   4.144  39.365  1.00  0.00    -0.289 OA
ATOM      5  C   UNL     1      29.538   4.560  41.527  1.00  0.00     0.107 A 
ATOM      6  C   UNL     1      28.359   4.183  42.240  1.00  0.00     0.134 A 
ATOM      7  C   UNL     1      28.382   4.142  43.639  1.00  0.00     0.093 A 
ATOM      8  C   UNL     1      29.523   4.518  44.354  1.00  0.00     0.123 A 
ATOM      9  C   UNL     1      30.662   4.934  43.668  1.00  0.00     0.094 A 
ATOM     10  C   UNL     1      30.682   4.954  42.272  1.00  0.00     0.146 A 
ATOM     11  O   UNL     1      31.795   5.341  41.659  1.00  0.00    -0.456 OA
ENDROOT
BRANCH   1  12
ATOM     12  C   UNL     1      33.221   5.830  39.763  1.00  0.00     0.021 A 
ATOM     13  C   UNL     1      33.305   6.985  38.964  1.00  0.00     0.016 A 
ATOM     14  C   UNL     1      34.531   7.390  38.428  1.00  0.00     0.051 A 
ATOM     15  C   UNL     1      35.691   6.645  38.675  1.00  0.00     0.157 A 
ATOM     16  C   UNL     1      34.388   5.081  39.994  1.00  0.00     0.062 A 
ATOM     17  C   UNL     1      35.618   5.483  39.461  1.00  0.00     0.158 A 
BRANCH  15  18
ATOM     18  O   UNL     1      36.912   7.052  38.140  1.00  0.00    -0.504 OA
ATOM     19  H   UNL     1      37.586   7.572  38.691  1.00  0.00     0.293 HD
ENDBRANCH  15  18
BRANCH  17  20
ATOM     20  O   UNL     1      36.754   4.718  39.721  1.00  0.00    -0.504 OA
ATOM     21  H   UNL     1      36.925   3.834  39.257  1.00  0.00     0.293 HD
ENDBRANCH  17  20
ENDBRANCH   1  12
BRANCH   6  22
ATOM     22  O   UNL     1      27.142   3.866  41.628  1.00  0.00    -0.507 OA
ATOM     23  H   UNL     1      26.244   4.240  41.894  1.00  0.00     0.293 HD
ENDBRANCH   6  22
BRANCH   8  24
ATOM     24  O   UNL     1      29.531   4.487  45.746  1.00  0.00    -0.508 OA
ATOM     25  H   UNL     1      29.278   5.300  46.295  1.00  0.00     0.293 HD
ENDBRANCH   8  24
TORSDOF 5
ENDMDL
MODEL 5
REMARK VINA RESULT:    -5.812      1.842      7.230
REMARK INTER + INTRA:          -7.126
REMARK INTER:                  -6.811
REMARK INTRA:                  -0.315
REMARK UNBOUND:                -0.294
REMARK SMILES O=c1cc(-c2ccc(O)c(O)c2)oc2cc(O)cc(O)c12
REMARK SMILES IDX 4 1 3 2 2 3 1 4 21 5 19 6 18 7 16 8 15 9 14 10 13 11 5 12
REMARK SMILES IDX 6 13 7 14 8 15 12 16 10 17 9 18 11 20 20 22 17 24
REMARK H PARENT 9 19 11 21 20 23 17 25
REMARK Flexibility Score: inf
ROOT
ATOM      1  C   UNL     1      27.644   4.277  41.389  1.00  0.00     0.138 A 
ATOM      2  C   UNL     1      28.611   4.640  40.441  1.00  0.00     0.100 A 
ATOM      3  C   UNL     1      29.893   4.995  40.862  1.00  0.00     0.197 A 
ATOM      4  O   UNL     1      30.720   5.370  39.991  1.00  0.00    -0.289 OA
ATOM      5  C   UNL     1      30.219   4.950  42.239  1.00  0.00     0.107 A 
ATOM      6  C   UNL     1      31.504   5.257  42.782  1.00  0.00     0.134 A 
ATOM      7  C   UNL     1      31.679   5.273  44.171  1.00  0.00     0.093 A 
ATOM      8  C   UNL     1      30.633   4.937  45.035  1.00  0.00     0.123 A 
ATOM      9  C   UNL     1      29.390   4.588  44.512  1.00  0.00     0.094 A 
ATOM     10  C   UNL     1      29.173   4.596  43.133  1.00  0.00     0.146 A 
ATOM     11  O   UNL     1      27.967   4.274  42.678  1.00  0.00    -0.456 OA
ENDROOT
BRANCH   1  12
ATOM     12  C   UNL     1      26.266   3.889  40.997  1.00  0.00     0.021 A 
ATOM     13  C   UNL     1      25.938   3.565  39.667  1.00  0.00     0.016 A 
ATOM     14  C   UNL     1      24.629   3.212  39.326  1.00  0.00     0.051 A 
ATOM     15  C   UNL     1      23.626   3.183  40.302  1.00  0.00     0.157 A 
ATOM     16  C   UNL     1      25.250   3.871  41.969  1.00  0.00     0.062 A 
ATOM     17  C   UNL     1      23.939   3.516  41.630  1.00  0.00     0.158 A 
BRANCH  15  18
ATOM     18  O   UNL     1      22.323   2.829  39.958  1.00  0.00    -0.504 OA
ATOM     19  H   UNL     1      21.784   2.178  40.518  1.00  0.00     0.293 HD
ENDBRANCH  15  18
BRANCH  17  20
ATOM     20  O   UNL     1      22.962   3.502  42.625  1.00  0.00    -0.504 OA
ATOM     21  H   UNL     1      22.556   2.640  42.968  1.00  0.00     0.293 HD
ENDBRANCH  17  20
ENDBRANCH   1  12
BRANCH   6  22
ATOM     22  O   UNL     1      32.636   5.528  42.008  1.00  0.00    -0.507 OA
ATOM     23  H   UNL     1      33.164   6.387  42.033  1.00  0.00     0.293 HD
ENDBRANCH   6  22
BRANCH   8  24
ATOM     24  O   UNL     1      30.822   4.941  46.415  1.00  0.00    -0.508 OA
ATOM     25  H   UNL     1      30.275   4.346  47.026  1.00  0.00     0.293 HD
ENDBRANCH   8  24
TORSDOF 5
ENDMDL
MODEL 6
REMARK VINA RESULT:    -5.796      1.723      7.127
REMARK INTER + INTRA:          -7.107
REMARK INTER:                  -6.789
REMARK INTRA:                  -0.318
REMARK UNBOUND:                -0.294
REMARK SMILES O=c1cc(-c2ccc(O)c(O)c2)oc2cc(O)cc(O)c12
REMARK SMILES IDX 4 1 3 2 2 3 1 4 21 5 19 6 18 7 16 8 15 9 14 10 13 11 5 12
REMARK SMILES IDX 6 13 7 14 8 15 12 16 10 17 9 18 11 20 20 22 17 24
REMARK H PARENT 9 19 11 21 20 23 17 25
REMARK Flexibility Score: inf
ROOT
ATOM      1  C   UNL     1      28.060   4.512  42.159  1.00  0.00     0.138 A 
ATOM      2  C   UNL     1      28.470   4.539  43.499  1.00  0.00     0.100 A 
ATOM      3  C   UNL     1      29.799   4.829  43.810  1.00  0.00     0.197 A 
ATOM      4  O   UNL     1      30.147   4.790  45.018  1.00  0.00    -0.289 OA
ATOM      5  C   UNL     1      30.714   5.131  42.773  1.00  0.00     0.107 A 
ATOM      6  C   UNL     1      32.086   5.475  42.971  1.00  0.00     0.134 A 
ATOM      7  C   UNL     1      32.919   5.656  41.861  1.00  0.00     0.093 A 
ATOM      8  C   UNL     1      32.419   5.563  40.560  1.00  0.00     0.123 A 
ATOM      9  C   UNL     1      31.071   5.276  40.357  1.00  0.00     0.094 A 
ATOM     10  C   UNL     1      30.221   5.056  41.442  1.00  0.00     0.146 A 
ATOM     11  O   UNL     1      28.947   4.768  41.202  1.00  0.00    -0.456 OA
ENDROOT
BRANCH   1  12
ATOM     12  C   UNL     1      26.658   4.211  41.772  1.00  0.00     0.021 A 
ATOM     13  C   UNL     1      25.672   3.917  42.732  1.00  0.00     0.016 A 
ATOM     14  C   UNL     1      24.363   3.628  42.337  1.00  0.00     0.051 A 
ATOM     15  C   UNL     1      24.018   3.621  40.980  1.00  0.00     0.157 A 
ATOM     16  C   UNL     1      26.307   4.189  40.411  1.00  0.00     0.062 A 
ATOM     17  C   UNL     1      24.996   3.902  40.012  1.00  0.00     0.158 A 
BRANCH  15  18
ATOM     18  O   UNL     1      22.711   3.334  40.590  1.00  0.00    -0.504 OA
ATOM     19  H   UNL     1      21.913   3.745  41.063  1.00  0.00     0.293 HD
ENDBRANCH  15  18
BRANCH  17  20
ATOM     20  O   UNL     1      24.686   3.899  38.653  1.00  0.00    -0.504 OA
ATOM     21  H   UNL     1      25.058   4.591  38.014  1.00  0.00     0.293 HD
ENDBRANCH  17  20
ENDBRANCH   1  12
BRANCH   6  22
ATOM     22  O   UNL     1      32.670   5.673  44.227  1.00  0.00    -0.507 OA
ATOM     23  H   UNL     1      32.166   5.730  45.099  1.00  0.00     0.293 HD
ENDBRANCH   6  22
BRANCH   8  24
ATOM     24  O   UNL     1      33.253   5.760  39.462  1.00  0.00    -0.508 OA
ATOM     25  H   UNL     1      32.917   6.201  38.614  1.00  0.00     0.293 HD
ENDBRANCH   8  24
TORSDOF 5
ENDMDL
MODEL 7
REMARK VINA RESULT:    -5.755      3.959      7.089
REMARK INTER + INTRA:          -7.059
REMARK INTER:                  -6.768
REMARK INTRA:                  -0.291
REMARK UNBOUND:                -0.294
REMARK SMILES O=c1cc(-c2ccc(O)c(O)c2)oc2cc(O)cc(O)c12
REMARK SMILES IDX 4 1 3 2 2 3 1 4 21 5 19 6 18 7 16 8 15 9 14 10 13 11 5 12
REMARK SMILES IDX 6 13 7 14 8 15 12 16 10 17 9 18 11 20 20 22 17 24
REMARK H PARENT 9 19 11 21 20 23 17 25
REMARK Flexibility Score: inf
ROOT
ATOM      1  C   UNL     1      30.651   5.460  44.033  1.00  0.00     0.138 A 
ATOM      2  C   UNL     1      31.893   5.986  43.651  1.00  0.00     0.100 A 
ATOM      3  C   UNL     1      32.254   5.994  42.303  1.00  0.00     0.197 A 
ATOM      4  O   UNL     1      33.398   6.421  42.000  1.00  0.00    -0.289 OA
ATOM      5  C   UNL     1      31.350   5.507  41.329  1.00  0.00     0.107 A 
ATOM      6  C   UNL     1      31.596   5.497  39.923  1.00  0.00     0.134 A 
ATOM      7  C   UNL     1      30.666   4.898  39.064  1.00  0.00     0.093 A 
ATOM      8  C   UNL     1      29.474   4.360  39.554  1.00  0.00     0.123 A 
ATOM      9  C   UNL     1      29.202   4.409  40.920  1.00  0.00     0.094 A 
ATOM     10  C   UNL     1      30.125   4.969  41.806  1.00  0.00     0.146 A 
ATOM     11  O   UNL     1      29.833   4.979  43.102  1.00  0.00    -0.456 OA
ENDROOT
BRANCH   1  12
ATOM     12  C   UNL     1      30.214   5.428  45.452  1.00  0.00     0.021 A 
ATOM     13  C   UNL     1      28.862   5.263  45.807  1.00  0.00     0.016 A 
ATOM     14  C   UNL     1      28.480   5.247  47.151  1.00  0.00     0.051 A 
ATOM     15  C   UNL     1      29.436   5.402  48.162  1.00  0.00     0.157 A 
ATOM     16  C   UNL     1      31.167   5.597  46.472  1.00  0.00     0.062 A 
ATOM     17  C   UNL     1      30.787   5.580  47.820  1.00  0.00     0.158 A 
BRANCH  15  18
ATOM     18  O   UNL     1      29.051   5.384  49.501  1.00  0.00    -0.504 OA
ATOM     19  H   UNL     1      29.673   5.700  50.237  1.00  0.00     0.293 HD
ENDBRANCH  15  18
BRANCH  17  20
ATOM     20  O   UNL     1      31.763   5.742  48.801  1.00  0.00    -0.504 OA
ATOM     21  H   UNL     1      31.839   6.589  49.351  1.00  0.00     0.293 HD
ENDBRANCH  17  20
ENDBRANCH   1  12
BRANCH   6  22
ATOM     22  O   UNL     1      32.716   6.077  39.319  1.00  0.00    -0.507 OA
ATOM     23  H   UNL     1      33.076   5.835  38.409  1.00  0.00     0.293 HD
ENDBRANCH   6  22
BRANCH   8  24
ATOM     24  O   UNL     1      28.548   3.779  38.690  1.00  0.00    -0.508 OA
ATOM     25  H   UNL     1      27.559   3.994  38.750  1.00  0.00     0.293 HD
ENDBRANCH   8  24
TORSDOF 5
ENDMDL
MODEL 8
REMARK VINA RESULT:    -5.659      9.470     12.893
REMARK INTER + INTRA:          -6.945
REMARK INTER:                  -6.681
REMARK INTRA:                  -0.264
REMARK UNBOUND:                -0.294
REMARK SMILES O=c1cc(-c2ccc(O)c(O)c2)oc2cc(O)cc(O)c12
REMARK SMILES IDX 4 1 3 2 2 3 1 4 21 5 19 6 18 7 16 8 15 9 14 10 13 11 5 12
REMARK SMILES IDX 6 13 7 14 8 15 12 16 10 17 9 18 11 20 20 22 17 24
REMARK H PARENT 9 19 11 21 20 23 17 25
REMARK Flexibility Score: inf
ROOT
ATOM      1  C   UNL     1      22.342  -4.183  47.707  1.00  0.00     0.138 A 
ATOM      2  C   UNL     1      22.596  -4.364  49.074  1.00  0.00     0.100 A 
ATOM      3  C   UNL     1      23.240  -3.358  49.796  1.00  0.00     0.197 A 
ATOM      4  O   UNL     1      23.503  -3.575  51.007  1.00  0.00    -0.289 OA
ATOM      5  C   UNL     1      23.598  -2.149  49.152  1.00  0.00     0.107 A 
ATOM      6  C   UNL     1      24.228  -1.040  49.795  1.00  0.00     0.134 A 
ATOM      7  C   UNL     1      24.624   0.065  49.032  1.00  0.00     0.093 A 
ATOM      8  C   UNL     1      24.362   0.127  47.661  1.00  0.00     0.123 A 
ATOM      9  C   UNL     1      23.704  -0.929  47.034  1.00  0.00     0.094 A 
ATOM     10  C   UNL     1      23.327  -2.061  47.760  1.00  0.00     0.146 A 
ATOM     11  O   UNL     1      22.717  -3.051  47.119  1.00  0.00    -0.456 OA
ENDROOT
BRANCH   1  12
ATOM     12  C   UNL     1      21.658  -5.219  46.891  1.00  0.00     0.021 A 
ATOM     13  C   UNL     1      22.283  -5.821  45.783  1.00  0.00     0.016 A 
ATOM     14  C   UNL     1      21.611  -6.786  45.028  1.00  0.00     0.051 A 
ATOM     15  C   UNL     1      20.303  -7.160  45.360  1.00  0.00     0.157 A 
ATOM     16  C   UNL     1      20.340  -5.590  47.210  1.00  0.00     0.062 A 
ATOM     17  C   UNL     1      19.664  -6.557  46.456  1.00  0.00     0.158 A 
BRANCH  15  18
ATOM     18  O   UNL     1      19.636  -8.124  44.606  1.00  0.00    -0.504 OA
ATOM     19  H   UNL     1      20.139  -8.775  44.012  1.00  0.00     0.293 HD
ENDBRANCH  15  18
BRANCH  17  20
ATOM     20  O   UNL     1      18.361  -6.904  46.810  1.00  0.00    -0.504 OA
ATOM     21  H   UNL     1      18.142  -7.783  47.263  1.00  0.00     0.293 HD
ENDBRANCH  17  20
ENDBRANCH   1  12
BRANCH   6  22
ATOM     22  O   UNL     1      24.464  -0.964  51.171  1.00  0.00    -0.507 OA
ATOM     23  H   UNL     1      24.014  -1.534  51.870  1.00  0.00     0.293 HD
ENDBRANCH   6  22
BRANCH   8  24
ATOM     24  O   UNL     1      24.747   1.237  46.913  1.00  0.00    -0.508 OA
ATOM     25  H   UNL     1      25.308   1.979  47.316  1.00  0.00     0.293 HD
ENDBRANCH   8  24
TORSDOF 5
ENDMDL
MODEL 9
REMARK VINA RESULT:    -5.620      3.164      5.420
REMARK INTER + INTRA:          -6.900
REMARK INTER:                  -6.635
REMARK INTRA:                  -0.265
REMARK UNBOUND:                -0.294
REMARK SMILES O=c1cc(-c2ccc(O)c(O)c2)oc2cc(O)cc(O)c12
REMARK SMILES IDX 4 1 3 2 2 3 1 4 21 5 19 6 18 7 16 8 15 9 14 10 13 11 5 12
REMARK SMILES IDX 6 13 7 14 8 15 12 16 10 17 9 18 11 20 20 22 17 24
REMARK H PARENT 9 19 11 21 20 23 17 25
REMARK Flexibility Score: inf
ROOT
ATOM      1  C   UNL     1      32.378   5.596  41.647  1.00  0.00     0.138 A 
ATOM      2  C   UNL     1      32.571   5.747  43.027  1.00  0.00     0.100 A 
ATOM      3  C   UNL     1      31.527   5.457  43.907  1.00  0.00     0.197 A 
ATOM      4  O   UNL     1      31.715   5.657  45.135  1.00  0.00    -0.289 OA
ATOM      5  C   UNL     1      30.294   4.978  43.402  1.00  0.00     0.107 A 
ATOM      6  C   UNL     1      29.170   4.618  44.206  1.00  0.00     0.134 A 
ATOM      7  C   UNL     1      27.969   4.251  43.587  1.00  0.00     0.093 A 
ATOM      8  C   UNL     1      27.868   4.175  42.195  1.00  0.00     0.123 A 
ATOM      9  C   UNL     1      28.974   4.477  41.404  1.00  0.00     0.094 A 
ATOM     10  C   UNL     1      30.176   4.880  41.990  1.00  0.00     0.146 A 
ATOM     11  O   UNL     1      31.200   5.175  41.197  1.00  0.00    -0.456 OA
ENDROOT
BRANCH   1  12
ATOM     12  C   UNL     1      33.454   5.887  40.666  1.00  0.00     0.021 A 
ATOM     13  C   UNL     1      33.348   6.943  39.742  1.00  0.00     0.016 A 
ATOM     14  C   UNL     1      34.374   7.187  38.824  1.00  0.00     0.051 A 
ATOM     15  C   UNL     1      35.517   6.379  38.808  1.00  0.00     0.157 A 
ATOM     16  C   UNL     1      34.599   5.072  40.635  1.00  0.00     0.062 A 
ATOM     17  C   UNL     1      35.629   5.314  39.718  1.00  0.00     0.158 A 
BRANCH  15  18
ATOM     18  O   UNL     1      36.538   6.626  37.893  1.00  0.00    -0.504 OA
ATOM     19  H   UNL     1      37.493   6.333  38.070  1.00  0.00     0.293 HD
ENDBRANCH  15  18
BRANCH  17  20
ATOM     20  O   UNL     1      36.752   4.489  39.726  1.00  0.00    -0.504 OA
ATOM     21  H   UNL     1      37.092   4.034  38.887  1.00  0.00     0.293 HD
ENDBRANCH  17  20
ENDBRANCH   1  12
BRANCH   6  22
ATOM     22  O   UNL     1      29.186   4.582  45.603  1.00  0.00    -0.507 OA
ATOM     23  H   UNL     1      28.877   3.805  46.168  1.00  0.00     0.293 HD
ENDBRANCH   6  22
BRANCH   8  24
ATOM     24  O   UNL     1      26.673   3.794  41.589  1.00  0.00    -0.508 OA
ATOM     25  H   UNL     1      25.791   4.224  41.840  1.00  0.00     0.293 HD
ENDBRANCH   8  24
TORSDOF 5
ENDMDL
