MODEL 1
REMARK VINA RESULT:    -4.545      0.000      0.000
REMARK INTER + INTRA:          -9.360
REMARK INTER:                  -8.264
REMARK INTRA:                  -1.095
REMARK UNBOUND:                -1.095
REMARK SMILES CCCCCCCCCCCCCCCC(=O)[O-]
REMARK SMILES IDX 9 1 10 2 11 3 12 4 13 5 14 6 15 7 16 8 17 9 18 10 8 11 7 12
REMARK SMILES IDX 6 13 5 14 4 15 3 16 2 17 1 18
REMARK H PARENT
REMARK Flexibility Score: inf
ROOT
ATOM      1  C   UNL     1     -44.029  27.366   0.194  1.00  0.00     0.000 C 
ENDROOT
BRANCH   1   2
ATOM      2  C   UNL     1     -42.595  27.860  -0.034  1.00  0.00     0.000 C 
BRANCH   2   3
ATOM      3  C   UNL     1     -42.499  29.378   0.154  1.00  0.00     0.000 C 
BRANCH   3   4
ATOM      4  C   UNL     1     -43.457  29.858   1.255  1.00  0.00     0.000 C 
BRANCH   4   5
ATOM      5  C   UNL     1     -42.778  29.962   2.629  1.00  0.00     0.000 C 
BRANCH   5   6
ATOM      6  C   UNL     1     -43.146  28.799   3.562  1.00  0.00     0.006 C 
BRANCH   6   7
ATOM      7  C   UNL     1     -44.655  28.761   3.821  1.00  0.00     0.053 C 
BRANCH   7   8
ATOM      8  C   UNL     1     -45.131  27.348   3.949  1.00  0.00     0.041 C 
ATOM      9  O   UNL     1     -46.213  27.095   4.541  1.00  0.00    -0.550 OA
ATOM     10  O   UNL     1     -44.353  26.306   3.461  1.00  0.00    -0.550 OA
ENDBRANCH   7   8
ENDBRANCH   6   7
ENDBRANCH   5   6
ENDBRANCH   4   5
ENDBRANCH   3   4
ENDBRANCH   2   3
ENDBRANCH   1   2
BRANCH   1  11
ATOM     11  C   UNL     1     -44.846  27.429  -1.102  1.00  0.00     0.000 C 
BRANCH  11  12
ATOM     12  C   UNL     1     -45.242  26.021  -1.571  1.00  0.00    -0.000 C 
BRANCH  12  13
ATOM     13  C   UNL     1     -46.075  26.034  -2.866  1.00  0.00    -0.000 C 
BRANCH  13  14
ATOM     14  C   UNL     1     -46.314  27.430  -3.476  1.00  0.00    -0.000 C 
BRANCH  14  15
ATOM     15  C   UNL     1     -46.821  27.427  -4.929  1.00  0.00    -0.000 C 
BRANCH  15  16
ATOM     16  C   UNL     1     -45.984  26.523  -5.850  1.00  0.00    -0.000 C 
BRANCH  16  17
ATOM     17  C   UNL     1     -45.580  27.225  -7.155  1.00  0.00    -0.003 C 
ATOM     18  C   UNL     1     -45.324  28.720  -6.965  1.00  0.00     0.004 C 
ENDBRANCH  16  17
ENDBRANCH  15  16
ENDBRANCH  14  15
ENDBRANCH  13  14
ENDBRANCH  12  13
ENDBRANCH  11  12
ENDBRANCH   1  11
TORSDOF 14
ENDMDL
MODEL 2
REMARK VINA RESULT:    -4.336      2.052      2.666
REMARK INTER + INTRA:          -8.980
REMARK INTER:                  -7.937
REMARK INTRA:                  -1.044
REMARK UNBOUND:                -1.095
REMARK SMILES CCCCCCCCCCCCCCCC(=O)[O-]
REMARK SMILES IDX 9 1 10 2 11 3 12 4 13 5 14 6 15 7 16 8 17 9 18 10 8 11 7 12
REMARK SMILES IDX 6 13 5 14 4 15 3 16 2 17 1 18
REMARK H PARENT
REMARK Flexibility Score: inf
ROOT
ATOM      1  C   UNL     1     -43.119  27.510  -0.008  1.00  0.00     0.000 C 
ENDROOT
BRANCH   1   2
ATOM      2  C   UNL     1     -43.021  27.508   1.522  1.00  0.00     0.000 C 
BRANCH   2   3
ATOM      3  C   UNL     1     -43.538  28.826   2.109  1.00  0.00     0.000 C 
BRANCH   3   4
ATOM      4  C   UNL     1     -44.503  28.567   3.276  1.00  0.00     0.000 C 
BRANCH   4   5
ATOM      5  C   UNL     1     -44.467  27.111   3.764  1.00  0.00     0.000 C 
BRANCH   5   6
ATOM      6  C   UNL     1     -44.154  26.997   5.264  1.00  0.00     0.006 C 
BRANCH   6   7
ATOM      7  C   UNL     1     -43.454  28.259   5.775  1.00  0.00     0.053 C 
BRANCH   7   8
ATOM      8  C   UNL     1     -43.067  28.100   7.211  1.00  0.00     0.041 C 
ATOM      9  O   UNL     1     -41.914  28.427   7.598  1.00  0.00    -0.550 OA
ATOM     10  O   UNL     1     -43.963  27.542   8.114  1.00  0.00    -0.550 OA
ENDBRANCH   7   8
ENDBRANCH   6   7
ENDBRANCH   5   6
ENDBRANCH   4   5
ENDBRANCH   3   4
ENDBRANCH   2   3
ENDBRANCH   1   2
BRANCH   1  11
ATOM     11  C   UNL     1     -44.427  28.159  -0.476  1.00  0.00     0.000 C 
BRANCH  11  12
ATOM     12  C   UNL     1     -45.537  27.110  -0.631  1.00  0.00    -0.000 C 
BRANCH  12  13
ATOM     13  C   UNL     1     -45.233  26.076  -1.732  1.00  0.00    -0.000 C 
BRANCH  13  14
ATOM     14  C   UNL     1     -46.124  26.176  -2.987  1.00  0.00    -0.000 C 
BRANCH  14  15
ATOM     15  C   UNL     1     -46.435  27.610  -3.452  1.00  0.00    -0.000 C 
BRANCH  15  16
ATOM     16  C   UNL     1     -46.498  27.738  -4.983  1.00  0.00    -0.000 C 
BRANCH  16  17
ATOM     17  C   UNL     1     -46.020  26.466  -5.700  1.00  0.00    -0.003 C 
ATOM     18  C   UNL     1     -45.602  26.727  -7.147  1.00  0.00     0.004 C 
ENDBRANCH  16  17
ENDBRANCH  15  16
ENDBRANCH  14  15
ENDBRANCH  13  14
ENDBRANCH  12  13
ENDBRANCH  11  12
ENDBRANCH   1  11
TORSDOF 14
ENDMDL
MODEL 3
REMARK VINA RESULT:    -4.227      0.937      1.205
REMARK INTER + INTRA:          -8.782
REMARK INTER:                  -7.712
REMARK INTRA:                  -1.070
REMARK UNBOUND:                -1.095
REMARK SMILES CCCCCCCCCCCCCCCC(=O)[O-]
REMARK SMILES IDX 9 1 10 2 11 3 12 4 13 5 14 6 15 7 16 8 17 9 18 10 8 11 7 12
REMARK SMILES IDX 6 13 5 14 4 15 3 16 2 17 1 18
REMARK H PARENT
REMARK Flexibility Score: inf
ROOT
ATOM      1  C   UNL     1     -43.633  27.097   0.152  1.00  0.00     0.000 C 
ENDROOT
BRANCH   1   2
ATOM      2  C   UNL     1     -42.477  28.103   0.129  1.00  0.00     0.000 C 
BRANCH   2   3
ATOM      3  C   UNL     1     -42.993  29.539   0.279  1.00  0.00     0.000 C 
BRANCH   3   4
ATOM      4  C   UNL     1     -42.739  30.069   1.698  1.00  0.00     0.000 C 
BRANCH   4   5
ATOM      5  C   UNL     1     -43.864  29.704   2.679  1.00  0.00     0.000 C 
BRANCH   5   6
ATOM      6  C   UNL     1     -43.432  28.649   3.709  1.00  0.00     0.006 C 
BRANCH   6   7
ATOM      7  C   UNL     1     -44.495  27.557   3.854  1.00  0.00     0.053 C 
BRANCH   7   8
ATOM      8  C   UNL     1     -44.699  27.210   5.295  1.00  0.00     0.041 C 
ATOM      9  O   UNL     1     -43.864  26.483   5.896  1.00  0.00    -0.550 OA
ATOM     10  O   UNL     1     -45.837  27.645   5.960  1.00  0.00    -0.550 OA
ENDBRANCH   7   8
ENDBRANCH   6   7
ENDBRANCH   5   6
ENDBRANCH   4   5
ENDBRANCH   3   4
ENDBRANCH   2   3
ENDBRANCH   1   2
BRANCH   1  11
ATOM     11  C   UNL     1     -44.629  27.375  -0.980  1.00  0.00     0.000 C 
BRANCH  11  12
ATOM     12  C   UNL     1     -45.169  26.065  -1.571  1.00  0.00    -0.000 C 
BRANCH  12  13
ATOM     13  C   UNL     1     -46.270  26.292  -2.623  1.00  0.00    -0.000 C 
BRANCH  13  14
ATOM     14  C   UNL     1     -46.388  27.739  -3.144  1.00  0.00    -0.000 C 
BRANCH  14  15
ATOM     15  C   UNL     1     -46.319  27.887  -4.675  1.00  0.00    -0.000 C 
BRANCH  15  16
ATOM     16  C   UNL     1     -46.115  26.543  -5.394  1.00  0.00    -0.000 C 
BRANCH  16  17
ATOM     17  C   UNL     1     -45.680  26.719  -6.858  1.00  0.00    -0.003 C 
ATOM     18  C   UNL     1     -45.383  28.176  -7.212  1.00  0.00     0.004 C 
ENDBRANCH  16  17
ENDBRANCH  15  16
ENDBRANCH  14  15
ENDBRANCH  13  14
ENDBRANCH  12  13
ENDBRANCH  11  12
ENDBRANCH   1  11
TORSDOF 14
ENDMDL
MODEL 4
REMARK VINA RESULT:    -4.173      2.542      3.687
REMARK INTER + INTRA:          -8.683
REMARK INTER:                  -6.720
REMARK INTRA:                  -1.963
REMARK UNBOUND:                -1.095
REMARK SMILES CCCCCCCCCCCCCCCC(=O)[O-]
REMARK SMILES IDX 9 1 10 2 11 3 12 4 13 5 14 6 15 7 16 8 17 9 18 10 8 11 7 12
REMARK SMILES IDX 6 13 5 14 4 15 3 16 2 17 1 18
REMARK H PARENT
REMARK Flexibility Score: inf
ROOT
ATOM      1  C   UNL     1     -43.161  27.644   0.158  1.00  0.00     0.000 C 
ENDROOT
BRANCH   1   2
ATOM      2  C   UNL     1     -43.039  27.166   1.610  1.00  0.00     0.000 C 
BRANCH   2   3
ATOM      3  C   UNL     1     -44.376  27.300   2.348  1.00  0.00     0.000 C 
BRANCH   3   4
ATOM      4  C   UNL     1     -44.429  28.604   3.157  1.00  0.00     0.000 C 
BRANCH   4   5
ATOM      5  C   UNL     1     -43.039  29.085   3.601  1.00  0.00     0.000 C 
BRANCH   5   6
ATOM      6  C   UNL     1     -43.080  29.885   4.912  1.00  0.00     0.006 C 
BRANCH   6   7
ATOM      7  C   UNL     1     -43.890  29.145   5.980  1.00  0.00     0.053 C 
BRANCH   7   8
ATOM      8  C   UNL     1     -43.096  28.013   6.552  1.00  0.00     0.041 C 
ATOM      9  O   UNL     1     -43.476  26.824   6.385  1.00  0.00    -0.550 OA
ATOM     10  O   UNL     1     -41.964  28.273   7.314  1.00  0.00    -0.550 OA
ENDBRANCH   7   8
ENDBRANCH   6   7
ENDBRANCH   5   6
ENDBRANCH   4   5
ENDBRANCH   3   4
ENDBRANCH   2   3
ENDBRANCH   1   2
BRANCH   1  11
ATOM     11  C   UNL     1     -42.392  28.953  -0.058  1.00  0.00     0.000 C 
BRANCH  11  12
ATOM     12  C   UNL     1     -43.329  30.067  -0.547  1.00  0.00    -0.000 C 
BRANCH  12  13
ATOM     13  C   UNL     1     -44.815  29.663  -0.498  1.00  0.00    -0.000 C 
BRANCH  13  14
ATOM     14  C   UNL     1     -45.539  29.665  -1.860  1.00  0.00    -0.000 C 
BRANCH  14  15
ATOM     15  C   UNL     1     -46.584  28.551  -2.043  1.00  0.00    -0.000 C 
BRANCH  15  16
ATOM     16  C   UNL     1     -46.661  27.602  -0.834  1.00  0.00    -0.000 C 
BRANCH  16  17
ATOM     17  C   UNL     1     -46.610  26.122  -1.244  1.00  0.00    -0.003 C 
ATOM     18  C   UNL     1     -45.403  25.795  -2.123  1.00  0.00     0.004 C 
ENDBRANCH  16  17
ENDBRANCH  15  16
ENDBRANCH  14  15
ENDBRANCH  13  14
ENDBRANCH  12  13
ENDBRANCH  11  12
ENDBRANCH   1  11
TORSDOF 14
ENDMDL
MODEL 5
REMARK VINA RESULT:    -4.091      3.924      8.948
REMARK INTER + INTRA:          -8.534
REMARK INTER:                  -7.755
REMARK INTRA:                  -0.780
REMARK UNBOUND:                -1.095
REMARK SMILES CCCCCCCCCCCCCCCC(=O)[O-]
REMARK SMILES IDX 9 1 10 2 11 3 12 4 13 5 14 6 15 7 16 8 17 9 18 10 8 11 7 12
REMARK SMILES IDX 6 13 5 14 4 15 3 16 2 17 1 18
REMARK H PARENT
REMARK Flexibility Score: inf
ROOT
ATOM      1  C   UNL     1     -43.988  27.129   0.236  1.00  0.00     0.000 C 
ENDROOT
BRANCH   1   2
ATOM      2  C   UNL     1     -44.869  27.336  -1.002  1.00  0.00     0.000 C 
BRANCH   2   3
ATOM      3  C   UNL     1     -45.187  25.999  -1.682  1.00  0.00     0.000 C 
BRANCH   3   4
ATOM      4  C   UNL     1     -46.250  26.178  -2.776  1.00  0.00     0.000 C 
BRANCH   4   5
ATOM      5  C   UNL     1     -46.415  27.643  -3.210  1.00  0.00     0.000 C 
BRANCH   5   6
ATOM      6  C   UNL     1     -46.517  27.801  -4.735  1.00  0.00     0.006 C 
BRANCH   6   7
ATOM      7  C   UNL     1     -46.182  26.487  -5.446  1.00  0.00     0.053 C 
BRANCH   7   8
ATOM      8  C   UNL     1     -45.860  26.736  -6.885  1.00  0.00     0.041 C 
ATOM      9  O   UNL     1     -46.081  25.846  -7.748  1.00  0.00    -0.550 OA
ATOM     10  O   UNL     1     -45.266  27.932  -7.267  1.00  0.00    -0.550 OA
ENDBRANCH   7   8
ENDBRANCH   6   7
ENDBRANCH   5   6
ENDBRANCH   4   5
ENDBRANCH   3   4
ENDBRANCH   2   3
ENDBRANCH   1   2
BRANCH   1  11
ATOM     11  C   UNL     1     -42.668  27.898   0.107  1.00  0.00     0.000 C 
BRANCH  11  12
ATOM     12  C   UNL     1     -42.736  29.235   0.859  1.00  0.00    -0.000 C 
BRANCH  12  13
ATOM     13  C   UNL     1     -43.725  29.208   2.040  1.00  0.00    -0.000 C 
BRANCH  13  14
ATOM     14  C   UNL     1     -43.074  29.142   3.436  1.00  0.00    -0.000 C 
BRANCH  14  15
ATOM     15  C   UNL     1     -44.052  28.888   4.598  1.00  0.00    -0.000 C 
BRANCH  15  16
ATOM     16  C   UNL     1     -43.988  27.445   5.125  1.00  0.00    -0.000 C 
BRANCH  16  17
ATOM     17  C   UNL     1     -43.950  27.381   6.660  1.00  0.00    -0.003 C 
ATOM     18  C   UNL     1     -42.718  28.070   7.248  1.00  0.00     0.004 C 
ENDBRANCH  16  17
ENDBRANCH  15  16
ENDBRANCH  14  15
ENDBRANCH  13  14
ENDBRANCH  12  13
ENDBRANCH  11  12
ENDBRANCH   1  11
TORSDOF 14
ENDMDL
MODEL 6
REMARK VINA RESULT:    -4.021      2.304      3.703
REMARK INTER + INTRA:          -8.408
REMARK INTER:                  -7.307
REMARK INTRA:                  -1.101
REMARK UNBOUND:                -1.095
REMARK SMILES CCCCCCCCCCCCCCCC(=O)[O-]
REMARK SMILES IDX 9 1 10 2 11 3 12 4 13 5 14 6 15 7 16 8 17 9 18 10 8 11 7 12
REMARK SMILES IDX 6 13 5 14 4 15 3 16 2 17 1 18
REMARK H PARENT
REMARK Flexibility Score: inf
ROOT
ATOM      1  C   UNL     1     -43.342  27.148   1.734  1.00  0.00     0.000 C 
ENDROOT
BRANCH   1   2
ATOM      2  C   UNL     1     -43.805  28.202   2.746  1.00  0.00     0.000 C 
BRANCH   2   3
ATOM      3  C   UNL     1     -45.226  27.905   3.239  1.00  0.00     0.000 C 
BRANCH   3   4
ATOM      4  C   UNL     1     -45.198  27.157   4.581  1.00  0.00     0.000 C 
BRANCH   4   5
ATOM      5  C   UNL     1     -46.050  27.842   5.660  1.00  0.00     0.000 C 
BRANCH   5   6
ATOM      6  C   UNL     1     -45.199  28.490   6.763  1.00  0.00     0.006 C 
BRANCH   6   7
ATOM      7  C   UNL     1     -43.988  27.618   7.105  1.00  0.00     0.053 C 
BRANCH   7   8
ATOM      8  C   UNL     1     -42.718  28.384   6.912  1.00  0.00     0.041 C 
ATOM      9  O   UNL     1     -42.341  28.706   5.754  1.00  0.00    -0.550 OA
ATOM     10  O   UNL     1     -41.923  28.698   8.006  1.00  0.00    -0.550 OA
ENDBRANCH   7   8
ENDBRANCH   6   7
ENDBRANCH   5   6
ENDBRANCH   4   5
ENDBRANCH   3   4
ENDBRANCH   2   3
ENDBRANCH   1   2
BRANCH   1  11
ATOM     11  C   UNL     1     -42.931  27.801   0.408  1.00  0.00     0.000 C 
BRANCH  11  12
ATOM     12  C   UNL     1     -44.146  28.423  -0.297  1.00  0.00    -0.000 C 
BRANCH  12  13
ATOM     13  C   UNL     1     -45.270  27.404  -0.563  1.00  0.00    -0.000 C 
BRANCH  13  14
ATOM     14  C   UNL     1     -44.887  26.236  -1.494  1.00  0.00    -0.000 C 
BRANCH  14  15
ATOM     15  C   UNL     1     -46.040  25.279  -1.844  1.00  0.00    -0.000 C 
BRANCH  15  16
ATOM     16  C   UNL     1     -47.062  25.906  -2.808  1.00  0.00    -0.000 C 
BRANCH  16  17
ATOM     17  C   UNL     1     -46.408  26.447  -4.089  1.00  0.00    -0.003 C 
ATOM     18  C   UNL     1     -46.684  27.935  -4.308  1.00  0.00     0.004 C 
ENDBRANCH  16  17
ENDBRANCH  15  16
ENDBRANCH  14  15
ENDBRANCH  13  14
ENDBRANCH  12  13
ENDBRANCH  11  12
ENDBRANCH   1  11
TORSDOF 14
ENDMDL
MODEL 7
REMARK VINA RESULT:    -3.953      4.025      9.305
REMARK INTER + INTRA:          -8.284
REMARK INTER:                  -7.637
REMARK INTRA:                  -0.647
REMARK UNBOUND:                -1.095
REMARK SMILES CCCCCCCCCCCCCCCC(=O)[O-]
REMARK SMILES IDX 9 1 10 2 11 3 12 4 13 5 14 6 15 7 16 8 17 9 18 10 8 11 7 12
REMARK SMILES IDX 6 13 5 14 4 15 3 16 2 17 1 18
REMARK H PARENT
REMARK Flexibility Score: inf
ROOT
ATOM      1  C   UNL     1     -43.303  27.125   1.124  1.00  0.00     0.000 C 
ENDROOT
BRANCH   1   2
ATOM      2  C   UNL     1     -43.713  27.550  -0.290  1.00  0.00     0.000 C 
BRANCH   2   3
ATOM      3  C   UNL     1     -45.147  27.108  -0.605  1.00  0.00     0.000 C 
BRANCH   3   4
ATOM      4  C   UNL     1     -45.166  26.064  -1.731  1.00  0.00     0.000 C 
BRANCH   4   5
ATOM      5  C   UNL     1     -46.437  26.140  -2.590  1.00  0.00     0.000 C 
BRANCH   5   6
ATOM      6  C   UNL     1     -46.277  27.066  -3.805  1.00  0.00     0.006 C 
BRANCH   6   7
ATOM      7  C   UNL     1     -46.640  26.337  -5.102  1.00  0.00     0.053 C 
BRANCH   7   8
ATOM      8  C   UNL     1     -45.849  26.880  -6.249  1.00  0.00     0.041 C 
ATOM      9  O   UNL     1     -45.532  28.099  -6.281  1.00  0.00    -0.550 OA
ATOM     10  O   UNL     1     -45.506  26.053  -7.310  1.00  0.00    -0.550 OA
ENDBRANCH   7   8
ENDBRANCH   6   7
ENDBRANCH   5   6
ENDBRANCH   4   5
ENDBRANCH   3   4
ENDBRANCH   2   3
ENDBRANCH   1   2
BRANCH   1  11
ATOM     11  C   UNL     1     -43.068  28.346   2.021  1.00  0.00     0.000 C 
BRANCH  11  12
ATOM     12  C   UNL     1     -44.172  28.470   3.081  1.00  0.00    -0.000 C 
BRANCH  12  13
ATOM     13  C   UNL     1     -44.571  27.113   3.690  1.00  0.00    -0.000 C 
BRANCH  13  14
ATOM     14  C   UNL     1     -44.879  27.138   5.201  1.00  0.00    -0.000 C 
BRANCH  14  15
ATOM     15  C   UNL     1     -43.655  26.964   6.117  1.00  0.00    -0.000 C 
BRANCH  15  16
ATOM     16  C   UNL     1     -43.751  27.800   7.405  1.00  0.00    -0.000 C 
BRANCH  16  17
ATOM     17  C   UNL     1     -42.743  28.960   7.429  1.00  0.00    -0.003 C 
ATOM     18  C   UNL     1     -42.230  29.265   8.837  1.00  0.00     0.004 C 
ENDBRANCH  16  17
ENDBRANCH  15  16
ENDBRANCH  14  15
ENDBRANCH  13  14
ENDBRANCH  12  13
ENDBRANCH  11  12
ENDBRANCH   1  11
TORSDOF 14
ENDMDL
MODEL 8
REMARK VINA RESULT:    -3.844      3.135      7.870
REMARK INTER + INTRA:          -8.086
REMARK INTER:                  -5.987
REMARK INTRA:                  -2.099
REMARK UNBOUND:                -1.095
REMARK SMILES CCCCCCCCCCCCCCCC(=O)[O-]
REMARK SMILES IDX 9 1 10 2 11 3 12 4 13 5 14 6 15 7 16 8 17 9 18 10 8 11 7 12
REMARK SMILES IDX 6 13 5 14 4 15 3 16 2 17 1 18
REMARK H PARENT
REMARK Flexibility Score: inf
ROOT
ATOM      1  C   UNL     1     -43.143  28.176   3.208  1.00  0.00     0.000 C 
ENDROOT
BRANCH   1   2
ATOM      2  C   UNL     1     -43.419  29.643   2.859  1.00  0.00     0.000 C 
BRANCH   2   3
ATOM      3  C   UNL     1     -42.785  30.018   1.516  1.00  0.00     0.000 C 
BRANCH   3   4
ATOM      4  C   UNL     1     -42.547  28.771   0.651  1.00  0.00     0.000 C 
BRANCH   4   5
ATOM      5  C   UNL     1     -43.682  28.520  -0.353  1.00  0.00     0.000 C 
BRANCH   5   6
ATOM      6  C   UNL     1     -44.283  27.112  -0.229  1.00  0.00     0.006 C 
BRANCH   6   7
ATOM      7  C   UNL     1     -45.717  27.078  -0.765  1.00  0.00     0.053 C 
BRANCH   7   8
ATOM      8  C   UNL     1     -45.829  26.117  -1.906  1.00  0.00     0.041 C 
ATOM      9  O   UNL     1     -46.083  26.536  -3.066  1.00  0.00    -0.550 OA
ATOM     10  O   UNL     1     -45.703  24.753  -1.680  1.00  0.00    -0.550 OA
ENDBRANCH   7   8
ENDBRANCH   6   7
ENDBRANCH   5   6
ENDBRANCH   4   5
ENDBRANCH   3   4
ENDBRANCH   2   3
ENDBRANCH   1   2
BRANCH   1  11
ATOM     11  C   UNL     1     -44.446  27.426   3.510  1.00  0.00     0.000 C 
BRANCH  11  12
ATOM     12  C   UNL     1     -45.662  28.349   3.345  1.00  0.00    -0.000 C 
BRANCH  12  13
ATOM     13  C   UNL     1     -46.584  28.350   4.579  1.00  0.00    -0.000 C 
BRANCH  13  14
ATOM     14  C   UNL     1     -46.251  27.287   5.645  1.00  0.00    -0.000 C 
BRANCH  14  15
ATOM     15  C   UNL     1     -45.612  27.836   6.933  1.00  0.00    -0.000 C 
BRANCH  15  16
ATOM     16  C   UNL     1     -45.100  29.278   6.776  1.00  0.00    -0.000 C 
BRANCH  16  17
ATOM     17  C   UNL     1     -43.569  29.349   6.658  1.00  0.00    -0.003 C 
ATOM     18  C   UNL     1     -42.889  28.028   7.017  1.00  0.00     0.004 C 
ENDBRANCH  16  17
ENDBRANCH  15  16
ENDBRANCH  14  15
ENDBRANCH  13  14
ENDBRANCH  12  13
ENDBRANCH  11  12
ENDBRANCH   1  11
TORSDOF 14
ENDMDL
