MODEL 1
REMARK VINA RESULT:    -6.268      0.000      0.000
REMARK INTER + INTRA:         -10.299
REMARK INTER:                  -8.284
REMARK INTRA:                  -2.015
REMARK UNBOUND:                -2.015
REMARK SMILES CC[C@H](C=C[C@H](C)[C@@H]1CC[C@@H]2[C@@H]3CC=C4C[C@@H](O)CC[C@]4(C)[C@@H]3CC[C@@]21C)C(C)C
REMARK SMILES IDX 6 1 7 2 5 3 4 4 3 5 2 6 1 7 28 8 29 9 30 10 8 11 9 12 26 13
REMARK SMILES IDX 10 14 11 15 25 16 27 17 12 18 24 19 23 20 13 21 21 22 14 23
REMARK SMILES IDX 15 24 20 25 22 26 16 27 19 28 17 29 18 30
REMARK H PARENT 18 31
REMARK Flexibility Score: inf
ROOT
ATOM      1  C   UNL     1     115.715 121.404 133.855  1.00  0.00     0.012 C 
ATOM      2  C   UNL     1     114.722 121.119 134.989  1.00  0.00     0.012 C 
ENDROOT
BRANCH   1   3
ATOM      3  C   UNL     1     115.489 120.669 132.533  1.00  0.00    -0.028 C 
ATOM      4  C   UNL     1     116.324 120.132 131.603  1.00  0.00    -0.027 C 
BRANCH   4   5
ATOM      5  C   UNL     1     117.836 120.227 131.445  1.00  0.00     0.014 C 
BRANCH   5   6
ATOM      6  C   UNL     1     118.479 118.835 131.631  1.00  0.00     0.004 C 
ATOM      7  C   UNL     1     118.226 118.259 133.021  1.00  0.00     0.004 C 
ENDBRANCH   5   6
BRANCH   5   8
ATOM      8  C   UNL     1     118.228 120.841 130.060  1.00  0.00    -0.011 C 
ATOM      9  C   UNL     1     119.754 120.980 129.909  1.00  0.00     0.008 C 
ATOM     10  C   UNL     1     117.550 122.188 129.757  1.00  0.00     0.008 C 
ENDBRANCH   5   8
ENDBRANCH   4   5
ENDBRANCH   1   3
BRANCH   1  11
ATOM     11  C   UNL     1     115.985 122.950 133.741  1.00  0.00     0.002 C 
ATOM     12  C   UNL     1     115.682 123.619 132.400  1.00  0.00     0.005 C 
ATOM     13  C   UNL     1     117.351 123.559 134.176  1.00  0.00    -0.026 C 
ATOM     14  C   UNL     1     116.364 125.000 132.479  1.00  0.00     0.005 C 
ATOM     15  C   UNL     1     117.093 125.044 133.841  1.00  0.00    -0.001 C 
ATOM     16  C   UNL     1     118.574 123.016 133.348  1.00  0.00     0.007 C 
ATOM     17  C   UNL     1     117.572 123.355 135.692  1.00  0.00     0.012 C 
ATOM     18  C   UNL     1     118.340 125.974 133.971  1.00  0.00     0.000 C 
ATOM     19  C   UNL     1     119.535 124.071 132.766  1.00  0.00     0.005 C 
ATOM     20  C   UNL     1     119.710 125.288 133.682  1.00  0.00     0.003 C 
ATOM     21  C   UNL     1     118.175 127.288 133.209  1.00  0.00     0.031 C 
ATOM     22  C   UNL     1     120.902 126.267 133.258  1.00  0.00    -0.008 C 
ATOM     23  C   UNL     1     119.318 128.198 133.528  1.00  0.00    -0.027 C 
ATOM     24  C   UNL     1     120.586 127.740 133.550  1.00  0.00    -0.065 C 
ATOM     25  C   UNL     1     121.242 126.226 131.730  1.00  0.00     0.014 C 
ATOM     26  C   UNL     1     122.151 125.823 134.074  1.00  0.00     0.016 C 
ATOM     27  C   UNL     1     121.686 128.741 133.287  1.00  0.00     0.063 C 
ATOM     28  C   UNL     1     122.320 127.259 131.304  1.00  0.00     0.033 C 
ATOM     29  C   UNL     1     122.017 128.698 131.786  1.00  0.00     0.118 C 
BRANCH  29  30
ATOM     30  O   UNL     1     123.121 129.530 131.542  1.00  0.00    -0.393 OA
ATOM     31  H   UNL     1     123.886 128.934 131.332  1.00  0.00     0.210 HD
ENDBRANCH  29  30
ENDBRANCH   1  11
TORSDOF 6
ENDMDL
MODEL 2
REMARK VINA RESULT:    -5.967      3.006      5.625
REMARK INTER + INTRA:          -9.900
REMARK INTER:                  -7.895
REMARK INTRA:                  -2.006
REMARK UNBOUND:                -2.015
REMARK SMILES CC[C@H](C=C[C@H](C)[C@@H]1CC[C@@H]2[C@@H]3CC=C4C[C@@H](O)CC[C@]4(C)[C@@H]3CC[C@@]21C)C(C)C
REMARK SMILES IDX 6 1 7 2 5 3 4 4 3 5 2 6 1 7 28 8 29 9 30 10 8 11 9 12 26 13
REMARK SMILES IDX 10 14 11 15 25 16 27 17 12 18 24 19 23 20 13 21 21 22 14 23
REMARK SMILES IDX 15 24 20 25 22 26 16 27 19 28 17 29 18 30
REMARK H PARENT 18 31
REMARK Flexibility Score: inf
ROOT
ATOM      1  C   UNL     1     119.241 118.455 130.142  1.00  0.00     0.012 C 
ATOM      2  C   UNL     1     120.250 118.289 128.998  1.00  0.00     0.012 C 
ENDROOT
BRANCH   1   3
ATOM      3  C   UNL     1     119.002 117.240 131.039  1.00  0.00    -0.028 C 
ATOM      4  C   UNL     1     117.994 116.875 131.877  1.00  0.00    -0.027 C 
BRANCH   4   5
ATOM      5  C   UNL     1     116.784 117.651 132.381  1.00  0.00     0.014 C 
BRANCH   5   6
ATOM      6  C   UNL     1     115.481 116.984 131.887  1.00  0.00     0.004 C 
ATOM      7  C   UNL     1     114.284 117.928 131.953  1.00  0.00     0.004 C 
ENDBRANCH   5   6
BRANCH   5   8
ATOM      8  C   UNL     1     116.792 117.772 133.940  1.00  0.00    -0.011 C 
ATOM      9  C   UNL     1     116.628 119.232 134.401  1.00  0.00     0.008 C 
ATOM     10  C   UNL     1     118.027 117.149 134.612  1.00  0.00     0.008 C 
ENDBRANCH   5   8
ENDBRANCH   4   5
ENDBRANCH   1   3
BRANCH   1  11
ATOM     11  C   UNL     1     119.480 119.819 130.888  1.00  0.00     0.002 C 
ATOM     12  C   UNL     1     119.637 119.771 132.408  1.00  0.00     0.005 C 
ATOM     13  C   UNL     1     118.552 121.044 130.635  1.00  0.00    -0.026 C 
ATOM     14  C   UNL     1     119.496 121.235 132.872  1.00  0.00     0.005 C 
ATOM     15  C   UNL     1     119.194 122.062 131.602  1.00  0.00    -0.001 C 
ATOM     16  C   UNL     1     117.049 120.787 131.030  1.00  0.00     0.007 C 
ATOM     17  C   UNL     1     118.668 121.513 129.167  1.00  0.00     0.012 C 
ATOM     18  C   UNL     1     118.402 123.397 131.773  1.00  0.00     0.000 C 
ATOM     19  C   UNL     1     116.379 121.852 131.919  1.00  0.00     0.005 C 
ATOM     20  C   UNL     1     116.857 123.275 131.608  1.00  0.00     0.003 C 
ATOM     21  C   UNL     1     118.795 124.155 133.040  1.00  0.00     0.031 C 
ATOM     22  C   UNL     1     115.991 124.429 132.302  1.00  0.00    -0.008 C 
ATOM     23  C   UNL     1     118.140 125.499 133.041  1.00  0.00    -0.027 C 
ATOM     24  C   UNL     1     116.841 125.641 132.707  1.00  0.00    -0.065 C 
ATOM     25  C   UNL     1     115.281 123.979 133.623  1.00  0.00     0.014 C 
ATOM     26  C   UNL     1     114.916 124.861 131.262  1.00  0.00     0.016 C 
ATOM     27  C   UNL     1     116.107 126.833 133.274  1.00  0.00     0.063 C 
ATOM     28  C   UNL     1     114.536 125.130 134.352  1.00  0.00     0.033 C 
ATOM     29  C   UNL     1     115.412 126.387 134.570  1.00  0.00     0.118 C 
BRANCH  29  30
ATOM     30  O   UNL     1     114.623 127.446 135.047  1.00  0.00    -0.393 OA
ATOM     31  H   UNL     1     113.678 127.195 134.880  1.00  0.00     0.210 HD
ENDBRANCH  29  30
ENDBRANCH   1  11
TORSDOF 6
ENDMDL
MODEL 3
REMARK VINA RESULT:    -5.831      1.625      3.328
REMARK INTER + INTRA:          -9.720
REMARK INTER:                  -8.451
REMARK INTRA:                  -1.269
REMARK UNBOUND:                -2.015
REMARK SMILES CC[C@H](C=C[C@H](C)[C@@H]1CC[C@@H]2[C@@H]3CC=C4C[C@@H](O)CC[C@]4(C)[C@@H]3CC[C@@]21C)C(C)C
REMARK SMILES IDX 6 1 7 2 5 3 4 4 3 5 2 6 1 7 28 8 29 9 30 10 8 11 9 12 26 13
REMARK SMILES IDX 10 14 11 15 25 16 27 17 12 18 24 19 23 20 13 21 21 22 14 23
REMARK SMILES IDX 15 24 20 25 22 26 16 27 19 28 17 29 18 30
REMARK H PARENT 18 31
REMARK Flexibility Score: inf
ROOT
ATOM      1  C   UNL     1     118.567 119.699 130.595  1.00  0.00     0.012 C 
ATOM      2  C   UNL     1     119.978 119.831 130.006  1.00  0.00     0.012 C 
ENDROOT
BRANCH   1   3
ATOM      3  C   UNL     1     118.320 118.535 131.554  1.00  0.00    -0.028 C 
ATOM      4  C   UNL     1     117.200 117.979 132.087  1.00  0.00    -0.027 C 
BRANCH   4   5
ATOM      5  C   UNL     1     115.748 118.441 132.065  1.00  0.00     0.014 C 
BRANCH   5   6
ATOM      6  C   UNL     1     114.810 117.237 131.826  1.00  0.00     0.004 C 
ATOM      7  C   UNL     1     113.362 117.546 132.194  1.00  0.00     0.004 C 
ENDBRANCH   5   6
BRANCH   5   8
ATOM      8  C   UNL     1     115.367 119.191 133.384  1.00  0.00    -0.011 C 
ATOM      9  C   UNL     1     115.238 120.709 133.161  1.00  0.00     0.008 C 
ATOM     10  C   UNL     1     116.320 118.917 134.560  1.00  0.00     0.008 C 
ENDBRANCH   5   8
ENDBRANCH   4   5
ENDBRANCH   1   3
BRANCH   1  11
ATOM     11  C   UNL     1     118.042 121.103 131.075  1.00  0.00     0.002 C 
ATOM     12  C   UNL     1     117.583 122.088 129.998  1.00  0.00     0.005 C 
ATOM     13  C   UNL     1     118.872 121.974 132.064  1.00  0.00    -0.026 C 
ATOM     14  C   UNL     1     117.476 123.447 130.718  1.00  0.00     0.005 C 
ATOM     15  C   UNL     1     117.945 123.204 132.170  1.00  0.00    -0.001 C 
ATOM     16  C   UNL     1     120.280 122.397 131.501  1.00  0.00     0.007 C 
ATOM     17  C   UNL     1     119.011 121.256 133.425  1.00  0.00     0.012 C 
ATOM     18  C   UNL     1     118.544 124.413 132.955  1.00  0.00     0.000 C 
ATOM     19  C   UNL     1     120.641 123.892 131.602  1.00  0.00     0.005 C 
ATOM     20  C   UNL     1     120.095 124.552 132.873  1.00  0.00     0.003 C 
ATOM     21  C   UNL     1     117.825 125.726 132.649  1.00  0.00     0.031 C 
ATOM     22  C   UNL     1     120.677 126.015 133.160  1.00  0.00    -0.008 C 
ATOM     23  C   UNL     1     118.325 126.795 133.567  1.00  0.00    -0.027 C 
ATOM     24  C   UNL     1     119.643 126.944 133.810  1.00  0.00    -0.065 C 
ATOM     25  C   UNL     1     121.145 126.774 131.873  1.00  0.00     0.014 C 
ATOM     26  C   UNL     1     121.892 125.827 134.115  1.00  0.00     0.016 C 
ATOM     27  C   UNL     1     120.119 128.317 134.221  1.00  0.00     0.063 C 
ATOM     28  C   UNL     1     121.603 128.233 132.141  1.00  0.00     0.033 C 
ATOM     29  C   UNL     1     120.577 129.058 132.954  1.00  0.00     0.118 C 
BRANCH  29  30
ATOM     30  O   UNL     1     121.139 130.289 133.330  1.00  0.00    -0.393 OA
ATOM     31  H   UNL     1     120.484 130.990 133.077  1.00  0.00     0.210 HD
ENDBRANCH  29  30
ENDBRANCH   1  11
TORSDOF 6
ENDMDL
MODEL 4
REMARK VINA RESULT:    -5.758      1.409      1.915
REMARK INTER + INTRA:          -9.625
REMARK INTER:                  -7.732
REMARK INTRA:                  -1.893
REMARK UNBOUND:                -2.015
REMARK SMILES CC[C@H](C=C[C@H](C)[C@@H]1CC[C@@H]2[C@@H]3CC=C4C[C@@H](O)CC[C@]4(C)[C@@H]3CC[C@@]21C)C(C)C
REMARK SMILES IDX 6 1 7 2 5 3 4 4 3 5 2 6 1 7 28 8 29 9 30 10 8 11 9 12 26 13
REMARK SMILES IDX 10 14 11 15 25 16 27 17 12 18 24 19 23 20 13 21 21 22 14 23
REMARK SMILES IDX 15 24 20 25 22 26 16 27 19 28 17 29 18 30
REMARK H PARENT 18 31
REMARK Flexibility Score: inf
ROOT
ATOM      1  C   UNL     1     115.896 119.690 133.203  1.00  0.00     0.012 C 
ATOM      2  C   UNL     1     114.560 119.381 133.891  1.00  0.00     0.012 C 
ENDROOT
BRANCH   1   3
ATOM      3  C   UNL     1     116.285 118.811 132.014  1.00  0.00    -0.028 C 
ATOM      4  C   UNL     1     117.474 118.373 131.519  1.00  0.00    -0.027 C 
BRANCH   4   5
ATOM      5  C   UNL     1     118.905 118.759 131.872  1.00  0.00     0.014 C 
BRANCH   5   6
ATOM      6  C   UNL     1     119.588 117.612 132.651  1.00  0.00     0.004 C 
ATOM      7  C   UNL     1     120.868 118.065 133.347  1.00  0.00     0.004 C 
ENDBRANCH   5   6
BRANCH   5   8
ATOM      8  C   UNL     1     119.728 119.133 130.595  1.00  0.00    -0.011 C 
ATOM      9  C   UNL     1     119.048 120.252 129.785  1.00  0.00     0.008 C 
ATOM     10  C   UNL     1     120.037 117.939 129.676  1.00  0.00     0.008 C 
ENDBRANCH   5   8
ENDBRANCH   4   5
ENDBRANCH   1   3
BRANCH   1  11
ATOM     11  C   UNL     1     116.053 121.241 132.987  1.00  0.00     0.002 C 
ATOM     12  C   UNL     1     116.151 121.743 131.546  1.00  0.00     0.005 C 
ATOM     13  C   UNL     1     117.141 122.051 133.753  1.00  0.00    -0.026 C 
ATOM     14  C   UNL     1     116.646 123.199 131.662  1.00  0.00     0.005 C 
ATOM     15  C   UNL     1     116.880 123.456 133.169  1.00  0.00    -0.001 C 
ATOM     16  C   UNL     1     118.611 121.589 133.431  1.00  0.00     0.007 C 
ATOM     17  C   UNL     1     116.868 122.014 135.273  1.00  0.00     0.012 C 
ATOM     18  C   UNL     1     117.929 124.540 133.570  1.00  0.00     0.000 C 
ATOM     19  C   UNL     1     119.615 122.697 133.055  1.00  0.00     0.005 C 
ATOM     20  C   UNL     1     119.372 124.004 133.819  1.00  0.00     0.003 C 
ATOM     21  C   UNL     1     117.910 125.749 132.636  1.00  0.00     0.031 C 
ATOM     22  C   UNL     1     120.547 125.081 133.676  1.00  0.00    -0.008 C 
ATOM     23  C   UNL     1     118.801 126.818 133.184  1.00  0.00    -0.027 C 
ATOM     24  C   UNL     1     120.026 126.524 133.664  1.00  0.00    -0.065 C 
ATOM     25  C   UNL     1     121.373 124.943 132.353  1.00  0.00     0.014 C 
ATOM     26  C   UNL     1     121.492 124.869 134.894  1.00  0.00     0.016 C 
ATOM     27  C   UNL     1     121.060 127.624 133.640  1.00  0.00     0.063 C 
ATOM     28  C   UNL     1     122.438 126.057 132.164  1.00  0.00     0.033 C 
ATOM     29  C   UNL     1     121.869 127.486 132.339  1.00  0.00     0.118 C 
BRANCH  29  30
ATOM     30  O   UNL     1     122.915 128.422 132.356  1.00  0.00    -0.393 OA
ATOM     31  H   UNL     1     122.511 129.304 132.149  1.00  0.00     0.210 HD
ENDBRANCH  29  30
ENDBRANCH   1  11
TORSDOF 6
ENDMDL
MODEL 5
REMARK VINA RESULT:    -5.738      2.402      3.355
REMARK INTER + INTRA:          -9.598
REMARK INTER:                  -8.067
REMARK INTRA:                  -1.531
REMARK UNBOUND:                -2.015
REMARK SMILES CC[C@H](C=C[C@H](C)[C@@H]1CC[C@@H]2[C@@H]3CC=C4C[C@@H](O)CC[C@]4(C)[C@@H]3CC[C@@]21C)C(C)C
REMARK SMILES IDX 6 1 7 2 5 3 4 4 3 5 2 6 1 7 28 8 29 9 30 10 8 11 9 12 26 13
REMARK SMILES IDX 10 14 11 15 25 16 27 17 12 18 24 19 23 20 13 21 21 22 14 23
REMARK SMILES IDX 15 24 20 25 22 26 16 27 19 28 17 29 18 30
REMARK H PARENT 18 31
REMARK Flexibility Score: inf
ROOT
ATOM      1  C   UNL     1     116.609 121.779 131.338  1.00  0.00     0.012 C 
ATOM      2  C   UNL     1     115.899 120.544 131.907  1.00  0.00     0.012 C 
ENDROOT
BRANCH   1   3
ATOM      3  C   UNL     1     116.845 121.812 129.828  1.00  0.00    -0.028 C 
ATOM      4  C   UNL     1     117.959 121.756 129.050  1.00  0.00    -0.027 C 
BRANCH   4   5
ATOM      5  C   UNL     1     119.437 121.824 129.416  1.00  0.00     0.014 C 
BRANCH   5   6
ATOM      6  C   UNL     1     120.177 120.581 128.875  1.00  0.00     0.004 C 
ATOM      7  C   UNL     1     119.701 119.289 129.535  1.00  0.00     0.004 C 
ENDBRANCH   5   6
BRANCH   5   8
ATOM      8  C   UNL     1     120.096 123.140 128.885  1.00  0.00    -0.011 C 
ATOM      9  C   UNL     1     121.537 123.306 129.403  1.00  0.00     0.008 C 
ATOM     10  C   UNL     1     119.286 124.413 129.183  1.00  0.00     0.008 C 
ENDBRANCH   5   8
ENDBRANCH   4   5
ENDBRANCH   1   3
BRANCH   1  11
ATOM     11  C   UNL     1     116.007 123.091 131.965  1.00  0.00     0.002 C 
ATOM     12  C   UNL     1     115.580 124.199 131.000  1.00  0.00     0.005 C 
ATOM     13  C   UNL     1     116.745 123.843 133.112  1.00  0.00    -0.026 C 
ATOM     14  C   UNL     1     115.381 125.446 131.885  1.00  0.00     0.005 C 
ATOM     15  C   UNL     1     115.770 125.022 133.320  1.00  0.00    -0.001 C 
ATOM     16  C   UNL     1     118.168 124.375 132.702  1.00  0.00     0.007 C 
ATOM     17  C   UNL     1     116.826 122.953 134.372  1.00  0.00     0.012 C 
ATOM     18  C   UNL     1     116.278 126.131 134.295  1.00  0.00     0.000 C 
ATOM     19  C   UNL     1     118.470 125.852 133.024  1.00  0.00     0.005 C 
ATOM     20  C   UNL     1     117.825 126.321 134.333  1.00  0.00     0.003 C 
ATOM     21  C   UNL     1     115.533 127.453 134.120  1.00  0.00     0.031 C 
ATOM     22  C   UNL     1     118.337 127.747 134.848  1.00  0.00    -0.008 C 
ATOM     23  C   UNL     1     115.939 128.403 135.201  1.00  0.00    -0.027 C 
ATOM     24  C   UNL     1     117.234 128.553 135.546  1.00  0.00    -0.065 C 
ATOM     25  C   UNL     1     118.855 128.684 133.705  1.00  0.00     0.014 C 
ATOM     26  C   UNL     1     119.498 127.466 135.845  1.00  0.00     0.016 C 
ATOM     27  C   UNL     1     117.636 129.870 136.165  1.00  0.00     0.063 C 
ATOM     28  C   UNL     1     119.245 130.105 134.193  1.00  0.00     0.033 C 
ATOM     29  C   UNL     1     118.143 130.787 135.040  1.00  0.00     0.118 C 
BRANCH  29  30
ATOM     30  O   UNL     1     118.638 131.971 135.610  1.00  0.00    -0.393 OA
ATOM     31  H   UNL     1     118.183 132.721 135.148  1.00  0.00     0.210 HD
ENDBRANCH  29  30
ENDBRANCH   1  11
TORSDOF 6
ENDMDL
MODEL 6
REMARK VINA RESULT:    -5.715      2.860      7.558
REMARK INTER + INTRA:          -9.568
REMARK INTER:                  -7.646
REMARK INTRA:                  -1.922
REMARK UNBOUND:                -2.015
REMARK SMILES CC[C@H](C=C[C@H](C)[C@@H]1CC[C@@H]2[C@@H]3CC=C4C[C@@H](O)CC[C@]4(C)[C@@H]3CC[C@@]21C)C(C)C
REMARK SMILES IDX 6 1 7 2 5 3 4 4 3 5 2 6 1 7 28 8 29 9 30 10 8 11 9 12 26 13
REMARK SMILES IDX 10 14 11 15 25 16 27 17 12 18 24 19 23 20 13 21 21 22 14 23
REMARK SMILES IDX 15 24 20 25 22 26 16 27 19 28 17 29 18 30
REMARK H PARENT 18 31
REMARK Flexibility Score: inf
ROOT
ATOM      1  C   UNL     1     117.028 128.462 134.262  1.00  0.00     0.012 C 
ATOM      2  C   UNL     1     115.931 129.519 134.444  1.00  0.00     0.012 C 
ENDROOT
BRANCH   1   3
ATOM      3  C   UNL     1     118.406 128.783 134.841  1.00  0.00    -0.028 C 
ATOM      4  C   UNL     1     119.671 128.720 134.345  1.00  0.00    -0.027 C 
BRANCH   4   5
ATOM      5  C   UNL     1     120.208 128.117 133.054  1.00  0.00     0.014 C 
BRANCH   5   6
ATOM      6  C   UNL     1     120.942 129.197 132.228  1.00  0.00     0.004 C 
ATOM      7  C   UNL     1     120.530 130.611 132.625  1.00  0.00     0.004 C 
ENDBRANCH   5   6
BRANCH   5   8
ATOM      8  C   UNL     1     121.148 126.899 133.339  1.00  0.00    -0.011 C 
ATOM      9  C   UNL     1     121.441 126.093 132.061  1.00  0.00     0.008 C 
ATOM     10  C   UNL     1     120.637 125.957 134.443  1.00  0.00     0.008 C 
ENDBRANCH   5   8
ENDBRANCH   4   5
ENDBRANCH   1   3
BRANCH   1  11
ATOM     11  C   UNL     1     116.465 127.029 134.590  1.00  0.00     0.002 C 
ATOM     12  C   UNL     1     117.166 126.234 135.692  1.00  0.00     0.005 C 
ATOM     13  C   UNL     1     116.218 125.986 133.460  1.00  0.00    -0.026 C 
ATOM     14  C   UNL     1     116.645 124.791 135.539  1.00  0.00     0.005 C 
ATOM     15  C   UNL     1     115.711 124.799 134.306  1.00  0.00    -0.001 C 
ATOM     16  C   UNL     1     117.525 125.584 132.679  1.00  0.00     0.007 C 
ATOM     17  C   UNL     1     115.126 126.493 132.491  1.00  0.00     0.012 C 
ATOM     18  C   UNL     1     115.530 123.461 133.521  1.00  0.00     0.000 C 
ATOM     19  C   UNL     1     117.788 124.075 132.509  1.00  0.00     0.005 C 
ATOM     20  C   UNL     1     116.501 123.264 132.318  1.00  0.00     0.003 C 
ATOM     21  C   UNL     1     115.485 122.242 134.440  1.00  0.00     0.031 C 
ATOM     22  C   UNL     1     116.738 121.749 131.858  1.00  0.00    -0.008 C 
ATOM     23  C   UNL     1     115.126 121.029 133.644  1.00  0.00    -0.027 C 
ATOM     24  C   UNL     1     115.700 120.785 132.449  1.00  0.00    -0.065 C 
ATOM     25  C   UNL     1     118.123 121.164 132.295  1.00  0.00     0.014 C 
ATOM     26  C   UNL     1     116.644 121.740 130.304  1.00  0.00     0.016 C 
ATOM     27  C   UNL     1     115.767 119.347 131.994  1.00  0.00     0.063 C 
ATOM     28  C   UNL     1     118.303 119.662 131.946  1.00  0.00     0.033 C 
ATOM     29  C   UNL     1     117.128 118.776 132.425  1.00  0.00     0.118 C 
BRANCH  29  30
ATOM     30  O   UNL     1     117.259 117.479 131.904  1.00  0.00    -0.393 OA
ATOM     31  H   UNL     1     116.359 117.064 131.942  1.00  0.00     0.210 HD
ENDBRANCH  29  30
ENDBRANCH   1  11
TORSDOF 6
ENDMDL
MODEL 7
REMARK VINA RESULT:    -5.453      2.244      4.560
REMARK INTER + INTRA:          -9.221
REMARK INTER:                  -7.449
REMARK INTRA:                  -1.773
REMARK UNBOUND:                -2.015
REMARK SMILES CC[C@H](C=C[C@H](C)[C@@H]1CC[C@@H]2[C@@H]3CC=C4C[C@@H](O)CC[C@]4(C)[C@@H]3CC[C@@]21C)C(C)C
REMARK SMILES IDX 6 1 7 2 5 3 4 4 3 5 2 6 1 7 28 8 29 9 30 10 8 11 9 12 26 13
REMARK SMILES IDX 10 14 11 15 25 16 27 17 12 18 24 19 23 20 13 21 21 22 14 23
REMARK SMILES IDX 15 24 20 25 22 26 16 27 19 28 17 29 18 30
REMARK H PARENT 18 31
REMARK Flexibility Score: inf
ROOT
ATOM      1  C   UNL     1     118.345 120.574 130.382  1.00  0.00     0.012 C 
ATOM      2  C   UNL     1     119.014 120.245 129.042  1.00  0.00     0.012 C 
ENDROOT
BRANCH   1   3
ATOM      3  C   UNL     1     118.081 119.405 131.333  1.00  0.00    -0.028 C 
ATOM      4  C   UNL     1     116.989 118.988 132.027  1.00  0.00    -0.027 C 
BRANCH   4   5
ATOM      5  C   UNL     1     115.639 119.655 132.260  1.00  0.00     0.014 C 
BRANCH   5   6
ATOM      6  C   UNL     1     114.513 118.598 132.236  1.00  0.00     0.004 C 
ATOM      7  C   UNL     1     115.023 117.214 131.845  1.00  0.00     0.004 C 
ENDBRANCH   5   6
BRANCH   5   8
ATOM      8  C   UNL     1     115.623 120.456 133.604  1.00  0.00    -0.011 C 
ATOM      9  C   UNL     1     116.878 120.178 134.450  1.00  0.00     0.008 C 
ATOM     10  C   UNL     1     114.360 120.230 134.454  1.00  0.00     0.008 C 
ENDBRANCH   5   8
ENDBRANCH   4   5
ENDBRANCH   1   3
BRANCH   1  11
ATOM     11  C   UNL     1     119.013 121.844 131.029  1.00  0.00     0.002 C 
ATOM     12  C   UNL     1     119.642 121.679 132.413  1.00  0.00     0.005 C 
ATOM     13  C   UNL     1     118.248 123.198 131.113  1.00  0.00    -0.026 C 
ATOM     14  C   UNL     1     119.880 123.116 132.920  1.00  0.00     0.005 C 
ATOM     15  C   UNL     1     119.313 124.055 131.830  1.00  0.00    -0.001 C 
ATOM     16  C   UNL     1     116.932 123.124 131.973  1.00  0.00     0.007 C 
ATOM     17  C   UNL     1     117.955 123.737 129.694  1.00  0.00     0.012 C 
ATOM     18  C   UNL     1     118.827 125.473 132.271  1.00  0.00     0.000 C 
ATOM     19  C   UNL     1     116.752 124.213 133.049  1.00  0.00     0.005 C 
ATOM     20  C   UNL     1     117.312 125.574 132.619  1.00  0.00     0.003 C 
ATOM     21  C   UNL     1     119.716 126.088 133.350  1.00  0.00     0.031 C 
ATOM     22  C   UNL     1     116.899 126.789 133.575  1.00  0.00    -0.008 C 
ATOM     23  C   UNL     1     119.305 127.507 133.586  1.00  0.00    -0.027 C 
ATOM     24  C   UNL     1     118.005 127.845 133.697  1.00  0.00    -0.065 C 
ATOM     25  C   UNL     1     116.592 126.359 135.049  1.00  0.00     0.014 C 
ATOM     26  C   UNL     1     115.624 127.429 132.952  1.00  0.00     0.016 C 
ATOM     27  C   UNL     1     117.680 129.088 134.491  1.00  0.00     0.063 C 
ATOM     28  C   UNL     1     116.303 127.552 135.999  1.00  0.00     0.033 C 
ATOM     29  C   UNL     1     117.380 128.661 135.937  1.00  0.00     0.118 C 
BRANCH  29  30
ATOM     30  O   UNL     1     116.955 129.787 136.661  1.00  0.00    -0.393 OA
ATOM     31  H   UNL     1     117.758 130.352 136.806  1.00  0.00     0.210 HD
ENDBRANCH  29  30
ENDBRANCH   1  11
TORSDOF 6
ENDMDL
MODEL 8
REMARK VINA RESULT:    -5.353      3.733      6.851
REMARK INTER + INTRA:          -9.089
REMARK INTER:                  -7.118
REMARK INTRA:                  -1.971
REMARK UNBOUND:                -2.015
REMARK SMILES CC[C@H](C=C[C@H](C)[C@@H]1CC[C@@H]2[C@@H]3CC=C4C[C@@H](O)CC[C@]4(C)[C@@H]3CC[C@@]21C)C(C)C
REMARK SMILES IDX 6 1 7 2 5 3 4 4 3 5 2 6 1 7 28 8 29 9 30 10 8 11 9 12 26 13
REMARK SMILES IDX 10 14 11 15 25 16 27 17 12 18 24 19 23 20 13 21 21 22 14 23
REMARK SMILES IDX 15 24 20 25 22 26 16 27 19 28 17 29 18 30
REMARK H PARENT 18 31
REMARK Flexibility Score: inf
ROOT
ATOM      1  C   UNL     1     113.304 118.462 135.415  1.00  0.00     0.012 C 
ATOM      2  C   UNL     1     112.535 117.138 135.506  1.00  0.00     0.012 C 
ENDROOT
BRANCH   1   3
ATOM      3  C   UNL     1     113.359 119.323 136.678  1.00  0.00    -0.028 C 
ATOM      4  C   UNL     1     113.190 120.651 136.917  1.00  0.00    -0.027 C 
BRANCH   4   5
ATOM      5  C   UNL     1     113.059 121.829 135.960  1.00  0.00     0.014 C 
BRANCH   5   6
ATOM      6  C   UNL     1     111.693 122.524 136.155  1.00  0.00     0.004 C 
ATOM      7  C   UNL     1     110.594 121.543 136.552  1.00  0.00     0.004 C 
ENDBRANCH   5   6
BRANCH   5   8
ATOM      8  C   UNL     1     114.233 122.847 136.143  1.00  0.00    -0.011 C 
ATOM      9  C   UNL     1     114.365 123.790 134.933  1.00  0.00     0.008 C 
ATOM     10  C   UNL     1     115.592 122.191 136.442  1.00  0.00     0.008 C 
ENDBRANCH   5   8
ENDBRANCH   4   5
ENDBRANCH   1   3
BRANCH   1  11
ATOM     11  C   UNL     1     114.676 118.247 134.674  1.00  0.00     0.002 C 
ATOM     12  C   UNL     1     115.954 118.525 135.467  1.00  0.00     0.005 C 
ATOM     13  C   UNL     1     114.942 118.884 133.278  1.00  0.00    -0.026 C 
ATOM     14  C   UNL     1     117.077 118.578 134.411  1.00  0.00     0.005 C 
ATOM     15  C   UNL     1     116.387 118.396 133.039  1.00  0.00    -0.001 C 
ATOM     16  C   UNL     1     114.890 120.458 133.285  1.00  0.00     0.007 C 
ATOM     17  C   UNL     1     113.971 118.301 132.227  1.00  0.00     0.012 C 
ATOM     18  C   UNL     1     117.088 119.005 131.784  1.00  0.00     0.000 C 
ATOM     19  C   UNL     1     116.076 121.189 132.626  1.00  0.00     0.005 C 
ATOM     20  C   UNL     1     116.629 120.446 131.404  1.00  0.00     0.003 C 
ATOM     21  C   UNL     1     118.609 118.874 131.840  1.00  0.00     0.031 C 
ATOM     22  C   UNL     1     117.664 121.296 130.527  1.00  0.00    -0.008 C 
ATOM     23  C   UNL     1     119.196 119.306 130.534  1.00  0.00    -0.027 C 
ATOM     24  C   UNL     1     118.772 120.427 129.917  1.00  0.00    -0.065 C 
ATOM     25  C   UNL     1     118.422 122.400 131.338  1.00  0.00     0.014 C 
ATOM     26  C   UNL     1     116.835 121.968 129.395  1.00  0.00     0.016 C 
ATOM     27  C   UNL     1     119.741 121.111 128.983  1.00  0.00     0.063 C 
ATOM     28  C   UNL     1     119.505 123.146 130.512  1.00  0.00     0.033 C 
ATOM     29  C   UNL     1     120.484 122.195 129.783  1.00  0.00     0.118 C 
BRANCH  29  30
ATOM     30  O   UNL     1     121.300 122.925 128.904  1.00  0.00    -0.393 OA
ATOM     31  H   UNL     1     120.733 123.172 128.128  1.00  0.00     0.210 HD
ENDBRANCH  29  30
ENDBRANCH   1  11
TORSDOF 6
ENDMDL
MODEL 9
REMARK VINA RESULT:    -4.538      3.380      5.574
REMARK INTER + INTRA:          -8.013
REMARK INTER:                  -6.229
REMARK INTRA:                  -1.784
REMARK UNBOUND:                -2.015
REMARK SMILES CC[C@H](C=C[C@H](C)[C@@H]1CC[C@@H]2[C@@H]3CC=C4C[C@@H](O)CC[C@]4(C)[C@@H]3CC[C@@]21C)C(C)C
REMARK SMILES IDX 6 1 7 2 5 3 4 4 3 5 2 6 1 7 28 8 29 9 30 10 8 11 9 12 26 13
REMARK SMILES IDX 10 14 11 15 25 16 27 17 12 18 24 19 23 20 13 21 21 22 14 23
REMARK SMILES IDX 15 24 20 25 22 26 16 27 19 28 17 29 18 30
REMARK H PARENT 18 31
REMARK Flexibility Score: inf
ROOT
ATOM      1  C   UNL     1     118.784 118.121 131.854  1.00  0.00     0.012 C 
ATOM      2  C   UNL     1     118.236 116.875 131.146  1.00  0.00     0.012 C 
ENDROOT
BRANCH   1   3
ATOM      3  C   UNL     1     120.279 118.139 132.172  1.00  0.00    -0.028 C 
ATOM      4  C   UNL     1     121.002 118.491 133.269  1.00  0.00    -0.027 C 
BRANCH   4   5
ATOM      5  C   UNL     1     120.584 119.189 134.557  1.00  0.00     0.014 C 
BRANCH   5   6
ATOM      6  C   UNL     1     120.426 118.155 135.694  1.00  0.00     0.004 C 
ATOM      7  C   UNL     1     119.021 117.561 135.748  1.00  0.00     0.004 C 
ENDBRANCH   5   6
BRANCH   5   8
ATOM      8  C   UNL     1     121.603 120.306 134.958  1.00  0.00    -0.011 C 
ATOM      9  C   UNL     1     121.884 120.306 136.472  1.00  0.00     0.008 C 
ATOM     10  C   UNL     1     121.197 121.719 134.503  1.00  0.00     0.008 C 
ENDBRANCH   5   8
ENDBRANCH   4   5
ENDBRANCH   1   3
BRANCH   1  11
ATOM     11  C   UNL     1     118.211 119.425 131.184  1.00  0.00     0.002 C 
ATOM     12  C   UNL     1     119.220 120.467 130.699  1.00  0.00     0.005 C 
ATOM     13  C   UNL     1     117.099 120.262 131.883  1.00  0.00    -0.026 C 
ATOM     14  C   UNL     1     118.388 121.738 130.436  1.00  0.00     0.005 C 
ATOM     15  C   UNL     1     116.938 121.396 130.848  1.00  0.00    -0.001 C 
ATOM     16  C   UNL     1     117.535 120.850 133.276  1.00  0.00     0.007 C 
ATOM     17  C   UNL     1     115.803 119.431 132.012  1.00  0.00     0.012 C 
ATOM     18  C   UNL     1     116.012 122.571 131.298  1.00  0.00     0.000 C 
ATOM     19  C   UNL     1     117.277 122.353 133.500  1.00  0.00     0.005 C 
ATOM     20  C   UNL     1     115.987 122.842 132.832  1.00  0.00     0.003 C 
ATOM     21  C   UNL     1     116.240 123.843 130.484  1.00  0.00     0.031 C 
ATOM     22  C   UNL     1     115.534 124.314 133.270  1.00  0.00    -0.008 C 
ATOM     23  C   UNL     1     115.201 124.858 130.841  1.00  0.00    -0.027 C 
ATOM     24  C   UNL     1     114.867 125.089 132.126  1.00  0.00    -0.065 C 
ATOM     25  C   UNL     1     116.717 125.227 133.737  1.00  0.00     0.014 C 
ATOM     26  C   UNL     1     114.529 124.136 134.445  1.00  0.00     0.016 C 
ATOM     27  C   UNL     1     114.305 126.451 132.460  1.00  0.00     0.063 C 
ATOM     28  C   UNL     1     116.291 126.686 134.052  1.00  0.00     0.033 C 
ATOM     29  C   UNL     1     115.470 127.345 132.917  1.00  0.00     0.118 C 
BRANCH  29  30
ATOM     30  O   UNL     1     114.951 128.576 133.349  1.00  0.00    -0.393 OA
ATOM     31  H   UNL     1     114.394 128.927 132.607  1.00  0.00     0.210 HD
ENDBRANCH  29  30
ENDBRANCH   1  11
TORSDOF 6
ENDMDL
