MODEL 1
REMARK VINA RESULT:    -7.575      0.000      0.000
REMARK INTER + INTRA:          -8.889
REMARK INTER:                  -9.125
REMARK INTRA:                   0.235
REMARK UNBOUND:                 0.235
REMARK SMILES O=c1c(O)c(-c2ccc(O)c(O)c2)oc2cc(O)cc(O)c12
REMARK SMILES IDX 5 1 3 2 2 3 1 4 22 5 20 6 19 7 17 8 16 9 15 10 14 11 6 12
REMARK SMILES IDX 7 13 8 14 9 15 13 16 11 17 10 18 12 20 4 22 21 24 18 26
REMARK H PARENT 10 19 12 21 4 23 21 25 18 27
REMARK Flexibility Score: inf
ROOT
ATOM      1  C   UNL     1       8.501  40.218  22.489  1.00  0.00     0.180 A 
ATOM      2  C   UNL     1       9.780  39.781  22.095  1.00  0.00     0.208 A 
ATOM      3  C   UNL     1      10.583  40.636  21.324  1.00  0.00     0.238 A 
ATOM      4  O   UNL     1      11.735  40.259  20.976  1.00  0.00    -0.285 OA
ATOM      5  C   UNL     1      10.089  41.901  20.945  1.00  0.00     0.111 A 
ATOM      6  C   UNL     1      10.833  42.821  20.166  1.00  0.00     0.134 A 
ATOM      7  C   UNL     1      10.266  44.057  19.820  1.00  0.00     0.093 A 
ATOM      8  C   UNL     1       8.977  44.391  20.237  1.00  0.00     0.123 A 
ATOM      9  C   UNL     1       8.238  43.487  21.008  1.00  0.00     0.094 A 
ATOM     10  C   UNL     1       8.784  42.251  21.363  1.00  0.00     0.146 A 
ATOM     11  O   UNL     1       8.063  41.412  22.099  1.00  0.00    -0.452 OA
ENDROOT
BRANCH   1  12
ATOM     12  C   UNL     1       7.603  39.382  23.317  1.00  0.00     0.025 A 
ATOM     13  C   UNL     1       7.574  37.993  23.119  1.00  0.00     0.016 A 
ATOM     14  C   UNL     1       6.719  37.188  23.875  1.00  0.00     0.051 A 
ATOM     15  C   UNL     1       5.869  37.761  24.830  1.00  0.00     0.157 A 
ATOM     16  C   UNL     1       6.733  39.957  24.262  1.00  0.00     0.062 A 
ATOM     17  C   UNL     1       5.874  39.153  25.020  1.00  0.00     0.158 A 
BRANCH  15  18
ATOM     18  O   UNL     1       5.018  36.955  25.585  1.00  0.00    -0.504 OA
ATOM     19  H   UNL     1       5.351  36.448  26.398  1.00  0.00     0.293 HD
ENDBRANCH  15  18
BRANCH  17  20
ATOM     20  O   UNL     1       5.030  39.755  25.952  1.00  0.00    -0.504 OA
ATOM     21  H   UNL     1       4.028  39.809  25.815  1.00  0.00     0.293 HD
ENDBRANCH  17  20
ENDBRANCH   1  12
BRANCH   2  22
ATOM     22  O   UNL     1      10.227  38.503  22.443  1.00  0.00    -0.502 OA
ATOM     23  H   UNL     1       9.689  37.668  22.247  1.00  0.00     0.293 HD
ENDBRANCH   2  22
BRANCH   6  24
ATOM     24  O   UNL     1      12.123  42.516  19.733  1.00  0.00    -0.507 OA
ATOM     25  H   UNL     1      12.408  41.563  19.534  1.00  0.00     0.293 HD
ENDBRANCH   6  24
BRANCH   8  26
ATOM     26  O   UNL     1       8.437  45.625  19.880  1.00  0.00    -0.508 OA
ATOM     27  H   UNL     1       7.465  45.850  20.058  1.00  0.00     0.293 HD
ENDBRANCH   8  26
TORSDOF 6
ENDMDL
MODEL 2
REMARK VINA RESULT:    -7.474      5.061     11.092
REMARK INTER + INTRA:          -8.768
REMARK INTER:                  -8.895
REMARK INTRA:                   0.127
REMARK UNBOUND:                 0.235
REMARK SMILES O=c1c(O)c(-c2ccc(O)c(O)c2)oc2cc(O)cc(O)c12
REMARK SMILES IDX 5 1 3 2 2 3 1 4 22 5 20 6 19 7 17 8 16 9 15 10 14 11 6 12
REMARK SMILES IDX 7 13 8 14 9 15 13 16 11 17 10 18 12 20 4 22 21 24 18 26
REMARK H PARENT 10 19 12 21 4 23 21 25 18 27
REMARK Flexibility Score: inf
ROOT
ATOM      1  C   UNL     1       4.105  36.911  27.969  1.00  0.00     0.180 A 
ATOM      2  C   UNL     1       4.095  37.320  29.316  1.00  0.00     0.208 A 
ATOM      3  C   UNL     1       3.474  36.499  30.271  1.00  0.00     0.238 A 
ATOM      4  O   UNL     1       3.469  36.849  31.482  1.00  0.00    -0.285 OA
ATOM      5  C   UNL     1       2.859  35.297  29.862  1.00  0.00     0.111 A 
ATOM      6  C   UNL     1       2.209  34.416  30.760  1.00  0.00     0.134 A 
ATOM      7  C   UNL     1       1.612  33.244  30.273  1.00  0.00     0.093 A 
ATOM      8  C   UNL     1       1.652  32.936  28.912  1.00  0.00     0.123 A 
ATOM      9  C   UNL     1       2.293  33.803  28.020  1.00  0.00     0.094 A 
ATOM     10  C   UNL     1       2.895  34.975  28.485  1.00  0.00     0.146 A 
ATOM     11  O   UNL     1       3.501  35.779  27.618  1.00  0.00    -0.452 OA
ENDROOT
BRANCH   1  12
ATOM     12  C   UNL     1       4.755  37.712  26.907  1.00  0.00     0.025 A 
ATOM     13  C   UNL     1       4.553  39.101  26.868  1.00  0.00     0.016 A 
ATOM     14  C   UNL     1       5.139  39.874  25.863  1.00  0.00     0.051 A 
ATOM     15  C   UNL     1       5.924  39.268  24.873  1.00  0.00     0.157 A 
ATOM     16  C   UNL     1       5.525  37.105  25.900  1.00  0.00     0.062 A 
ATOM     17  C   UNL     1       6.113  37.876  24.890  1.00  0.00     0.158 A 
BRANCH  15  18
ATOM     18  O   UNL     1       6.510  40.041  23.872  1.00  0.00    -0.504 OA
ATOM     19  H   UNL     1       7.467  39.885  23.574  1.00  0.00     0.293 HD
ENDBRANCH  15  18
BRANCH  17  20
ATOM     20  O   UNL     1       6.876  37.240  23.911  1.00  0.00    -0.504 OA
ATOM     21  H   UNL     1       7.565  36.534  24.139  1.00  0.00     0.293 HD
ENDBRANCH  17  20
ENDBRANCH   1  12
BRANCH   2  22
ATOM     22  O   UNL     1       4.669  38.539  29.688  1.00  0.00    -0.502 OA
ATOM     23  H   UNL     1       5.423  38.600  30.361  1.00  0.00     0.293 HD
ENDBRANCH   2  22
BRANCH   6  24
ATOM     24  O   UNL     1       2.152  34.695  32.125  1.00  0.00    -0.507 OA
ATOM     25  H   UNL     1       2.979  34.660  32.712  1.00  0.00     0.293 HD
ENDBRANCH   6  24
BRANCH   8  26
ATOM     26  O   UNL     1       1.050  31.766  28.454  1.00  0.00    -0.508 OA
ATOM     27  H   UNL     1       0.544  31.150  29.081  1.00  0.00     0.293 HD
ENDBRANCH   8  26
TORSDOF 6
ENDMDL
MODEL 3
REMARK VINA RESULT:    -7.434      1.313      1.364
REMARK INTER + INTRA:          -8.720
REMARK INTER:                  -8.465
REMARK INTRA:                  -0.255
REMARK UNBOUND:                 0.235
REMARK SMILES O=c1c(O)c(-c2ccc(O)c(O)c2)oc2cc(O)cc(O)c12
REMARK SMILES IDX 5 1 3 2 2 3 1 4 22 5 20 6 19 7 17 8 16 9 15 10 14 11 6 12
REMARK SMILES IDX 7 13 8 14 9 15 13 16 11 17 10 18 12 20 4 22 21 24 18 26
REMARK H PARENT 10 19 12 21 4 23 21 25 18 27
REMARK Flexibility Score: inf
ROOT
ATOM      1  C   UNL     1       8.949  40.124  22.923  1.00  0.00     0.180 A 
ATOM      2  C   UNL     1      10.075  39.597  22.262  1.00  0.00     0.208 A 
ATOM      3  C   UNL     1      10.748  40.397  21.325  1.00  0.00     0.238 A 
ATOM      4  O   UNL     1      11.764  39.940  20.734  1.00  0.00    -0.285 OA
ATOM      5  C   UNL     1      10.274  41.696  21.050  1.00  0.00     0.111 A 
ATOM      6  C   UNL     1      10.892  42.564  20.117  1.00  0.00     0.134 A 
ATOM      7  C   UNL     1      10.354  43.840  19.893  1.00  0.00     0.093 A 
ATOM      8  C   UNL     1       9.215  44.265  20.580  1.00  0.00     0.123 A 
ATOM      9  C   UNL     1       8.601  43.412  21.504  1.00  0.00     0.094 A 
ATOM     10  C   UNL     1       9.122  42.137  21.742  1.00  0.00     0.146 A 
ATOM     11  O   UNL     1       8.523  41.348  22.628  1.00  0.00    -0.452 OA
ENDROOT
BRANCH   1  12
ATOM     12  C   UNL     1       8.198  39.350  23.938  1.00  0.00     0.025 A 
ATOM     13  C   UNL     1       6.896  38.914  23.649  1.00  0.00     0.016 A 
ATOM     14  C   UNL     1       6.161  38.200  24.599  1.00  0.00     0.051 A 
ATOM     15  C   UNL     1       6.712  37.926  25.858  1.00  0.00     0.157 A 
ATOM     16  C   UNL     1       8.740  39.091  25.210  1.00  0.00     0.062 A 
ATOM     17  C   UNL     1       8.006  38.378  26.165  1.00  0.00     0.158 A 
BRANCH  15  18
ATOM     18  O   UNL     1       5.978  37.211  26.804  1.00  0.00    -0.504 OA
ATOM     19  H   UNL     1       5.058  37.517  27.102  1.00  0.00     0.293 HD
ENDBRANCH  15  18
BRANCH  17  20
ATOM     20  O   UNL     1       8.577  38.134  27.414  1.00  0.00    -0.504 OA
ATOM     21  H   UNL     1       9.539  37.836  27.516  1.00  0.00     0.293 HD
ENDBRANCH  17  20
ENDBRANCH   1  12
BRANCH   2  22
ATOM     22  O   UNL     1      10.495  38.288  22.516  1.00  0.00    -0.502 OA
ATOM     23  H   UNL     1      10.297  37.523  21.883  1.00  0.00     0.293 HD
ENDBRANCH   2  22
BRANCH   6  24
ATOM     24  O   UNL     1      12.030  42.170  19.414  1.00  0.00    -0.507 OA
ATOM     25  H   UNL     1      12.774  41.640  19.856  1.00  0.00     0.293 HD
ENDBRANCH   6  24
BRANCH   8  26
ATOM     26  O   UNL     1       8.700  45.536  20.338  1.00  0.00    -0.508 OA
ATOM     27  H   UNL     1       9.304  46.316  20.102  1.00  0.00     0.293 HD
ENDBRANCH   8  26
TORSDOF 6
ENDMDL
MODEL 4
REMARK VINA RESULT:    -7.414      7.053     10.269
REMARK INTER + INTRA:          -8.695
REMARK INTER:                  -8.482
REMARK INTRA:                  -0.213
REMARK UNBOUND:                 0.235
REMARK SMILES O=c1c(O)c(-c2ccc(O)c(O)c2)oc2cc(O)cc(O)c12
REMARK SMILES IDX 5 1 3 2 2 3 1 4 22 5 20 6 19 7 17 8 16 9 15 10 14 11 6 12
REMARK SMILES IDX 7 13 8 14 9 15 13 16 11 17 10 18 12 20 4 22 21 24 18 26
REMARK H PARENT 10 19 12 21 4 23 21 25 18 27
REMARK Flexibility Score: inf
ROOT
ATOM      1  C   UNL     1       3.733  34.762  29.515  1.00  0.00     0.180 A 
ATOM      2  C   UNL     1       4.902  34.609  30.285  1.00  0.00     0.208 A 
ATOM      3  C   UNL     1       5.931  35.554  30.153  1.00  0.00     0.238 A 
ATOM      4  O   UNL     1       6.977  35.433  30.846  1.00  0.00    -0.285 OA
ATOM      5  C   UNL     1       5.784  36.620  29.242  1.00  0.00     0.111 A 
ATOM      6  C   UNL     1       6.776  37.612  29.045  1.00  0.00     0.134 A 
ATOM      7  C   UNL     1       6.559  38.637  28.112  1.00  0.00     0.093 A 
ATOM      8  C   UNL     1       5.375  38.690  27.375  1.00  0.00     0.123 A 
ATOM      9  C   UNL     1       4.392  37.713  27.565  1.00  0.00     0.094 A 
ATOM     10  C   UNL     1       4.588  36.684  28.490  1.00  0.00     0.146 A 
ATOM     11  O   UNL     1       3.636  35.772  28.655  1.00  0.00    -0.452 OA
ENDROOT
BRANCH   1  12
ATOM     12  C   UNL     1       2.596  33.818  29.612  1.00  0.00     0.025 A 
ATOM     13  C   UNL     1       2.238  33.050  28.493  1.00  0.00     0.016 A 
ATOM     14  C   UNL     1       1.157  32.168  28.556  1.00  0.00     0.051 A 
ATOM     15  C   UNL     1       0.406  32.054  29.734  1.00  0.00     0.157 A 
ATOM     16  C   UNL     1       1.828  33.716  30.786  1.00  0.00     0.062 A 
ATOM     17  C   UNL     1       0.742  32.835  30.852  1.00  0.00     0.158 A 
BRANCH  15  18
ATOM     18  O   UNL     1      -0.672  31.172  29.795  1.00  0.00    -0.504 OA
ATOM     19  H   UNL     1      -1.059  30.868  30.682  1.00  0.00     0.293 HD
ENDBRANCH  15  18
BRANCH  17  20
ATOM     20  O   UNL     1       0.007  32.755  32.034  1.00  0.00    -0.504 OA
ATOM     21  H   UNL     1      -0.276  31.867  32.433  1.00  0.00     0.293 HD
ENDBRANCH  17  20
ENDBRANCH   1  12
BRANCH   2  22
ATOM     22  O   UNL     1       5.042  33.516  31.145  1.00  0.00    -0.502 OA
ATOM     23  H   UNL     1       5.537  32.674  30.876  1.00  0.00     0.293 HD
ENDBRANCH   2  22
BRANCH   6  24
ATOM     24  O   UNL     1       7.969  37.587  29.766  1.00  0.00    -0.507 OA
ATOM     25  H   UNL     1       8.573  38.399  29.827  1.00  0.00     0.293 HD
ENDBRANCH   6  24
BRANCH   8  26
ATOM     26  O   UNL     1       5.184  39.718  26.453  1.00  0.00    -0.508 OA
ATOM     27  H   UNL     1       5.528  40.655  26.627  1.00  0.00     0.293 HD
ENDBRANCH   8  26
TORSDOF 6
ENDMDL
MODEL 5
REMARK VINA RESULT:    -7.367      9.628     11.793
REMARK INTER + INTRA:          -8.639
REMARK INTER:                  -8.317
REMARK INTRA:                  -0.322
REMARK UNBOUND:                 0.235
REMARK SMILES O=c1c(O)c(-c2ccc(O)c(O)c2)oc2cc(O)cc(O)c12
REMARK SMILES IDX 5 1 3 2 2 3 1 4 22 5 20 6 19 7 17 8 16 9 15 10 14 11 6 12
REMARK SMILES IDX 7 13 8 14 9 15 13 16 11 17 10 18 12 20 4 22 21 24 18 26
REMARK H PARENT 10 19 12 21 4 23 21 25 18 27
REMARK Flexibility Score: inf
ROOT
ATOM      1  C   UNL     1       3.789  34.296  30.171  1.00  0.00     0.180 A 
ATOM      2  C   UNL     1       3.843  35.627  29.715  1.00  0.00     0.208 A 
ATOM      3  C   UNL     1       5.055  36.328  29.808  1.00  0.00     0.238 A 
ATOM      4  O   UNL     1       5.119  37.517  29.393  1.00  0.00    -0.285 OA
ATOM      5  C   UNL     1       6.183  35.697  30.372  1.00  0.00     0.111 A 
ATOM      6  C   UNL     1       7.441  36.334  30.507  1.00  0.00     0.134 A 
ATOM      7  C   UNL     1       8.513  35.641  31.088  1.00  0.00     0.093 A 
ATOM      8  C   UNL     1       8.354  34.328  31.535  1.00  0.00     0.123 A 
ATOM      9  C   UNL     1       7.115  33.693  31.404  1.00  0.00     0.094 A 
ATOM     10  C   UNL     1       6.034  34.366  30.827  1.00  0.00     0.146 A 
ATOM     11  O   UNL     1       4.869  33.738  30.710  1.00  0.00    -0.452 OA
ENDROOT
BRANCH   1  12
ATOM     12  C   UNL     1       2.553  33.485  30.089  1.00  0.00     0.025 A 
ATOM     13  C   UNL     1       2.261  32.788  28.906  1.00  0.00     0.016 A 
ATOM     14  C   UNL     1       1.090  32.033  28.799  1.00  0.00     0.051 A 
ATOM     15  C   UNL     1       0.186  31.977  29.868  1.00  0.00     0.157 A 
ATOM     16  C   UNL     1       1.632  33.444  31.152  1.00  0.00     0.062 A 
ATOM     17  C   UNL     1       0.457  32.690  31.048  1.00  0.00     0.158 A 
BRANCH  15  18
ATOM     18  O   UNL     1      -0.981  31.222  29.760  1.00  0.00    -0.504 OA
ATOM     19  H   UNL     1      -1.817  31.596  29.324  1.00  0.00     0.293 HD
ENDBRANCH  15  18
BRANCH  17  20
ATOM     20  O   UNL     1      -0.429  32.667  32.124  1.00  0.00    -0.504 OA
ATOM     21  H   UNL     1      -1.305  32.159  32.089  1.00  0.00     0.293 HD
ENDBRANCH  17  20
ENDBRANCH   1  12
BRANCH   2  22
ATOM     22  O   UNL     1       2.698  36.246  29.205  1.00  0.00    -0.502 OA
ATOM     23  H   UNL     1       2.737  37.110  28.679  1.00  0.00     0.293 HD
ENDBRANCH   2  22
BRANCH   6  24
ATOM     24  O   UNL     1       7.631  37.645  30.070  1.00  0.00    -0.507 OA
ATOM     25  H   UNL     1       8.006  37.853  29.151  1.00  0.00     0.293 HD
ENDBRANCH   6  24
BRANCH   8  26
ATOM     26  O   UNL     1       9.435  33.663  32.109  1.00  0.00    -0.508 OA
ATOM     27  H   UNL     1       9.909  32.906  31.628  1.00  0.00     0.293 HD
ENDBRANCH   8  26
TORSDOF 6
ENDMDL
MODEL 6
REMARK VINA RESULT:    -7.319      3.535      9.037
REMARK INTER + INTRA:          -8.581
REMARK INTER:                  -8.249
REMARK INTRA:                  -0.332
REMARK UNBOUND:                 0.235
REMARK SMILES O=c1c(O)c(-c2ccc(O)c(O)c2)oc2cc(O)cc(O)c12
REMARK SMILES IDX 5 1 3 2 2 3 1 4 22 5 20 6 19 7 17 8 16 9 15 10 14 11 6 12
REMARK SMILES IDX 7 13 8 14 9 15 13 16 11 17 10 18 12 20 4 22 21 24 18 26
REMARK H PARENT 10 19 12 21 4 23 21 25 18 27
REMARK Flexibility Score: inf
ROOT
ATOM      1  C   UNL     1       6.234  38.006  26.329  1.00  0.00     0.180 A 
ATOM      2  C   UNL     1       6.474  38.708  27.526  1.00  0.00     0.208 A 
ATOM      3  C   UNL     1       5.714  38.392  28.663  1.00  0.00     0.238 A 
ATOM      4  O   UNL     1       5.929  39.007  29.743  1.00  0.00    -0.285 OA
ATOM      5  C   UNL     1       4.717  37.399  28.580  1.00  0.00     0.111 A 
ATOM      6  C   UNL     1       3.905  37.024  29.679  1.00  0.00     0.134 A 
ATOM      7  C   UNL     1       2.927  36.032  29.513  1.00  0.00     0.093 A 
ATOM      8  C   UNL     1       2.745  35.410  28.277  1.00  0.00     0.123 A 
ATOM      9  C   UNL     1       3.544  35.775  27.189  1.00  0.00     0.094 A 
ATOM     10  C   UNL     1       4.525  36.760  27.333  1.00  0.00     0.146 A 
ATOM     11  O   UNL     1       5.275  37.085  26.285  1.00  0.00    -0.452 OA
ENDROOT
BRANCH   1  12
ATOM     12  C   UNL     1       7.006  38.268  25.093  1.00  0.00     0.025 A 
ATOM     13  C   UNL     1       6.526  39.203  24.164  1.00  0.00     0.016 A 
ATOM     14  C   UNL     1       7.227  39.451  22.982  1.00  0.00     0.051 A 
ATOM     15  C   UNL     1       8.411  38.755  22.703  1.00  0.00     0.157 A 
ATOM     16  C   UNL     1       8.183  37.555  24.801  1.00  0.00     0.062 A 
ATOM     17  C   UNL     1       8.887  37.799  23.616  1.00  0.00     0.158 A 
BRANCH  15  18
ATOM     18  O   UNL     1       9.111  39.005  21.524  1.00  0.00    -0.504 OA
ATOM     19  H   UNL     1      10.032  39.429  21.533  1.00  0.00     0.293 HD
ENDBRANCH  15  18
BRANCH  17  20
ATOM     20  O   UNL     1      10.055  37.079  23.362  1.00  0.00    -0.504 OA
ATOM     21  H   UNL     1      10.727  36.870  24.090  1.00  0.00     0.293 HD
ENDBRANCH  17  20
ENDBRANCH   1  12
BRANCH   2  22
ATOM     22  O   UNL     1       7.435  39.722  27.568  1.00  0.00    -0.502 OA
ATOM     23  H   UNL     1       8.387  39.580  27.253  1.00  0.00     0.293 HD
ENDBRANCH   2  22
BRANCH   6  24
ATOM     24  O   UNL     1       4.062  37.628  30.926  1.00  0.00    -0.507 OA
ATOM     25  H   UNL     1       3.477  38.402  31.221  1.00  0.00     0.293 HD
ENDBRANCH   6  24
BRANCH   8  26
ATOM     26  O   UNL     1       1.765  34.428  28.140  1.00  0.00    -0.508 OA
ATOM     27  H   UNL     1       1.370  33.958  28.946  1.00  0.00     0.293 HD
ENDBRANCH   8  26
TORSDOF 6
ENDMDL
MODEL 7
REMARK VINA RESULT:    -7.309      2.540      4.299
REMARK INTER + INTRA:          -8.569
REMARK INTER:                  -8.245
REMARK INTRA:                  -0.324
REMARK UNBOUND:                 0.235
REMARK SMILES O=c1c(O)c(-c2ccc(O)c(O)c2)oc2cc(O)cc(O)c12
REMARK SMILES IDX 5 1 3 2 2 3 1 4 22 5 20 6 19 7 17 8 16 9 15 10 14 11 6 12
REMARK SMILES IDX 7 13 8 14 9 15 13 16 11 17 10 18 12 20 4 22 21 24 18 26
REMARK H PARENT 10 19 12 21 4 23 21 25 18 27
REMARK Flexibility Score: inf
ROOT
ATOM      1  C   UNL     1       6.657  38.373  25.643  1.00  0.00     0.180 A 
ATOM      2  C   UNL     1       7.780  37.552  25.426  1.00  0.00     0.208 A 
ATOM      3  C   UNL     1       8.678  37.887  24.401  1.00  0.00     0.238 A 
ATOM      4  O   UNL     1       9.693  37.165  24.205  1.00  0.00    -0.285 OA
ATOM      5  C   UNL     1       8.430  39.021  23.601  1.00  0.00     0.111 A 
ATOM      6  C   UNL     1       9.284  39.426  22.546  1.00  0.00     0.134 A 
ATOM      7  C   UNL     1       8.963  40.562  21.788  1.00  0.00     0.093 A 
ATOM      8  C   UNL     1       7.810  41.299  22.063  1.00  0.00     0.123 A 
ATOM      9  C   UNL     1       6.964  40.905  23.105  1.00  0.00     0.094 A 
ATOM     10  C   UNL     1       7.266  39.777  23.872  1.00  0.00     0.146 A 
ATOM     11  O   UNL     1       6.448  39.427  24.859  1.00  0.00    -0.452 OA
ENDROOT
BRANCH   1  12
ATOM     12  C   UNL     1       5.674  38.097  26.716  1.00  0.00     0.025 A 
ATOM     13  C   UNL     1       4.587  37.249  26.455  1.00  0.00     0.016 A 
ATOM     14  C   UNL     1       3.637  36.991  27.446  1.00  0.00     0.051 A 
ATOM     15  C   UNL     1       3.751  37.590  28.707  1.00  0.00     0.157 A 
ATOM     16  C   UNL     1       5.774  38.713  27.977  1.00  0.00     0.062 A 
ATOM     17  C   UNL     1       4.823  38.458  28.971  1.00  0.00     0.158 A 
BRANCH  15  18
ATOM     18  O   UNL     1       2.802  37.329  29.695  1.00  0.00    -0.504 OA
ATOM     19  H   UNL     1       1.873  37.732  29.658  1.00  0.00     0.293 HD
ENDBRANCH  15  18
BRANCH  17  20
ATOM     20  O   UNL     1       4.957  39.081  30.212  1.00  0.00    -0.504 OA
ATOM     21  H   UNL     1       5.855  39.180  30.670  1.00  0.00     0.293 HD
ENDBRANCH  17  20
ENDBRANCH   1  12
BRANCH   2  22
ATOM     22  O   UNL     1       7.976  36.406  26.202  1.00  0.00    -0.502 OA
ATOM     23  H   UNL     1       8.560  35.637  25.895  1.00  0.00     0.293 HD
ENDBRANCH   2  22
BRANCH   6  24
ATOM     24  O   UNL     1      10.443  38.709  22.245  1.00  0.00    -0.507 OA
ATOM     25  H   UNL     1      10.622  38.351  21.313  1.00  0.00     0.293 HD
ENDBRANCH   6  24
BRANCH   8  26
ATOM     26  O   UNL     1       7.514  42.423  21.295  1.00  0.00    -0.508 OA
ATOM     27  H   UNL     1       7.284  42.347  20.311  1.00  0.00     0.293 HD
ENDBRANCH   8  26
TORSDOF 6
ENDMDL
MODEL 8
REMARK VINA RESULT:    -7.146      2.149      6.962
REMARK INTER + INTRA:          -8.373
REMARK INTER:                  -8.166
REMARK INTRA:                  -0.207
REMARK UNBOUND:                 0.235
REMARK SMILES O=c1c(O)c(-c2ccc(O)c(O)c2)oc2cc(O)cc(O)c12
REMARK SMILES IDX 5 1 3 2 2 3 1 4 22 5 20 6 19 7 17 8 16 9 15 10 14 11 6 12
REMARK SMILES IDX 7 13 8 14 9 15 13 16 11 17 10 18 12 20 4 22 21 24 18 26
REMARK H PARENT 10 19 12 21 4 23 21 25 18 27
REMARK Flexibility Score: inf
ROOT
ATOM      1  C   UNL     1       9.346  40.755  23.124  1.00  0.00     0.180 A 
ATOM      2  C   UNL     1      10.243  40.689  24.207  1.00  0.00     0.208 A 
ATOM      3  C   UNL     1      10.053  39.701  25.186  1.00  0.00     0.238 A 
ATOM      4  O   UNL     1      10.857  39.625  26.155  1.00  0.00    -0.285 OA
ATOM      5  C   UNL     1       8.962  38.814  25.078  1.00  0.00     0.111 A 
ATOM      6  C   UNL     1       8.697  37.794  26.025  1.00  0.00     0.134 A 
ATOM      7  C   UNL     1       7.585  36.957  25.852  1.00  0.00     0.093 A 
ATOM      8  C   UNL     1       6.735  37.118  24.756  1.00  0.00     0.123 A 
ATOM      9  C   UNL     1       6.992  38.123  23.817  1.00  0.00     0.094 A 
ATOM     10  C   UNL     1       8.096  38.968  23.971  1.00  0.00     0.146 A 
ATOM     11  O   UNL     1       8.320  39.911  23.063  1.00  0.00    -0.452 OA
ENDROOT
BRANCH   1  12
ATOM     12  C   UNL     1       9.491  41.755  22.041  1.00  0.00     0.025 A 
ATOM     13  C   UNL     1       8.485  42.715  21.848  1.00  0.00     0.016 A 
ATOM     14  C   UNL     1       8.591  43.654  20.820  1.00  0.00     0.051 A 
ATOM     15  C   UNL     1       9.697  43.639  19.959  1.00  0.00     0.157 A 
ATOM     16  C   UNL     1      10.589  41.729  21.162  1.00  0.00     0.062 A 
ATOM     17  C   UNL     1      10.698  42.668  20.130  1.00  0.00     0.158 A 
BRANCH  15  18
ATOM     18  O   UNL     1       9.802  44.579  18.935  1.00  0.00    -0.504 OA
ATOM     19  H   UNL     1      10.472  45.339  18.979  1.00  0.00     0.293 HD
ENDBRANCH  15  18
BRANCH  17  20
ATOM     20  O   UNL     1      11.804  42.616  19.281  1.00  0.00    -0.504 OA
ATOM     21  H   UNL     1      12.121  41.750  18.863  1.00  0.00     0.293 HD
ENDBRANCH  17  20
ENDBRANCH   1  12
BRANCH   2  22
ATOM     22  O   UNL     1      11.288  41.611  24.316  1.00  0.00    -0.502 OA
ATOM     23  H   UNL     1      11.483  42.296  23.596  1.00  0.00     0.293 HD
ENDBRANCH   2  22
BRANCH   6  24
ATOM     24  O   UNL     1       9.526  37.609  27.131  1.00  0.00    -0.507 OA
ATOM     25  H   UNL     1       9.544  38.268  27.902  1.00  0.00     0.293 HD
ENDBRANCH   6  24
BRANCH   8  26
ATOM     26  O   UNL     1       5.637  36.274  24.608  1.00  0.00    -0.508 OA
ATOM     27  H   UNL     1       5.287  36.015  23.692  1.00  0.00     0.293 HD
ENDBRANCH   8  26
TORSDOF 6
ENDMDL
MODEL 9
REMARK VINA RESULT:    -7.079      3.362      8.892
REMARK INTER + INTRA:          -8.292
REMARK INTER:                  -7.968
REMARK INTRA:                  -0.324
REMARK UNBOUND:                 0.235
REMARK SMILES O=c1c(O)c(-c2ccc(O)c(O)c2)oc2cc(O)cc(O)c12
REMARK SMILES IDX 5 1 3 2 2 3 1 4 22 5 20 6 19 7 17 8 16 9 15 10 14 11 6 12
REMARK SMILES IDX 7 13 8 14 9 15 13 16 11 17 10 18 12 20 4 22 21 24 18 26
REMARK H PARENT 10 19 12 21 4 23 21 25 18 27
REMARK Flexibility Score: inf
ROOT
ATOM      1  C   UNL     1       6.101  37.843  26.143  1.00  0.00     0.180 A 
ATOM      2  C   UNL     1       5.084  36.877  26.025  1.00  0.00     0.208 A 
ATOM      3  C   UNL     1       4.352  36.518  27.168  1.00  0.00     0.238 A 
ATOM      4  O   UNL     1       3.431  35.662  27.071  1.00  0.00    -0.285 OA
ATOM      5  C   UNL     1       4.662  37.112  28.408  1.00  0.00     0.111 A 
ATOM      6  C   UNL     1       3.975  36.802  29.608  1.00  0.00     0.134 A 
ATOM      7  C   UNL     1       4.350  37.430  30.805  1.00  0.00     0.093 A 
ATOM      8  C   UNL     1       5.393  38.358  30.827  1.00  0.00     0.123 A 
ATOM      9  C   UNL     1       6.073  38.669  29.645  1.00  0.00     0.094 A 
ATOM     10  C   UNL     1       5.716  38.055  28.442  1.00  0.00     0.146 A 
ATOM     11  O   UNL     1       6.375  38.371  27.333  1.00  0.00    -0.452 OA
ENDROOT
BRANCH   1  12
ATOM     12  C   UNL     1       6.903  38.289  24.981  1.00  0.00     0.025 A 
ATOM     13  C   UNL     1       6.456  39.371  24.207  1.00  0.00     0.016 A 
ATOM     14  C   UNL     1       7.187  39.795  23.094  1.00  0.00     0.051 A 
ATOM     15  C   UNL     1       8.367  39.133  22.729  1.00  0.00     0.157 A 
ATOM     16  C   UNL     1       8.077  37.613  24.600  1.00  0.00     0.062 A 
ATOM     17  C   UNL     1       8.810  38.034  23.484  1.00  0.00     0.158 A 
BRANCH  15  18
ATOM     18  O   UNL     1       9.095  39.559  21.620  1.00  0.00    -0.504 OA
ATOM     19  H   UNL     1       8.737  39.451  20.677  1.00  0.00     0.293 HD
ENDBRANCH  15  18
BRANCH  17  20
ATOM     20  O   UNL     1       9.973  37.345  23.139  1.00  0.00    -0.504 OA
ATOM     21  H   UNL     1      10.344  37.355  22.197  1.00  0.00     0.293 HD
ENDBRANCH  17  20
ENDBRANCH   1  12
BRANCH   2  22
ATOM     22  O   UNL     1       4.829  36.268  24.793  1.00  0.00    -0.502 OA
ATOM     23  H   UNL     1       4.402  35.352  24.719  1.00  0.00     0.293 HD
ENDBRANCH   2  22
BRANCH   6  24
ATOM     24  O   UNL     1       2.930  35.879  29.619  1.00  0.00    -0.507 OA
ATOM     25  H   UNL     1       1.959  36.172  29.623  1.00  0.00     0.293 HD
ENDBRANCH   6  24
BRANCH   8  26
ATOM     26  O   UNL     1       5.745  38.967  32.030  1.00  0.00    -0.508 OA
ATOM     27  H   UNL     1       5.101  39.571  32.528  1.00  0.00     0.293 HD
ENDBRANCH   8  26
TORSDOF 6
ENDMDL
