MODEL 1
REMARK VINA RESULT:     0.061      0.000      0.000
REMARK INTER + INTRA:          -1.318
REMARK INTER:                   0.139
REMARK INTRA:                  -1.458
REMARK UNBOUND:                -1.458
REMARK SMILES CCCCCCCCCCCCCCCCCCCCCCCC(=O)[O-]
REMARK SMILES IDX 13 1 14 2 15 3 16 4 17 5 18 6 19 7 20 8 21 9 22 10 23 11
REMARK SMILES IDX 24 12 25 13 26 14 12 15 11 16 10 17 9 18 8 19 7 20 6 21 5 22
REMARK SMILES IDX 4 23 3 24 2 25 1 26
REMARK H PARENT
REMARK Flexibility Score: inf
ROOT
ATOM      1  C   UNL     1       3.592 -36.453  20.176  1.00  0.00     0.000 C 
ENDROOT
BRANCH   1   2
ATOM      2  C   UNL     1       3.110 -37.866  19.795  1.00  0.00     0.000 C 
BRANCH   2   3
ATOM      3  C   UNL     1       1.586 -37.976  19.580  1.00  0.00     0.000 C 
BRANCH   3   4
ATOM      4  C   UNL     1       1.209 -38.204  18.105  1.00  0.00     0.000 C 
BRANCH   4   5
ATOM      5  C   UNL     1       2.256 -37.639  17.129  1.00  0.00     0.000 C 
BRANCH   5   6
ATOM      6  C   UNL     1       1.680 -36.811  15.964  1.00  0.00     0.000 C 
BRANCH   6   7
ATOM      7  C   UNL     1       2.753 -36.260  15.000  1.00  0.00     0.000 C 
BRANCH   7   8
ATOM      8  C   UNL     1       3.111 -37.267  13.891  1.00  0.00     0.000 C 
BRANCH   8   9
ATOM      9  C   UNL     1       4.512 -37.879  14.068  1.00  0.00     0.000 C 
BRANCH   9  10
ATOM     10  C   UNL     1       4.518 -39.295  14.684  1.00  0.00     0.006 C 
BRANCH  10  11
ATOM     11  C   UNL     1       5.336 -40.318  13.875  1.00  0.00     0.053 C 
BRANCH  11  12
ATOM     12  C   UNL     1       5.208 -41.709  14.412  1.00  0.00     0.041 C 
ATOM     13  O   UNL     1       4.301 -42.472  13.988  1.00  0.00    -0.550 OA
ATOM     14  O   UNL     1       6.089 -42.162  15.386  1.00  0.00    -0.550 OA
ENDBRANCH  11  12
ENDBRANCH  10  11
ENDBRANCH   9  10
ENDBRANCH   8   9
ENDBRANCH   7   8
ENDBRANCH   6   7
ENDBRANCH   5   6
ENDBRANCH   4   5
ENDBRANCH   3   4
ENDBRANCH   2   3
ENDBRANCH   1   2
BRANCH   1  15
ATOM     15  C   UNL     1       5.075 -36.157  19.880  1.00  0.00     0.000 C 
BRANCH  15  16
ATOM     16  C   UNL     1       5.930 -35.781  21.104  1.00  0.00     0.000 C 
BRANCH  16  17
ATOM     17  C   UNL     1       5.288 -34.688  21.974  1.00  0.00     0.000 C 
BRANCH  17  18
ATOM     18  C   UNL     1       4.851 -35.208  23.355  1.00  0.00    -0.000 C 
BRANCH  18  19
ATOM     19  C   UNL     1       5.931 -35.987  24.130  1.00  0.00    -0.000 C 
BRANCH  19  20
ATOM     20  C   UNL     1       5.586 -36.304  25.600  1.00  0.00    -0.000 C 
BRANCH  20  21
ATOM     21  C   UNL     1       5.479 -37.802  25.938  1.00  0.00    -0.000 C 
BRANCH  21  22
ATOM     22  C   UNL     1       5.796 -38.710  24.738  1.00  0.00    -0.000 C 
BRANCH  22  23
ATOM     23  C   UNL     1       5.032 -40.043  24.791  1.00  0.00    -0.000 C 
BRANCH  23  24
ATOM     24  C   UNL     1       5.122 -40.834  23.474  1.00  0.00    -0.000 C 
BRANCH  24  25
ATOM     25  C   UNL     1       5.885 -42.157  23.636  1.00  0.00    -0.003 C 
ATOM     26  C   UNL     1       5.651 -42.809  24.998  1.00  0.00     0.004 C 
ENDBRANCH  24  25
ENDBRANCH  23  24
ENDBRANCH  22  23
ENDBRANCH  21  22
ENDBRANCH  20  21
ENDBRANCH  19  20
ENDBRANCH  18  19
ENDBRANCH  17  18
ENDBRANCH  16  17
ENDBRANCH  15  16
ENDBRANCH   1  15
TORSDOF 22
ENDMDL
MODEL 2
REMARK VINA RESULT:     0.248      2.609      7.363
REMARK INTER + INTRA:          -0.892
REMARK INTER:                   0.438
REMARK INTRA:                  -1.329
REMARK UNBOUND:                -1.458
REMARK SMILES CCCCCCCCCCCCCCCCCCCCCCCC(=O)[O-]
REMARK SMILES IDX 13 1 14 2 15 3 16 4 17 5 18 6 19 7 20 8 21 9 22 10 23 11
REMARK SMILES IDX 24 12 25 13 26 14 12 15 11 16 10 17 9 18 8 19 7 20 6 21 5 22
REMARK SMILES IDX 4 23 3 24 2 25 1 26
REMARK H PARENT
REMARK Flexibility Score: inf
ROOT
ATOM      1  C   UNL     1       5.682 -36.420  24.926  1.00  0.00     0.000 C 
ENDROOT
BRANCH   1   2
ATOM      2  C   UNL     1       5.404 -37.746  25.660  1.00  0.00     0.000 C 
BRANCH   2   3
ATOM      3  C   UNL     1       4.629 -38.782  24.817  1.00  0.00     0.000 C 
BRANCH   3   4
ATOM      4  C   UNL     1       5.176 -40.211  24.984  1.00  0.00     0.000 C 
BRANCH   4   5
ATOM      5  C   UNL     1       5.600 -40.846  23.648  1.00  0.00     0.000 C 
BRANCH   5   6
ATOM      6  C   UNL     1       5.746 -39.858  22.474  1.00  0.00     0.000 C 
BRANCH   6   7
ATOM      7  C   UNL     1       6.121 -40.531  21.136  1.00  0.00     0.000 C 
BRANCH   7   8
ATOM      8  C   UNL     1       5.789 -39.640  19.924  1.00  0.00     0.000 C 
BRANCH   8   9
ATOM      9  C   UNL     1       5.025 -38.362  20.312  1.00  0.00     0.000 C 
BRANCH   9  10
ATOM     10  C   UNL     1       3.505 -38.558  20.502  1.00  0.00     0.006 C 
BRANCH  10  11
ATOM     11  C   UNL     1       2.654 -37.440  19.874  1.00  0.00     0.053 C 
BRANCH  11  12
ATOM     12  C   UNL     1       1.273 -37.898  19.523  1.00  0.00     0.041 C 
ATOM     13  O   UNL     1       1.107 -38.879  18.752  1.00  0.00    -0.550 OA
ATOM     14  O   UNL     1       0.167 -37.238  20.045  1.00  0.00    -0.550 OA
ENDBRANCH  11  12
ENDBRANCH  10  11
ENDBRANCH   9  10
ENDBRANCH   8   9
ENDBRANCH   7   8
ENDBRANCH   6   7
ENDBRANCH   5   6
ENDBRANCH   4   5
ENDBRANCH   3   4
ENDBRANCH   2   3
ENDBRANCH   1   2
BRANCH   1  15
ATOM     15  C   UNL     1       5.964 -36.545  23.417  1.00  0.00     0.000 C 
BRANCH  15  16
ATOM     16  C   UNL     1       6.005 -35.216  22.640  1.00  0.00     0.000 C 
BRANCH  16  17
ATOM     17  C   UNL     1       4.611 -34.726  22.214  1.00  0.00     0.000 C 
BRANCH  17  18
ATOM     18  C   UNL     1       4.291 -35.056  20.745  1.00  0.00    -0.000 C 
BRANCH  18  19
ATOM     19  C   UNL     1       5.520 -35.253  19.836  1.00  0.00    -0.000 C 
BRANCH  19  20
ATOM     20  C   UNL     1       5.303 -34.899  18.351  1.00  0.00    -0.000 C 
BRANCH  20  21
ATOM     21  C   UNL     1       3.890 -35.182  17.811  1.00  0.00    -0.000 C 
BRANCH  21  22
ATOM     22  C   UNL     1       3.785 -36.536  17.089  1.00  0.00    -0.000 C 
BRANCH  22  23
ATOM     23  C   UNL     1       2.498 -36.662  16.258  1.00  0.00    -0.000 C 
BRANCH  23  24
ATOM     24  C   UNL     1       2.733 -36.425  14.756  1.00  0.00    -0.000 C 
BRANCH  24  25
ATOM     25  C   UNL     1       4.021 -37.095  14.252  1.00  0.00    -0.003 C 
ATOM     26  C   UNL     1       4.021 -38.608  14.463  1.00  0.00     0.004 C 
ENDBRANCH  24  25
ENDBRANCH  23  24
ENDBRANCH  22  23
ENDBRANCH  21  22
ENDBRANCH  20  21
ENDBRANCH  19  20
ENDBRANCH  18  19
ENDBRANCH  17  18
ENDBRANCH  16  17
ENDBRANCH  15  16
ENDBRANCH   1  15
TORSDOF 22
ENDMDL
MODEL 3
REMARK VINA RESULT:     0.618      2.906      8.844
REMARK INTER + INTRA:          -0.046
REMARK INTER:                   0.163
REMARK INTRA:                  -0.208
REMARK UNBOUND:                -1.458
REMARK SMILES CCCCCCCCCCCCCCCCCCCCCCCC(=O)[O-]
REMARK SMILES IDX 13 1 14 2 15 3 16 4 17 5 18 6 19 7 20 8 21 9 22 10 23 11
REMARK SMILES IDX 24 12 25 13 26 14 12 15 11 16 10 17 9 18 8 19 7 20 6 21 5 22
REMARK SMILES IDX 4 23 3 24 2 25 1 26
REMARK H PARENT
REMARK Flexibility Score: inf
ROOT
ATOM      1  C   UNL     1       5.111 -39.727  21.811  1.00  0.00     0.000 C 
ENDROOT
BRANCH   1   2
ATOM      2  C   UNL     1       6.125 -40.870  22.009  1.00  0.00     0.000 C 
BRANCH   2   3
ATOM      3  C   UNL     1       5.636 -41.991  22.952  1.00  0.00     0.000 C 
BRANCH   3   4
ATOM      4  C   UNL     1       5.871 -41.662  24.437  1.00  0.00     0.000 C 
BRANCH   4   5
ATOM      5  C   UNL     1       4.876 -40.622  24.981  1.00  0.00     0.000 C 
BRANCH   5   6
ATOM      6  C   UNL     1       5.389 -39.169  24.984  1.00  0.00     0.000 C 
BRANCH   6   7
ATOM      7  C   UNL     1       4.623 -38.239  25.949  1.00  0.00     0.000 C 
BRANCH   7   8
ATOM      8  C   UNL     1       4.858 -36.749  25.631  1.00  0.00     0.000 C 
BRANCH   8   9
ATOM      9  C   UNL     1       6.119 -36.511  24.782  1.00  0.00     0.000 C 
BRANCH   9  10
ATOM     10  C   UNL     1       5.986 -35.377  23.742  1.00  0.00     0.006 C 
BRANCH  10  11
ATOM     11  C   UNL     1       6.125 -35.853  22.286  1.00  0.00     0.053 C 
BRANCH  11  12
ATOM     12  C   UNL     1       5.152 -35.183  21.367  1.00  0.00     0.041 C 
ATOM     13  O   UNL     1       5.561 -34.590  20.335  1.00  0.00    -0.550 OA
ATOM     14  O   UNL     1       3.793 -35.210  21.653  1.00  0.00    -0.550 OA
ENDBRANCH  11  12
ENDBRANCH  10  11
ENDBRANCH   9  10
ENDBRANCH   8   9
ENDBRANCH   7   8
ENDBRANCH   6   7
ENDBRANCH   5   6
ENDBRANCH   4   5
ENDBRANCH   3   4
ENDBRANCH   2   3
ENDBRANCH   1   2
BRANCH   1  15
ATOM     15  C   UNL     1       5.615 -38.534  20.978  1.00  0.00     0.000 C 
BRANCH  15  16
ATOM     16  C   UNL     1       5.175 -38.526  19.502  1.00  0.00     0.000 C 
BRANCH  16  17
ATOM     17  C   UNL     1       5.002 -37.108  18.933  1.00  0.00     0.000 C 
BRANCH  17  18
ATOM     18  C   UNL     1       3.589 -36.861  18.375  1.00  0.00    -0.000 C 
BRANCH  18  19
ATOM     19  C   UNL     1       2.443 -37.474  19.203  1.00  0.00    -0.000 C 
BRANCH  19  20
ATOM     20  C   UNL     1       1.064 -37.479  18.513  1.00  0.00    -0.000 C 
BRANCH  20  21
ATOM     21  C   UNL     1       1.101 -37.519  16.975  1.00  0.00    -0.000 C 
BRANCH  21  22
ATOM     22  C   UNL     1       1.487 -36.167  16.351  1.00  0.00    -0.000 C 
BRANCH  22  23
ATOM     23  C   UNL     1       1.895 -36.295  14.875  1.00  0.00    -0.000 C 
BRANCH  23  24
ATOM     24  C   UNL     1       3.363 -36.724  14.697  1.00  0.00    -0.000 C 
BRANCH  24  25
ATOM     25  C   UNL     1       3.501 -38.014  13.875  1.00  0.00    -0.003 C 
ATOM     26  C   UNL     1       4.563 -38.959  14.435  1.00  0.00     0.004 C 
ENDBRANCH  24  25
ENDBRANCH  23  24
ENDBRANCH  22  23
ENDBRANCH  21  22
ENDBRANCH  20  21
ENDBRANCH  19  20
ENDBRANCH  18  19
ENDBRANCH  17  18
ENDBRANCH  16  17
ENDBRANCH  15  16
ENDBRANCH   1  15
TORSDOF 22
ENDMDL
MODEL 4
REMARK VINA RESULT:     0.756      1.767      4.732
REMARK INTER + INTRA:           0.272
REMARK INTER:                   1.787
REMARK INTRA:                  -1.516
REMARK UNBOUND:                -1.458
REMARK SMILES CCCCCCCCCCCCCCCCCCCCCCCC(=O)[O-]
REMARK SMILES IDX 13 1 14 2 15 3 16 4 17 5 18 6 19 7 20 8 21 9 22 10 23 11
REMARK SMILES IDX 24 12 25 13 26 14 12 15 11 16 10 17 9 18 8 19 7 20 6 21 5 22
REMARK SMILES IDX 4 23 3 24 2 25 1 26
REMARK H PARENT
REMARK Flexibility Score: inf
ROOT
ATOM      1  C   UNL     1       5.448 -35.325  23.356  1.00  0.00     0.000 C 
ENDROOT
BRANCH   1   2
ATOM      2  C   UNL     1       6.117 -35.756  22.037  1.00  0.00     0.000 C 
BRANCH   2   3
ATOM      3  C   UNL     1       5.310 -35.394  20.772  1.00  0.00     0.000 C 
BRANCH   3   4
ATOM      4  C   UNL     1       6.033 -34.371  19.879  1.00  0.00     0.000 C 
BRANCH   4   5
ATOM      5  C   UNL     1       5.736 -34.571  18.383  1.00  0.00     0.000 C 
BRANCH   5   6
ATOM      6  C   UNL     1       4.275 -34.933  18.052  1.00  0.00     0.000 C 
BRANCH   6   7
ATOM      7  C   UNL     1       4.127 -36.221  17.214  1.00  0.00     0.000 C 
BRANCH   7   8
ATOM      8  C   UNL     1       2.657 -36.518  16.858  1.00  0.00     0.000 C 
BRANCH   8   9
ATOM      9  C   UNL     1       2.233 -35.906  15.512  1.00  0.00     0.000 C 
BRANCH   9  10
ATOM     10  C   UNL     1       2.595 -36.762  14.278  1.00  0.00     0.006 C 
BRANCH  10  11
ATOM     11  C   UNL     1       3.048 -38.190  14.627  1.00  0.00     0.053 C 
BRANCH  11  12
ATOM     12  C   UNL     1       4.426 -38.494  14.126  1.00  0.00     0.041 C 
ATOM     13  O   UNL     1       4.773 -39.684  13.909  1.00  0.00    -0.550 OA
ATOM     14  O   UNL     1       5.328 -37.461  13.904  1.00  0.00    -0.550 OA
ENDBRANCH  11  12
ENDBRANCH  10  11
ENDBRANCH   9  10
ENDBRANCH   8   9
ENDBRANCH   7   8
ENDBRANCH   6   7
ENDBRANCH   5   6
ENDBRANCH   4   5
ENDBRANCH   3   4
ENDBRANCH   2   3
ENDBRANCH   1   2
BRANCH   1  15
ATOM     15  C   UNL     1       5.829 -36.158  24.595  1.00  0.00     0.000 C 
BRANCH  15  16
ATOM     16  C   UNL     1       4.645 -36.744  25.386  1.00  0.00     0.000 C 
BRANCH  16  17
ATOM     17  C   UNL     1       4.697 -38.277  25.497  1.00  0.00     0.000 C 
BRANCH  17  18
ATOM     18  C   UNL     1       5.587 -38.920  24.419  1.00  0.00    -0.000 C 
BRANCH  18  19
ATOM     19  C   UNL     1       4.965 -40.131  23.697  1.00  0.00    -0.000 C 
BRANCH  19  20
ATOM     20  C   UNL     1       4.915 -40.025  22.159  1.00  0.00    -0.000 C 
BRANCH  20  21
ATOM     21  C   UNL     1       5.651 -38.811  21.563  1.00  0.00    -0.000 C 
BRANCH  21  22
ATOM     22  C   UNL     1       5.298 -38.564  20.087  1.00  0.00    -0.000 C 
BRANCH  22  23
ATOM     23  C   UNL     1       3.781 -38.497  19.848  1.00  0.00    -0.000 C 
BRANCH  23  24
ATOM     24  C   UNL     1       3.140 -37.227  20.435  1.00  0.00    -0.000 C 
BRANCH  24  25
ATOM     25  C   UNL     1       1.622 -37.176  20.202  1.00  0.00    -0.003 C 
ATOM     26  C   UNL     1       1.146 -38.212  19.186  1.00  0.00     0.004 C 
ENDBRANCH  24  25
ENDBRANCH  23  24
ENDBRANCH  22  23
ENDBRANCH  21  22
ENDBRANCH  20  21
ENDBRANCH  19  20
ENDBRANCH  18  19
ENDBRANCH  17  18
ENDBRANCH  16  17
ENDBRANCH  15  16
ENDBRANCH   1  15
TORSDOF 22
ENDMDL
MODEL 5
REMARK VINA RESULT:     1.045      3.691      8.224
REMARK INTER + INTRA:           0.930
REMARK INTER:                   1.924
REMARK INTRA:                  -0.994
REMARK UNBOUND:                -1.458
REMARK SMILES CCCCCCCCCCCCCCCCCCCCCCCC(=O)[O-]
REMARK SMILES IDX 13 1 14 2 15 3 16 4 17 5 18 6 19 7 20 8 21 9 22 10 23 11
REMARK SMILES IDX 24 12 25 13 26 14 12 15 11 16 10 17 9 18 8 19 7 20 6 21 5 22
REMARK SMILES IDX 4 23 3 24 2 25 1 26
REMARK H PARENT
REMARK Flexibility Score: inf
ROOT
ATOM      1  C   UNL     1       1.752 -37.649  20.084  1.00  0.00     0.000 C 
ENDROOT
BRANCH   1   2
ATOM      2  C   UNL     1       2.935 -38.561  19.707  1.00  0.00     0.000 C 
BRANCH   2   3
ATOM      3  C   UNL     1       4.186 -38.369  20.591  1.00  0.00     0.000 C 
BRANCH   3   4
ATOM      4  C   UNL     1       5.491 -38.729  19.859  1.00  0.00     0.000 C 
BRANCH   4   5
ATOM      5  C   UNL     1       6.101 -40.054  20.346  1.00  0.00     0.000 C 
BRANCH   5   6
ATOM      6  C   UNL     1       5.714 -40.461  21.782  1.00  0.00     0.000 C 
BRANCH   6   7
ATOM      7  C   UNL     1       6.125 -41.901  22.154  1.00  0.00     0.000 C 
BRANCH   7   8
ATOM      8  C   UNL     1       5.357 -42.426  23.383  1.00  0.00     0.000 C 
BRANCH   8   9
ATOM      9  C   UNL     1       6.011 -42.022  24.715  1.00  0.00     0.000 C 
BRANCH   9  10
ATOM     10  C   UNL     1       5.263 -40.911  25.484  1.00  0.00     0.006 C 
BRANCH  10  11
ATOM     11  C   UNL     1       4.901 -39.693  24.616  1.00  0.00     0.053 C 
BRANCH  11  12
ATOM     12  C   UNL     1       5.107 -38.395  25.333  1.00  0.00     0.041 C 
ATOM     13  O   UNL     1       4.546 -38.187  26.440  1.00  0.00    -0.550 OA
ATOM     14  O   UNL     1       5.915 -37.413  24.775  1.00  0.00    -0.550 OA
ENDBRANCH  11  12
ENDBRANCH  10  11
ENDBRANCH   9  10
ENDBRANCH   8   9
ENDBRANCH   7   8
ENDBRANCH   6   7
ENDBRANCH   5   6
ENDBRANCH   4   5
ENDBRANCH   3   4
ENDBRANCH   2   3
ENDBRANCH   1   2
BRANCH   1  15
ATOM     15  C   UNL     1       0.680 -37.471  18.992  1.00  0.00     0.000 C 
BRANCH  15  16
ATOM     16  C   UNL     1       1.148 -37.760  17.554  1.00  0.00     0.000 C 
BRANCH  16  17
ATOM     17  C   UNL     1       1.194 -36.501  16.672  1.00  0.00     0.000 C 
BRANCH  17  18
ATOM     18  C   UNL     1       2.316 -36.555  15.620  1.00  0.00    -0.000 C 
BRANCH  18  19
ATOM     19  C   UNL     1       3.748 -36.527  16.189  1.00  0.00    -0.000 C 
BRANCH  19  20
ATOM     20  C   UNL     1       3.867 -36.030  17.644  1.00  0.00    -0.000 C 
BRANCH  20  21
ATOM     21  C   UNL     1       4.843 -34.858  17.857  1.00  0.00    -0.000 C 
BRANCH  21  22
ATOM     22  C   UNL     1       5.712 -35.025  19.114  1.00  0.00    -0.000 C 
BRANCH  22  23
ATOM     23  C   UNL     1       4.884 -35.378  20.360  1.00  0.00    -0.000 C 
BRANCH  23  24
ATOM     24  C   UNL     1       5.754 -35.596  21.611  1.00  0.00    -0.000 C 
BRANCH  24  25
ATOM     25  C   UNL     1       5.022 -35.213  22.906  1.00  0.00    -0.003 C 
ATOM     26  C   UNL     1       5.787 -34.182  23.734  1.00  0.00     0.004 C 
ENDBRANCH  24  25
ENDBRANCH  23  24
ENDBRANCH  22  23
ENDBRANCH  21  22
ENDBRANCH  20  21
ENDBRANCH  19  20
ENDBRANCH  18  19
ENDBRANCH  17  18
ENDBRANCH  16  17
ENDBRANCH  15  16
ENDBRANCH   1  15
TORSDOF 22
ENDMDL
MODEL 6
REMARK VINA RESULT:     1.406      2.696      4.264
REMARK INTER + INTRA:           1.756
REMARK INTER:                   3.248
REMARK INTRA:                  -1.493
REMARK UNBOUND:                -1.458
REMARK SMILES CCCCCCCCCCCCCCCCCCCCCCCC(=O)[O-]
REMARK SMILES IDX 13 1 14 2 15 3 16 4 17 5 18 6 19 7 20 8 21 9 22 10 23 11
REMARK SMILES IDX 24 12 25 13 26 14 12 15 11 16 10 17 9 18 8 19 7 20 6 21 5 22
REMARK SMILES IDX 4 23 3 24 2 25 1 26
REMARK H PARENT
REMARK Flexibility Score: inf
ROOT
ATOM      1  C   UNL     1       4.730 -35.649  20.699  1.00  0.00     0.000 C 
ENDROOT
BRANCH   1   2
ATOM      2  C   UNL     1       5.766 -35.532  19.565  1.00  0.00     0.000 C 
BRANCH   2   3
ATOM      3  C   UNL     1       5.379 -34.527  18.459  1.00  0.00     0.000 C 
BRANCH   3   4
ATOM      4  C   UNL     1       4.176 -34.999  17.623  1.00  0.00     0.000 C 
BRANCH   4   5
ATOM      5  C   UNL     1       3.932 -36.514  17.733  1.00  0.00     0.000 C 
BRANCH   5   6
ATOM      6  C   UNL     1       4.311 -37.327  16.479  1.00  0.00     0.000 C 
BRANCH   6   7
ATOM      7  C   UNL     1       3.120 -37.619  15.541  1.00  0.00     0.000 C 
BRANCH   7   8
ATOM      8  C   UNL     1       2.253 -36.369  15.295  1.00  0.00     0.000 C 
BRANCH   8   9
ATOM      9  C   UNL     1       1.009 -36.316  16.199  1.00  0.00     0.000 C 
BRANCH   9  10
ATOM     10  C   UNL     1       0.825 -37.552  17.107  1.00  0.00     0.006 C 
BRANCH  10  11
ATOM     11  C   UNL     1       0.116 -37.243  18.437  1.00  0.00     0.053 C 
BRANCH  11  12
ATOM     12  C   UNL     1       0.927 -37.649  19.628  1.00  0.00     0.041 C 
ATOM     13  O   UNL     1       0.504 -37.418  20.791  1.00  0.00    -0.550 OA
ATOM     14  O   UNL     1       2.153 -38.278  19.452  1.00  0.00    -0.550 OA
ENDBRANCH  11  12
ENDBRANCH  10  11
ENDBRANCH   9  10
ENDBRANCH   8   9
ENDBRANCH   7   8
ENDBRANCH   6   7
ENDBRANCH   5   6
ENDBRANCH   4   5
ENDBRANCH   3   4
ENDBRANCH   2   3
ENDBRANCH   1   2
BRANCH   1  15
ATOM     15  C   UNL     1       5.304 -35.996  22.086  1.00  0.00     0.000 C 
BRANCH  15  16
ATOM     16  C   UNL     1       5.162 -34.896  23.154  1.00  0.00     0.000 C 
BRANCH  16  17
ATOM     17  C   UNL     1       6.125 -35.079  24.338  1.00  0.00     0.000 C 
BRANCH  17  18
ATOM     18  C   UNL     1       6.067 -36.496  24.936  1.00  0.00    -0.000 C 
BRANCH  18  19
ATOM     19  C   UNL     1       4.701 -36.902  25.523  1.00  0.00    -0.000 C 
BRANCH  19  20
ATOM     20  C   UNL     1       4.586 -38.377  25.961  1.00  0.00    -0.000 C 
BRANCH  20  21
ATOM     21  C   UNL     1       5.479 -39.361  25.186  1.00  0.00    -0.000 C 
BRANCH  21  22
ATOM     22  C   UNL     1       4.866 -39.795  23.844  1.00  0.00    -0.000 C 
BRANCH  22  23
ATOM     23  C   UNL     1       5.574 -41.019  23.241  1.00  0.00    -0.000 C 
BRANCH  23  24
ATOM     24  C   UNL     1       6.022 -40.792  21.786  1.00  0.00    -0.000 C 
BRANCH  24  25
ATOM     25  C   UNL     1       5.328 -39.583  21.141  1.00  0.00    -0.003 C 
ATOM     26  C   UNL     1       5.983 -39.158  19.828  1.00  0.00     0.004 C 
ENDBRANCH  24  25
ENDBRANCH  23  24
ENDBRANCH  22  23
ENDBRANCH  21  22
ENDBRANCH  20  21
ENDBRANCH  19  20
ENDBRANCH  18  19
ENDBRANCH  17  18
ENDBRANCH  16  17
ENDBRANCH  15  16
ENDBRANCH   1  15
TORSDOF 22
ENDMDL
MODEL 7
REMARK VINA RESULT:     1.957      3.908      6.111
REMARK INTER + INTRA:           3.016
REMARK INTER:                   4.356
REMARK INTRA:                  -1.341
REMARK UNBOUND:                -1.458
REMARK SMILES CCCCCCCCCCCCCCCCCCCCCCCC(=O)[O-]
REMARK SMILES IDX 13 1 14 2 15 3 16 4 17 5 18 6 19 7 20 8 21 9 22 10 23 11
REMARK SMILES IDX 24 12 25 13 26 14 12 15 11 16 10 17 9 18 8 19 7 20 6 21 5 22
REMARK SMILES IDX 4 23 3 24 2 25 1 26
REMARK H PARENT
REMARK Flexibility Score: inf
ROOT
ATOM      1  C   UNL     1       0.824 -37.874  17.784  1.00  0.00     0.000 C 
ENDROOT
BRANCH   1   2
ATOM      2  C   UNL     1       0.600 -36.456  17.226  1.00  0.00     0.000 C 
BRANCH   2   3
ATOM      3  C   UNL     1       1.491 -36.107  16.014  1.00  0.00     0.000 C 
BRANCH   3   4
ATOM      4  C   UNL     1       2.576 -37.166  15.751  1.00  0.00     0.000 C 
BRANCH   4   5
ATOM      5  C   UNL     1       3.982 -36.691  16.158  1.00  0.00     0.000 C 
BRANCH   5   6
ATOM      6  C   UNL     1       4.135 -36.308  17.643  1.00  0.00     0.000 C 
BRANCH   6   7
ATOM      7  C   UNL     1       4.289 -34.791  17.882  1.00  0.00     0.000 C 
BRANCH   7   8
ATOM      8  C   UNL     1       5.606 -34.447  18.606  1.00  0.00     0.000 C 
BRANCH   8   9
ATOM      9  C   UNL     1       5.923 -35.411  19.762  1.00  0.00     0.000 C 
BRANCH   9  10
ATOM     10  C   UNL     1       5.273 -35.029  21.110  1.00  0.00     0.006 C 
BRANCH  10  11
ATOM     11  C   UNL     1       5.851 -35.792  22.314  1.00  0.00     0.053 C 
BRANCH  11  12
ATOM     12  C   UNL     1       5.915 -34.951  23.551  1.00  0.00     0.041 C 
ATOM     13  O   UNL     1       5.802 -33.700  23.472  1.00  0.00    -0.550 OA
ATOM     14  O   UNL     1       6.102 -35.550  24.790  1.00  0.00    -0.550 OA
ENDBRANCH  11  12
ENDBRANCH  10  11
ENDBRANCH   9  10
ENDBRANCH   8   9
ENDBRANCH   7   8
ENDBRANCH   6   7
ENDBRANCH   5   6
ENDBRANCH   4   5
ENDBRANCH   3   4
ENDBRANCH   2   3
ENDBRANCH   1   2
BRANCH   1  15
ATOM     15  C   UNL     1       0.985 -37.965  19.313  1.00  0.00     0.000 C 
BRANCH  15  16
ATOM     16  C   UNL     1       2.248 -37.295  19.886  1.00  0.00     0.000 C 
BRANCH  16  17
ATOM     17  C   UNL     1       3.315 -38.307  20.334  1.00  0.00     0.000 C 
BRANCH  17  18
ATOM     18  C   UNL     1       4.597 -38.232  19.485  1.00  0.00    -0.000 C 
BRANCH  18  19
ATOM     19  C   UNL     1       5.853 -38.835  20.145  1.00  0.00    -0.000 C 
BRANCH  19  20
ATOM     20  C   UNL     1       5.655 -40.222  20.789  1.00  0.00    -0.000 C 
BRANCH  20  21
ATOM     21  C   UNL     1       6.125 -40.338  22.250  1.00  0.00    -0.000 C 
BRANCH  21  22
ATOM     22  C   UNL     1       5.009 -40.803  23.202  1.00  0.00    -0.000 C 
BRANCH  22  23
ATOM     23  C   UNL     1       5.195 -40.270  24.631  1.00  0.00    -0.000 C 
BRANCH  23  24
ATOM     24  C   UNL     1       5.302 -38.735  24.686  1.00  0.00    -0.000 C 
BRANCH  24  25
ATOM     25  C   UNL     1       4.953 -38.173  26.073  1.00  0.00    -0.003 C 
ATOM     26  C   UNL     1       3.446 -38.098  26.317  1.00  0.00     0.004 C 
ENDBRANCH  24  25
ENDBRANCH  23  24
ENDBRANCH  22  23
ENDBRANCH  21  22
ENDBRANCH  20  21
ENDBRANCH  19  20
ENDBRANCH  18  19
ENDBRANCH  17  18
ENDBRANCH  16  17
ENDBRANCH  15  16
ENDBRANCH   1  15
TORSDOF 22
ENDMDL
