MODEL 1
REMARK VINA RESULT:    -3.072      0.000      0.000
REMARK INTER + INTRA:          -6.696
REMARK INTER:                  -5.227
REMARK INTRA:                  -1.469
REMARK UNBOUND:                -1.469
REMARK SMILES CCCCCCCCCCCCCC(=O)[O-]
REMARK SMILES IDX 8 1 9 2 10 3 11 4 12 5 13 6 14 7 15 8 16 9 7 10 6 11 5 12
REMARK SMILES IDX 4 13 3 14 2 15 1 16
REMARK H PARENT
REMARK Flexibility Score: inf
ROOT
ATOM      1  C   UNL     1       2.913  66.850  18.145  1.00  0.00     0.000 C 
ENDROOT
BRANCH   1   2
ATOM      2  C   UNL     1       1.525  67.449  17.890  1.00  0.00     0.000 C 
BRANCH   2   3
ATOM      3  C   UNL     1       1.413  67.989  16.457  1.00  0.00     0.000 C 
BRANCH   3   4
ATOM      4  C   UNL     1       1.749  69.486  16.350  1.00  0.00     0.000 C 
BRANCH   4   5
ATOM      5  C   UNL     1       1.541  70.301  17.642  1.00  0.00     0.006 C 
BRANCH   5   6
ATOM      6  C   UNL     1       2.758  71.151  18.050  1.00  0.00     0.053 C 
BRANCH   6   7
ATOM      7  C   UNL     1       2.363  72.495  18.587  1.00  0.00     0.041 C 
ATOM      8  O   UNL     1       2.949  73.534  18.187  1.00  0.00    -0.550 OA
ATOM      9  O   UNL     1       1.376  72.595  19.561  1.00  0.00    -0.550 OA
ENDBRANCH   6   7
ENDBRANCH   5   6
ENDBRANCH   4   5
ENDBRANCH   3   4
ENDBRANCH   2   3
ENDBRANCH   1   2
BRANCH   1  10
ATOM     10  C   UNL     1       3.485  67.339  19.484  1.00  0.00     0.000 C 
BRANCH  10  11
ATOM     11  C   UNL     1       2.402  67.886  20.428  1.00  0.00    -0.000 C 
BRANCH  11  12
ATOM     12  C   UNL     1       2.834  69.182  21.134  1.00  0.00    -0.000 C 
BRANCH  12  13
ATOM     13  C   UNL     1       4.328  69.504  20.936  1.00  0.00    -0.000 C 
BRANCH  13  14
ATOM     14  C   UNL     1       5.214  69.276  22.174  1.00  0.00    -0.000 C 
BRANCH  14  15
ATOM     15  C   UNL     1       6.165  68.080  22.020  1.00  0.00    -0.003 C 
ATOM     16  C   UNL     1       7.355  68.197  22.967  1.00  0.00     0.004 C 
ENDBRANCH  14  15
ENDBRANCH  13  14
ENDBRANCH  12  13
ENDBRANCH  11  12
ENDBRANCH  10  11
ENDBRANCH   1  10
TORSDOF 12
ENDMDL
MODEL 2
REMARK VINA RESULT:    -3.027      7.294     10.624
REMARK INTER + INTRA:          -6.620
REMARK INTER:                  -5.423
REMARK INTRA:                  -1.197
REMARK UNBOUND:                -1.469
REMARK SMILES CCCCCCCCCCCCCC(=O)[O-]
REMARK SMILES IDX 8 1 9 2 10 3 11 4 12 5 13 6 14 7 15 8 16 9 7 10 6 11 5 12
REMARK SMILES IDX 4 13 3 14 2 15 1 16
REMARK H PARENT
REMARK Flexibility Score: inf
ROOT
ATOM      1  C   UNL     1       2.585  65.837  11.860  1.00  0.00     0.000 C 
ENDROOT
BRANCH   1   2
ATOM      2  C   UNL     1       2.635  64.641  12.819  1.00  0.00     0.000 C 
BRANCH   2   3
ATOM      3  C   UNL     1       1.748  64.884  14.048  1.00  0.00     0.000 C 
BRANCH   3   4
ATOM      4  C   UNL     1       2.555  65.122  15.335  1.00  0.00     0.000 C 
BRANCH   4   5
ATOM      5  C   UNL     1       4.067  64.840  15.225  1.00  0.00     0.006 C 
BRANCH   5   6
ATOM      6  C   UNL     1       4.591  63.820  16.252  1.00  0.00     0.053 C 
BRANCH   6   7
ATOM      7  C   UNL     1       3.825  62.531  16.222  1.00  0.00     0.041 C 
ATOM      8  O   UNL     1       3.899  61.774  15.220  1.00  0.00    -0.550 OA
ATOM      9  O   UNL     1       2.996  62.187  17.283  1.00  0.00    -0.550 OA
ENDBRANCH   6   7
ENDBRANCH   5   6
ENDBRANCH   4   5
ENDBRANCH   3   4
ENDBRANCH   2   3
ENDBRANCH   1   2
BRANCH   1  10
ATOM     10  C   UNL     1       1.158  66.393  11.750  1.00  0.00     0.000 C 
BRANCH  10  11
ATOM     11  C   UNL     1       0.689  66.542  10.293  1.00  0.00    -0.000 C 
BRANCH  11  12
ATOM     12  C   UNL     1       1.571  65.758   9.307  1.00  0.00    -0.000 C 
BRANCH  12  13
ATOM     13  C   UNL     1       0.757  64.853   8.363  1.00  0.00    -0.000 C 
BRANCH  13  14
ATOM     14  C   UNL     1       1.464  63.557   7.930  1.00  0.00    -0.000 C 
BRANCH  14  15
ATOM     15  C   UNL     1       2.940  63.509   8.351  1.00  0.00    -0.003 C 
ATOM     16  C   UNL     1       3.171  62.461   9.435  1.00  0.00     0.004 C 
ENDBRANCH  14  15
ENDBRANCH  13  14
ENDBRANCH  12  13
ENDBRANCH  11  12
ENDBRANCH  10  11
ENDBRANCH   1  10
TORSDOF 12
ENDMDL
MODEL 3
REMARK VINA RESULT:    -2.985      1.935      4.400
REMARK INTER + INTRA:          -6.548
REMARK INTER:                  -5.932
REMARK INTRA:                  -0.616
REMARK UNBOUND:                -1.469
REMARK SMILES CCCCCCCCCCCCCC(=O)[O-]
REMARK SMILES IDX 8 1 9 2 10 3 11 4 12 5 13 6 14 7 15 8 16 9 7 10 6 11 5 12
REMARK SMILES IDX 4 13 3 14 2 15 1 16
REMARK H PARENT
REMARK Flexibility Score: inf
ROOT
ATOM      1  C   UNL     1       5.246  68.499  23.037  1.00  0.00     0.000 C 
ENDROOT
BRANCH   1   2
ATOM      2  C   UNL     1       4.868  69.241  21.749  1.00  0.00     0.000 C 
BRANCH   2   3
ATOM      3  C   UNL     1       4.433  68.257  20.654  1.00  0.00     0.000 C 
BRANCH   3   4
ATOM      4  C   UNL     1       3.416  68.861  19.672  1.00  0.00     0.000 C 
BRANCH   4   5
ATOM      5  C   UNL     1       3.384  70.401  19.622  1.00  0.00     0.006 C 
BRANCH   5   6
ATOM      6  C   UNL     1       2.120  70.983  18.962  1.00  0.00     0.053 C 
BRANCH   6   7
ATOM      7  C   UNL     1       2.192  72.472  18.800  1.00  0.00     0.041 C 
ATOM      8  O   UNL     1       3.201  73.003  18.268  1.00  0.00    -0.550 OA
ATOM      9  O   UNL     1       1.163  73.276  19.274  1.00  0.00    -0.550 OA
ENDBRANCH   6   7
ENDBRANCH   5   6
ENDBRANCH   4   5
ENDBRANCH   3   4
ENDBRANCH   2   3
ENDBRANCH   1   2
BRANCH   1  10
ATOM     10  C   UNL     1       5.962  69.436  24.020  1.00  0.00     0.000 C 
BRANCH  10  11
ATOM     11  C   UNL     1       7.490  69.271  23.993  1.00  0.00    -0.000 C 
BRANCH  11  12
ATOM     12  C   UNL     1       7.933  68.006  23.237  1.00  0.00    -0.000 C 
BRANCH  12  13
ATOM     13  C   UNL     1       9.449  67.750  23.332  1.00  0.00    -0.000 C 
BRANCH  13  14
ATOM     14  C   UNL     1      10.049  66.938  22.171  1.00  0.00    -0.000 C 
BRANCH  14  15
ATOM     15  C   UNL     1       8.995  66.133  21.395  1.00  0.00    -0.003 C 
ATOM     16  C   UNL     1       9.389  65.979  19.929  1.00  0.00     0.004 C 
ENDBRANCH  14  15
ENDBRANCH  13  14
ENDBRANCH  12  13
ENDBRANCH  11  12
ENDBRANCH  10  11
ENDBRANCH   1  10
TORSDOF 12
ENDMDL
MODEL 4
REMARK VINA RESULT:    -2.977     12.313     14.039
REMARK INTER + INTRA:          -6.533
REMARK INTER:                  -5.865
REMARK INTRA:                  -0.669
REMARK UNBOUND:                -1.469
REMARK SMILES CCCCCCCCCCCCCC(=O)[O-]
REMARK SMILES IDX 8 1 9 2 10 3 11 4 12 5 13 6 14 7 15 8 16 9 7 10 6 11 5 12
REMARK SMILES IDX 4 13 3 14 2 15 1 16
REMARK H PARENT
REMARK Flexibility Score: inf
ROOT
ATOM      1  C   UNL     1       5.768  67.033   4.628  1.00  0.00     0.000 C 
ENDROOT
BRANCH   1   2
ATOM      2  C   UNL     1       4.385  67.169   5.277  1.00  0.00     0.000 C 
BRANCH   2   3
ATOM      3  C   UNL     1       4.128  66.026   6.270  1.00  0.00     0.000 C 
BRANCH   3   4
ATOM      4  C   UNL     1       2.649  65.896   6.667  1.00  0.00     0.000 C 
BRANCH   4   5
ATOM      5  C   UNL     1       2.392  65.275   8.054  1.00  0.00     0.006 C 
BRANCH   5   6
ATOM      6  C   UNL     1       3.154  63.961   8.304  1.00  0.00     0.053 C 
BRANCH   6   7
ATOM      7  C   UNL     1       2.241  62.773   8.369  1.00  0.00     0.041 C 
ATOM      8  O   UNL     1       2.553  61.771   9.064  1.00  0.00    -0.550 OA
ATOM      9  O   UNL     1       1.067  62.754   7.626  1.00  0.00    -0.550 OA
ENDBRANCH   6   7
ENDBRANCH   5   6
ENDBRANCH   4   5
ENDBRANCH   3   4
ENDBRANCH   2   3
ENDBRANCH   1   2
BRANCH   1  10
ATOM     10  C   UNL     1       6.511  68.377   4.633  1.00  0.00     0.000 C 
BRANCH  10  11
ATOM     11  C   UNL     1       6.314  69.161   5.941  1.00  0.00    -0.000 C 
BRANCH  11  12
ATOM     12  C   UNL     1       6.773  70.624   5.827  1.00  0.00    -0.000 C 
BRANCH  12  13
ATOM     13  C   UNL     1       8.273  70.759   5.500  1.00  0.00    -0.000 C 
BRANCH  13  14
ATOM     14  C   UNL     1       9.181  71.041   6.710  1.00  0.00    -0.000 C 
BRANCH  14  15
ATOM     15  C   UNL     1       9.480  69.786   7.542  1.00  0.00    -0.003 C 
ATOM     16  C   UNL     1       9.006  69.955   8.983  1.00  0.00     0.004 C 
ENDBRANCH  14  15
ENDBRANCH  13  14
ENDBRANCH  12  13
ENDBRANCH  11  12
ENDBRANCH  10  11
ENDBRANCH   1  10
TORSDOF 12
ENDMDL
MODEL 5
REMARK VINA RESULT:    -2.960      3.030      4.083
REMARK INTER + INTRA:          -6.506
REMARK INTER:                  -4.611
REMARK INTRA:                  -1.895
REMARK UNBOUND:                -1.469
REMARK SMILES CCCCCCCCCCCCCC(=O)[O-]
REMARK SMILES IDX 8 1 9 2 10 3 11 4 12 5 13 6 14 7 15 8 16 9 7 10 6 11 5 12
REMARK SMILES IDX 4 13 3 14 2 15 1 16
REMARK H PARENT
REMARK Flexibility Score: inf
ROOT
ATOM      1  C   UNL     1       0.540  70.014  18.598  1.00  0.00     0.000 C 
ENDROOT
BRANCH   1   2
ATOM      2  C   UNL     1       1.511  71.180  18.824  1.00  0.00     0.000 C 
BRANCH   2   3
ATOM      3  C   UNL     1       2.622  71.183  17.764  1.00  0.00     0.000 C 
BRANCH   3   4
ATOM      4  C   UNL     1       2.291  70.309  16.543  1.00  0.00     0.000 C 
BRANCH   4   5
ATOM      5  C   UNL     1       3.249  69.126  16.302  1.00  0.00     0.006 C 
BRANCH   5   6
ATOM      6  C   UNL     1       2.589  67.743  16.451  1.00  0.00     0.053 C 
BRANCH   6   7
ATOM      7  C   UNL     1       3.559  66.619  16.238  1.00  0.00     0.041 C 
ATOM      8  O   UNL     1       3.310  65.719  15.394  1.00  0.00    -0.550 OA
ATOM      9  O   UNL     1       4.717  66.543  17.002  1.00  0.00    -0.550 OA
ENDBRANCH   6   7
ENDBRANCH   5   6
ENDBRANCH   4   5
ENDBRANCH   3   4
ENDBRANCH   2   3
ENDBRANCH   1   2
BRANCH   1  10
ATOM     10  C   UNL     1       0.228  69.295  19.918  1.00  0.00     0.000 C 
BRANCH  10  11
ATOM     11  C   UNL     1       1.488  69.013  20.753  1.00  0.00    -0.000 C 
BRANCH  11  12
ATOM     12  C   UNL     1       2.340  67.873  20.169  1.00  0.00    -0.000 C 
BRANCH  12  13
ATOM     13  C   UNL     1       3.806  68.282  19.929  1.00  0.00    -0.000 C 
BRANCH  13  14
ATOM     14  C   UNL     1       4.280  69.511  20.725  1.00  0.00    -0.000 C 
BRANCH  14  15
ATOM     15  C   UNL     1       5.236  69.151  21.872  1.00  0.00    -0.003 C 
ATOM     16  C   UNL     1       4.525  69.211  23.220  1.00  0.00     0.004 C 
ENDBRANCH  14  15
ENDBRANCH  13  14
ENDBRANCH  12  13
ENDBRANCH  11  12
ENDBRANCH  10  11
ENDBRANCH   1  10
TORSDOF 12
ENDMDL
MODEL 6
REMARK VINA RESULT:    -2.934      4.182      5.672
REMARK INTER + INTRA:          -6.461
REMARK INTER:                  -5.060
REMARK INTRA:                  -1.401
REMARK UNBOUND:                -1.469
REMARK SMILES CCCCCCCCCCCCCC(=O)[O-]
REMARK SMILES IDX 8 1 9 2 10 3 11 4 12 5 13 6 14 7 15 8 16 9 7 10 6 11 5 12
REMARK SMILES IDX 4 13 3 14 2 15 1 16
REMARK H PARENT
REMARK Flexibility Score: inf
ROOT
ATOM      1  C   UNL     1       3.239  69.210  15.924  1.00  0.00     0.000 C 
ENDROOT
BRANCH   1   2
ATOM      2  C   UNL     1       2.728  70.443  15.169  1.00  0.00     0.000 C 
BRANCH   2   3
ATOM      3  C   UNL     1       1.665  70.050  14.132  1.00  0.00     0.000 C 
BRANCH   3   4
ATOM      4  C   UNL     1       1.604  71.018  12.938  1.00  0.00     0.000 C 
BRANCH   4   5
ATOM      5  C   UNL     1       2.681  72.121  12.930  1.00  0.00     0.006 C 
BRANCH   5   6
ATOM      6  C   UNL     1       3.751  71.944  11.837  1.00  0.00     0.053 C 
BRANCH   6   7
ATOM      7  C   UNL     1       3.270  72.386  10.487  1.00  0.00     0.041 C 
ATOM      8  O   UNL     1       3.082  73.607  10.250  1.00  0.00    -0.550 OA
ATOM      9  O   UNL     1       2.989  71.445   9.504  1.00  0.00    -0.550 OA
ENDBRANCH   6   7
ENDBRANCH   5   6
ENDBRANCH   4   5
ENDBRANCH   3   4
ENDBRANCH   2   3
ENDBRANCH   1   2
BRANCH   1  10
ATOM     10  C   UNL     1       2.074  68.304  16.348  1.00  0.00     0.000 C 
BRANCH  10  11
ATOM     11  C   UNL     1       1.701  68.470  17.831  1.00  0.00    -0.000 C 
BRANCH  11  12
ATOM     12  C   UNL     1       0.580  69.502  18.044  1.00  0.00    -0.000 C 
BRANCH  12  13
ATOM     13  C   UNL     1       1.094  70.838  18.612  1.00  0.00    -0.000 C 
BRANCH  13  14
ATOM     14  C   UNL     1       2.352  70.733  19.492  1.00  0.00    -0.000 C 
BRANCH  14  15
ATOM     15  C   UNL     1       3.527  71.569  18.963  1.00  0.00    -0.003 C 
ATOM     16  C   UNL     1       3.032  72.811  18.229  1.00  0.00     0.004 C 
ENDBRANCH  14  15
ENDBRANCH  13  14
ENDBRANCH  12  13
ENDBRANCH  11  12
ENDBRANCH  10  11
ENDBRANCH   1  10
TORSDOF 12
ENDMDL
MODEL 7
REMARK VINA RESULT:    -2.921      8.007     11.249
REMARK INTER + INTRA:          -6.439
REMARK INTER:                  -4.853
REMARK INTRA:                  -1.586
REMARK UNBOUND:                -1.469
REMARK SMILES CCCCCCCCCCCCCC(=O)[O-]
REMARK SMILES IDX 8 1 9 2 10 3 11 4 12 5 13 6 14 7 15 8 16 9 7 10 6 11 5 12
REMARK SMILES IDX 4 13 3 14 2 15 1 16
REMARK H PARENT
REMARK Flexibility Score: inf
ROOT
ATOM      1  C   UNL     1       1.506  65.408   9.748  1.00  0.00     0.000 C 
ENDROOT
BRANCH   1   2
ATOM      2  C   UNL     1       1.617  66.323  10.974  1.00  0.00     0.000 C 
BRANCH   2   3
ATOM      3  C   UNL     1       3.086  66.562  11.351  1.00  0.00     0.000 C 
BRANCH   3   4
ATOM      4  C   UNL     1       3.359  66.377  12.853  1.00  0.00     0.000 C 
BRANCH   4   5
ATOM      5  C   UNL     1       2.546  65.259  13.536  1.00  0.00     0.006 C 
BRANCH   5   6
ATOM      6  C   UNL     1       3.269  63.901  13.590  1.00  0.00     0.053 C 
BRANCH   6   7
ATOM      7  C   UNL     1       3.177  63.257  14.941  1.00  0.00     0.041 C 
ATOM      8  O   UNL     1       4.162  63.282  15.724  1.00  0.00    -0.550 OA
ATOM      9  O   UNL     1       2.018  62.591  15.320  1.00  0.00    -0.550 OA
ENDBRANCH   6   7
ENDBRANCH   5   6
ENDBRANCH   4   5
ENDBRANCH   3   4
ENDBRANCH   2   3
ENDBRANCH   1   2
BRANCH   1  10
ATOM     10  C   UNL     1       2.653  64.387   9.719  1.00  0.00     0.000 C 
BRANCH  10  11
ATOM     11  C   UNL     1       3.085  64.019   8.290  1.00  0.00    -0.000 C 
BRANCH  11  12
ATOM     12  C   UNL     1       2.640  65.063   7.252  1.00  0.00    -0.000 C 
BRANCH  12  13
ATOM     13  C   UNL     1       3.819  65.853   6.653  1.00  0.00    -0.000 C 
BRANCH  13  14
ATOM     14  C   UNL     1       3.607  67.375   6.564  1.00  0.00    -0.000 C 
BRANCH  14  15
ATOM     15  C   UNL     1       3.481  68.045   7.940  1.00  0.00    -0.003 C 
ATOM     16  C   UNL     1       2.148  68.773   8.078  1.00  0.00     0.004 C 
ENDBRANCH  14  15
ENDBRANCH  13  14
ENDBRANCH  12  13
ENDBRANCH  11  12
ENDBRANCH  10  11
ENDBRANCH   1  10
TORSDOF 12
ENDMDL
MODEL 8
REMARK VINA RESULT:    -2.879      7.118     10.306
REMARK INTER + INTRA:          -6.367
REMARK INTER:                  -4.624
REMARK INTRA:                  -1.743
REMARK UNBOUND:                -1.469
REMARK SMILES CCCCCCCCCCCCCC(=O)[O-]
REMARK SMILES IDX 8 1 9 2 10 3 11 4 12 5 13 6 14 7 15 8 16 9 7 10 6 11 5 12
REMARK SMILES IDX 4 13 3 14 2 15 1 16
REMARK H PARENT
REMARK Flexibility Score: inf
ROOT
ATOM      1  C   UNL     1       2.904  66.861  11.162  1.00  0.00     0.000 C 
ENDROOT
BRANCH   1   2
ATOM      2  C   UNL     1       2.666  65.471  11.766  1.00  0.00     0.000 C 
BRANCH   2   3
ATOM      3  C   UNL     1       3.042  65.448  13.255  1.00  0.00     0.000 C 
BRANCH   3   4
ATOM      4  C   UNL     1       1.832  65.228  14.177  1.00  0.00     0.000 C 
BRANCH   4   5
ATOM      5  C   UNL     1       0.498  65.805  13.662  1.00  0.00     0.006 C 
BRANCH   5   6
ATOM      6  C   UNL     1       0.301  67.301  13.968  1.00  0.00     0.053 C 
BRANCH   6   7
ATOM      7  C   UNL     1      -0.344  68.038  12.833  1.00  0.00     0.041 C 
ATOM      8  O   UNL     1       0.256  68.993  12.275  1.00  0.00    -0.550 OA
ATOM      9  O   UNL     1      -1.626  67.697  12.418  1.00  0.00    -0.550 OA
ENDBRANCH   6   7
ENDBRANCH   5   6
ENDBRANCH   4   5
ENDBRANCH   3   4
ENDBRANCH   2   3
ENDBRANCH   1   2
BRANCH   1  10
ATOM     10  C   UNL     1       2.058  67.060   9.895  1.00  0.00     0.000 C 
BRANCH  10  11
ATOM     11  C   UNL     1       0.818  66.151   9.859  1.00  0.00    -0.000 C 
BRANCH  11  12
ATOM     12  C   UNL     1       0.736  65.316   8.570  1.00  0.00    -0.000 C 
BRANCH  12  13
ATOM     13  C   UNL     1       1.973  65.484   7.667  1.00  0.00    -0.000 C 
BRANCH  13  14
ATOM     14  C   UNL     1       2.968  64.311   7.698  1.00  0.00    -0.000 C 
BRANCH  14  15
ATOM     15  C   UNL     1       2.371  63.032   8.304  1.00  0.00    -0.003 C 
ATOM     16  C   UNL     1       3.183  62.561   9.506  1.00  0.00     0.004 C 
ENDBRANCH  14  15
ENDBRANCH  13  14
ENDBRANCH  12  13
ENDBRANCH  11  12
ENDBRANCH  10  11
ENDBRANCH   1  10
TORSDOF 12
ENDMDL
MODEL 9
REMARK VINA RESULT:    -2.848      6.450      8.543
REMARK INTER + INTRA:          -6.314
REMARK INTER:                  -4.729
REMARK INTRA:                  -1.585
REMARK UNBOUND:                -1.469
REMARK SMILES CCCCCCCCCCCCCC(=O)[O-]
REMARK SMILES IDX 8 1 9 2 10 3 11 4 12 5 13 6 14 7 15 8 16 9 7 10 6 11 5 12
REMARK SMILES IDX 4 13 3 14 2 15 1 16
REMARK H PARENT
REMARK Flexibility Score: inf
ROOT
ATOM      1  C   UNL     1       4.564  65.727  14.209  1.00  0.00     0.000 C 
ENDROOT
BRANCH   1   2
ATOM      2  C   UNL     1       4.581  66.660  15.426  1.00  0.00     0.000 C 
BRANCH   2   3
ATOM      3  C   UNL     1       5.199  65.960  16.646  1.00  0.00     0.000 C 
BRANCH   3   4
ATOM      4  C   UNL     1       6.520  65.243  16.322  1.00  0.00     0.000 C 
BRANCH   4   5
ATOM      5  C   UNL     1       7.240  64.614  17.531  1.00  0.00     0.006 C 
BRANCH   5   6
ATOM      6  C   UNL     1       7.871  63.239  17.240  1.00  0.00     0.053 C 
BRANCH   6   7
ATOM      7  C   UNL     1       9.363  63.252  17.385  1.00  0.00     0.041 C 
ATOM      8  O   UNL     1       9.940  64.236  17.917  1.00  0.00    -0.550 OA
ATOM      9  O   UNL     1      10.121  62.196  16.893  1.00  0.00    -0.550 OA
ENDBRANCH   6   7
ENDBRANCH   5   6
ENDBRANCH   4   5
ENDBRANCH   3   4
ENDBRANCH   2   3
ENDBRANCH   1   2
BRANCH   1  10
ATOM     10  C   UNL     1       3.157  65.649  13.597  1.00  0.00     0.000 C 
BRANCH  10  11
ATOM     11  C   UNL     1       2.116  65.074  14.572  1.00  0.00    -0.000 C 
BRANCH  11  12
ATOM     12  C   UNL     1       1.938  63.554  14.415  1.00  0.00    -0.000 C 
BRANCH  12  13
ATOM     13  C   UNL     1       2.286  62.774  15.697  1.00  0.00    -0.000 C 
BRANCH  13  14
ATOM     14  C   UNL     1       3.754  62.323  15.809  1.00  0.00    -0.000 C 
BRANCH  14  15
ATOM     15  C   UNL     1       4.277  62.336  17.252  1.00  0.00    -0.003 C 
ATOM     16  C   UNL     1       3.153  62.621  18.243  1.00  0.00     0.004 C 
ENDBRANCH  14  15
ENDBRANCH  13  14
ENDBRANCH  12  13
ENDBRANCH  11  12
ENDBRANCH  10  11
ENDBRANCH   1  10
TORSDOF 12
ENDMDL
