MODEL 1
REMARK VINA RESULT:    -6.543      0.000      0.000
REMARK INTER + INTRA:          -8.341
REMARK INTER:                  -8.074
REMARK INTRA:                  -0.268
REMARK UNBOUND:                -0.268
REMARK SMILES Oc1cc(O)c2cc(O)c(-c3cc(O)c(O)c(O)c3)[o+]c2c1
REMARK SMILES IDX 10 1 20 2 21 3 22 4 2 5 3 6 4 7 6 8 7 9 8 10 11 11 12 12
REMARK SMILES IDX 13 13 19 14 15 15 17 16 14 17 16 19 18 21 9 23 1 25 5 27
REMARK H PARENT 14 18 16 20 18 22 9 24 1 26 5 28
REMARK Flexibility Score: inf
ROOT
ATOM      1  C   UNL     1       2.074   4.211 -22.391  1.00  0.00     0.402 A 
ATOM      2  O   UNL     1       1.345   3.106 -22.257  1.00  0.00    -0.202 OA
ATOM      3  C   UNL     1       1.022   2.582 -21.079  1.00  0.00     0.368 A 
ATOM      4  C   UNL     1       0.249   1.420 -21.040  1.00  0.00     0.162 A 
ATOM      5  C   UNL     1      -0.107   0.849 -19.815  1.00  0.00     0.128 A 
ATOM      6  C   UNL     1       0.311   1.446 -18.623  1.00  0.00     0.093 A 
ATOM      7  C   UNL     1       1.087   2.612 -18.635  1.00  0.00     0.136 A 
ATOM      8  C   UNL     1       1.453   3.192 -19.876  1.00  0.00     0.125 A 
ATOM      9  C   UNL     1       2.238   4.353 -19.984  1.00  0.00     0.078 A 
ATOM     10  C   UNL     1       2.563   4.864 -21.244  1.00  0.00     0.223 A 
ENDROOT
BRANCH   1  11
ATOM     11  C   UNL     1       2.358   4.701 -23.759  1.00  0.00     0.091 A 
ATOM     12  C   UNL     1       3.099   3.900 -24.639  1.00  0.00     0.068 A 
ATOM     13  C   UNL     1       3.370   4.322 -25.945  1.00  0.00     0.162 A 
ATOM     14  C   UNL     1       1.853   5.928 -24.216  1.00  0.00     0.068 A 
ATOM     15  C   UNL     1       2.877   5.572 -26.393  1.00  0.00     0.200 A 
ATOM     16  C   UNL     1       2.112   6.365 -25.517  1.00  0.00     0.162 A 
BRANCH  13  17
ATOM     17  O   UNL     1       4.125   3.474 -26.758  1.00  0.00    -0.504 OA
ATOM     18  H   UNL     1       5.100   3.614 -26.973  1.00  0.00     0.293 HD
ENDBRANCH  13  17
BRANCH  15  19
ATOM     19  O   UNL     1       3.120   6.051 -27.683  1.00  0.00    -0.502 OA
ATOM     20  H   UNL     1       2.937   6.998 -27.980  1.00  0.00     0.293 HD
ENDBRANCH  15  19
BRANCH  16  21
ATOM     21  O   UNL     1       1.595   7.595 -25.926  1.00  0.00    -0.504 OA
ATOM     22  H   UNL     1       1.219   7.742 -26.855  1.00  0.00     0.293 HD
ENDBRANCH  16  21
ENDBRANCH   1  11
BRANCH  10  23
ATOM     23  O   UNL     1       3.384   5.987 -21.354  1.00  0.00    -0.500 OA
ATOM     24  H   UNL     1       3.467   6.503 -22.222  1.00  0.00     0.294 HD
ENDBRANCH  10  23
BRANCH   5  25
ATOM     25  O   UNL     1      -0.877  -0.311 -19.768  1.00  0.00    -0.507 OA
ATOM     26  H   UNL     1      -0.556  -1.141 -19.283  1.00  0.00     0.293 HD
ENDBRANCH   5  25
BRANCH   7  27
ATOM     27  O   UNL     1       1.461   3.147 -17.399  1.00  0.00    -0.507 OA
ATOM     28  H   UNL     1       2.405   3.409 -17.153  1.00  0.00     0.293 HD
ENDBRANCH   7  27
TORSDOF 7
ENDMDL
MODEL 2
REMARK VINA RESULT:    -6.466      1.317      3.184
REMARK INTER + INTRA:          -8.246
REMARK INTER:                  -8.435
REMARK INTRA:                   0.188
REMARK UNBOUND:                -0.268
REMARK SMILES Oc1cc(O)c2cc(O)c(-c3cc(O)c(O)c(O)c3)[o+]c2c1
REMARK SMILES IDX 10 1 20 2 21 3 22 4 2 5 3 6 4 7 6 8 7 9 8 10 11 11 12 12
REMARK SMILES IDX 13 13 19 14 15 15 17 16 14 17 16 19 18 21 9 23 1 25 5 27
REMARK H PARENT 14 18 16 20 18 22 9 24 1 26 5 28
REMARK Flexibility Score: inf
ROOT
ATOM      1  C   UNL     1       2.036   3.829 -22.815  1.00  0.00     0.402 A 
ATOM      2  O   UNL     1       2.338   4.483 -21.697  1.00  0.00    -0.202 OA
ATOM      3  C   UNL     1       1.928   4.100 -20.492  1.00  0.00     0.368 A 
ATOM      4  C   UNL     1       2.301   4.853 -19.376  1.00  0.00     0.162 A 
ATOM      5  C   UNL     1       1.886   4.471 -18.097  1.00  0.00     0.128 A 
ATOM      6  C   UNL     1       1.097   3.330 -17.934  1.00  0.00     0.093 A 
ATOM      7  C   UNL     1       0.710   2.559 -19.037  1.00  0.00     0.136 A 
ATOM      8  C   UNL     1       1.126   2.944 -20.337  1.00  0.00     0.125 A 
ATOM      9  C   UNL     1       0.776   2.239 -21.501  1.00  0.00     0.078 A 
ATOM     10  C   UNL     1       1.221   2.683 -22.750  1.00  0.00     0.223 A 
ENDROOT
BRANCH   1  11
ATOM     11  C   UNL     1       2.561   4.351 -24.097  1.00  0.00     0.091 A 
ATOM     12  C   UNL     1       2.881   5.711 -24.209  1.00  0.00     0.068 A 
ATOM     13  C   UNL     1       3.399   6.235 -25.398  1.00  0.00     0.162 A 
ATOM     14  C   UNL     1       2.802   3.502 -25.188  1.00  0.00     0.068 A 
ATOM     15  C   UNL     1       3.617   5.377 -26.504  1.00  0.00     0.200 A 
ATOM     16  C   UNL     1       3.320   4.007 -26.383  1.00  0.00     0.162 A 
BRANCH  13  17
ATOM     17  O   UNL     1       3.681   7.602 -25.437  1.00  0.00    -0.504 OA
ATOM     18  H   UNL     1       3.152   8.305 -24.942  1.00  0.00     0.293 HD
ENDBRANCH  13  17
BRANCH  15  19
ATOM     19  O   UNL     1       4.125   5.842 -27.720  1.00  0.00    -0.502 OA
ATOM     20  H   UNL     1       5.098   5.790 -27.986  1.00  0.00     0.293 HD
ENDBRANCH  15  19
BRANCH  16  21
ATOM     21  O   UNL     1       3.537   3.127 -27.444  1.00  0.00    -0.504 OA
ATOM     22  H   UNL     1       3.533   3.432 -28.410  1.00  0.00     0.293 HD
ENDBRANCH  16  21
ENDBRANCH   1  11
BRANCH  10  23
ATOM     23  O   UNL     1       0.832   2.013 -23.910  1.00  0.00    -0.500 OA
ATOM     24  H   UNL     1       0.469   1.067 -23.882  1.00  0.00     0.294 HD
ENDBRANCH  10  23
BRANCH   5  25
ATOM     25  O   UNL     1       2.253   5.217 -16.979  1.00  0.00    -0.507 OA
ATOM     26  H   UNL     1       3.208   5.226 -16.639  1.00  0.00     0.293 HD
ENDBRANCH   5  25
BRANCH   7  27
ATOM     27  O   UNL     1      -0.077   1.431 -18.789  1.00  0.00    -0.507 OA
ATOM     28  H   UNL     1      -1.004   1.288 -19.164  1.00  0.00     0.293 HD
ENDBRANCH   7  27
TORSDOF 7
ENDMDL
MODEL 3
REMARK VINA RESULT:    -6.429      0.105      1.808
REMARK INTER + INTRA:          -8.201
REMARK INTER:                  -7.977
REMARK INTRA:                  -0.224
REMARK UNBOUND:                -0.268
REMARK SMILES Oc1cc(O)c2cc(O)c(-c3cc(O)c(O)c(O)c3)[o+]c2c1
REMARK SMILES IDX 10 1 20 2 21 3 22 4 2 5 3 6 4 7 6 8 7 9 8 10 11 11 12 12
REMARK SMILES IDX 13 13 19 14 15 15 17 16 14 17 16 19 18 21 9 23 1 25 5 27
REMARK H PARENT 14 18 16 20 18 22 9 24 1 26 5 28
REMARK Flexibility Score: inf
ROOT
ATOM      1  C   UNL     1       2.050   4.182 -22.469  1.00  0.00     0.402 A 
ATOM      2  O   UNL     1       1.326   3.081 -22.286  1.00  0.00    -0.202 OA
ATOM      3  C   UNL     1       1.026   2.595 -21.087  1.00  0.00     0.368 A 
ATOM      4  C   UNL     1       0.256   1.433 -20.997  1.00  0.00     0.162 A 
ATOM      5  C   UNL     1      -0.077   0.901 -19.748  1.00  0.00     0.128 A 
ATOM      6  C   UNL     1       0.360   1.536 -18.583  1.00  0.00     0.093 A 
ATOM      7  C   UNL     1       1.133   2.702 -18.646  1.00  0.00     0.136 A 
ATOM      8  C   UNL     1       1.477   3.243 -19.912  1.00  0.00     0.125 A 
ATOM      9  C   UNL     1       2.257   4.401 -20.071  1.00  0.00     0.078 A 
ATOM     10  C   UNL     1       2.558   4.872 -21.352  1.00  0.00     0.223 A 
ENDROOT
BRANCH   1  11
ATOM     11  C   UNL     1       2.310   4.629 -23.856  1.00  0.00     0.091 A 
ATOM     12  C   UNL     1       1.813   5.867 -24.286  1.00  0.00     0.068 A 
ATOM     13  C   UNL     1       2.056   6.331 -25.583  1.00  0.00     0.162 A 
ATOM     14  C   UNL     1       3.093   3.866 -24.735  1.00  0.00     0.068 A 
ATOM     15  C   UNL     1       2.827   5.546 -26.474  1.00  0.00     0.200 A 
ATOM     16  C   UNL     1       3.347   4.313 -26.034  1.00  0.00     0.162 A 
BRANCH  13  17
ATOM     17  O   UNL     1       1.517   7.569 -25.941  1.00  0.00    -0.504 OA
ATOM     18  H   UNL     1       1.680   8.426 -25.435  1.00  0.00     0.293 HD
ENDBRANCH  13  17
BRANCH  15  19
ATOM     19  O   UNL     1       3.098   5.952 -27.784  1.00  0.00    -0.502 OA
ATOM     20  H   UNL     1       3.314   5.319 -28.540  1.00  0.00     0.293 HD
ENDBRANCH  15  19
BRANCH  16  21
ATOM     21  O   UNL     1       4.125   3.519 -26.877  1.00  0.00    -0.504 OA
ATOM     22  H   UNL     1       3.731   3.015 -27.663  1.00  0.00     0.293 HD
ENDBRANCH  16  21
ENDBRANCH   1  11
BRANCH  10  23
ATOM     23  O   UNL     1       3.375   5.992 -21.511  1.00  0.00    -0.500 OA
ATOM     24  H   UNL     1       4.192   5.974 -22.112  1.00  0.00     0.294 HD
ENDBRANCH  10  23
BRANCH   5  25
ATOM     25  O   UNL     1      -0.844  -0.259 -19.651  1.00  0.00    -0.507 OA
ATOM     26  H   UNL     1      -1.856  -0.231 -19.713  1.00  0.00     0.293 HD
ENDBRANCH   5  25
BRANCH   7  27
ATOM     27  O   UNL     1       1.529   3.277 -17.435  1.00  0.00    -0.507 OA
ATOM     28  H   UNL     1       1.652   2.765 -16.574  1.00  0.00     0.293 HD
ENDBRANCH   7  27
TORSDOF 7
ENDMDL
MODEL 4
REMARK VINA RESULT:    -6.381      1.332      2.739
REMARK INTER + INTRA:          -8.141
REMARK INTER:                  -8.441
REMARK INTRA:                   0.300
REMARK UNBOUND:                -0.268
REMARK SMILES Oc1cc(O)c2cc(O)c(-c3cc(O)c(O)c(O)c3)[o+]c2c1
REMARK SMILES IDX 10 1 20 2 21 3 22 4 2 5 3 6 4 7 6 8 7 9 8 10 11 11 12 12
REMARK SMILES IDX 13 13 19 14 15 15 17 16 14 17 16 19 18 21 9 23 1 25 5 27
REMARK H PARENT 14 18 16 20 18 22 9 24 1 26 5 28
REMARK Flexibility Score: inf
ROOT
ATOM      1  C   UNL     1       2.074   3.848 -22.835  1.00  0.00     0.402 A 
ATOM      2  O   UNL     1       2.369   4.499 -21.713  1.00  0.00    -0.202 OA
ATOM      3  C   UNL     1       1.936   4.121 -20.514  1.00  0.00     0.368 A 
ATOM      4  C   UNL     1       2.302   4.869 -19.393  1.00  0.00     0.162 A 
ATOM      5  C   UNL     1       1.865   4.493 -18.120  1.00  0.00     0.128 A 
ATOM      6  C   UNL     1       1.059   3.363 -17.968  1.00  0.00     0.093 A 
ATOM      7  C   UNL     1       0.678   2.596 -19.077  1.00  0.00     0.136 A 
ATOM      8  C   UNL     1       1.117   2.976 -20.371  1.00  0.00     0.125 A 
ATOM      9  C   UNL     1       0.775   2.275 -21.539  1.00  0.00     0.078 A 
ATOM     10  C   UNL     1       1.243   2.712 -22.781  1.00  0.00     0.223 A 
ENDROOT
BRANCH   1  11
ATOM     11  C   UNL     1       2.624   4.362 -24.110  1.00  0.00     0.091 A 
ATOM     12  C   UNL     1       2.778   3.490 -25.196  1.00  0.00     0.068 A 
ATOM     13  C   UNL     1       3.275   3.946 -26.422  1.00  0.00     0.162 A 
ATOM     14  C   UNL     1       2.942   5.719 -24.274  1.00  0.00     0.068 A 
ATOM     15  C   UNL     1       3.616   5.312 -26.575  1.00  0.00     0.200 A 
ATOM     16  C   UNL     1       3.439   6.192 -25.491  1.00  0.00     0.162 A 
BRANCH  13  17
ATOM     17  O   UNL     1       3.412   3.014 -27.453  1.00  0.00    -0.504 OA
ATOM     18  H   UNL     1       2.666   2.421 -27.785  1.00  0.00     0.293 HD
ENDBRANCH  13  17
BRANCH  15  19
ATOM     19  O   UNL     1       4.125   5.825 -27.771  1.00  0.00    -0.502 OA
ATOM     20  H   UNL     1       4.690   6.658 -27.836  1.00  0.00     0.293 HD
ENDBRANCH  15  19
BRANCH  16  21
ATOM     21  O   UNL     1       3.748   7.548 -25.607  1.00  0.00    -0.504 OA
ATOM     22  H   UNL     1       3.888   8.143 -24.799  1.00  0.00     0.293 HD
ENDBRANCH  16  21
ENDBRANCH   1  11
BRANCH  10  23
ATOM     23  O   UNL     1       0.863   2.047 -23.947  1.00  0.00    -0.500 OA
ATOM     24  H   UNL     1       0.054   2.336 -24.486  1.00  0.00     0.294 HD
ENDBRANCH  10  23
BRANCH   5  25
ATOM     25  O   UNL     1       2.225   5.235 -16.996  1.00  0.00    -0.507 OA
ATOM     26  H   UNL     1       3.149   5.160 -16.587  1.00  0.00     0.293 HD
ENDBRANCH   5  25
BRANCH   7  27
ATOM     27  O   UNL     1      -0.127   1.478 -18.839  1.00  0.00    -0.507 OA
ATOM     28  H   UNL     1      -1.131   1.464 -18.950  1.00  0.00     0.293 HD
ENDBRANCH   7  27
TORSDOF 7
ENDMDL
MODEL 5
REMARK VINA RESULT:    -6.328      2.389      3.531
REMARK INTER + INTRA:          -8.075
REMARK INTER:                  -7.701
REMARK INTRA:                  -0.374
REMARK UNBOUND:                -0.268
REMARK SMILES Oc1cc(O)c2cc(O)c(-c3cc(O)c(O)c(O)c3)[o+]c2c1
REMARK SMILES IDX 10 1 20 2 21 3 22 4 2 5 3 6 4 7 6 8 7 9 8 10 11 11 12 12
REMARK SMILES IDX 13 13 19 14 15 15 17 16 14 17 16 19 18 21 9 23 1 25 5 27
REMARK H PARENT 14 18 16 20 18 22 9 24 1 26 5 28
REMARK Flexibility Score: inf
ROOT
ATOM      1  C   UNL     1       0.631   2.049 -23.200  1.00  0.00     0.402 A 
ATOM      2  O   UNL     1       0.819   2.758 -22.091  1.00  0.00    -0.202 OA
ATOM      3  C   UNL     1       0.944   2.211 -20.886  1.00  0.00     0.368 A 
ATOM      4  C   UNL     1       1.141   3.040 -19.780  1.00  0.00     0.162 A 
ATOM      5  C   UNL     1       1.279   2.491 -18.502  1.00  0.00     0.128 A 
ATOM      6  C   UNL     1       1.221   1.106 -18.330  1.00  0.00     0.093 A 
ATOM      7  C   UNL     1       1.024   0.253 -19.424  1.00  0.00     0.136 A 
ATOM      8  C   UNL     1       0.881   0.806 -20.722  1.00  0.00     0.125 A 
ATOM      9  C   UNL     1       0.668   0.029 -21.873  1.00  0.00     0.078 A 
ATOM     10  C   UNL     1       0.532   0.647 -23.120  1.00  0.00     0.223 A 
ENDROOT
BRANCH   1  11
ATOM     11  C   UNL     1       0.516   2.775 -24.486  1.00  0.00     0.091 A 
ATOM     12  C   UNL     1       1.645   2.908 -25.306  1.00  0.00     0.068 A 
ATOM     13  C   UNL     1       1.569   3.569 -26.537  1.00  0.00     0.162 A 
ATOM     14  C   UNL     1      -0.713   3.284 -24.930  1.00  0.00     0.068 A 
ATOM     15  C   UNL     1       0.330   4.101 -26.969  1.00  0.00     0.200 A 
ATOM     16  C   UNL     1      -0.809   3.946 -26.157  1.00  0.00     0.162 A 
BRANCH  13  17
ATOM     17  O   UNL     1       2.739   3.672 -27.292  1.00  0.00    -0.504 OA
ATOM     18  H   UNL     1       2.773   4.002 -28.245  1.00  0.00     0.293 HD
ENDBRANCH  13  17
BRANCH  15  19
ATOM     19  O   UNL     1       0.192   4.778 -28.184  1.00  0.00    -0.502 OA
ATOM     20  H   UNL     1       0.917   4.838 -28.885  1.00  0.00     0.293 HD
ENDBRANCH  15  19
BRANCH  16  21
ATOM     21  O   UNL     1      -2.050   4.442 -26.556  1.00  0.00    -0.504 OA
ATOM     22  H   UNL     1      -2.602   5.057 -25.969  1.00  0.00     0.293 HD
ENDBRANCH  16  21
ENDBRANCH   1  11
BRANCH  10  23
ATOM     23  O   UNL     1       0.270  -0.119 -24.256  1.00  0.00    -0.500 OA
ATOM     24  H   UNL     1      -0.653  -0.495 -24.444  1.00  0.00     0.294 HD
ENDBRANCH  10  23
BRANCH   5  25
ATOM     25  O   UNL     1       1.475   3.312 -17.393  1.00  0.00    -0.507 OA
ATOM     26  H   UNL     1       1.170   4.279 -17.389  1.00  0.00     0.293 HD
ENDBRANCH   5  25
BRANCH   7  27
ATOM     27  O   UNL     1       0.981  -1.120 -19.168  1.00  0.00    -0.507 OA
ATOM     28  H   UNL     1       1.483  -1.578 -18.421  1.00  0.00     0.293 HD
ENDBRANCH   7  27
TORSDOF 7
ENDMDL
MODEL 6
REMARK VINA RESULT:    -6.320      2.535      3.886
REMARK INTER + INTRA:          -8.065
REMARK INTER:                  -7.681
REMARK INTRA:                  -0.384
REMARK UNBOUND:                -0.268
REMARK SMILES Oc1cc(O)c2cc(O)c(-c3cc(O)c(O)c(O)c3)[o+]c2c1
REMARK SMILES IDX 10 1 20 2 21 3 22 4 2 5 3 6 4 7 6 8 7 9 8 10 11 11 12 12
REMARK SMILES IDX 13 13 19 14 15 15 17 16 14 17 16 19 18 21 9 23 1 25 5 27
REMARK H PARENT 14 18 16 20 18 22 9 24 1 26 5 28
REMARK Flexibility Score: inf
ROOT
ATOM      1  C   UNL     1       0.547   1.994 -23.148  1.00  0.00     0.402 A 
ATOM      2  O   UNL     1       0.738   2.719 -22.049  1.00  0.00    -0.202 OA
ATOM      3  C   UNL     1       0.916   2.188 -20.844  1.00  0.00     0.368 A 
ATOM      4  C   UNL     1       1.112   3.033 -19.750  1.00  0.00     0.162 A 
ATOM      5  C   UNL     1       1.305   2.501 -18.472  1.00  0.00     0.128 A 
ATOM      6  C   UNL     1       1.304   1.116 -18.289  1.00  0.00     0.093 A 
ATOM      7  C   UNL     1       1.109   0.247 -19.370  1.00  0.00     0.136 A 
ATOM      8  C   UNL     1       0.910   0.783 -20.668  1.00  0.00     0.125 A 
ATOM      9  C   UNL     1       0.696  -0.011 -21.807  1.00  0.00     0.078 A 
ATOM     10  C   UNL     1       0.503   0.590 -23.054  1.00  0.00     0.223 A 
ENDROOT
BRANCH   1  11
ATOM     11  C   UNL     1       0.370   2.704 -24.435  1.00  0.00     0.091 A 
ATOM     12  C   UNL     1      -0.912   3.114 -24.826  1.00  0.00     0.068 A 
ATOM     13  C   UNL     1      -1.114   3.805 -26.025  1.00  0.00     0.162 A 
ATOM     14  C   UNL     1       1.467   3.028 -25.247  1.00  0.00     0.068 A 
ATOM     15  C   UNL     1      -0.006   4.109 -26.853  1.00  0.00     0.200 A 
ATOM     16  C   UNL     1       1.285   3.719 -26.448  1.00  0.00     0.162 A 
BRANCH  13  17
ATOM     17  O   UNL     1      -2.422   4.169 -26.352  1.00  0.00    -0.504 OA
ATOM     18  H   UNL     1      -2.663   4.946 -26.948  1.00  0.00     0.293 HD
ENDBRANCH  13  17
BRANCH  15  19
ATOM     19  O   UNL     1      -0.145   4.790 -28.066  1.00  0.00    -0.502 OA
ATOM     20  H   UNL     1      -0.838   4.566 -28.765  1.00  0.00     0.293 HD
ENDBRANCH  15  19
BRANCH  16  21
ATOM     21  O   UNL     1       2.403   4.014 -27.228  1.00  0.00    -0.504 OA
ATOM     22  H   UNL     1       2.538   3.621 -28.152  1.00  0.00     0.293 HD
ENDBRANCH  16  21
ENDBRANCH   1  11
BRANCH  10  23
ATOM     23  O   UNL     1       0.240  -0.195 -24.176  1.00  0.00    -0.500 OA
ATOM     24  H   UNL     1       0.757  -1.047 -24.363  1.00  0.00     0.294 HD
ENDBRANCH  10  23
BRANCH   5  25
ATOM     25  O   UNL     1       1.500   3.338 -17.375  1.00  0.00    -0.507 OA
ATOM     26  H   UNL     1       2.313   3.245 -16.777  1.00  0.00     0.293 HD
ENDBRANCH   5  25
BRANCH   7  27
ATOM     27  O   UNL     1       1.125  -1.125 -19.102  1.00  0.00    -0.507 OA
ATOM     28  H   UNL     1       0.329  -1.652 -18.773  1.00  0.00     0.293 HD
ENDBRANCH   7  27
TORSDOF 7
ENDMDL
MODEL 7
REMARK VINA RESULT:    -6.311      2.006      7.260
REMARK INTER + INTRA:          -8.055
REMARK INTER:                  -7.676
REMARK INTRA:                  -0.378
REMARK UNBOUND:                -0.268
REMARK SMILES Oc1cc(O)c2cc(O)c(-c3cc(O)c(O)c(O)c3)[o+]c2c1
REMARK SMILES IDX 10 1 20 2 21 3 22 4 2 5 3 6 4 7 6 8 7 9 8 10 11 11 12 12
REMARK SMILES IDX 13 13 19 14 15 15 17 16 14 17 16 19 18 21 9 23 1 25 5 27
REMARK H PARENT 14 18 16 20 18 22 9 24 1 26 5 28
REMARK Flexibility Score: inf
ROOT
ATOM      1  C   UNL     1       0.728   2.690 -22.659  1.00  0.00     0.402 A 
ATOM      2  O   UNL     1       1.811   3.020 -23.356  1.00  0.00    -0.202 OA
ATOM      3  C   UNL     1       1.765   3.486 -24.600  1.00  0.00     0.368 A 
ATOM      4  C   UNL     1       2.958   3.809 -25.250  1.00  0.00     0.162 A 
ATOM      5  C   UNL     1       2.938   4.304 -26.557  1.00  0.00     0.128 A 
ATOM      6  C   UNL     1       1.719   4.479 -27.216  1.00  0.00     0.093 A 
ATOM      7  C   UNL     1       0.509   4.163 -26.586  1.00  0.00     0.136 A 
ATOM      8  C   UNL     1       0.524   3.657 -25.261  1.00  0.00     0.125 A 
ATOM      9  C   UNL     1      -0.639   3.303 -24.556  1.00  0.00     0.078 A 
ATOM     10  C   UNL     1      -0.543   2.807 -23.252  1.00  0.00     0.223 A 
ENDROOT
BRANCH   1  11
ATOM     11  C   UNL     1       0.909   2.191 -21.277  1.00  0.00     0.091 A 
ATOM     12  C   UNL     1       1.054   0.815 -21.054  1.00  0.00     0.068 A 
ATOM     13  C   UNL     1       1.248   0.308 -19.764  1.00  0.00     0.162 A 
ATOM     14  C   UNL     1       0.998   3.070 -20.187  1.00  0.00     0.068 A 
ATOM     15  C   UNL     1       1.313   1.200 -18.665  1.00  0.00     0.200 A 
ATOM     16  C   UNL     1       1.192   2.584 -18.892  1.00  0.00     0.162 A 
BRANCH  13  17
ATOM     17  O   UNL     1       1.372  -1.075 -19.621  1.00  0.00    -0.504 OA
ATOM     18  H   UNL     1       1.752  -1.687 -20.328  1.00  0.00     0.293 HD
ENDBRANCH  13  17
BRANCH  15  19
ATOM     19  O   UNL     1       1.497   0.755 -17.354  1.00  0.00    -0.502 OA
ATOM     20  H   UNL     1       0.744   0.580 -16.703  1.00  0.00     0.293 HD
ENDBRANCH  15  19
BRANCH  16  21
ATOM     21  O   UNL     1       1.267   3.495 -17.838  1.00  0.00    -0.504 OA
ATOM     22  H   UNL     1       1.261   4.497 -17.986  1.00  0.00     0.293 HD
ENDBRANCH  16  21
ENDBRANCH   1  11
BRANCH  10  23
ATOM     23  O   UNL     1      -1.693   2.407 -22.570  1.00  0.00    -0.500 OA
ATOM     24  H   UNL     1      -2.620   2.615 -22.922  1.00  0.00     0.294 HD
ENDBRANCH  10  23
BRANCH   5  25
ATOM     25  O   UNL     1       4.125   4.627 -27.213  1.00  0.00    -0.507 OA
ATOM     26  H   UNL     1       4.260   5.532 -27.648  1.00  0.00     0.293 HD
ENDBRANCH   5  25
BRANCH   7  27
ATOM     27  O   UNL     1      -0.667   4.370 -27.312  1.00  0.00    -0.507 OA
ATOM     28  H   UNL     1      -1.228   5.208 -27.264  1.00  0.00     0.293 HD
ENDBRANCH   7  27
TORSDOF 7
ENDMDL
MODEL 8
REMARK VINA RESULT:    -6.299      1.958      7.450
REMARK INTER + INTRA:          -8.039
REMARK INTER:                  -7.690
REMARK INTRA:                  -0.350
REMARK UNBOUND:                -0.268
REMARK SMILES Oc1cc(O)c2cc(O)c(-c3cc(O)c(O)c(O)c3)[o+]c2c1
REMARK SMILES IDX 10 1 20 2 21 3 22 4 2 5 3 6 4 7 6 8 7 9 8 10 11 11 12 12
REMARK SMILES IDX 13 13 19 14 15 15 17 16 14 17 16 19 18 21 9 23 1 25 5 27
REMARK H PARENT 14 18 16 20 18 22 9 24 1 26 5 28
REMARK Flexibility Score: inf
ROOT
ATOM      1  C   UNL     1       0.803   2.640 -22.475  1.00  0.00     0.402 A 
ATOM      2  O   UNL     1       1.872   3.017 -23.170  1.00  0.00    -0.202 OA
ATOM      3  C   UNL     1       1.809   3.484 -24.413  1.00  0.00     0.368 A 
ATOM      4  C   UNL     1       2.988   3.858 -25.060  1.00  0.00     0.162 A 
ATOM      5  C   UNL     1       2.950   4.355 -26.366  1.00  0.00     0.128 A 
ATOM      6  C   UNL     1       1.726   4.480 -27.026  1.00  0.00     0.093 A 
ATOM      7  C   UNL     1       0.529   4.112 -26.399  1.00  0.00     0.136 A 
ATOM      8  C   UNL     1       0.563   3.604 -25.075  1.00  0.00     0.125 A 
ATOM      9  C   UNL     1      -0.585   3.199 -24.373  1.00  0.00     0.078 A 
ATOM     10  C   UNL     1      -0.471   2.704 -23.070  1.00  0.00     0.223 A 
ENDROOT
BRANCH   1  11
ATOM     11  C   UNL     1       1.003   2.145 -21.094  1.00  0.00     0.091 A 
ATOM     12  C   UNL     1       1.118   3.064 -20.042  1.00  0.00     0.068 A 
ATOM     13  C   UNL     1       1.287   2.633 -18.721  1.00  0.00     0.162 A 
ATOM     14  C   UNL     1       1.022   0.773 -20.805  1.00  0.00     0.068 A 
ATOM     15  C   UNL     1       1.329   1.246 -18.439  1.00  0.00     0.200 A 
ATOM     16  C   UNL     1       1.190   0.322 -19.493  1.00  0.00     0.162 A 
BRANCH  13  17
ATOM     17  O   UNL     1       1.406   3.609 -17.730  1.00  0.00    -0.504 OA
ATOM     18  H   UNL     1       2.262   4.098 -17.515  1.00  0.00     0.293 HD
ENDBRANCH  13  17
BRANCH  15  19
ATOM     19  O   UNL     1       1.504   0.753 -17.143  1.00  0.00    -0.502 OA
ATOM     20  H   UNL     1       2.380   0.773 -16.642  1.00  0.00     0.293 HD
ENDBRANCH  15  19
BRANCH  16  21
ATOM     21  O   UNL     1       1.210  -1.052 -19.252  1.00  0.00    -0.504 OA
ATOM     22  H   UNL     1       1.429  -1.439 -18.343  1.00  0.00     0.293 HD
ENDBRANCH  16  21
ENDBRANCH   1  11
BRANCH  10  23
ATOM     23  O   UNL     1      -1.603   2.255 -22.391  1.00  0.00    -0.500 OA
ATOM     24  H   UNL     1      -2.486   2.752 -22.441  1.00  0.00     0.294 HD
ENDBRANCH  10  23
BRANCH   5  25
ATOM     25  O   UNL     1       4.123   4.730 -27.019  1.00  0.00    -0.507 OA
ATOM     26  H   UNL     1       5.003   4.808 -26.522  1.00  0.00     0.293 HD
ENDBRANCH   5  25
BRANCH   7  27
ATOM     27  O   UNL     1      -0.654   4.271 -27.127  1.00  0.00    -0.507 OA
ATOM     28  H   UNL     1      -0.835   3.841 -28.022  1.00  0.00     0.293 HD
ENDBRANCH   7  27
TORSDOF 7
ENDMDL
MODEL 9
REMARK VINA RESULT:    -6.269      1.179      3.238
REMARK INTER + INTRA:          -8.002
REMARK INTER:                  -7.636
REMARK INTRA:                  -0.366
REMARK UNBOUND:                -0.268
REMARK SMILES Oc1cc(O)c2cc(O)c(-c3cc(O)c(O)c(O)c3)[o+]c2c1
REMARK SMILES IDX 10 1 20 2 21 3 22 4 2 5 3 6 4 7 6 8 7 9 8 10 11 11 12 12
REMARK SMILES IDX 13 13 19 14 15 15 17 16 14 17 16 19 18 21 9 23 1 25 5 27
REMARK H PARENT 14 18 16 20 18 22 9 24 1 26 5 28
REMARK Flexibility Score: inf
ROOT
ATOM      1  C   UNL     1       0.985   3.227 -23.323  1.00  0.00     0.402 A 
ATOM      2  O   UNL     1       1.436   3.436 -22.090  1.00  0.00    -0.202 OA
ATOM      3  C   UNL     1       0.949   2.818 -21.019  1.00  0.00     0.368 A 
ATOM      4  C   UNL     1       1.491   3.103 -19.764  1.00  0.00     0.162 A 
ATOM      5  C   UNL     1       1.000   2.465 -18.621  1.00  0.00     0.128 A 
ATOM      6  C   UNL     1      -0.037   1.536 -18.735  1.00  0.00     0.093 A 
ATOM      7  C   UNL     1      -0.597   1.232 -19.983  1.00  0.00     0.136 A 
ATOM      8  C   UNL     1      -0.104   1.880 -21.144  1.00  0.00     0.125 A 
ATOM      9  C   UNL     1      -0.614   1.648 -22.433  1.00  0.00     0.078 A 
ATOM     10  C   UNL     1      -0.079   2.328 -23.531  1.00  0.00     0.223 A 
ENDROOT
BRANCH   1  11
ATOM     11  C   UNL     1       1.616   3.971 -24.437  1.00  0.00     0.091 A 
ATOM     12  C   UNL     1       1.301   5.323 -24.629  1.00  0.00     0.068 A 
ATOM     13  C   UNL     1       1.894   6.063 -25.658  1.00  0.00     0.162 A 
ATOM     14  C   UNL     1       2.569   3.368 -25.271  1.00  0.00     0.068 A 
ATOM     15  C   UNL     1       2.838   5.442 -26.512  1.00  0.00     0.200 A 
ATOM     16  C   UNL     1       3.173   4.091 -26.303  1.00  0.00     0.162 A 
BRANCH  13  17
ATOM     17  O   UNL     1       1.520   7.402 -25.793  1.00  0.00    -0.504 OA
ATOM     18  H   UNL     1       1.343   7.855 -26.677  1.00  0.00     0.293 HD
ENDBRANCH  13  17
BRANCH  15  19
ATOM     19  O   UNL     1       3.458   6.126 -27.561  1.00  0.00    -0.502 OA
ATOM     20  H   UNL     1       3.007   6.352 -28.435  1.00  0.00     0.293 HD
ENDBRANCH  15  19
BRANCH  16  21
ATOM     21  O   UNL     1       4.110   3.449 -27.113  1.00  0.00    -0.504 OA
ATOM     22  H   UNL     1       5.008   3.139 -26.761  1.00  0.00     0.293 HD
ENDBRANCH  16  21
ENDBRANCH   1  11
BRANCH  10  23
ATOM     23  O   UNL     1      -0.617   2.136 -24.804  1.00  0.00    -0.500 OA
ATOM     24  H   UNL     1      -0.173   1.529 -25.483  1.00  0.00     0.294 HD
ENDBRANCH  10  23
BRANCH   5  25
ATOM     25  O   UNL     1       1.536   2.744 -17.365  1.00  0.00    -0.507 OA
ATOM     26  H   UNL     1       1.558   3.689 -16.998  1.00  0.00     0.293 HD
ENDBRANCH   5  25
BRANCH   7  27
ATOM     27  O   UNL     1      -1.629   0.290 -20.012  1.00  0.00    -0.507 OA
ATOM     28  H   UNL     1      -2.195   0.038 -19.214  1.00  0.00     0.293 HD
ENDBRANCH   7  27
TORSDOF 7
ENDMDL
