MODEL 1
REMARK VINA RESULT:    -4.738      0.000      0.000
REMARK INTER + INTRA:         -14.685
REMARK INTER:                 -10.831
REMARK INTRA:                  -3.854
REMARK UNBOUND:                -3.854
REMARK SMILES CCCCCCCCCCCCCCCCCCCCCCCC(=O)[O-]
REMARK SMILES IDX 13 1 14 2 15 3 16 4 17 5 18 6 19 7 20 8 21 9 22 10 23 11
REMARK SMILES IDX 24 12 25 13 26 14 12 15 11 16 10 17 9 18 8 19 7 20 6 21 5 22
REMARK SMILES IDX 4 23 3 24 2 25 1 26
REMARK H PARENT
REMARK Flexibility Score: inf
ROOT
ATOM      1  C   UNL     1     -14.985  11.246 -16.260  1.00  0.00     0.000 C 
ENDROOT
BRANCH   1   2
ATOM      2  C   UNL     1     -15.762  11.900 -15.103  1.00  0.00     0.000 C 
BRANCH   2   3
ATOM      3  C   UNL     1     -17.285  11.769 -15.265  1.00  0.00     0.000 C 
BRANCH   3   4
ATOM      4  C   UNL     1     -17.697  11.406 -16.702  1.00  0.00     0.000 C 
BRANCH   4   5
ATOM      5  C   UNL     1     -18.999  12.097 -17.146  1.00  0.00     0.000 C 
BRANCH   5   6
ATOM      6  C   UNL     1     -18.976  13.634 -17.066  1.00  0.00     0.000 C 
BRANCH   6   7
ATOM      7  C   UNL     1     -17.703  14.251 -17.664  1.00  0.00     0.000 C 
BRANCH   7   8
ATOM      8  C   UNL     1     -17.203  15.417 -16.802  1.00  0.00     0.000 C 
BRANCH   8   9
ATOM      9  C   UNL     1     -18.264  15.835 -15.773  1.00  0.00     0.000 C 
BRANCH   9  10
ATOM     10  C   UNL     1     -17.640  16.312 -14.451  1.00  0.00     0.006 C 
BRANCH  10  11
ATOM     11  C   UNL     1     -16.866  15.199 -13.734  1.00  0.00     0.053 C 
BRANCH  11  12
ATOM     12  C   UNL     1     -16.233  15.725 -12.486  1.00  0.00     0.041 C 
ATOM     13  O   UNL     1     -15.059  16.179 -12.512  1.00  0.00    -0.550 OA
ATOM     14  O   UNL     1     -16.956  15.756 -11.299  1.00  0.00    -0.550 OA
ENDBRANCH  11  12
ENDBRANCH  10  11
ENDBRANCH   9  10
ENDBRANCH   8   9
ENDBRANCH   7   8
ENDBRANCH   6   7
ENDBRANCH   5   6
ENDBRANCH   4   5
ENDBRANCH   3   4
ENDBRANCH   2   3
ENDBRANCH   1   2
BRANCH   1  15
ATOM     15  C   UNL     1     -13.742  12.049 -16.667  1.00  0.00     0.000 C 
BRANCH  15  16
ATOM     16  C   UNL     1     -14.021  13.556 -16.778  1.00  0.00     0.000 C 
BRANCH  16  17
ATOM     17  C   UNL     1     -13.974  14.021 -18.240  1.00  0.00     0.000 C 
BRANCH  17  18
ATOM     18  C   UNL     1     -12.775  14.938 -18.538  1.00  0.00    -0.000 C 
BRANCH  18  19
ATOM     19  C   UNL     1     -13.166  16.288 -19.174  1.00  0.00    -0.000 C 
BRANCH  19  20
ATOM     20  C   UNL     1     -14.332  16.971 -18.435  1.00  0.00    -0.000 C 
BRANCH  20  21
ATOM     21  C   UNL     1     -15.376  17.562 -19.396  1.00  0.00    -0.000 C 
BRANCH  21  22
ATOM     22  C   UNL     1     -15.753  16.596 -20.528  1.00  0.00    -0.000 C 
BRANCH  22  23
ATOM     23  C   UNL     1     -16.915  17.156 -21.359  1.00  0.00    -0.000 C 
BRANCH  23  24
ATOM     24  C   UNL     1     -17.900  17.937 -20.478  1.00  0.00    -0.000 C 
BRANCH  24  25
ATOM     25  C   UNL     1     -19.169  17.132 -20.157  1.00  0.00    -0.003 C 
ATOM     26  C   UNL     1     -19.760  17.478 -18.789  1.00  0.00     0.004 C 
ENDBRANCH  24  25
ENDBRANCH  23  24
ENDBRANCH  22  23
ENDBRANCH  21  22
ENDBRANCH  20  21
ENDBRANCH  19  20
ENDBRANCH  18  19
ENDBRANCH  17  18
ENDBRANCH  16  17
ENDBRANCH  15  16
ENDBRANCH   1  15
TORSDOF 22
ENDMDL
MODEL 2
REMARK VINA RESULT:    -4.630      1.571      4.529
REMARK INTER + INTRA:         -14.438
REMARK INTER:                 -10.944
REMARK INTRA:                  -3.494
REMARK UNBOUND:                -3.854
REMARK SMILES CCCCCCCCCCCCCCCCCCCCCCCC(=O)[O-]
REMARK SMILES IDX 13 1 14 2 15 3 16 4 17 5 18 6 19 7 20 8 21 9 22 10 23 11
REMARK SMILES IDX 24 12 25 13 26 14 12 15 11 16 10 17 9 18 8 19 7 20 6 21 5 22
REMARK SMILES IDX 4 23 3 24 2 25 1 26
REMARK H PARENT
REMARK Flexibility Score: inf
ROOT
ATOM      1  C   UNL     1     -17.511  14.612 -17.782  1.00  0.00     0.000 C 
ENDROOT
BRANCH   1   2
ATOM      2  C   UNL     1     -18.783  14.073 -17.104  1.00  0.00     0.000 C 
BRANCH   2   3
ATOM      3  C   UNL     1     -18.995  12.572 -17.352  1.00  0.00     0.000 C 
BRANCH   3   4
ATOM      4  C   UNL     1     -18.547  11.707 -16.160  1.00  0.00     0.000 C 
BRANCH   4   5
ATOM      5  C   UNL     1     -17.057  11.326 -16.221  1.00  0.00     0.000 C 
BRANCH   5   6
ATOM      6  C   UNL     1     -16.248  11.673 -14.958  1.00  0.00     0.000 C 
BRANCH   6   7
ATOM      7  C   UNL     1     -16.979  12.647 -14.022  1.00  0.00     0.000 C 
BRANCH   7   8
ATOM      8  C   UNL     1     -16.438  14.073 -14.185  1.00  0.00     0.000 C 
BRANCH   8   9
ATOM      9  C   UNL     1     -16.621  14.883 -12.893  1.00  0.00     0.000 C 
BRANCH   9  10
ATOM     10  C   UNL     1     -16.708  16.394 -13.158  1.00  0.00     0.006 C 
BRANCH  10  11
ATOM     11  C   UNL     1     -17.321  16.715 -14.527  1.00  0.00     0.053 C 
BRANCH  11  12
ATOM     12  C   UNL     1     -18.614  17.448 -14.362  1.00  0.00     0.041 C 
ATOM     13  O   UNL     1     -19.023  17.762 -13.213  1.00  0.00    -0.550 OA
ATOM     14  O   UNL     1     -19.347  17.825 -15.480  1.00  0.00    -0.550 OA
ENDBRANCH  11  12
ENDBRANCH  10  11
ENDBRANCH   9  10
ENDBRANCH   8   9
ENDBRANCH   7   8
ENDBRANCH   6   7
ENDBRANCH   5   6
ENDBRANCH   4   5
ENDBRANCH   3   4
ENDBRANCH   2   3
ENDBRANCH   1   2
BRANCH   1  15
ATOM     15  C   UNL     1     -17.583  16.120 -18.065  1.00  0.00     0.000 C 
BRANCH  15  16
ATOM     16  C   UNL     1     -18.676  16.479 -19.082  1.00  0.00     0.000 C 
BRANCH  16  17
ATOM     17  C   UNL     1     -18.108  17.327 -20.229  1.00  0.00     0.000 C 
BRANCH  17  18
ATOM     18  C   UNL     1     -16.570  17.357 -20.244  1.00  0.00    -0.000 C 
BRANCH  18  19
ATOM     19  C   UNL     1     -15.942  16.592 -21.427  1.00  0.00    -0.000 C 
BRANCH  19  20
ATOM     20  C   UNL     1     -14.712  15.766 -21.006  1.00  0.00    -0.000 C 
BRANCH  20  21
ATOM     21  C   UNL     1     -13.615  16.627 -20.359  1.00  0.00    -0.000 C 
BRANCH  21  22
ATOM     22  C   UNL     1     -12.873  15.895 -19.231  1.00  0.00    -0.000 C 
BRANCH  22  23
ATOM     23  C   UNL     1     -13.859  15.378 -18.176  1.00  0.00    -0.000 C 
BRANCH  23  24
ATOM     24  C   UNL     1     -13.701  13.866 -17.964  1.00  0.00    -0.000 C 
BRANCH  24  25
ATOM     25  C   UNL     1     -13.438  13.500 -16.495  1.00  0.00    -0.003 C 
ATOM     26  C   UNL     1     -13.030  12.038 -16.312  1.00  0.00     0.004 C 
ENDBRANCH  24  25
ENDBRANCH  23  24
ENDBRANCH  22  23
ENDBRANCH  21  22
ENDBRANCH  20  21
ENDBRANCH  19  20
ENDBRANCH  18  19
ENDBRANCH  17  18
ENDBRANCH  16  17
ENDBRANCH  15  16
ENDBRANCH   1  15
TORSDOF 22
ENDMDL
MODEL 3
REMARK VINA RESULT:    -4.618     13.059     15.916
REMARK INTER + INTRA:         -14.412
REMARK INTER:                 -10.128
REMARK INTRA:                  -4.284
REMARK UNBOUND:                -3.854
REMARK SMILES CCCCCCCCCCCCCCCCCCCCCCCC(=O)[O-]
REMARK SMILES IDX 13 1 14 2 15 3 16 4 17 5 18 6 19 7 20 8 21 9 22 10 23 11
REMARK SMILES IDX 24 12 25 13 26 14 12 15 11 16 10 17 9 18 8 19 7 20 6 21 5 22
REMARK SMILES IDX 4 23 3 24 2 25 1 26
REMARK H PARENT
REMARK Flexibility Score: inf
ROOT
ATOM      1  C   UNL     1      -0.893  11.743 -12.079  1.00  0.00     0.000 C 
ENDROOT
BRANCH   1   2
ATOM      2  C   UNL     1      -0.264  12.957 -12.786  1.00  0.00     0.000 C 
BRANCH   2   3
ATOM      3  C   UNL     1      -0.203  14.200 -11.885  1.00  0.00     0.000 C 
BRANCH   3   4
ATOM      4  C   UNL     1      -1.014  15.379 -12.450  1.00  0.00     0.000 C 
BRANCH   4   5
ATOM      5  C   UNL     1      -2.499  15.335 -12.047  1.00  0.00     0.000 C 
BRANCH   5   6
ATOM      6  C   UNL     1      -3.485  15.722 -13.164  1.00  0.00     0.000 C 
BRANCH   6   7
ATOM      7  C   UNL     1      -4.417  14.571 -13.572  1.00  0.00     0.000 C 
BRANCH   7   8
ATOM      8  C   UNL     1      -3.640  13.475 -14.312  1.00  0.00     0.000 C 
BRANCH   8   9
ATOM      9  C   UNL     1      -4.114  12.078 -13.884  1.00  0.00     0.000 C 
BRANCH   9  10
ATOM     10  C   UNL     1      -3.431  10.958 -14.683  1.00  0.00     0.006 C 
BRANCH  10  11
ATOM     11  C   UNL     1      -3.914  10.898 -16.138  1.00  0.00     0.053 C 
BRANCH  11  12
ATOM     12  C   UNL     1      -2.921  10.169 -16.987  1.00  0.00     0.041 C 
ATOM     13  O   UNL     1      -3.290   9.206 -17.710  1.00  0.00    -0.550 OA
ATOM     14  O   UNL     1      -1.594  10.580 -17.014  1.00  0.00    -0.550 OA
ENDBRANCH  11  12
ENDBRANCH  10  11
ENDBRANCH   9  10
ENDBRANCH   8   9
ENDBRANCH   7   8
ENDBRANCH   6   7
ENDBRANCH   5   6
ENDBRANCH   4   5
ENDBRANCH   3   4
ENDBRANCH   2   3
ENDBRANCH   1   2
BRANCH   1  15
ATOM     15  C   UNL     1      -1.062  11.959 -10.568  1.00  0.00     0.000 C 
BRANCH  15  16
ATOM     16  C   UNL     1      -1.020  10.644  -9.775  1.00  0.00     0.000 C 
BRANCH  16  17
ATOM     17  C   UNL     1      -1.674  10.809  -8.396  1.00  0.00     0.000 C 
BRANCH  17  18
ATOM     18  C   UNL     1      -2.973   9.997  -8.250  1.00  0.00    -0.000 C 
BRANCH  18  19
ATOM     19  C   UNL     1      -3.177   8.942  -9.356  1.00  0.00    -0.000 C 
BRANCH  19  20
ATOM     20  C   UNL     1      -4.603   8.968  -9.938  1.00  0.00    -0.000 C 
BRANCH  20  21
ATOM     21  C   UNL     1      -4.837  10.162 -10.876  1.00  0.00    -0.000 C 
BRANCH  21  22
ATOM     22  C   UNL     1      -6.194  10.843 -10.644  1.00  0.00    -0.000 C 
BRANCH  22  23
ATOM     23  C   UNL     1      -6.010  12.216  -9.986  1.00  0.00    -0.000 C 
BRANCH  23  24
ATOM     24  C   UNL     1      -4.571  12.724 -10.156  1.00  0.00    -0.000 C 
BRANCH  24  25
ATOM     25  C   UNL     1      -4.273  13.955  -9.285  1.00  0.00    -0.003 C 
ATOM     26  C   UNL     1      -4.036  13.598  -7.818  1.00  0.00     0.004 C 
ENDBRANCH  24  25
ENDBRANCH  23  24
ENDBRANCH  22  23
ENDBRANCH  21  22
ENDBRANCH  20  21
ENDBRANCH  19  20
ENDBRANCH  18  19
ENDBRANCH  17  18
ENDBRANCH  16  17
ENDBRANCH  15  16
ENDBRANCH   1  15
TORSDOF 22
ENDMDL
MODEL 4
REMARK VINA RESULT:    -4.600      2.793      6.695
REMARK INTER + INTRA:         -14.370
REMARK INTER:                  -9.663
REMARK INTRA:                  -4.708
REMARK UNBOUND:                -3.854
REMARK SMILES CCCCCCCCCCCCCCCCCCCCCCCC(=O)[O-]
REMARK SMILES IDX 13 1 14 2 15 3 16 4 17 5 18 6 19 7 20 8 21 9 22 10 23 11
REMARK SMILES IDX 24 12 25 13 26 14 12 15 11 16 10 17 9 18 8 19 7 20 6 21 5 22
REMARK SMILES IDX 4 23 3 24 2 25 1 26
REMARK H PARENT
REMARK Flexibility Score: inf
ROOT
ATOM      1  C   UNL     1     -17.472  19.117 -18.334  1.00  0.00     0.000 C 
ENDROOT
BRANCH   1   2
ATOM      2  C   UNL     1     -18.637  18.898 -19.316  1.00  0.00     0.000 C 
BRANCH   2   3
ATOM      3  C   UNL     1     -18.273  17.939 -20.460  1.00  0.00     0.000 C 
BRANCH   3   4
ATOM      4  C   UNL     1     -17.323  16.816 -20.010  1.00  0.00     0.000 C 
BRANCH   4   5
ATOM      5  C   UNL     1     -16.037  16.743 -20.854  1.00  0.00     0.000 C 
BRANCH   5   6
ATOM      6  C   UNL     1     -14.775  16.328 -20.076  1.00  0.00     0.000 C 
BRANCH   6   7
ATOM      7  C   UNL     1     -15.076  15.405 -18.886  1.00  0.00     0.000 C 
BRANCH   7   8
ATOM      8  C   UNL     1     -14.166  15.732 -17.696  1.00  0.00     0.000 C 
BRANCH   8   9
ATOM      9  C   UNL     1     -14.628  17.013 -16.985  1.00  0.00     0.000 C 
BRANCH   9  10
ATOM     10  C   UNL     1     -13.499  18.047 -16.848  1.00  0.00     0.006 C 
BRANCH  10  11
ATOM     11  C   UNL     1     -13.945  19.459 -17.249  1.00  0.00     0.053 C 
BRANCH  11  12
ATOM     12  C   UNL     1     -12.834  20.437 -17.036  1.00  0.00     0.041 C 
ATOM     13  O   UNL     1     -11.709  20.246 -17.569  1.00  0.00    -0.550 OA
ATOM     14  O   UNL     1     -13.053  21.585 -16.284  1.00  0.00    -0.550 OA
ENDBRANCH  11  12
ENDBRANCH  10  11
ENDBRANCH   9  10
ENDBRANCH   8   9
ENDBRANCH   7   8
ENDBRANCH   6   7
ENDBRANCH   5   6
ENDBRANCH   4   5
ENDBRANCH   3   4
ENDBRANCH   2   3
ENDBRANCH   1   2
BRANCH   1  15
ATOM     15  C   UNL     1     -17.826  18.711 -16.896  1.00  0.00     0.000 C 
BRANCH  15  16
ATOM     16  C   UNL     1     -19.276  18.222 -16.758  1.00  0.00     0.000 C 
BRANCH  16  17
ATOM     17  C   UNL     1     -19.328  16.801 -16.179  1.00  0.00     0.000 C 
BRANCH  17  18
ATOM     18  C   UNL     1     -18.042  16.000 -16.443  1.00  0.00    -0.000 C 
BRANCH  18  19
ATOM     19  C   UNL     1     -18.293  14.542 -16.879  1.00  0.00    -0.000 C 
BRANCH  19  20
ATOM     20  C   UNL     1     -17.224  13.574 -16.337  1.00  0.00    -0.000 C 
BRANCH  20  21
ATOM     21  C   UNL     1     -16.335  14.218 -15.261  1.00  0.00    -0.000 C 
BRANCH  21  22
ATOM     22  C   UNL     1     -16.759  13.835 -13.835  1.00  0.00    -0.000 C 
BRANCH  22  23
ATOM     23  C   UNL     1     -16.646  15.039 -12.891  1.00  0.00    -0.000 C 
BRANCH  23  24
ATOM     24  C   UNL     1     -15.757  16.135 -13.495  1.00  0.00    -0.000 C 
BRANCH  24  25
ATOM     25  C   UNL     1     -16.417  17.522 -13.449  1.00  0.00    -0.003 C 
ATOM     26  C   UNL     1     -17.817  17.492 -12.837  1.00  0.00     0.004 C 
ENDBRANCH  24  25
ENDBRANCH  23  24
ENDBRANCH  22  23
ENDBRANCH  21  22
ENDBRANCH  20  21
ENDBRANCH  19  20
ENDBRANCH  18  19
ENDBRANCH  17  18
ENDBRANCH  16  17
ENDBRANCH  15  16
ENDBRANCH   1  15
TORSDOF 22
ENDMDL
MODEL 5
REMARK VINA RESULT:    -4.585     12.030     15.313
REMARK INTER + INTRA:         -14.335
REMARK INTER:                 -10.299
REMARK INTRA:                  -4.036
REMARK UNBOUND:                -3.854
REMARK SMILES CCCCCCCCCCCCCCCCCCCCCCCC(=O)[O-]
REMARK SMILES IDX 13 1 14 2 15 3 16 4 17 5 18 6 19 7 20 8 21 9 22 10 23 11
REMARK SMILES IDX 24 12 25 13 26 14 12 15 11 16 10 17 9 18 8 19 7 20 6 21 5 22
REMARK SMILES IDX 4 23 3 24 2 25 1 26
REMARK H PARENT
REMARK Flexibility Score: inf
ROOT
ATOM      1  C   UNL     1      -2.546   9.376  -9.724  1.00  0.00     0.000 C 
ENDROOT
BRANCH   1   2
ATOM      2  C   UNL     1      -1.874   9.935  -8.457  1.00  0.00     0.000 C 
BRANCH   2   3
ATOM      3  C   UNL     1      -0.699  10.872  -8.775  1.00  0.00     0.000 C 
BRANCH   3   4
ATOM      4  C   UNL     1      -0.612  11.225 -10.271  1.00  0.00     0.000 C 
BRANCH   4   5
ATOM      5  C   UNL     1      -0.762  12.732 -10.543  1.00  0.00     0.000 C 
BRANCH   5   6
ATOM      6  C   UNL     1      -1.401  13.085 -11.898  1.00  0.00     0.000 C 
BRANCH   6   7
ATOM      7  C   UNL     1      -1.448  14.597 -12.167  1.00  0.00     0.000 C 
BRANCH   7   8
ATOM      8  C   UNL     1      -2.881  15.054 -12.469  1.00  0.00     0.000 C 
BRANCH   8   9
ATOM      9  C   UNL     1      -3.214  14.874 -13.958  1.00  0.00     0.000 C 
BRANCH   9  10
ATOM     10  C   UNL     1      -4.357  13.872 -14.185  1.00  0.00     0.006 C 
BRANCH  10  11
ATOM     11  C   UNL     1      -3.944  12.710 -15.098  1.00  0.00     0.053 C 
BRANCH  11  12
ATOM     12  C   UNL     1      -5.151  11.962 -15.568  1.00  0.00     0.041 C 
ATOM     13  O   UNL     1      -5.958  11.471 -14.736  1.00  0.00    -0.550 OA
ATOM     14  O   UNL     1      -5.409  11.845 -16.929  1.00  0.00    -0.550 OA
ENDBRANCH  11  12
ENDBRANCH  10  11
ENDBRANCH   9  10
ENDBRANCH   8   9
ENDBRANCH   7   8
ENDBRANCH   6   7
ENDBRANCH   5   6
ENDBRANCH   4   5
ENDBRANCH   3   4
ENDBRANCH   2   3
ENDBRANCH   1   2
BRANCH   1  15
ATOM     15  C   UNL     1      -3.967   8.857  -9.462  1.00  0.00     0.000 C 
BRANCH  15  16
ATOM     16  C   UNL     1      -5.040   9.674 -10.198  1.00  0.00     0.000 C 
BRANCH  16  17
ATOM     17  C   UNL     1      -4.418  10.524 -11.315  1.00  0.00     0.000 C 
BRANCH  17  18
ATOM     18  C   UNL     1      -4.912  11.981 -11.302  1.00  0.00    -0.000 C 
BRANCH  18  19
ATOM     19  C   UNL     1      -5.277  12.504  -9.897  1.00  0.00    -0.000 C 
BRANCH  19  20
ATOM     20  C   UNL     1      -4.124  13.289  -9.244  1.00  0.00    -0.000 C 
BRANCH  20  21
ATOM     21  C   UNL     1      -4.020  13.037  -7.731  1.00  0.00    -0.000 C 
BRANCH  21  22
ATOM     22  C   UNL     1      -4.430  14.260  -6.897  1.00  0.00    -0.000 C 
BRANCH  22  23
ATOM     23  C   UNL     1      -5.920  14.199  -6.537  1.00  0.00    -0.000 C 
BRANCH  23  24
ATOM     24  C   UNL     1      -6.715  15.278  -7.286  1.00  0.00    -0.000 C 
BRANCH  24  25
ATOM     25  C   UNL     1      -7.809  14.685  -8.187  1.00  0.00    -0.003 C 
ATOM     26  C   UNL     1      -8.187  13.256  -7.798  1.00  0.00     0.004 C 
ENDBRANCH  24  25
ENDBRANCH  23  24
ENDBRANCH  22  23
ENDBRANCH  21  22
ENDBRANCH  20  21
ENDBRANCH  19  20
ENDBRANCH  18  19
ENDBRANCH  17  18
ENDBRANCH  16  17
ENDBRANCH  15  16
ENDBRANCH   1  15
TORSDOF 22
ENDMDL
MODEL 6
REMARK VINA RESULT:    -4.583      3.054      6.769
REMARK INTER + INTRA:         -14.331
REMARK INTER:                 -10.061
REMARK INTRA:                  -4.270
REMARK UNBOUND:                -3.854
REMARK SMILES CCCCCCCCCCCCCCCCCCCCCCCC(=O)[O-]
REMARK SMILES IDX 13 1 14 2 15 3 16 4 17 5 18 6 19 7 20 8 21 9 22 10 23 11
REMARK SMILES IDX 24 12 25 13 26 14 12 15 11 16 10 17 9 18 8 19 7 20 6 21 5 22
REMARK SMILES IDX 4 23 3 24 2 25 1 26
REMARK H PARENT
REMARK Flexibility Score: inf
ROOT
ATOM      1  C   UNL     1     -19.801  18.267 -17.326  1.00  0.00     0.000 C 
ENDROOT
BRANCH   1   2
ATOM      2  C   UNL     1     -20.028  17.260 -18.467  1.00  0.00     0.000 C 
BRANCH   2   3
ATOM      3  C   UNL     1     -19.680  17.841 -19.846  1.00  0.00     0.000 C 
BRANCH   3   4
ATOM      4  C   UNL     1     -18.957  19.196 -19.752  1.00  0.00     0.000 C 
BRANCH   4   5
ATOM      5  C   UNL     1     -17.500  19.136 -20.245  1.00  0.00     0.000 C 
BRANCH   5   6
ATOM      6  C   UNL     1     -16.826  17.759 -20.106  1.00  0.00     0.000 C 
BRANCH   6   7
ATOM      7  C   UNL     1     -15.665  17.754 -19.101  1.00  0.00     0.000 C 
BRANCH   7   8
ATOM      8  C   UNL     1     -16.188  17.689 -17.661  1.00  0.00     0.000 C 
BRANCH   8   9
ATOM      9  C   UNL     1     -16.030  19.044 -16.955  1.00  0.00     0.000 C 
BRANCH   9  10
ATOM     10  C   UNL     1     -14.821  19.837 -17.475  1.00  0.00     0.006 C 
BRANCH  10  11
ATOM     11  C   UNL     1     -15.019  21.354 -17.356  1.00  0.00     0.053 C 
BRANCH  11  12
ATOM     12  C   UNL     1     -13.860  21.977 -16.645  1.00  0.00     0.041 C 
ATOM     13  O   UNL     1     -12.983  21.254 -16.104  1.00  0.00    -0.550 OA
ATOM     14  O   UNL     1     -13.724  23.360 -16.617  1.00  0.00    -0.550 OA
ENDBRANCH  11  12
ENDBRANCH  10  11
ENDBRANCH   9  10
ENDBRANCH   8   9
ENDBRANCH   7   8
ENDBRANCH   6   7
ENDBRANCH   5   6
ENDBRANCH   4   5
ENDBRANCH   3   4
ENDBRANCH   2   3
ENDBRANCH   1   2
BRANCH   1  15
ATOM     15  C   UNL     1     -20.086  17.668 -15.941  1.00  0.00     0.000 C 
BRANCH  15  16
ATOM     16  C   UNL     1     -18.833  17.606 -15.054  1.00  0.00     0.000 C 
BRANCH  16  17
ATOM     17  C   UNL     1     -18.264  16.181 -14.999  1.00  0.00     0.000 C 
BRANCH  17  18
ATOM     18  C   UNL     1     -17.162  16.017 -13.939  1.00  0.00    -0.000 C 
BRANCH  18  19
ATOM     19  C   UNL     1     -16.790  17.329 -13.218  1.00  0.00    -0.000 C 
BRANCH  19  20
ATOM     20  C   UNL     1     -15.408  17.862 -13.641  1.00  0.00    -0.000 C 
BRANCH  20  21
ATOM     21  C   UNL     1     -14.403  16.735 -13.926  1.00  0.00    -0.000 C 
BRANCH  21  22
ATOM     22  C   UNL     1     -13.393  17.104 -15.022  1.00  0.00    -0.000 C 
BRANCH  22  23
ATOM     23  C   UNL     1     -13.303  15.994 -16.077  1.00  0.00    -0.000 C 
BRANCH  23  24
ATOM     24  C   UNL     1     -14.432  14.969 -15.901  1.00  0.00    -0.000 C 
BRANCH  24  25
ATOM     25  C   UNL     1     -14.357  13.827 -16.926  1.00  0.00    -0.003 C 
ATOM     26  C   UNL     1     -14.001  14.314 -18.331  1.00  0.00     0.004 C 
ENDBRANCH  24  25
ENDBRANCH  23  24
ENDBRANCH  22  23
ENDBRANCH  21  22
ENDBRANCH  20  21
ENDBRANCH  19  20
ENDBRANCH  18  19
ENDBRANCH  17  18
ENDBRANCH  16  17
ENDBRANCH  15  16
ENDBRANCH   1  15
TORSDOF 22
ENDMDL
MODEL 7
REMARK VINA RESULT:    -4.571      2.854      6.530
REMARK INTER + INTRA:         -14.303
REMARK INTER:                  -9.935
REMARK INTRA:                  -4.368
REMARK UNBOUND:                -3.854
REMARK SMILES CCCCCCCCCCCCCCCCCCCCCCCC(=O)[O-]
REMARK SMILES IDX 13 1 14 2 15 3 16 4 17 5 18 6 19 7 20 8 21 9 22 10 23 11
REMARK SMILES IDX 24 12 25 13 26 14 12 15 11 16 10 17 9 18 8 19 7 20 6 21 5 22
REMARK SMILES IDX 4 23 3 24 2 25 1 26
REMARK H PARENT
REMARK Flexibility Score: inf
ROOT
ATOM      1  C   UNL     1     -18.191  17.509 -17.890  1.00  0.00     0.000 C 
ENDROOT
BRANCH   1   2
ATOM      2  C   UNL     1     -18.434  16.554 -19.073  1.00  0.00     0.000 C 
BRANCH   2   3
ATOM      3  C   UNL     1     -17.983  17.148 -20.415  1.00  0.00     0.000 C 
BRANCH   3   4
ATOM      4  C   UNL     1     -16.537  17.674 -20.374  1.00  0.00     0.000 C 
BRANCH   4   5
ATOM      5  C   UNL     1     -15.489  16.547 -20.342  1.00  0.00     0.000 C 
BRANCH   5   6
ATOM      6  C   UNL     1     -14.140  16.935 -19.709  1.00  0.00     0.000 C 
BRANCH   6   7
ATOM      7  C   UNL     1     -13.888  16.248 -18.359  1.00  0.00     0.000 C 
BRANCH   7   8
ATOM      8  C   UNL     1     -13.688  17.286 -17.247  1.00  0.00     0.000 C 
BRANCH   8   9
ATOM      9  C   UNL     1     -15.025  17.924 -16.842  1.00  0.00     0.000 C 
BRANCH   9  10
ATOM     10  C   UNL     1     -14.845  19.325 -16.236  1.00  0.00     0.006 C 
BRANCH  10  11
ATOM     11  C   UNL     1     -14.826  20.427 -17.303  1.00  0.00     0.053 C 
BRANCH  11  12
ATOM     12  C   UNL     1     -13.505  21.128 -17.305  1.00  0.00     0.041 C 
ATOM     13  O   UNL     1     -13.364  22.217 -16.689  1.00  0.00    -0.550 OA
ATOM     14  O   UNL     1     -12.416  20.556 -17.952  1.00  0.00    -0.550 OA
ENDBRANCH  11  12
ENDBRANCH  10  11
ENDBRANCH   9  10
ENDBRANCH   8   9
ENDBRANCH   7   8
ENDBRANCH   6   7
ENDBRANCH   5   6
ENDBRANCH   4   5
ENDBRANCH   3   4
ENDBRANCH   2   3
ENDBRANCH   1   2
BRANCH   1  15
ATOM     15  C   UNL     1     -18.877  17.040 -16.599  1.00  0.00     0.000 C 
BRANCH  15  16
ATOM     16  C   UNL     1     -18.525  17.920 -15.390  1.00  0.00     0.000 C 
BRANCH  16  17
ATOM     17  C   UNL     1     -19.041  17.298 -14.084  1.00  0.00     0.000 C 
BRANCH  17  18
ATOM     18  C   UNL     1     -17.995  17.321 -12.957  1.00  0.00    -0.000 C 
BRANCH  18  19
ATOM     19  C   UNL     1     -16.558  17.599 -13.444  1.00  0.00    -0.000 C 
BRANCH  19  20
ATOM     20  C   UNL     1     -15.690  16.327 -13.473  1.00  0.00    -0.000 C 
BRANCH  20  21
ATOM     21  C   UNL     1     -16.481  15.063 -13.100  1.00  0.00    -0.000 C 
BRANCH  21  22
ATOM     22  C   UNL     1     -16.747  14.152 -14.306  1.00  0.00    -0.000 C 
BRANCH  22  23
ATOM     23  C   UNL     1     -15.902  14.582 -15.512  1.00  0.00    -0.000 C 
BRANCH  23  24
ATOM     24  C   UNL     1     -16.588  14.203 -16.832  1.00  0.00    -0.000 C 
BRANCH  24  25
ATOM     25  C   UNL     1     -17.578  13.039 -16.671  1.00  0.00    -0.003 C 
ATOM     26  C   UNL     1     -18.906  13.287 -17.387  1.00  0.00     0.004 C 
ENDBRANCH  24  25
ENDBRANCH  23  24
ENDBRANCH  22  23
ENDBRANCH  21  22
ENDBRANCH  20  21
ENDBRANCH  19  20
ENDBRANCH  18  19
ENDBRANCH  17  18
ENDBRANCH  16  17
ENDBRANCH  15  16
ENDBRANCH   1  15
TORSDOF 22
ENDMDL
MODEL 8
REMARK VINA RESULT:    -4.571      3.291      5.787
REMARK INTER + INTRA:         -14.303
REMARK INTER:                  -9.980
REMARK INTRA:                  -4.323
REMARK UNBOUND:                -3.854
REMARK SMILES CCCCCCCCCCCCCCCCCCCCCCCC(=O)[O-]
REMARK SMILES IDX 13 1 14 2 15 3 16 4 17 5 18 6 19 7 20 8 21 9 22 10 23 11
REMARK SMILES IDX 24 12 25 13 26 14 12 15 11 16 10 17 9 18 8 19 7 20 6 21 5 22
REMARK SMILES IDX 4 23 3 24 2 25 1 26
REMARK H PARENT
REMARK Flexibility Score: inf
ROOT
ATOM      1  C   UNL     1     -12.254  20.256 -14.837  1.00  0.00     0.000 C 
ENDROOT
BRANCH   1   2
ATOM      2  C   UNL     1     -12.015  18.799 -14.405  1.00  0.00     0.000 C 
BRANCH   2   3
ATOM      3  C   UNL     1     -13.138  17.855 -14.860  1.00  0.00     0.000 C 
BRANCH   3   4
ATOM      4  C   UNL     1     -14.400  17.974 -13.988  1.00  0.00     0.000 C 
BRANCH   4   5
ATOM      5  C   UNL     1     -15.563  17.099 -14.490  1.00  0.00     0.000 C 
BRANCH   5   6
ATOM      6  C   UNL     1     -16.966  17.609 -14.114  1.00  0.00     0.000 C 
BRANCH   6   7
ATOM      7  C   UNL     1     -18.085  16.958 -14.940  1.00  0.00     0.000 C 
BRANCH   7   8
ATOM      8  C   UNL     1     -17.540  16.409 -16.264  1.00  0.00     0.000 C 
BRANCH   8   9
ATOM      9  C   UNL     1     -18.283  15.131 -16.679  1.00  0.00     0.000 C 
BRANCH   9  10
ATOM     10  C   UNL     1     -17.323  13.990 -17.052  1.00  0.00     0.006 C 
BRANCH  10  11
ATOM     11  C   UNL     1     -16.851  13.198 -15.826  1.00  0.00     0.053 C 
BRANCH  11  12
ATOM     12  C   UNL     1     -17.105  11.737 -16.019  1.00  0.00     0.041 C 
ATOM     13  O   UNL     1     -18.275  11.280 -15.936  1.00  0.00    -0.550 OA
ATOM     14  O   UNL     1     -16.054  10.885 -16.336  1.00  0.00    -0.550 OA
ENDBRANCH  11  12
ENDBRANCH  10  11
ENDBRANCH   9  10
ENDBRANCH   8   9
ENDBRANCH   7   8
ENDBRANCH   6   7
ENDBRANCH   5   6
ENDBRANCH   4   5
ENDBRANCH   3   4
ENDBRANCH   2   3
ENDBRANCH   1   2
BRANCH   1  15
ATOM     15  C   UNL     1     -12.658  20.379 -16.313  1.00  0.00     0.000 C 
BRANCH  15  16
ATOM     16  C   UNL     1     -13.446  21.665 -16.606  1.00  0.00     0.000 C 
BRANCH  16  17
ATOM     17  C   UNL     1     -14.751  21.355 -17.354  1.00  0.00     0.000 C 
BRANCH  17  18
ATOM     18  C   UNL     1     -15.401  20.037 -16.900  1.00  0.00    -0.000 C 
BRANCH  18  19
ATOM     19  C   UNL     1     -16.874  19.886 -17.335  1.00  0.00    -0.000 C 
BRANCH  19  20
ATOM     20  C   UNL     1     -17.018  19.648 -18.850  1.00  0.00    -0.000 C 
BRANCH  20  21
ATOM     21  C   UNL     1     -18.107  18.617 -19.185  1.00  0.00    -0.000 C 
BRANCH  21  22
ATOM     22  C   UNL     1     -17.567  17.421 -19.983  1.00  0.00    -0.000 C 
BRANCH  22  23
ATOM     23  C   UNL     1     -16.037  17.469 -20.069  1.00  0.00    -0.000 C 
BRANCH  23  24
ATOM     24  C   UNL     1     -15.400  16.318 -19.278  1.00  0.00    -0.000 C 
BRANCH  24  25
ATOM     25  C   UNL     1     -14.327  16.804 -18.290  1.00  0.00    -0.003 C 
ATOM     26  C   UNL     1     -13.344  17.791 -18.920  1.00  0.00     0.004 C 
ENDBRANCH  24  25
ENDBRANCH  23  24
ENDBRANCH  22  23
ENDBRANCH  21  22
ENDBRANCH  20  21
ENDBRANCH  19  20
ENDBRANCH  18  19
ENDBRANCH  17  18
ENDBRANCH  16  17
ENDBRANCH  15  16
ENDBRANCH   1  15
TORSDOF 22
ENDMDL
MODEL 9
REMARK VINA RESULT:    -4.567      2.668      5.584
REMARK INTER + INTRA:         -14.295
REMARK INTER:                 -10.305
REMARK INTRA:                  -3.990
REMARK UNBOUND:                -3.854
REMARK SMILES CCCCCCCCCCCCCCCCCCCCCCCC(=O)[O-]
REMARK SMILES IDX 13 1 14 2 15 3 16 4 17 5 18 6 19 7 20 8 21 9 22 10 23 11
REMARK SMILES IDX 24 12 25 13 26 14 12 15 11 16 10 17 9 18 8 19 7 20 6 21 5 22
REMARK SMILES IDX 4 23 3 24 2 25 1 26
REMARK H PARENT
REMARK Flexibility Score: inf
ROOT
ATOM      1  C   UNL     1     -17.682  18.466 -16.663  1.00  0.00     0.000 C 
ENDROOT
BRANCH   1   2
ATOM      2  C   UNL     1     -19.045  17.986 -16.134  1.00  0.00     0.000 C 
BRANCH   2   3
ATOM      3  C   UNL     1     -18.911  16.942 -15.014  1.00  0.00     0.000 C 
BRANCH   3   4
ATOM      4  C   UNL     1     -18.937  17.574 -13.611  1.00  0.00     0.000 C 
BRANCH   4   5
ATOM      5  C   UNL     1     -17.557  17.580 -12.929  1.00  0.00     0.000 C 
BRANCH   5   6
ATOM      6  C   UNL     1     -16.953  16.186 -12.678  1.00  0.00     0.000 C 
BRANCH   6   7
ATOM      7  C   UNL     1     -15.701  15.910 -13.524  1.00  0.00     0.000 C 
BRANCH   7   8
ATOM      8  C   UNL     1     -15.958  14.782 -14.530  1.00  0.00     0.000 C 
BRANCH   8   9
ATOM      9  C   UNL     1     -15.645  15.240 -15.963  1.00  0.00     0.000 C 
BRANCH   9  10
ATOM     10  C   UNL     1     -16.070  14.203 -17.015  1.00  0.00     0.006 C 
BRANCH  10  11
ATOM     11  C   UNL     1     -17.575  14.253 -17.311  1.00  0.00     0.053 C 
BRANCH  11  12
ATOM     12  C   UNL     1     -18.205  12.925 -17.033  1.00  0.00     0.041 C 
ATOM     13  O   UNL     1     -19.279  12.600 -17.603  1.00  0.00    -0.550 OA
ATOM     14  O   UNL     1     -17.582  12.026 -16.176  1.00  0.00    -0.550 OA
ENDBRANCH  11  12
ENDBRANCH  10  11
ENDBRANCH   9  10
ENDBRANCH   8   9
ENDBRANCH   7   8
ENDBRANCH   6   7
ENDBRANCH   5   6
ENDBRANCH   4   5
ENDBRANCH   3   4
ENDBRANCH   2   3
ENDBRANCH   1   2
BRANCH   1  15
ATOM     15  C   UNL     1     -17.280  17.779 -17.975  1.00  0.00     0.000 C 
BRANCH  15  16
ATOM     16  C   UNL     1     -16.914  18.782 -19.080  1.00  0.00     0.000 C 
BRANCH  16  17
ATOM     17  C   UNL     1     -16.761  18.079 -20.437  1.00  0.00     0.000 C 
BRANCH  17  18
ATOM     18  C   UNL     1     -16.480  16.573 -20.301  1.00  0.00    -0.000 C 
BRANCH  18  19
ATOM     19  C   UNL     1     -15.254  16.092 -21.104  1.00  0.00    -0.000 C 
BRANCH  19  20
ATOM     20  C   UNL     1     -14.050  15.765 -20.200  1.00  0.00    -0.000 C 
BRANCH  20  21
ATOM     21  C   UNL     1     -12.911  16.787 -20.341  1.00  0.00    -0.000 C 
BRANCH  21  22
ATOM     22  C   UNL     1     -12.978  17.900 -19.284  1.00  0.00    -0.000 C 
BRANCH  22  23
ATOM     23  C   UNL     1     -13.579  17.373 -17.975  1.00  0.00    -0.000 C 
BRANCH  23  24
ATOM     24  C   UNL     1     -13.641  18.478 -16.911  1.00  0.00    -0.000 C 
BRANCH  24  25
ATOM     25  C   UNL     1     -12.577  19.566 -17.125  1.00  0.00    -0.003 C 
ATOM     26  C   UNL     1     -12.466  20.527 -15.942  1.00  0.00     0.004 C 
ENDBRANCH  24  25
ENDBRANCH  23  24
ENDBRANCH  22  23
ENDBRANCH  21  22
ENDBRANCH  20  21
ENDBRANCH  19  20
ENDBRANCH  18  19
ENDBRANCH  17  18
ENDBRANCH  16  17
ENDBRANCH  15  16
ENDBRANCH   1  15
TORSDOF 22
ENDMDL
