MODEL 1
REMARK VINA RESULT:    -5.871      0.000      0.000
REMARK INTER + INTRA:         -12.653
REMARK INTER:                 -11.362
REMARK INTRA:                  -1.292
REMARK UNBOUND:                -1.292
REMARK SMILES CCCCCCCCCCCCCCCCCC(=O)[O-]
REMARK SMILES IDX 10 1 11 2 12 3 13 4 14 5 15 6 16 7 17 8 18 9 19 10 20 11
REMARK SMILES IDX 9 12 8 13 7 14 6 15 5 16 4 17 3 18 2 19 1 20
REMARK H PARENT
REMARK Flexibility Score: inf
ROOT
ATOM      1  C   UNL     1     -10.616  -1.796  -8.895  1.00  0.00     0.000 C 
ENDROOT
BRANCH   1   2
ATOM      2  C   UNL     1      -9.917  -2.501 -10.063  1.00  0.00     0.000 C 
BRANCH   2   3
ATOM      3  C   UNL     1     -10.103  -4.024  -9.977  1.00  0.00     0.000 C 
BRANCH   3   4
ATOM      4  C   UNL     1     -11.083  -4.439  -8.867  1.00  0.00     0.000 C 
BRANCH   4   5
ATOM      5  C   UNL     1     -10.383  -5.163  -7.704  1.00  0.00     0.000 C 
BRANCH   5   6
ATOM      6  C   UNL     1     -11.064  -4.903  -6.349  1.00  0.00     0.000 C 
BRANCH   6   7
ATOM      7  C   UNL     1     -11.239  -6.182  -5.516  1.00  0.00     0.006 C 
BRANCH   7   8
ATOM      8  C   UNL     1     -12.715  -6.582  -5.431  1.00  0.00     0.053 C 
BRANCH   8   9
ATOM      9  C   UNL     1     -13.244  -6.923  -6.789  1.00  0.00     0.041 C 
ATOM     10  O   UNL     1     -14.196  -6.264  -7.282  1.00  0.00    -0.550 OA
ATOM     11  O   UNL     1     -12.717  -8.002  -7.489  1.00  0.00    -0.550 OA
ENDBRANCH   8   9
ENDBRANCH   7   8
ENDBRANCH   6   7
ENDBRANCH   5   6
ENDBRANCH   4   5
ENDBRANCH   3   4
ENDBRANCH   2   3
ENDBRANCH   1   2
BRANCH   1  12
ATOM     12  C   UNL     1     -11.257  -0.477  -9.352  1.00  0.00     0.000 C 
BRANCH  12  13
ATOM     13  C   UNL     1     -12.126  -0.647 -10.608  1.00  0.00    -0.000 C 
BRANCH  13  14
ATOM     14  C   UNL     1     -13.549  -1.136 -10.281  1.00  0.00    -0.000 C 
BRANCH  14  15
ATOM     15  C   UNL     1     -14.627  -0.096 -10.627  1.00  0.00    -0.000 C 
BRANCH  15  16
ATOM     16  C   UNL     1     -15.035   0.756  -9.413  1.00  0.00    -0.000 C 
BRANCH  16  17
ATOM     17  C   UNL     1     -14.612   2.227  -9.558  1.00  0.00    -0.000 C 
BRANCH  17  18
ATOM     18  C   UNL     1     -13.120   2.449  -9.255  1.00  0.00    -0.000 C 
BRANCH  18  19
ATOM     19  C   UNL     1     -12.810   3.900  -8.856  1.00  0.00    -0.003 C 
ATOM     20  C   UNL     1     -13.433   4.290  -7.515  1.00  0.00     0.004 C 
ENDBRANCH  18  19
ENDBRANCH  17  18
ENDBRANCH  16  17
ENDBRANCH  15  16
ENDBRANCH  14  15
ENDBRANCH  13  14
ENDBRANCH  12  13
ENDBRANCH   1  12
TORSDOF 16
ENDMDL
MODEL 2
REMARK VINA RESULT:    -5.658      1.385      1.718
REMARK INTER + INTRA:         -12.241
REMARK INTER:                 -11.122
REMARK INTRA:                  -1.119
REMARK UNBOUND:                -1.292
REMARK SMILES CCCCCCCCCCCCCCCCCC(=O)[O-]
REMARK SMILES IDX 10 1 11 2 12 3 13 4 14 5 15 6 16 7 17 8 18 9 19 10 20 11
REMARK SMILES IDX 9 12 8 13 7 14 6 15 5 16 4 17 3 18 2 19 1 20
REMARK H PARENT
REMARK Flexibility Score: inf
ROOT
ATOM      1  C   UNL     1     -10.625  -2.102  -9.601  1.00  0.00     0.000 C 
ENDROOT
BRANCH   1   2
ATOM      2  C   UNL     1     -10.114  -2.469  -8.202  1.00  0.00     0.000 C 
BRANCH   2   3
ATOM      3  C   UNL     1     -10.678  -3.823  -7.747  1.00  0.00     0.000 C 
BRANCH   3   4
ATOM      4  C   UNL     1      -9.820  -5.010  -8.218  1.00  0.00     0.000 C 
BRANCH   4   5
ATOM      5  C   UNL     1     -10.598  -5.974  -9.131  1.00  0.00     0.000 C 
BRANCH   5   6
ATOM      6  C   UNL     1     -11.597  -6.849  -8.355  1.00  0.00     0.000 C 
BRANCH   6   7
ATOM      7  C   UNL     1     -10.933  -8.067  -7.693  1.00  0.00     0.006 C 
BRANCH   7   8
ATOM      8  C   UNL     1     -10.727  -7.830  -6.194  1.00  0.00     0.053 C 
BRANCH   8   9
ATOM      9  C   UNL     1     -11.961  -7.246  -5.581  1.00  0.00     0.041 C 
ATOM     10  O   UNL     1     -13.025  -7.916  -5.538  1.00  0.00    -0.550 OA
ATOM     11  O   UNL     1     -11.948  -5.942  -5.102  1.00  0.00    -0.550 OA
ENDBRANCH   8   9
ENDBRANCH   7   8
ENDBRANCH   6   7
ENDBRANCH   5   6
ENDBRANCH   4   5
ENDBRANCH   3   4
ENDBRANCH   2   3
ENDBRANCH   1   2
BRANCH   1  12
ATOM     12  C   UNL     1     -11.393  -0.773  -9.576  1.00  0.00     0.000 C 
BRANCH  12  13
ATOM     13  C   UNL     1     -12.376  -0.637 -10.749  1.00  0.00    -0.000 C 
BRANCH  13  14
ATOM     14  C   UNL     1     -13.790  -1.131 -10.396  1.00  0.00    -0.000 C 
BRANCH  14  15
ATOM     15  C   UNL     1     -14.848  -0.018 -10.490  1.00  0.00    -0.000 C 
BRANCH  15  16
ATOM     16  C   UNL     1     -14.789   0.954  -9.299  1.00  0.00    -0.000 C 
BRANCH  16  17
ATOM     17  C   UNL     1     -14.271   2.345  -9.699  1.00  0.00    -0.000 C 
BRANCH  17  18
ATOM     18  C   UNL     1     -12.803   2.571  -9.297  1.00  0.00    -0.000 C 
BRANCH  18  19
ATOM     19  C   UNL     1     -12.597   3.889  -8.535  1.00  0.00    -0.003 C 
ATOM     20  C   UNL     1     -13.770   4.228  -7.615  1.00  0.00     0.004 C 
ENDBRANCH  18  19
ENDBRANCH  17  18
ENDBRANCH  16  17
ENDBRANCH  15  16
ENDBRANCH  14  15
ENDBRANCH  13  14
ENDBRANCH  12  13
ENDBRANCH   1  12
TORSDOF 16
ENDMDL
MODEL 3
REMARK VINA RESULT:    -5.642      3.717      8.084
REMARK INTER + INTRA:         -12.211
REMARK INTER:                 -10.723
REMARK INTRA:                  -1.488
REMARK UNBOUND:                -1.292
REMARK SMILES CCCCCCCCCCCCCCCCCC(=O)[O-]
REMARK SMILES IDX 10 1 11 2 12 3 13 4 14 5 15 6 16 7 17 8 18 9 19 10 20 11
REMARK SMILES IDX 9 12 8 13 7 14 6 15 5 16 4 17 3 18 2 19 1 20
REMARK H PARENT
REMARK Flexibility Score: inf
ROOT
ATOM      1  C   UNL     1     -10.594  -1.973  -8.503  1.00  0.00     0.000 C 
ENDROOT
BRANCH   1   2
ATOM      2  C   UNL     1     -10.953  -1.897  -9.992  1.00  0.00     0.000 C 
BRANCH   2   3
ATOM      3  C   UNL     1     -12.019  -0.821 -10.247  1.00  0.00     0.000 C 
BRANCH   3   4
ATOM      4  C   UNL     1     -13.434  -1.408 -10.376  1.00  0.00     0.000 C 
BRANCH   4   5
ATOM      5  C   UNL     1     -14.482  -0.343 -10.744  1.00  0.00     0.000 C 
BRANCH   5   6
ATOM      6  C   UNL     1     -14.950   0.474  -9.528  1.00  0.00     0.000 C 
BRANCH   6   7
ATOM      7  C   UNL     1     -14.596   1.965  -9.641  1.00  0.00     0.006 C 
BRANCH   7   8
ATOM      8  C   UNL     1     -13.133   2.211  -9.260  1.00  0.00     0.053 C 
BRANCH   8   9
ATOM      9  C   UNL     1     -12.954   3.603  -8.739  1.00  0.00     0.041 C 
ATOM     10  O   UNL     1     -11.850   4.192  -8.872  1.00  0.00    -0.550 OA
ATOM     11  O   UNL     1     -13.993   4.230  -8.062  1.00  0.00    -0.550 OA
ENDBRANCH   8   9
ENDBRANCH   7   8
ENDBRANCH   6   7
ENDBRANCH   5   6
ENDBRANCH   4   5
ENDBRANCH   3   4
ENDBRANCH   2   3
ENDBRANCH   1   2
BRANCH   1  12
ATOM     12  C   UNL     1     -10.456  -3.432  -8.044  1.00  0.00     0.000 C 
BRANCH  12  13
ATOM     13  C   UNL     1     -11.337  -4.393  -8.857  1.00  0.00    -0.000 C 
BRANCH  13  14
ATOM     14  C   UNL     1     -10.626  -5.721  -9.174  1.00  0.00    -0.000 C 
BRANCH  14  15
ATOM     15  C   UNL     1     -11.486  -6.950  -8.832  1.00  0.00    -0.000 C 
BRANCH  15  16
ATOM     16  C   UNL     1     -12.993  -6.644  -8.868  1.00  0.00    -0.000 C 
BRANCH  16  17
ATOM     17  C   UNL     1     -13.703  -7.028  -7.560  1.00  0.00    -0.000 C 
BRANCH  17  18
ATOM     18  C   UNL     1     -12.720  -7.409  -6.439  1.00  0.00    -0.000 C 
BRANCH  18  19
ATOM     19  C   UNL     1     -12.573  -6.304  -5.383  1.00  0.00    -0.003 C 
ATOM     20  C   UNL     1     -11.165  -5.707  -5.345  1.00  0.00     0.004 C 
ENDBRANCH  18  19
ENDBRANCH  17  18
ENDBRANCH  16  17
ENDBRANCH  15  16
ENDBRANCH  14  15
ENDBRANCH  13  14
ENDBRANCH  12  13
ENDBRANCH   1  12
TORSDOF 16
ENDMDL
MODEL 4
REMARK VINA RESULT:    -5.637      3.468      8.115
REMARK INTER + INTRA:         -12.201
REMARK INTER:                 -10.819
REMARK INTRA:                  -1.382
REMARK UNBOUND:                -1.292
REMARK SMILES CCCCCCCCCCCCCCCCCC(=O)[O-]
REMARK SMILES IDX 10 1 11 2 12 3 13 4 14 5 15 6 16 7 17 8 18 9 19 10 20 11
REMARK SMILES IDX 9 12 8 13 7 14 6 15 5 16 4 17 3 18 2 19 1 20
REMARK H PARENT
REMARK Flexibility Score: inf
ROOT
ATOM      1  C   UNL     1     -11.329  -3.253  -9.239  1.00  0.00     0.000 C 
ENDROOT
BRANCH   1   2
ATOM      2  C   UNL     1     -10.653  -1.878  -9.167  1.00  0.00     0.000 C 
BRANCH   2   3
ATOM      3  C   UNL     1     -11.103  -0.982 -10.330  1.00  0.00     0.000 C 
BRANCH   3   4
ATOM      4  C   UNL     1     -12.389  -0.200 -10.013  1.00  0.00     0.000 C 
BRANCH   4   5
ATOM      5  C   UNL     1     -13.637  -0.835 -10.652  1.00  0.00     0.000 C 
BRANCH   5   6
ATOM      6  C   UNL     1     -14.891   0.042 -10.500  1.00  0.00     0.000 C 
BRANCH   6   7
ATOM      7  C   UNL     1     -14.872   0.892  -9.220  1.00  0.00     0.006 C 
BRANCH   7   8
ATOM      8  C   UNL     1     -14.962   2.384  -9.553  1.00  0.00     0.053 C 
BRANCH   8   9
ATOM      9  C   UNL     1     -13.896   3.147  -8.829  1.00  0.00     0.041 C 
ATOM     10  O   UNL     1     -14.173   3.779  -7.777  1.00  0.00    -0.550 OA
ATOM     11  O   UNL     1     -12.608   3.200  -9.346  1.00  0.00    -0.550 OA
ENDBRANCH   8   9
ENDBRANCH   7   8
ENDBRANCH   6   7
ENDBRANCH   5   6
ENDBRANCH   4   5
ENDBRANCH   3   4
ENDBRANCH   2   3
ENDBRANCH   1   2
BRANCH   1  12
ATOM     12  C   UNL     1     -10.289  -4.371  -9.396  1.00  0.00     0.000 C 
BRANCH  12  13
ATOM     13  C   UNL     1      -9.995  -5.095  -8.073  1.00  0.00    -0.000 C 
BRANCH  13  14
ATOM     14  C   UNL     1     -10.671  -4.420  -6.867  1.00  0.00    -0.000 C 
BRANCH  14  15
ATOM     15  C   UNL     1     -11.048  -5.421  -5.761  1.00  0.00    -0.000 C 
BRANCH  15  16
ATOM     16  C   UNL     1     -10.986  -6.881  -6.241  1.00  0.00    -0.000 C 
BRANCH  16  17
ATOM     17  C   UNL     1     -12.259  -7.670  -5.893  1.00  0.00    -0.000 C 
BRANCH  17  18
ATOM     18  C   UNL     1     -13.535  -6.817  -6.003  1.00  0.00    -0.000 C 
BRANCH  18  19
ATOM     19  C   UNL     1     -14.245  -6.992  -7.353  1.00  0.00    -0.003 C 
ATOM     20  C   UNL     1     -13.705  -6.051  -8.431  1.00  0.00     0.004 C 
ENDBRANCH  18  19
ENDBRANCH  17  18
ENDBRANCH  16  17
ENDBRANCH  15  16
ENDBRANCH  14  15
ENDBRANCH  13  14
ENDBRANCH  12  13
ENDBRANCH   1  12
TORSDOF 16
ENDMDL
MODEL 5
REMARK VINA RESULT:    -5.481      1.511      2.376
REMARK INTER + INTRA:         -11.899
REMARK INTER:                 -10.695
REMARK INTRA:                  -1.205
REMARK UNBOUND:                -1.292
REMARK SMILES CCCCCCCCCCCCCCCCCC(=O)[O-]
REMARK SMILES IDX 10 1 11 2 12 3 13 4 14 5 15 6 16 7 17 8 18 9 19 10 20 11
REMARK SMILES IDX 9 12 8 13 7 14 6 15 5 16 4 17 3 18 2 19 1 20
REMARK H PARENT
REMARK Flexibility Score: inf
ROOT
ATOM      1  C   UNL     1     -10.629  -3.191  -8.288  1.00  0.00     0.000 C 
ENDROOT
BRANCH   1   2
ATOM      2  C   UNL     1     -10.120  -4.622  -8.494  1.00  0.00     0.000 C 
BRANCH   2   3
ATOM      3  C   UNL     1     -11.273  -5.569  -8.860  1.00  0.00     0.000 C 
BRANCH   3   4
ATOM      4  C   UNL     1     -10.849  -7.048  -8.855  1.00  0.00     0.000 C 
BRANCH   4   5
ATOM      5  C   UNL     1     -12.054  -8.006  -8.872  1.00  0.00     0.000 C 
BRANCH   5   6
ATOM      6  C   UNL     1     -13.352  -7.334  -8.392  1.00  0.00     0.000 C 
BRANCH   6   7
ATOM      7  C   UNL     1     -13.763  -7.776  -6.979  1.00  0.00     0.006 C 
BRANCH   7   8
ATOM      8  C   UNL     1     -13.426  -6.695  -5.948  1.00  0.00     0.053 C 
BRANCH   8   9
ATOM      9  C   UNL     1     -12.066  -6.930  -5.368  1.00  0.00     0.041 C 
ATOM     10  O   UNL     1     -11.677  -8.101  -5.118  1.00  0.00    -0.550 OA
ATOM     11  O   UNL     1     -11.246  -5.851  -5.060  1.00  0.00    -0.550 OA
ENDBRANCH   8   9
ENDBRANCH   7   8
ENDBRANCH   6   7
ENDBRANCH   5   6
ENDBRANCH   4   5
ENDBRANCH   3   4
ENDBRANCH   2   3
ENDBRANCH   1   2
BRANCH   1  12
ATOM     12  C   UNL     1     -10.458  -2.357  -9.566  1.00  0.00     0.000 C 
BRANCH  12  13
ATOM     13  C   UNL     1     -10.907  -0.899  -9.385  1.00  0.00    -0.000 C 
BRANCH  13  14
ATOM     14  C   UNL     1     -11.838  -0.421 -10.515  1.00  0.00    -0.000 C 
BRANCH  14  15
ATOM     15  C   UNL     1     -13.308  -0.801 -10.272  1.00  0.00    -0.000 C 
BRANCH  15  16
ATOM     16  C   UNL     1     -14.223   0.429 -10.149  1.00  0.00    -0.000 C 
BRANCH  16  17
ATOM     17  C   UNL     1     -13.487   1.657  -9.591  1.00  0.00    -0.000 C 
BRANCH  17  18
ATOM     18  C   UNL     1     -14.439   2.677  -8.942  1.00  0.00    -0.000 C 
BRANCH  18  19
ATOM     19  C   UNL     1     -13.692   3.865  -8.316  1.00  0.00    -0.003 C 
ATOM     20  C   UNL     1     -12.178   3.777  -8.508  1.00  0.00     0.004 C 
ENDBRANCH  18  19
ENDBRANCH  17  18
ENDBRANCH  16  17
ENDBRANCH  15  16
ENDBRANCH  14  15
ENDBRANCH  13  14
ENDBRANCH  12  13
ENDBRANCH   1  12
TORSDOF 16
ENDMDL
MODEL 6
REMARK VINA RESULT:    -5.303      1.015      2.013
REMARK INTER + INTRA:         -11.555
REMARK INTER:                 -10.473
REMARK INTRA:                  -1.082
REMARK UNBOUND:                -1.292
REMARK SMILES CCCCCCCCCCCCCCCCCC(=O)[O-]
REMARK SMILES IDX 10 1 11 2 12 3 13 4 14 5 15 6 16 7 17 8 18 9 19 10 20 11
REMARK SMILES IDX 9 12 8 13 7 14 6 15 5 16 4 17 3 18 2 19 1 20
REMARK H PARENT
REMARK Flexibility Score: inf
ROOT
ATOM      1  C   UNL     1     -11.056  -3.521  -9.005  1.00  0.00     0.000 C 
ENDROOT
BRANCH   1   2
ATOM      2  C   UNL     1     -10.069  -4.687  -9.138  1.00  0.00     0.000 C 
BRANCH   2   3
ATOM      3  C   UNL     1      -9.872  -5.398  -7.790  1.00  0.00     0.000 C 
BRANCH   3   4
ATOM      4  C   UNL     1     -10.737  -6.662  -7.655  1.00  0.00     0.000 C 
BRANCH   4   5
ATOM      5  C   UNL     1     -10.588  -7.334  -6.278  1.00  0.00     0.000 C 
BRANCH   5   6
ATOM      6  C   UNL     1     -11.929  -7.469  -5.537  1.00  0.00     0.000 C 
BRANCH   6   7
ATOM      7  C   UNL     1     -12.889  -6.303  -5.824  1.00  0.00     0.006 C 
BRANCH   7   8
ATOM      8  C   UNL     1     -14.270  -6.820  -6.238  1.00  0.00     0.053 C 
BRANCH   8   9
ATOM      9  C   UNL     1     -14.388  -6.861  -7.729  1.00  0.00     0.041 C 
ATOM     10  O   UNL     1     -14.600  -7.953  -8.318  1.00  0.00    -0.550 OA
ATOM     11  O   UNL     1     -14.216  -5.699  -8.472  1.00  0.00    -0.550 OA
ENDBRANCH   8   9
ENDBRANCH   7   8
ENDBRANCH   6   7
ENDBRANCH   5   6
ENDBRANCH   4   5
ENDBRANCH   3   4
ENDBRANCH   2   3
ENDBRANCH   1   2
BRANCH   1  12
ATOM     12  C   UNL     1     -10.672  -2.366  -9.941  1.00  0.00     0.000 C 
BRANCH  12  13
ATOM     13  C   UNL     1     -11.036  -0.990  -9.361  1.00  0.00    -0.000 C 
BRANCH  13  14
ATOM     14  C   UNL     1     -12.075  -0.244 -10.217  1.00  0.00    -0.000 C 
BRANCH  14  15
ATOM     15  C   UNL     1     -13.367  -1.052 -10.419  1.00  0.00    -0.000 C 
BRANCH  15  16
ATOM     16  C   UNL     1     -14.597  -0.155 -10.636  1.00  0.00    -0.000 C 
BRANCH  16  17
ATOM     17  C   UNL     1     -14.949   0.673  -9.390  1.00  0.00    -0.000 C 
BRANCH  17  18
ATOM     18  C   UNL     1     -14.838   2.189  -9.631  1.00  0.00    -0.000 C 
BRANCH  18  19
ATOM     19  C   UNL     1     -13.543   2.783  -9.055  1.00  0.00    -0.003 C 
ATOM     20  C   UNL     1     -13.788   4.053  -8.241  1.00  0.00     0.004 C 
ENDBRANCH  18  19
ENDBRANCH  17  18
ENDBRANCH  16  17
ENDBRANCH  15  16
ENDBRANCH  14  15
ENDBRANCH  13  14
ENDBRANCH  12  13
ENDBRANCH   1  12
TORSDOF 16
ENDMDL
MODEL 7
REMARK VINA RESULT:    -4.942     15.828     18.499
REMARK INTER + INTRA:         -10.857
REMARK INTER:                  -8.923
REMARK INTRA:                  -1.934
REMARK UNBOUND:                -1.292
REMARK SMILES CCCCCCCCCCCCCCCCCC(=O)[O-]
REMARK SMILES IDX 10 1 11 2 12 3 13 4 14 5 15 6 16 7 17 8 18 9 19 10 20 11
REMARK SMILES IDX 9 12 8 13 7 14 6 15 5 16 4 17 3 18 2 19 1 20
REMARK H PARENT
REMARK Flexibility Score: inf
ROOT
ATOM      1  C   UNL     1     -10.182   5.148   7.952  1.00  0.00     0.000 C 
ENDROOT
BRANCH   1   2
ATOM      2  C   UNL     1     -11.039   3.893   8.152  1.00  0.00     0.000 C 
BRANCH   2   3
ATOM      3  C   UNL     1     -12.470   4.263   8.570  1.00  0.00     0.000 C 
BRANCH   3   4
ATOM      4  C   UNL     1     -12.590   5.723   9.039  1.00  0.00     0.000 C 
BRANCH   4   5
ATOM      5  C   UNL     1     -13.595   6.531   8.199  1.00  0.00     0.000 C 
BRANCH   5   6
ATOM      6  C   UNL     1     -12.943   7.723   7.480  1.00  0.00     0.000 C 
BRANCH   6   7
ATOM      7  C   UNL     1     -13.028   7.615   5.949  1.00  0.00     0.006 C 
BRANCH   7   8
ATOM      8  C   UNL     1     -14.122   6.628   5.531  1.00  0.00     0.053 C 
BRANCH   8   9
ATOM      9  C   UNL     1     -13.562   5.578   4.623  1.00  0.00     0.041 C 
ATOM     10  O   UNL     1     -12.702   4.764   5.050  1.00  0.00    -0.550 OA
ATOM     11  O   UNL     1     -13.954   5.530   3.291  1.00  0.00    -0.550 OA
ENDBRANCH   8   9
ENDBRANCH   7   8
ENDBRANCH   6   7
ENDBRANCH   5   6
ENDBRANCH   4   5
ENDBRANCH   3   4
ENDBRANCH   2   3
ENDBRANCH   1   2
BRANCH   1  12
ATOM     12  C   UNL     1      -9.557   5.171   6.550  1.00  0.00     0.000 C 
BRANCH  12  13
ATOM     13  C   UNL     1      -9.725   6.527   5.849  1.00  0.00    -0.000 C 
BRANCH  13  14
ATOM     14  C   UNL     1      -8.763   7.598   6.394  1.00  0.00    -0.000 C 
BRANCH  14  15
ATOM     15  C   UNL     1      -8.366   8.635   5.330  1.00  0.00    -0.000 C 
BRANCH  15  16
ATOM     16  C   UNL     1      -8.867  10.049   5.667  1.00  0.00    -0.000 C 
BRANCH  16  17
ATOM     17  C   UNL     1      -7.742  11.096   5.639  1.00  0.00    -0.000 C 
BRANCH  17  18
ATOM     18  C   UNL     1      -6.392  10.506   5.195  1.00  0.00    -0.000 C 
BRANCH  18  19
ATOM     19  C   UNL     1      -5.369  10.451   6.339  1.00  0.00    -0.003 C 
ATOM     20  C   UNL     1      -5.765  11.327   7.528  1.00  0.00     0.004 C 
ENDBRANCH  18  19
ENDBRANCH  17  18
ENDBRANCH  16  17
ENDBRANCH  15  16
ENDBRANCH  14  15
ENDBRANCH  13  14
ENDBRANCH  12  13
ENDBRANCH   1  12
TORSDOF 16
ENDMDL
MODEL 8
REMARK VINA RESULT:    -4.904     15.967     18.981
REMARK INTER + INTRA:         -10.783
REMARK INTER:                  -8.424
REMARK INTRA:                  -2.359
REMARK UNBOUND:                -1.292
REMARK SMILES CCCCCCCCCCCCCCCCCC(=O)[O-]
REMARK SMILES IDX 10 1 11 2 12 3 13 4 14 5 15 6 16 7 17 8 18 9 19 10 20 11
REMARK SMILES IDX 9 12 8 13 7 14 6 15 5 16 4 17 3 18 2 19 1 20
REMARK H PARENT
REMARK Flexibility Score: inf
ROOT
ATOM      1  C   UNL     1     -11.465   3.995   5.868  1.00  0.00     0.000 C 
ENDROOT
BRANCH   1   2
ATOM      2  C   UNL     1     -10.551   5.188   5.564  1.00  0.00     0.000 C 
BRANCH   2   3
ATOM      3  C   UNL     1      -9.500   5.371   6.670  1.00  0.00     0.000 C 
BRANCH   3   4
ATOM      4  C   UNL     1      -9.121   6.846   6.888  1.00  0.00     0.000 C 
BRANCH   4   5
ATOM      5  C   UNL     1      -9.541   7.743   5.710  1.00  0.00     0.000 C 
BRANCH   5   6
ATOM      6  C   UNL     1      -8.375   8.578   5.156  1.00  0.00     0.000 C 
BRANCH   6   7
ATOM      7  C   UNL     1      -8.095   9.837   5.992  1.00  0.00     0.006 C 
BRANCH   7   8
ATOM      8  C   UNL     1      -6.931  10.638   5.400  1.00  0.00     0.053 C 
BRANCH   8   9
ATOM      9  C   UNL     1      -5.750  10.602   6.319  1.00  0.00     0.041 C 
ATOM     10  O   UNL     1      -5.880  10.910   7.532  1.00  0.00    -0.550 OA
ATOM     11  O   UNL     1      -4.494  10.275   5.822  1.00  0.00    -0.550 OA
ENDBRANCH   8   9
ENDBRANCH   7   8
ENDBRANCH   6   7
ENDBRANCH   5   6
ENDBRANCH   4   5
ENDBRANCH   3   4
ENDBRANCH   2   3
ENDBRANCH   1   2
BRANCH   1  12
ATOM     12  C   UNL     1     -11.451   3.658   7.366  1.00  0.00     0.000 C 
BRANCH  12  13
ATOM     13  C   UNL     1     -12.680   4.207   8.107  1.00  0.00    -0.000 C 
BRANCH  13  14
ATOM     14  C   UNL     1     -12.316   5.303   9.125  1.00  0.00    -0.000 C 
BRANCH  14  15
ATOM     15  C   UNL     1     -12.640   6.717   8.616  1.00  0.00    -0.000 C 
BRANCH  15  16
ATOM     16  C   UNL     1     -13.839   6.737   7.653  1.00  0.00    -0.000 C 
BRANCH  16  17
ATOM     17  C   UNL     1     -13.789   7.921   6.674  1.00  0.00    -0.000 C 
BRANCH  17  18
ATOM     18  C   UNL     1     -13.643   7.474   5.208  1.00  0.00    -0.000 C 
BRANCH  18  19
ATOM     19  C   UNL     1     -14.182   6.056   4.968  1.00  0.00    -0.003 C 
ATOM     20  C   UNL     1     -13.957   5.574   3.535  1.00  0.00     0.004 C 
ENDBRANCH  18  19
ENDBRANCH  17  18
ENDBRANCH  16  17
ENDBRANCH  15  16
ENDBRANCH  14  15
ENDBRANCH  13  14
ENDBRANCH  12  13
ENDBRANCH   1  12
TORSDOF 16
ENDMDL
MODEL 9
REMARK VINA RESULT:    -4.753     16.828     18.903
REMARK INTER + INTRA:         -10.490
REMARK INTER:                  -7.962
REMARK INTRA:                  -2.528
REMARK UNBOUND:                -1.292
REMARK SMILES CCCCCCCCCCCCCCCCCC(=O)[O-]
REMARK SMILES IDX 10 1 11 2 12 3 13 4 14 5 15 6 16 7 17 8 18 9 19 10 20 11
REMARK SMILES IDX 9 12 8 13 7 14 6 15 5 16 4 17 3 18 2 19 1 20
REMARK H PARENT
REMARK Flexibility Score: inf
ROOT
ATOM      1  C   UNL     1     -11.005   3.556   7.619  1.00  0.00     0.000 C 
ENDROOT
BRANCH   1   2
ATOM      2  C   UNL     1     -11.757   3.687   6.289  1.00  0.00     0.000 C 
BRANCH   2   3
ATOM      3  C   UNL     1     -11.053   4.681   5.354  1.00  0.00     0.000 C 
BRANCH   3   4
ATOM      4  C   UNL     1      -9.863   5.385   6.027  1.00  0.00     0.000 C 
BRANCH   4   5
ATOM      5  C   UNL     1     -10.056   6.909   6.119  1.00  0.00     0.000 C 
BRANCH   5   6
ATOM      6  C   UNL     1      -8.744   7.656   6.417  1.00  0.00     0.000 C 
BRANCH   6   7
ATOM      7  C   UNL     1      -8.318   8.590   5.274  1.00  0.00     0.006 C 
BRANCH   7   8
ATOM      8  C   UNL     1      -8.085  10.013   5.789  1.00  0.00     0.053 C 
BRANCH   8   9
ATOM      9  C   UNL     1      -6.965  10.034   6.782  1.00  0.00     0.041 C 
ATOM     10  O   UNL     1      -7.193  10.311   7.988  1.00  0.00    -0.550 OA
ATOM     11  O   UNL     1      -5.661   9.797   6.364  1.00  0.00    -0.550 OA
ENDBRANCH   8   9
ENDBRANCH   7   8
ENDBRANCH   6   7
ENDBRANCH   5   6
ENDBRANCH   4   5
ENDBRANCH   3   4
ENDBRANCH   2   3
ENDBRANCH   1   2
BRANCH   1  12
ATOM     12  C   UNL     1     -11.938   3.831   8.808  1.00  0.00     0.000 C 
BRANCH  12  13
ATOM     13  C   UNL     1     -13.021   4.870   8.482  1.00  0.00    -0.000 C 
BRANCH  13  14
ATOM     14  C   UNL     1     -12.616   6.296   8.897  1.00  0.00    -0.000 C 
BRANCH  14  15
ATOM     15  C   UNL     1     -13.173   7.371   7.948  1.00  0.00    -0.000 C 
BRANCH  15  16
ATOM     16  C   UNL     1     -13.780   6.771   6.669  1.00  0.00    -0.000 C 
BRANCH  16  17
ATOM     17  C   UNL     1     -13.678   7.722   5.466  1.00  0.00    -0.000 C 
BRANCH  17  18
ATOM     18  C   UNL     1     -14.200   9.135   5.779  1.00  0.00    -0.000 C 
BRANCH  18  19
ATOM     19  C   UNL     1     -13.264  10.237   5.261  1.00  0.00    -0.003 C 
ATOM     20  C   UNL     1     -11.835  10.093   5.788  1.00  0.00     0.004 C 
ENDBRANCH  18  19
ENDBRANCH  17  18
ENDBRANCH  16  17
ENDBRANCH  15  16
ENDBRANCH  14  15
ENDBRANCH  13  14
ENDBRANCH  12  13
ENDBRANCH   1  12
TORSDOF 16
ENDMDL
