MODEL 1
REMARK VINA RESULT:     0.373      0.000      0.000
REMARK INTER + INTRA:          -0.109
REMARK INTER:                   0.612
REMARK INTRA:                  -0.722
REMARK UNBOUND:                -0.722
REMARK SMILES C[C@@H]1O[C@H](OC[C@H]2O[C@H](Oc3c(-c4ccc(O)c(O)c4)oc4cc(O)cc(O)c4c3=O)[C@H](O)[C@@H](O)[C@H]2O)[C@H](O)[C@H](O)[C@H]1O
REMARK SMILES IDX 7 1 36 2 34 3 32 4 9 5 8 6 6 7 5 8 4 9 1 10 2 11 42 12 3 13
REMARK SMILES IDX 40 14 38 15 43 16 41 18 39 20 37 22 35 24 10 26 11 27 12 28
REMARK SMILES IDX 30 29 21 30 29 31 31 32 22 33 27 34 23 35 26 36 24 37 13 38
REMARK SMILES IDX 20 39 14 40 18 41 15 42 16 43 19 44 17 46 28 48 25 50 33 52
REMARK H PARENT 43 17 41 19 39 21 37 23 35 25 19 45 17 47 28 49 25 51 33 53
REMARK Flexibility Score: inf
ROOT
ATOM      1  C   UNL     1     -11.003  10.512   5.816  1.00  0.00     0.180 C 
ATOM      2  C   UNL     1     -10.623  11.920   6.344  1.00  0.00     0.177 C 
ATOM      3  C   UNL     1     -11.175  12.125   7.786  1.00  0.00     0.180 C 
ATOM      4  C   UNL     1     -12.460  11.292   8.007  1.00  0.00     0.214 C 
ATOM      5  C   UNL     1     -12.191   9.789   7.682  1.00  0.00     0.339 C 
ATOM      6  O   UNL     1     -11.027   9.593   6.891  1.00  0.00    -0.332 OA
ENDROOT
BRANCH   1   7
ATOM      7  C   UNL     1     -10.087   9.969   4.707  1.00  0.00     0.198 C 
BRANCH   7   8
ATOM      8  O   UNL     1      -9.282   8.909   5.213  1.00  0.00    -0.347 OA
BRANCH   8   9
ATOM      9  C   UNL     1      -7.863   9.098   5.181  1.00  0.00     0.281 C 
ATOM     10  C   UNL     1      -5.678  11.920   4.309  1.00  0.00     0.041 C 
ATOM     11  C   UNL     1      -6.073  10.614   5.003  1.00  0.00     0.150 C 
ATOM     12  C   UNL     1      -5.711  10.671   6.514  1.00  0.00     0.174 C 
ATOM     13  O   UNL     1      -7.466  10.419   4.823  1.00  0.00    -0.344 OA
ATOM     14  C   UNL     1      -6.671   9.793   7.360  1.00  0.00     0.179 C 
ATOM     15  C   UNL     1      -7.213   8.618   6.518  1.00  0.00     0.202 C 
BRANCH  12  16
ATOM     16  O   UNL     1      -4.385  10.232   6.675  1.00  0.00    -0.388 OA
ATOM     17  H   UNL     1      -4.410   9.464   7.306  1.00  0.00     0.211 HD
ENDBRANCH  12  16
BRANCH  14  18
ATOM     18  O   UNL     1      -7.713  10.570   7.907  1.00  0.00    -0.387 OA
ATOM     19  H   UNL     1      -7.384  10.982   8.743  1.00  0.00     0.211 HD
ENDBRANCH  14  18
BRANCH  15  20
ATOM     20  O   UNL     1      -8.061   7.771   7.260  1.00  0.00    -0.385 OA
ATOM     21  H   UNL     1      -8.996   7.992   7.031  1.00  0.00     0.211 HD
ENDBRANCH  15  20
ENDBRANCH   8   9
ENDBRANCH   7   8
ENDBRANCH   1   7
BRANCH   2  22
ATOM     22  O   UNL     1      -9.232  12.112   6.323  1.00  0.00    -0.387 OA
ATOM     23  H   UNL     1      -9.082  13.073   6.121  1.00  0.00     0.211 HD
ENDBRANCH   2  22
BRANCH   3  24
ATOM     24  O   UNL     1     -10.204  11.746   8.732  1.00  0.00    -0.387 OA
ATOM     25  H   UNL     1      -9.964  12.564   9.240  1.00  0.00     0.211 HD
ENDBRANCH   3  24
BRANCH   5  26
ATOM     26  O   UNL     1     -13.314   9.190   7.021  1.00  0.00    -0.454 OA
BRANCH  26  27
ATOM     27  C   UNL     1     -13.387   8.958   5.640  1.00  0.00     0.214 A 
ATOM     28  C   UNL     1     -13.044   7.719   5.075  1.00  0.00     0.180 A 
ATOM     29  C   UNL     1     -13.800   9.997   4.802  1.00  0.00     0.239 A 
ATOM     30  O   UNL     1     -13.202   7.521   3.773  1.00  0.00    -0.452 OA
ATOM     31  C   UNL     1     -13.892   9.781   3.406  1.00  0.00     0.111 A 
ATOM     32  O   UNL     1     -14.117  11.097   5.324  1.00  0.00    -0.285 OA
ATOM     33  C   UNL     1     -13.614   8.470   2.938  1.00  0.00     0.146 A 
ATOM     34  C   UNL     1     -14.274  10.778   2.460  1.00  0.00     0.134 A 
ATOM     35  C   UNL     1     -13.767   8.153   1.585  1.00  0.00     0.094 A 
ATOM     36  C   UNL     1     -14.449  10.422   1.119  1.00  0.00     0.093 A 
ATOM     37  C   UNL     1     -14.196   9.120   0.678  1.00  0.00     0.123 A 
BRANCH  28  38
ATOM     38  C   UNL     1     -12.493   6.627   5.897  1.00  0.00     0.025 A 
ATOM     39  C   UNL     1     -11.109   6.535   6.106  1.00  0.00     0.062 A 
ATOM     40  C   UNL     1     -13.342   5.645   6.426  1.00  0.00     0.016 A 
ATOM     41  C   UNL     1     -10.569   5.429   6.772  1.00  0.00     0.158 A 
ATOM     42  C   UNL     1     -12.809   4.545   7.098  1.00  0.00     0.051 A 
ATOM     43  C   UNL     1     -11.423   4.423   7.260  1.00  0.00     0.157 A 
BRANCH  41  44
ATOM     44  O   UNL     1      -9.186   5.342   6.918  1.00  0.00    -0.504 OA
ATOM     45  H   UNL     1      -8.578   5.100   6.145  1.00  0.00     0.293 HD
ENDBRANCH  41  44
BRANCH  43  46
ATOM     46  O   UNL     1     -10.894   3.311   7.901  1.00  0.00    -0.504 OA
ATOM     47  H   UNL     1     -10.371   3.391   8.765  1.00  0.00     0.293 HD
ENDBRANCH  43  46
ENDBRANCH  28  38
BRANCH  34  48
ATOM     48  O   UNL     1     -14.468  12.124   2.779  1.00  0.00    -0.507 OA
ATOM     49  H   UNL     1     -15.317  12.642   2.616  1.00  0.00     0.293 HD
ENDBRANCH  34  48
BRANCH  37  50
ATOM     50  O   UNL     1     -14.358   8.784  -0.664  1.00  0.00    -0.508 OA
ATOM     51  H   UNL     1     -13.955   7.939  -1.048  1.00  0.00     0.293 HD
ENDBRANCH  37  50
ENDBRANCH  26  27
ENDBRANCH   5  26
BRANCH   4  52
ATOM     52  O   UNL     1     -13.483  11.794   7.184  1.00  0.00    -0.384 OA
ATOM     53  H   UNL     1     -13.044  12.205   6.403  1.00  0.00     0.211 HD
ENDBRANCH   4  52
TORSDOF 16
ENDMDL
