MODEL 1
REMARK VINA RESULT:    -7.576      0.000      0.000
REMARK INTER + INTRA:          -9.321
REMARK INTER:                  -9.126
REMARK INTRA:                  -0.195
REMARK UNBOUND:                -0.195
REMARK SMILES O=c1c(O)c(-c2ccc(O)c(O)c2)oc2cc(O)cc(O)c12
REMARK SMILES IDX 5 1 3 2 2 3 1 4 22 5 20 6 19 7 17 8 16 9 15 10 14 11 6 12
REMARK SMILES IDX 7 13 8 14 9 15 13 16 11 17 10 18 12 20 4 22 21 24 18 26
REMARK H PARENT 10 19 12 21 4 23 21 25 18 27
REMARK Flexibility Score: inf
ROOT
ATOM      1  C   UNL     1      35.521   1.360  -3.703  1.00  0.00     0.180 A 
ATOM      2  C   UNL     1      34.722   2.516  -3.664  1.00  0.00     0.208 A 
ATOM      3  C   UNL     1      35.280   3.713  -3.189  1.00  0.00     0.238 A 
ATOM      4  O   UNL     1      34.577   4.757  -3.208  1.00  0.00    -0.285 OA
ATOM      5  C   UNL     1      36.623   3.738  -2.742  1.00  0.00     0.111 A 
ATOM      6  C   UNL     1      37.278   4.885  -2.203  1.00  0.00     0.134 A 
ATOM      7  C   UNL     1      38.647   4.827  -1.915  1.00  0.00     0.093 A 
ATOM      8  C   UNL     1      39.370   3.647  -2.084  1.00  0.00     0.123 A 
ATOM      9  C   UNL     1      38.726   2.501  -2.555  1.00  0.00     0.094 A 
ATOM     10  C   UNL     1      37.369   2.538  -2.885  1.00  0.00     0.146 A 
ATOM     11  O   UNL     1      36.797   1.430  -3.339  1.00  0.00    -0.452 OA
ENDROOT
BRANCH   1  12
ATOM     12  C   UNL     1      34.997   0.056  -4.168  1.00  0.00     0.025 A 
ATOM     13  C   UNL     1      34.013  -0.601  -3.413  1.00  0.00     0.016 A 
ATOM     14  C   UNL     1      33.490  -1.823  -3.844  1.00  0.00     0.051 A 
ATOM     15  C   UNL     1      33.931  -2.398  -5.043  1.00  0.00     0.157 A 
ATOM     16  C   UNL     1      35.423  -0.514  -5.381  1.00  0.00     0.062 A 
ATOM     17  C   UNL     1      34.899  -1.737  -5.817  1.00  0.00     0.158 A 
BRANCH  15  18
ATOM     18  O   UNL     1      33.408  -3.618  -5.469  1.00  0.00    -0.504 OA
ATOM     19  H   UNL     1      32.451  -3.884  -5.269  1.00  0.00     0.293 HD
ENDBRANCH  15  18
BRANCH  17  20
ATOM     20  O   UNL     1      35.348  -2.275  -7.022  1.00  0.00    -0.504 OA
ATOM     21  H   UNL     1      36.266  -2.066  -7.396  1.00  0.00     0.293 HD
ENDBRANCH  17  20
ENDBRANCH   1  12
BRANCH   2  22
ATOM     22  O   UNL     1      33.406   2.477  -4.131  1.00  0.00    -0.502 OA
ATOM     23  H   UNL     1      32.617   2.292  -3.522  1.00  0.00     0.293 HD
ENDBRANCH   2  22
BRANCH   6  24
ATOM     24  O   UNL     1      36.629   6.088  -1.908  1.00  0.00    -0.507 OA
ATOM     25  H   UNL     1      36.482   6.838  -2.567  1.00  0.00     0.293 HD
ENDBRANCH   6  24
BRANCH   8  26
ATOM     26  O   UNL     1      40.727   3.621  -1.773  1.00  0.00    -0.508 OA
ATOM     27  H   UNL     1      41.409   3.221  -2.407  1.00  0.00     0.293 HD
ENDBRANCH   8  26
TORSDOF 6
ENDMDL
MODEL 2
REMARK VINA RESULT:    -7.484      3.369      5.356
REMARK INTER + INTRA:          -9.210
REMARK INTER:                  -8.909
REMARK INTRA:                  -0.301
REMARK UNBOUND:                -0.195
REMARK SMILES O=c1c(O)c(-c2ccc(O)c(O)c2)oc2cc(O)cc(O)c12
REMARK SMILES IDX 5 1 3 2 2 3 1 4 22 5 20 6 19 7 17 8 16 9 15 10 14 11 6 12
REMARK SMILES IDX 7 13 8 14 9 15 13 16 11 17 10 18 12 20 4 22 21 24 18 26
REMARK H PARENT 10 19 12 21 4 23 21 25 18 27
REMARK Flexibility Score: inf
ROOT
ATOM      1  C   UNL     1      37.861   4.547  -1.654  1.00  0.00     0.180 A 
ATOM      2  C   UNL     1      37.378   4.573  -0.334  1.00  0.00     0.208 A 
ATOM      3  C   UNL     1      38.275   4.833   0.714  1.00  0.00     0.238 A 
ATOM      4  O   UNL     1      37.827   4.910   1.888  1.00  0.00    -0.285 OA
ATOM      5  C   UNL     1      39.646   5.045   0.433  1.00  0.00     0.111 A 
ATOM      6  C   UNL     1      40.650   5.277   1.420  1.00  0.00     0.134 A 
ATOM      7  C   UNL     1      41.951   5.603   1.019  1.00  0.00     0.093 A 
ATOM      8  C   UNL     1      42.300   5.644  -0.331  1.00  0.00     0.123 A 
ATOM      9  C   UNL     1      41.340   5.361  -1.303  1.00  0.00     0.094 A 
ATOM     10  C   UNL     1      40.025   5.067  -0.935  1.00  0.00     0.146 A 
ATOM     11  O   UNL     1      39.140   4.815  -1.891  1.00  0.00    -0.452 OA
ENDROOT
BRANCH   1  12
ATOM     12  C   UNL     1      36.982   4.255  -2.809  1.00  0.00     0.025 A 
ATOM     13  C   UNL     1      36.646   2.925  -3.102  1.00  0.00     0.016 A 
ATOM     14  C   UNL     1      35.800   2.628  -4.175  1.00  0.00     0.051 A 
ATOM     15  C   UNL     1      35.267   3.658  -4.960  1.00  0.00     0.157 A 
ATOM     16  C   UNL     1      36.428   5.288  -3.586  1.00  0.00     0.062 A 
ATOM     17  C   UNL     1      35.579   4.995  -4.661  1.00  0.00     0.158 A 
BRANCH  15  18
ATOM     18  O   UNL     1      34.426   3.359  -6.031  1.00  0.00    -0.504 OA
ATOM     19  H   UNL     1      34.238   4.034  -6.763  1.00  0.00     0.293 HD
ENDBRANCH  15  18
BRANCH  17  20
ATOM     20  O   UNL     1      35.053   6.043  -5.414  1.00  0.00    -0.504 OA
ATOM     21  H   UNL     1      34.347   5.895  -6.124  1.00  0.00     0.293 HD
ENDBRANCH  17  20
ENDBRANCH   1  12
BRANCH   2  22
ATOM     22  O   UNL     1      36.017   4.384  -0.080  1.00  0.00    -0.502 OA
ATOM     23  H   UNL     1      35.664   4.128   0.835  1.00  0.00     0.293 HD
ENDBRANCH   2  22
BRANCH   6  24
ATOM     24  O   UNL     1      40.430   5.171   2.797  1.00  0.00    -0.507 OA
ATOM     25  H   UNL     1      39.524   5.219   3.240  1.00  0.00     0.293 HD
ENDBRANCH   6  24
BRANCH   8  26
ATOM     26  O   UNL     1      43.608   5.958  -0.693  1.00  0.00    -0.508 OA
ATOM     27  H   UNL     1      44.060   5.514  -1.484  1.00  0.00     0.293 HD
ENDBRANCH   8  26
TORSDOF 6
ENDMDL
MODEL 3
REMARK VINA RESULT:    -7.419      2.466      7.564
REMARK INTER + INTRA:          -9.132
REMARK INTER:                  -8.815
REMARK INTRA:                  -0.317
REMARK UNBOUND:                -0.195
REMARK SMILES O=c1c(O)c(-c2ccc(O)c(O)c2)oc2cc(O)cc(O)c12
REMARK SMILES IDX 5 1 3 2 2 3 1 4 22 5 20 6 19 7 17 8 16 9 15 10 14 11 6 12
REMARK SMILES IDX 7 13 8 14 9 15 13 16 11 17 10 18 12 20 4 22 21 24 18 26
REMARK H PARENT 10 19 12 21 4 23 21 25 18 27
REMARK Flexibility Score: inf
ROOT
ATOM      1  C   UNL     1      38.392   3.388  -1.783  1.00  0.00     0.180 A 
ATOM      2  C   UNL     1      38.509   2.045  -2.181  1.00  0.00     0.208 A 
ATOM      3  C   UNL     1      37.476   1.466  -2.934  1.00  0.00     0.238 A 
ATOM      4  O   UNL     1      37.611   0.280  -3.334  1.00  0.00    -0.285 OA
ATOM      5  C   UNL     1      36.331   2.229  -3.266  1.00  0.00     0.111 A 
ATOM      6  C   UNL     1      35.206   1.732  -3.990  1.00  0.00     0.134 A 
ATOM      7  C   UNL     1      34.188   2.613  -4.374  1.00  0.00     0.093 A 
ATOM      8  C   UNL     1      34.221   3.958  -4.005  1.00  0.00     0.123 A 
ATOM      9  C   UNL     1      35.287   4.442  -3.246  1.00  0.00     0.094 A 
ATOM     10  C   UNL     1      36.335   3.595  -2.878  1.00  0.00     0.146 A 
ATOM     11  O   UNL     1      37.336   4.098  -2.165  1.00  0.00    -0.452 OA
ENDROOT
BRANCH   1  12
ATOM     12  C   UNL     1      39.427   4.061  -0.966  1.00  0.00     0.025 A 
ATOM     13  C   UNL     1      39.315   4.054   0.433  1.00  0.00     0.016 A 
ATOM     14  C   UNL     1      40.292   4.665   1.224  1.00  0.00     0.051 A 
ATOM     15  C   UNL     1      41.402   5.278   0.629  1.00  0.00     0.157 A 
ATOM     16  C   UNL     1      40.553   4.659  -1.559  1.00  0.00     0.062 A 
ATOM     17  C   UNL     1      41.535   5.270  -0.770  1.00  0.00     0.158 A 
BRANCH  15  18
ATOM     18  O   UNL     1      42.374   5.888   1.420  1.00  0.00    -0.504 OA
ATOM     19  H   UNL     1      42.908   6.683   1.088  1.00  0.00     0.293 HD
ENDBRANCH  15  18
BRANCH  17  20
ATOM     20  O   UNL     1      42.635   5.859  -1.392  1.00  0.00    -0.504 OA
ATOM     21  H   UNL     1      42.746   5.862  -2.399  1.00  0.00     0.293 HD
ENDBRANCH  17  20
ENDBRANCH   1  12
BRANCH   2  22
ATOM     22  O   UNL     1      39.657   1.316  -1.862  1.00  0.00    -0.502 OA
ATOM     23  H   UNL     1      39.883   0.434  -2.308  1.00  0.00     0.293 HD
ENDBRANCH   2  22
BRANCH   6  24
ATOM     24  O   UNL     1      35.029   0.388  -4.330  1.00  0.00    -0.507 OA
ATOM     25  H   UNL     1      35.441  -0.061  -5.135  1.00  0.00     0.293 HD
ENDBRANCH   6  24
BRANCH   8  26
ATOM     26  O   UNL     1      33.183   4.802  -4.392  1.00  0.00    -0.508 OA
ATOM     27  H   UNL     1      33.287   5.453  -5.161  1.00  0.00     0.293 HD
ENDBRANCH   8  26
TORSDOF 6
ENDMDL
MODEL 4
REMARK VINA RESULT:    -7.337      3.220      8.118
REMARK INTER + INTRA:          -9.033
REMARK INTER:                  -8.737
REMARK INTRA:                  -0.296
REMARK UNBOUND:                -0.195
REMARK SMILES O=c1c(O)c(-c2ccc(O)c(O)c2)oc2cc(O)cc(O)c12
REMARK SMILES IDX 5 1 3 2 2 3 1 4 22 5 20 6 19 7 17 8 16 9 15 10 14 11 6 12
REMARK SMILES IDX 7 13 8 14 9 15 13 16 11 17 10 18 12 20 4 22 21 24 18 26
REMARK H PARENT 10 19 12 21 4 23 21 25 18 27
REMARK Flexibility Score: inf
ROOT
ATOM      1  C   UNL     1      38.948   4.142  -1.018  1.00  0.00     0.180 A 
ATOM      2  C   UNL     1      39.005   2.979  -1.806  1.00  0.00     0.208 A 
ATOM      3  C   UNL     1      37.885   2.621  -2.573  1.00  0.00     0.238 A 
ATOM      4  O   UNL     1      37.961   1.610  -3.319  1.00  0.00    -0.285 OA
ATOM      5  C   UNL     1      36.716   3.418  -2.529  1.00  0.00     0.111 A 
ATOM      6  C   UNL     1      35.509   3.128  -3.233  1.00  0.00     0.134 A 
ATOM      7  C   UNL     1      34.460   4.056  -3.218  1.00  0.00     0.093 A 
ATOM      8  C   UNL     1      34.549   5.232  -2.475  1.00  0.00     0.123 A 
ATOM      9  C   UNL     1      35.702   5.498  -1.735  1.00  0.00     0.094 A 
ATOM     10  C   UNL     1      36.779   4.609  -1.758  1.00  0.00     0.146 A 
ATOM     11  O   UNL     1      37.861   4.905  -1.049  1.00  0.00    -0.452 OA
ENDROOT
BRANCH   1  12
ATOM     12  C   UNL     1      40.079   4.571  -0.164  1.00  0.00     0.025 A 
ATOM     13  C   UNL     1      41.146   5.280  -0.737  1.00  0.00     0.016 A 
ATOM     14  C   UNL     1      42.213   5.713   0.054  1.00  0.00     0.051 A 
ATOM     15  C   UNL     1      42.223   5.457   1.431  1.00  0.00     0.157 A 
ATOM     16  C   UNL     1      40.081   4.334   1.222  1.00  0.00     0.062 A 
ATOM     17  C   UNL     1      41.148   4.768   2.018  1.00  0.00     0.158 A 
BRANCH  15  18
ATOM     18  O   UNL     1      43.290   5.889   2.217  1.00  0.00    -0.504 OA
ATOM     19  H   UNL     1      43.433   5.538   3.157  1.00  0.00     0.293 HD
ENDBRANCH  15  18
BRANCH  17  20
ATOM     20  O   UNL     1      41.120   4.510   3.388  1.00  0.00    -0.504 OA
ATOM     21  H   UNL     1      40.955   5.240   4.070  1.00  0.00     0.293 HD
ENDBRANCH  17  20
ENDBRANCH   1  12
BRANCH   2  22
ATOM     22  O   UNL     1      40.176   2.219  -1.853  1.00  0.00    -0.502 OA
ATOM     23  H   UNL     1      41.093   2.621  -1.694  1.00  0.00     0.293 HD
ENDBRANCH   2  22
BRANCH   6  24
ATOM     24  O   UNL     1      35.280   1.939  -3.932  1.00  0.00    -0.507 OA
ATOM     25  H   UNL     1      34.820   1.126  -3.550  1.00  0.00     0.293 HD
ENDBRANCH   6  24
BRANCH   8  26
ATOM     26  O   UNL     1      33.481   6.125  -2.471  1.00  0.00    -0.508 OA
ATOM     27  H   UNL     1      32.658   5.969  -3.042  1.00  0.00     0.293 HD
ENDBRANCH   8  26
TORSDOF 6
ENDMDL
MODEL 5
REMARK VINA RESULT:    -7.287      2.526      7.196
REMARK INTER + INTRA:          -8.973
REMARK INTER:                  -8.650
REMARK INTRA:                  -0.322
REMARK UNBOUND:                -0.195
REMARK SMILES O=c1c(O)c(-c2ccc(O)c(O)c2)oc2cc(O)cc(O)c12
REMARK SMILES IDX 5 1 3 2 2 3 1 4 22 5 20 6 19 7 17 8 16 9 15 10 14 11 6 12
REMARK SMILES IDX 7 13 8 14 9 15 13 16 11 17 10 18 12 20 4 22 21 24 18 26
REMARK H PARENT 10 19 12 21 4 23 21 25 18 27
REMARK Flexibility Score: inf
ROOT
ATOM      1  C   UNL     1      34.168   0.692  -4.213  1.00  0.00     0.180 A 
ATOM      2  C   UNL     1      34.441   0.338  -5.546  1.00  0.00     0.208 A 
ATOM      3  C   UNL     1      34.453  -1.020  -5.900  1.00  0.00     0.238 A 
ATOM      4  O   UNL     1      34.643  -1.329  -7.105  1.00  0.00    -0.285 OA
ATOM      5  C   UNL     1      34.210  -2.009  -4.916  1.00  0.00     0.111 A 
ATOM      6  C   UNL     1      34.238  -3.415  -5.154  1.00  0.00     0.134 A 
ATOM      7  C   UNL     1      33.854  -4.296  -4.136  1.00  0.00     0.093 A 
ATOM      8  C   UNL     1      33.506  -3.827  -2.870  1.00  0.00     0.123 A 
ATOM      9  C   UNL     1      33.533  -2.456  -2.608  1.00  0.00     0.094 A 
ATOM     10  C   UNL     1      33.877  -1.550  -3.614  1.00  0.00     0.146 A 
ATOM     11  O   UNL     1      33.879  -0.254  -3.327  1.00  0.00    -0.452 OA
ENDROOT
BRANCH   1  12
ATOM     12  C   UNL     1      34.162   2.101  -3.758  1.00  0.00     0.025 A 
ATOM     13  C   UNL     1      35.366   2.703  -3.361  1.00  0.00     0.016 A 
ATOM     14  C   UNL     1      35.387   4.038  -2.948  1.00  0.00     0.051 A 
ATOM     15  C   UNL     1      34.208   4.794  -2.939  1.00  0.00     0.157 A 
ATOM     16  C   UNL     1      32.985   2.869  -3.768  1.00  0.00     0.062 A 
ATOM     17  C   UNL     1      33.002   4.207  -3.357  1.00  0.00     0.158 A 
BRANCH  15  18
ATOM     18  O   UNL     1      34.231   6.125  -2.525  1.00  0.00    -0.504 OA
ATOM     19  H   UNL     1      34.866   6.798  -2.938  1.00  0.00     0.293 HD
ENDBRANCH  15  18
BRANCH  17  20
ATOM     20  O   UNL     1      31.814   4.937  -3.375  1.00  0.00    -0.504 OA
ATOM     21  H   UNL     1      31.710   5.783  -3.920  1.00  0.00     0.293 HD
ENDBRANCH  17  20
ENDBRANCH   1  12
BRANCH   2  22
ATOM     22  O   UNL     1      34.656   1.330  -6.506  1.00  0.00    -0.502 OA
ATOM     23  H   UNL     1      34.329   1.242  -7.461  1.00  0.00     0.293 HD
ENDBRANCH   2  22
BRANCH   6  24
ATOM     24  O   UNL     1      34.659  -3.995  -6.355  1.00  0.00    -0.507 OA
ATOM     25  H   UNL     1      34.767  -4.987  -6.507  1.00  0.00     0.293 HD
ENDBRANCH   6  24
BRANCH   8  26
ATOM     26  O   UNL     1      33.144  -4.733  -1.877  1.00  0.00    -0.508 OA
ATOM     27  H   UNL     1      33.562  -5.655  -1.822  1.00  0.00     0.293 HD
ENDBRANCH   8  26
TORSDOF 6
ENDMDL
MODEL 6
REMARK VINA RESULT:    -7.232      1.246      1.541
REMARK INTER + INTRA:          -8.906
REMARK INTER:                  -9.372
REMARK INTRA:                   0.466
REMARK UNBOUND:                -0.195
REMARK SMILES O=c1c(O)c(-c2ccc(O)c(O)c2)oc2cc(O)cc(O)c12
REMARK SMILES IDX 5 1 3 2 2 3 1 4 22 5 20 6 19 7 17 8 16 9 15 10 14 11 6 12
REMARK SMILES IDX 7 13 8 14 9 15 13 16 11 17 10 18 12 20 4 22 21 24 18 26
REMARK H PARENT 10 19 12 21 4 23 21 25 18 27
REMARK Flexibility Score: inf
ROOT
ATOM      1  C   UNL     1      35.726   1.078  -3.674  1.00  0.00     0.180 A 
ATOM      2  C   UNL     1      34.577   1.885  -3.621  1.00  0.00     0.208 A 
ATOM      3  C   UNL     1      34.694   3.207  -3.164  1.00  0.00     0.238 A 
ATOM      4  O   UNL     1      33.672   3.942  -3.172  1.00  0.00    -0.285 OA
ATOM      5  C   UNL     1      35.953   3.701  -2.748  1.00  0.00     0.111 A 
ATOM      6  C   UNL     1      36.180   5.011  -2.230  1.00  0.00     0.134 A 
ATOM      7  C   UNL     1      37.490   5.435  -1.973  1.00  0.00     0.093 A 
ATOM      8  C   UNL     1      38.574   4.577  -2.154  1.00  0.00     0.123 A 
ATOM      9  C   UNL     1      38.358   3.274  -2.605  1.00  0.00     0.094 A 
ATOM     10  C   UNL     1      37.067   2.833  -2.903  1.00  0.00     0.146 A 
ATOM     11  O   UNL     1      36.905   1.590  -3.340  1.00  0.00    -0.452 OA
ENDROOT
BRANCH   1  12
ATOM     12  C   UNL     1      35.679  -0.333  -4.121  1.00  0.00     0.025 A 
ATOM     13  C   UNL     1      36.798  -1.157  -3.927  1.00  0.00     0.016 A 
ATOM     14  C   UNL     1      36.768  -2.497  -4.321  1.00  0.00     0.051 A 
ATOM     15  C   UNL     1      35.613  -3.037  -4.902  1.00  0.00     0.157 A 
ATOM     16  C   UNL     1      34.514  -0.884  -4.684  1.00  0.00     0.062 A 
ATOM     17  C   UNL     1      34.479  -2.227  -5.079  1.00  0.00     0.158 A 
BRANCH  15  18
ATOM     18  O   UNL     1      35.586  -4.373  -5.297  1.00  0.00    -0.504 OA
ATOM     19  H   UNL     1      35.033  -4.683  -6.087  1.00  0.00     0.293 HD
ENDBRANCH  15  18
BRANCH  17  20
ATOM     20  O   UNL     1      33.310  -2.737  -5.641  1.00  0.00    -0.504 OA
ATOM     21  H   UNL     1      32.396  -2.548  -5.246  1.00  0.00     0.293 HD
ENDBRANCH  17  20
ENDBRANCH   1  12
BRANCH   2  22
ATOM     22  O   UNL     1      33.347   1.385  -4.058  1.00  0.00    -0.502 OA
ATOM     23  H   UNL     1      32.529   1.973  -4.170  1.00  0.00     0.293 HD
ENDBRANCH   2  22
BRANCH   6  24
ATOM     24  O   UNL     1      35.160   5.917  -1.925  1.00  0.00    -0.507 OA
ATOM     25  H   UNL     1      34.900   6.198  -0.991  1.00  0.00     0.293 HD
ENDBRANCH   6  24
BRANCH   8  26
ATOM     26  O   UNL     1      39.861   5.027  -1.873  1.00  0.00    -0.508 OA
ATOM     27  H   UNL     1      40.505   5.285  -2.612  1.00  0.00     0.293 HD
ENDBRANCH   8  26
TORSDOF 6
ENDMDL
MODEL 7
REMARK VINA RESULT:    -7.167      1.664      3.317
REMARK INTER + INTRA:          -8.828
REMARK INTER:                  -8.495
REMARK INTRA:                  -0.333
REMARK UNBOUND:                -0.195
REMARK SMILES O=c1c(O)c(-c2ccc(O)c(O)c2)oc2cc(O)cc(O)c12
REMARK SMILES IDX 5 1 3 2 2 3 1 4 22 5 20 6 19 7 17 8 16 9 15 10 14 11 6 12
REMARK SMILES IDX 7 13 8 14 9 15 13 16 11 17 10 18 12 20 4 22 21 24 18 26
REMARK H PARENT 10 19 12 21 4 23 21 25 18 27
REMARK Flexibility Score: inf
ROOT
ATOM      1  C   UNL     1      35.859  -0.366  -3.872  1.00  0.00     0.180 A 
ATOM      2  C   UNL     1      37.168  -0.266  -3.368  1.00  0.00     0.208 A 
ATOM      3  C   UNL     1      37.695   1.005  -3.091  1.00  0.00     0.238 A 
ATOM      4  O   UNL     1      38.847   1.085  -2.588  1.00  0.00    -0.285 OA
ATOM      5  C   UNL     1      36.917   2.161  -3.337  1.00  0.00     0.111 A 
ATOM      6  C   UNL     1      37.365   3.500  -3.131  1.00  0.00     0.134 A 
ATOM      7  C   UNL     1      36.464   4.562  -3.283  1.00  0.00     0.093 A 
ATOM      8  C   UNL     1      35.151   4.338  -3.696  1.00  0.00     0.123 A 
ATOM      9  C   UNL     1      34.719   3.037  -3.958  1.00  0.00     0.094 A 
ATOM     10  C   UNL     1      35.583   1.955  -3.780  1.00  0.00     0.146 A 
ATOM     11  O   UNL     1      35.130   0.733  -4.029  1.00  0.00    -0.452 OA
ENDROOT
BRANCH   1  12
ATOM     12  C   UNL     1      35.243  -1.668  -4.211  1.00  0.00     0.025 A 
ATOM     13  C   UNL     1      34.431  -2.315  -3.267  1.00  0.00     0.016 A 
ATOM     14  C   UNL     1      33.822  -3.535  -3.574  1.00  0.00     0.051 A 
ATOM     15  C   UNL     1      34.004  -4.119  -4.834  1.00  0.00     0.157 A 
ATOM     16  C   UNL     1      35.407  -2.247  -5.483  1.00  0.00     0.062 A 
ATOM     17  C   UNL     1      34.797  -3.468  -5.795  1.00  0.00     0.158 A 
BRANCH  15  18
ATOM     18  O   UNL     1      33.398  -5.336  -5.137  1.00  0.00    -0.504 OA
ATOM     19  H   UNL     1      33.368  -6.096  -4.468  1.00  0.00     0.293 HD
ENDBRANCH  15  18
BRANCH  17  20
ATOM     20  O   UNL     1      34.986  -4.015  -7.063  1.00  0.00    -0.504 OA
ATOM     21  H   UNL     1      35.529  -3.544  -7.777  1.00  0.00     0.293 HD
ENDBRANCH  17  20
ENDBRANCH   1  12
BRANCH   2  22
ATOM     22  O   UNL     1      37.912  -1.421  -3.111  1.00  0.00    -0.502 OA
ATOM     23  H   UNL     1      37.982  -2.182  -3.776  1.00  0.00     0.293 HD
ENDBRANCH   2  22
BRANCH   6  24
ATOM     24  O   UNL     1      38.681   3.841  -2.805  1.00  0.00    -0.507 OA
ATOM     25  H   UNL     1      39.072   4.768  -2.887  1.00  0.00     0.293 HD
ENDBRANCH   6  24
BRANCH   8  26
ATOM     26  O   UNL     1      34.287   5.419  -3.853  1.00  0.00    -0.508 OA
ATOM     27  H   UNL     1      34.108   5.828  -4.762  1.00  0.00     0.293 HD
ENDBRANCH   8  26
TORSDOF 6
ENDMDL
MODEL 8
REMARK VINA RESULT:    -7.138      1.985      7.067
REMARK INTER + INTRA:          -8.793
REMARK INTER:                  -8.476
REMARK INTRA:                  -0.317
REMARK UNBOUND:                -0.195
REMARK SMILES O=c1c(O)c(-c2ccc(O)c(O)c2)oc2cc(O)cc(O)c12
REMARK SMILES IDX 5 1 3 2 2 3 1 4 22 5 20 6 19 7 17 8 16 9 15 10 14 11 6 12
REMARK SMILES IDX 7 13 8 14 9 15 13 16 11 17 10 18 12 20 4 22 21 24 18 26
REMARK H PARENT 10 19 12 21 4 23 21 25 18 27
REMARK Flexibility Score: inf
ROOT
ATOM      1  C   UNL     1      37.888   3.835  -1.856  1.00  0.00     0.180 A 
ATOM      2  C   UNL     1      36.976   4.817  -2.282  1.00  0.00     0.208 A 
ATOM      3  C   UNL     1      35.944   4.452  -3.160  1.00  0.00     0.238 A 
ATOM      4  O   UNL     1      35.098   5.322  -3.494  1.00  0.00    -0.285 OA
ATOM      5  C   UNL     1      35.846   3.115  -3.617  1.00  0.00     0.111 A 
ATOM      6  C   UNL     1      34.865   2.643  -4.540  1.00  0.00     0.134 A 
ATOM      7  C   UNL     1      34.783   1.274  -4.821  1.00  0.00     0.093 A 
ATOM      8  C   UNL     1      35.686   0.369  -4.263  1.00  0.00     0.123 A 
ATOM      9  C   UNL     1      36.686   0.828  -3.405  1.00  0.00     0.094 A 
ATOM     10  C   UNL     1      36.771   2.183  -3.078  1.00  0.00     0.146 A 
ATOM     11  O   UNL     1      37.731   2.577  -2.250  1.00  0.00    -0.452 OA
ENDROOT
BRANCH   1  12
ATOM     12  C   UNL     1      39.016   4.148  -0.951  1.00  0.00     0.025 A 
ATOM     13  C   UNL     1      38.817   4.115   0.438  1.00  0.00     0.016 A 
ATOM     14  C   UNL     1      39.873   4.386   1.311  1.00  0.00     0.051 A 
ATOM     15  C   UNL     1      41.148   4.680   0.810  1.00  0.00     0.157 A 
ATOM     16  C   UNL     1      40.302   4.423  -1.450  1.00  0.00     0.062 A 
ATOM     17  C   UNL     1      41.364   4.693  -0.578  1.00  0.00     0.158 A 
BRANCH  15  18
ATOM     18  O   UNL     1      42.199   4.952   1.684  1.00  0.00    -0.504 OA
ATOM     19  H   UNL     1      43.058   5.384   1.363  1.00  0.00     0.293 HD
ENDBRANCH  15  18
BRANCH  17  20
ATOM     20  O   UNL     1      42.623   4.968  -1.109  1.00  0.00    -0.504 OA
ATOM     21  H   UNL     1      43.198   5.727  -0.766  1.00  0.00     0.293 HD
ENDBRANCH  17  20
ENDBRANCH   1  12
BRANCH   2  22
ATOM     22  O   UNL     1      37.076   6.125  -1.801  1.00  0.00    -0.502 OA
ATOM     23  H   UNL     1      36.981   6.935  -2.403  1.00  0.00     0.293 HD
ENDBRANCH   2  22
BRANCH   6  24
ATOM     24  O   UNL     1      33.974   3.475  -5.225  1.00  0.00    -0.507 OA
ATOM     25  H   UNL     1      33.192   3.150  -5.775  1.00  0.00     0.293 HD
ENDBRANCH   6  24
BRANCH   8  26
ATOM     26  O   UNL     1      35.584  -0.984  -4.576  1.00  0.00    -0.508 OA
ATOM     27  H   UNL     1      36.239  -1.665  -4.209  1.00  0.00     0.293 HD
ENDBRANCH   8  26
TORSDOF 6
ENDMDL
MODEL 9
REMARK VINA RESULT:    -6.840      2.012      2.569
REMARK INTER + INTRA:          -8.434
REMARK INTER:                  -8.112
REMARK INTRA:                  -0.322
REMARK UNBOUND:                -0.195
REMARK SMILES O=c1c(O)c(-c2ccc(O)c(O)c2)oc2cc(O)cc(O)c12
REMARK SMILES IDX 5 1 3 2 2 3 1 4 22 5 20 6 19 7 17 8 16 9 15 10 14 11 6 12
REMARK SMILES IDX 7 13 8 14 9 15 13 16 11 17 10 18 12 20 4 22 21 24 18 26
REMARK H PARENT 10 19 12 21 4 23 21 25 18 27
REMARK Flexibility Score: inf
ROOT
ATOM      1  C   UNL     1      35.019   0.812  -4.115  1.00  0.00     0.180 A 
ATOM      2  C   UNL     1      34.621   1.384  -5.335  1.00  0.00     0.208 A 
ATOM      3  C   UNL     1      34.777   2.767  -5.522  1.00  0.00     0.238 A 
ATOM      4  O   UNL     1      34.470   3.265  -6.636  1.00  0.00    -0.285 OA
ATOM      5  C   UNL     1      35.314   3.563  -4.481  1.00  0.00     0.111 A 
ATOM      6  C   UNL     1      35.480   4.979  -4.546  1.00  0.00     0.134 A 
ATOM      7  C   UNL     1      36.141   5.645  -3.507  1.00  0.00     0.093 A 
ATOM      8  C   UNL     1      36.585   4.958  -2.378  1.00  0.00     0.123 A 
ATOM      9  C   UNL     1      36.376   3.582  -2.278  1.00  0.00     0.094 A 
ATOM     10  C   UNL     1      35.751   2.884  -3.313  1.00  0.00     0.146 A 
ATOM     11  O   UNL     1      35.580   1.574  -3.183  1.00  0.00    -0.452 OA
ENDROOT
BRANCH   1  12
ATOM     12  C   UNL     1      34.863  -0.633  -3.834  1.00  0.00     0.025 A 
ATOM     13  C   UNL     1      33.671  -1.100  -3.258  1.00  0.00     0.016 A 
ATOM     14  C   UNL     1      33.494  -2.462  -3.004  1.00  0.00     0.051 A 
ATOM     15  C   UNL     1      34.498  -3.380  -3.335  1.00  0.00     0.157 A 
ATOM     16  C   UNL     1      35.861  -1.560  -4.185  1.00  0.00     0.062 A 
ATOM     17  C   UNL     1      35.686  -2.926  -3.934  1.00  0.00     0.158 A 
BRANCH  15  18
ATOM     18  O   UNL     1      34.319  -4.739  -3.079  1.00  0.00    -0.504 OA
ATOM     19  H   UNL     1      34.577  -5.445  -3.758  1.00  0.00     0.293 HD
ENDBRANCH  15  18
BRANCH  17  20
ATOM     20  O   UNL     1      36.699  -3.815  -4.289  1.00  0.00    -0.504 OA
ATOM     21  H   UNL     1      36.558  -4.818  -4.294  1.00  0.00     0.293 HD
ENDBRANCH  17  20
ENDBRANCH   1  12
BRANCH   2  22
ATOM     22  O   UNL     1      34.115   0.577  -6.357  1.00  0.00    -0.502 OA
ATOM     23  H   UNL     1      33.159   0.239  -6.362  1.00  0.00     0.293 HD
ENDBRANCH   2  22
BRANCH   6  24
ATOM     24  O   UNL     1      34.992   5.774  -5.587  1.00  0.00    -0.507 OA
ATOM     25  H   UNL     1      35.521   6.039  -6.405  1.00  0.00     0.293 HD
ENDBRANCH   6  24
BRANCH   8  26
ATOM     26  O   UNL     1      37.226   5.656  -1.358  1.00  0.00    -0.508 OA
ATOM     27  H   UNL     1      37.779   5.179  -0.655  1.00  0.00     0.293 HD
ENDBRANCH   8  26
TORSDOF 6
ENDMDL
