MODEL 1
REMARK VINA RESULT:    -3.587      0.000      0.000
REMARK INTER + INTRA:          -9.069
REMARK INTER:                  -7.782
REMARK INTRA:                  -1.287
REMARK UNBOUND:                -1.287
REMARK SMILES CCCCCCCCCCCCCCCCCCCCCC(=O)[O-]
REMARK SMILES IDX 12 1 11 2 10 3 9 4 8 5 7 6 6 7 5 8 4 9 3 10 2 11 1 12 13 13
REMARK SMILES IDX 14 14 15 15 16 16 17 17 18 18 19 19 20 20 21 21 22 22 23 23
REMARK SMILES IDX 24 24
REMARK H PARENT
REMARK Flexibility Score: inf
ROOT
ATOM      1  C   UNL     1       6.264   4.108  50.905  1.00  0.00     0.000 C 
ENDROOT
BRANCH   1   2
ATOM      2  C   UNL     1       4.861   4.263  50.290  1.00  0.00     0.000 C 
BRANCH   2   3
ATOM      3  C   UNL     1       3.771   3.384  50.932  1.00  0.00     0.000 C 
BRANCH   3   4
ATOM      4  C   UNL     1       2.546   3.197  50.022  1.00  0.00    -0.000 C 
BRANCH   4   5
ATOM      5  C   UNL     1       1.215   3.516  50.730  1.00  0.00    -0.000 C 
BRANCH   5   6
ATOM      6  C   UNL     1       0.695   4.952  50.542  1.00  0.00    -0.000 C 
BRANCH   6   7
ATOM      7  C   UNL     1      -0.838   5.036  50.482  1.00  0.00    -0.000 C 
BRANCH   7   8
ATOM      8  C   UNL     1      -1.442   3.700  50.020  1.00  0.00    -0.000 C 
BRANCH   8   9
ATOM      9  C   UNL     1      -2.972   3.757  49.884  1.00  0.00    -0.000 C 
BRANCH   9  10
ATOM     10  C   UNL     1      -3.686   2.786  50.841  1.00  0.00    -0.000 C 
BRANCH  10  11
ATOM     11  C   UNL     1      -5.042   3.327  51.324  1.00  0.00    -0.003 C 
ATOM     12  C   UNL     1      -5.488   4.576  50.563  1.00  0.00     0.004 C 
ENDBRANCH  10  11
ENDBRANCH   9  10
ENDBRANCH   8   9
ENDBRANCH   7   8
ENDBRANCH   6   7
ENDBRANCH   5   6
ENDBRANCH   4   5
ENDBRANCH   3   4
ENDBRANCH   2   3
ENDBRANCH   1   2
BRANCH   1  13
ATOM     13  C   UNL     1       7.309   3.613  49.890  1.00  0.00     0.000 C 
BRANCH  13  14
ATOM     14  C   UNL     1       8.351   2.674  50.533  1.00  0.00     0.000 C 
BRANCH  14  15
ATOM     15  C   UNL     1       9.806   3.028  50.175  1.00  0.00     0.000 C 
BRANCH  15  16
ATOM     16  C   UNL     1      10.783   2.788  51.335  1.00  0.00     0.000 C 
BRANCH  16  17
ATOM     17  C   UNL     1      11.581   4.046  51.717  1.00  0.00     0.000 C 
BRANCH  17  18
ATOM     18  C   UNL     1      10.998   5.346  51.121  1.00  0.00     0.000 C 
BRANCH  18  19
ATOM     19  C   UNL     1      10.532   6.323  52.210  1.00  0.00     0.000 C 
BRANCH  19  20
ATOM     20  C   UNL     1      10.076   5.570  53.466  1.00  0.00     0.006 C 
BRANCH  20  21
ATOM     21  C   UNL     1       8.697   4.938  53.258  1.00  0.00     0.053 C 
BRANCH  21  22
ATOM     22  C   UNL     1       7.947   4.878  54.550  1.00  0.00     0.041 C 
ATOM     23  O   UNL     1       6.746   4.498  54.567  1.00  0.00    -0.550 OA
ATOM     24  O   UNL     1       8.556   5.292  55.730  1.00  0.00    -0.550 OA
ENDBRANCH  21  22
ENDBRANCH  20  21
ENDBRANCH  19  20
ENDBRANCH  18  19
ENDBRANCH  17  18
ENDBRANCH  16  17
ENDBRANCH  15  16
ENDBRANCH  14  15
ENDBRANCH  13  14
ENDBRANCH   1  13
TORSDOF 20
ENDMDL
MODEL 2
REMARK VINA RESULT:    -3.239      3.922      6.356
REMARK INTER + INTRA:          -8.313
REMARK INTER:                  -6.285
REMARK INTRA:                  -2.028
REMARK UNBOUND:                -1.287
REMARK SMILES CCCCCCCCCCCCCCCCCCCCCC(=O)[O-]
REMARK SMILES IDX 12 1 11 2 10 3 9 4 8 5 7 6 6 7 5 8 4 9 3 10 2 11 1 12 13 13
REMARK SMILES IDX 14 14 15 15 16 16 17 17 18 18 19 19 20 20 21 21 22 22 23 23
REMARK SMILES IDX 24 24
REMARK H PARENT
REMARK Flexibility Score: inf
ROOT
ATOM      1  C   UNL     1       6.087   4.869  53.686  1.00  0.00     0.000 C 
ENDROOT
BRANCH   1   2
ATOM      2  C   UNL     1       6.629   4.418  55.054  1.00  0.00     0.000 C 
BRANCH   2   3
ATOM      3  C   UNL     1       8.121   4.716  55.292  1.00  0.00     0.000 C 
BRANCH   3   4
ATOM      4  C   UNL     1       8.716   5.656  54.229  1.00  0.00    -0.000 C 
BRANCH   4   5
ATOM      5  C   UNL     1       8.765   5.023  52.824  1.00  0.00    -0.000 C 
BRANCH   5   6
ATOM      6  C   UNL     1       8.885   6.019  51.657  1.00  0.00    -0.000 C 
BRANCH   6   7
ATOM      7  C   UNL     1       8.033   5.626  50.440  1.00  0.00    -0.000 C 
BRANCH   7   8
ATOM      8  C   UNL     1       6.895   6.635  50.219  1.00  0.00    -0.000 C 
BRANCH   8   9
ATOM      9  C   UNL     1       5.554   5.956  49.898  1.00  0.00    -0.000 C 
BRANCH   9  10
ATOM     10  C   UNL     1       4.395   6.507  50.745  1.00  0.00    -0.000 C 
BRANCH  10  11
ATOM     11  C   UNL     1       3.052   5.834  50.416  1.00  0.00    -0.003 C 
ATOM     12  C   UNL     1       3.150   4.308  50.374  1.00  0.00     0.004 C 
ENDBRANCH  10  11
ENDBRANCH   9  10
ENDBRANCH   8   9
ENDBRANCH   7   8
ENDBRANCH   6   7
ENDBRANCH   5   6
ENDBRANCH   4   5
ENDBRANCH   3   4
ENDBRANCH   2   3
ENDBRANCH   1   2
BRANCH   1  13
ATOM     13  C   UNL     1       5.518   3.705  52.855  1.00  0.00     0.000 C 
BRANCH  13  14
ATOM     14  C   UNL     1       6.627   2.815  52.257  1.00  0.00     0.000 C 
BRANCH  14  15
ATOM     15  C   UNL     1       6.404   2.462  50.776  1.00  0.00     0.000 C 
BRANCH  15  16
ATOM     16  C   UNL     1       7.716   2.245  50.008  1.00  0.00     0.000 C 
BRANCH  16  17
ATOM     17  C   UNL     1       8.903   1.919  50.930  1.00  0.00     0.000 C 
BRANCH  17  18
ATOM     18  C   UNL     1      10.216   2.610  50.505  1.00  0.00     0.000 C 
BRANCH  18  19
ATOM     19  C   UNL     1      11.010   3.135  51.710  1.00  0.00     0.000 C 
BRANCH  19  20
ATOM     20  C   UNL     1      12.246   3.920  51.255  1.00  0.00     0.006 C 
BRANCH  20  21
ATOM     21  C   UNL     1      11.870   4.982  50.216  1.00  0.00     0.053 C 
BRANCH  21  22
ATOM     22  C   UNL     1      12.311   6.337  50.668  1.00  0.00     0.041 C 
ATOM     23  O   UNL     1      11.871   6.819  51.745  1.00  0.00    -0.550 OA
ATOM     24  O   UNL     1      13.169   7.091  49.875  1.00  0.00    -0.550 OA
ENDBRANCH  21  22
ENDBRANCH  20  21
ENDBRANCH  19  20
ENDBRANCH  18  19
ENDBRANCH  17  18
ENDBRANCH  16  17
ENDBRANCH  15  16
ENDBRANCH  14  15
ENDBRANCH  13  14
ENDBRANCH   1  13
TORSDOF 20
ENDMDL
MODEL 3
REMARK VINA RESULT:    -2.799      4.062     11.932
REMARK INTER + INTRA:          -7.360
REMARK INTER:                  -6.724
REMARK INTRA:                  -0.636
REMARK UNBOUND:                -1.287
REMARK SMILES CCCCCCCCCCCCCCCCCCCCCC(=O)[O-]
REMARK SMILES IDX 12 1 11 2 10 3 9 4 8 5 7 6 6 7 5 8 4 9 3 10 2 11 1 12 13 13
REMARK SMILES IDX 14 14 15 15 16 16 17 17 18 18 19 19 20 20 21 21 22 22 23 23
REMARK SMILES IDX 24 24
REMARK H PARENT
REMARK Flexibility Score: inf
ROOT
ATOM      1  C   UNL     1       4.338   5.544  51.200  1.00  0.00     0.000 C 
ENDROOT
BRANCH   1   2
ATOM      2  C   UNL     1       5.515   4.554  51.123  1.00  0.00     0.000 C 
BRANCH   2   3
ATOM      3  C   UNL     1       5.348   3.280  51.972  1.00  0.00     0.000 C 
BRANCH   3   4
ATOM      4  C   UNL     1       6.693   2.641  52.357  1.00  0.00    -0.000 C 
BRANCH   4   5
ATOM      5  C   UNL     1       7.365   1.899  51.186  1.00  0.00    -0.000 C 
BRANCH   5   6
ATOM      6  C   UNL     1       8.031   2.799  50.130  1.00  0.00    -0.000 C 
BRANCH   6   7
ATOM      7  C   UNL     1       9.551   2.595  50.036  1.00  0.00    -0.000 C 
BRANCH   7   8
ATOM      8  C   UNL     1      10.267   3.256  51.225  1.00  0.00    -0.000 C 
BRANCH   8   9
ATOM      9  C   UNL     1      10.745   4.683  50.910  1.00  0.00    -0.000 C 
BRANCH   9  10
ATOM     10  C   UNL     1      12.180   4.945  51.397  1.00  0.00    -0.000 C 
BRANCH  10  11
ATOM     11  C   UNL     1      13.080   5.523  50.292  1.00  0.00    -0.003 C 
ATOM     12  C   UNL     1      13.051   7.051  50.242  1.00  0.00     0.004 C 
ENDBRANCH  10  11
ENDBRANCH   9  10
ENDBRANCH   8   9
ENDBRANCH   7   8
ENDBRANCH   6   7
ENDBRANCH   5   6
ENDBRANCH   4   5
ENDBRANCH   3   4
ENDBRANCH   2   3
ENDBRANCH   1   2
BRANCH   1  13
ATOM     13  C   UNL     1       2.994   4.906  50.807  1.00  0.00     0.000 C 
BRANCH  13  14
ATOM     14  C   UNL     1       2.000   5.939  50.235  1.00  0.00     0.000 C 
BRANCH  14  15
ATOM     15  C   UNL     1       0.570   5.396  50.074  1.00  0.00     0.000 C 
BRANCH  15  16
ATOM     16  C   UNL     1      -0.491   6.505  50.038  1.00  0.00     0.000 C 
BRANCH  16  17
ATOM     17  C   UNL     1      -1.913   5.983  50.303  1.00  0.00     0.000 C 
BRANCH  17  18
ATOM     18  C   UNL     1      -2.935   7.104  50.589  1.00  0.00     0.000 C 
BRANCH  18  19
ATOM     19  C   UNL     1      -4.277   6.858  49.886  1.00  0.00     0.000 C 
BRANCH  19  20
ATOM     20  C   UNL     1      -4.626   5.365  49.875  1.00  0.00     0.006 C 
BRANCH  20  21
ATOM     21  C   UNL     1      -5.431   4.979  51.120  1.00  0.00     0.053 C 
BRANCH  21  22
ATOM     22  C   UNL     1      -5.270   3.523  51.419  1.00  0.00     0.041 C 
ATOM     23  O   UNL     1      -6.078   2.943  52.191  1.00  0.00    -0.550 OA
ATOM     24  O   UNL     1      -4.198   2.816  50.884  1.00  0.00    -0.550 OA
ENDBRANCH  21  22
ENDBRANCH  20  21
ENDBRANCH  19  20
ENDBRANCH  18  19
ENDBRANCH  17  18
ENDBRANCH  16  17
ENDBRANCH  15  16
ENDBRANCH  14  15
ENDBRANCH  13  14
ENDBRANCH   1  13
TORSDOF 20
ENDMDL
MODEL 4
REMARK VINA RESULT:    -2.617      3.582      8.914
REMARK INTER + INTRA:          -6.965
REMARK INTER:                  -6.008
REMARK INTRA:                  -0.956
REMARK UNBOUND:                -1.287
REMARK SMILES CCCCCCCCCCCCCCCCCCCCCC(=O)[O-]
REMARK SMILES IDX 12 1 11 2 10 3 9 4 8 5 7 6 6 7 5 8 4 9 3 10 2 11 1 12 13 13
REMARK SMILES IDX 14 14 15 15 16 16 17 17 18 18 19 19 20 20 21 21 22 22 23 23
REMARK SMILES IDX 24 24
REMARK H PARENT
REMARK Flexibility Score: inf
ROOT
ATOM      1  C   UNL     1       9.131   3.345  49.953  1.00  0.00     0.000 C 
ENDROOT
BRANCH   1   2
ATOM      2  C   UNL     1       9.674   4.784  49.876  1.00  0.00     0.000 C 
BRANCH   2   3
ATOM      3  C   UNL     1       8.605   5.887  49.978  1.00  0.00     0.000 C 
BRANCH   3   4
ATOM      4  C   UNL     1       9.203   7.303  49.919  1.00  0.00    -0.000 C 
BRANCH   4   5
ATOM      5  C   UNL     1      10.501   7.443  50.738  1.00  0.00    -0.000 C 
BRANCH   5   6
ATOM      6  C   UNL     1      11.191   6.118  51.111  1.00  0.00    -0.000 C 
BRANCH   6   7
ATOM      7  C   UNL     1      11.369   5.936  52.626  1.00  0.00    -0.000 C 
BRANCH   7   8
ATOM      8  C   UNL     1      10.104   6.371  53.382  1.00  0.00    -0.000 C 
BRANCH   8   9
ATOM      9  C   UNL     1       9.363   5.189  54.028  1.00  0.00    -0.000 C 
BRANCH   9  10
ATOM     10  C   UNL     1       8.298   5.642  55.041  1.00  0.00    -0.000 C 
BRANCH  10  11
ATOM     11  C   UNL     1       7.228   4.566  55.292  1.00  0.00    -0.003 C 
ATOM     12  C   UNL     1       6.250   4.419  54.126  1.00  0.00     0.004 C 
ENDBRANCH  10  11
ENDBRANCH   9  10
ENDBRANCH   8   9
ENDBRANCH   7   8
ENDBRANCH   6   7
ENDBRANCH   5   6
ENDBRANCH   4   5
ENDBRANCH   3   4
ENDBRANCH   2   3
ENDBRANCH   1   2
BRANCH   1  13
ATOM     13  C   UNL     1       8.732   2.932  51.381  1.00  0.00     0.000 C 
BRANCH  13  14
ATOM     14  C   UNL     1       7.294   2.376  51.449  1.00  0.00     0.000 C 
BRANCH  14  15
ATOM     15  C   UNL     1       6.651   2.155  50.069  1.00  0.00     0.000 C 
BRANCH  15  16
ATOM     16  C   UNL     1       5.302   2.871  49.914  1.00  0.00     0.000 C 
BRANCH  16  17
ATOM     17  C   UNL     1       5.387   4.378  50.204  1.00  0.00     0.000 C 
BRANCH  17  18
ATOM     18  C   UNL     1       4.203   4.910  51.039  1.00  0.00     0.000 C 
BRANCH  18  19
ATOM     19  C   UNL     1       3.103   5.522  50.161  1.00  0.00     0.000 C 
BRANCH  19  20
ATOM     20  C   UNL     1       1.715   5.047  50.606  1.00  0.00     0.006 C 
BRANCH  20  21
ATOM     21  C   UNL     1       1.605   3.521  50.527  1.00  0.00     0.053 C 
BRANCH  21  22
ATOM     22  C   UNL     1       0.171   3.099  50.490  1.00  0.00     0.041 C 
ATOM     23  O   UNL     1      -0.128   1.887  50.326  1.00  0.00    -0.550 OA
ATOM     24  O   UNL     1      -0.839   4.051  50.586  1.00  0.00    -0.550 OA
ENDBRANCH  21  22
ENDBRANCH  20  21
ENDBRANCH  19  20
ENDBRANCH  18  19
ENDBRANCH  17  18
ENDBRANCH  16  17
ENDBRANCH  15  16
ENDBRANCH  14  15
ENDBRANCH  13  14
ENDBRANCH   1  13
TORSDOF 20
ENDMDL
MODEL 5
REMARK VINA RESULT:    -2.594      1.442      2.424
REMARK INTER + INTRA:          -6.913
REMARK INTER:                  -5.890
REMARK INTRA:                  -1.023
REMARK UNBOUND:                -1.287
REMARK SMILES CCCCCCCCCCCCCCCCCCCCCC(=O)[O-]
REMARK SMILES IDX 12 1 11 2 10 3 9 4 8 5 7 6 6 7 5 8 4 9 3 10 2 11 1 12 13 13
REMARK SMILES IDX 14 14 15 15 16 16 17 17 18 18 19 19 20 20 21 21 22 22 23 23
REMARK SMILES IDX 24 24
REMARK H PARENT
REMARK Flexibility Score: inf
ROOT
ATOM      1  C   UNL     1       7.299   4.194  51.764  1.00  0.00     0.000 C 
ENDROOT
BRANCH   1   2
ATOM      2  C   UNL     1       6.283   3.222  52.392  1.00  0.00     0.000 C 
BRANCH   2   3
ATOM      3  C   UNL     1       4.951   3.093  51.631  1.00  0.00     0.000 C 
BRANCH   3   4
ATOM      4  C   UNL     1       4.677   4.292  50.706  1.00  0.00    -0.000 C 
BRANCH   4   5
ATOM      5  C   UNL     1       3.727   5.331  51.332  1.00  0.00    -0.000 C 
BRANCH   5   6
ATOM      6  C   UNL     1       3.042   6.282  50.334  1.00  0.00    -0.000 C 
BRANCH   6   7
ATOM      7  C   UNL     1       1.663   5.783  49.875  1.00  0.00    -0.000 C 
BRANCH   7   8
ATOM      8  C   UNL     1       1.237   4.541  50.673  1.00  0.00    -0.000 C 
BRANCH   8   9
ATOM      9  C   UNL     1      -0.050   3.899  50.129  1.00  0.00    -0.000 C 
BRANCH   9  10
ATOM     10  C   UNL     1      -0.251   2.460  50.633  1.00  0.00    -0.000 C 
BRANCH  10  11
ATOM     11  C   UNL     1      -1.724   2.021  50.591  1.00  0.00    -0.003 C 
ATOM     12  C   UNL     1      -2.694   3.203  50.575  1.00  0.00     0.004 C 
ENDBRANCH  10  11
ENDBRANCH   9  10
ENDBRANCH   8   9
ENDBRANCH   7   8
ENDBRANCH   6   7
ENDBRANCH   5   6
ENDBRANCH   4   5
ENDBRANCH   3   4
ENDBRANCH   2   3
ENDBRANCH   1   2
BRANCH   1  13
ATOM     13  C   UNL     1       8.626   3.511  51.389  1.00  0.00     0.000 C 
BRANCH  13  14
ATOM     14  C   UNL     1       9.264   4.125  50.125  1.00  0.00     0.000 C 
BRANCH  14  15
ATOM     15  C   UNL     1       9.199   5.662  50.085  1.00  0.00     0.000 C 
BRANCH  15  16
ATOM     16  C   UNL     1      10.562   6.326  50.327  1.00  0.00     0.000 C 
BRANCH  16  17
ATOM     17  C   UNL     1      11.620   5.345  50.858  1.00  0.00     0.000 C 
BRANCH  17  18
ATOM     18  C   UNL     1      11.799   5.406  52.390  1.00  0.00     0.000 C 
BRANCH  18  19
ATOM     19  C   UNL     1      10.878   6.448  53.040  1.00  0.00     0.000 C 
BRANCH  19  20
ATOM     20  C   UNL     1      10.225   5.890  54.310  1.00  0.00     0.006 C 
BRANCH  20  21
ATOM     21  C   UNL     1       8.820   5.354  54.016  1.00  0.00     0.053 C 
BRANCH  21  22
ATOM     22  C   UNL     1       8.067   5.129  55.287  1.00  0.00     0.041 C 
ATOM     23  O   UNL     1       8.599   5.407  56.395  1.00  0.00    -0.550 OA
ATOM     24  O   UNL     1       6.796   4.566  55.255  1.00  0.00    -0.550 OA
ENDBRANCH  21  22
ENDBRANCH  20  21
ENDBRANCH  19  20
ENDBRANCH  18  19
ENDBRANCH  17  18
ENDBRANCH  16  17
ENDBRANCH  15  16
ENDBRANCH  14  15
ENDBRANCH  13  14
ENDBRANCH   1  13
TORSDOF 20
ENDMDL
MODEL 6
REMARK VINA RESULT:    -2.511      4.108     10.877
REMARK INTER + INTRA:          -6.733
REMARK INTER:                  -5.859
REMARK INTRA:                  -0.875
REMARK UNBOUND:                -1.287
REMARK SMILES CCCCCCCCCCCCCCCCCCCCCC(=O)[O-]
REMARK SMILES IDX 12 1 11 2 10 3 9 4 8 5 7 6 6 7 5 8 4 9 3 10 2 11 1 12 13 13
REMARK SMILES IDX 14 14 15 15 16 16 17 17 18 18 19 19 20 20 21 21 22 22 23 23
REMARK SMILES IDX 24 24
REMARK H PARENT
REMARK Flexibility Score: inf
ROOT
ATOM      1  C   UNL     1       6.701   4.130  51.974  1.00  0.00     0.000 C 
ENDROOT
BRANCH   1   2
ATOM      2  C   UNL     1       7.013   4.174  53.482  1.00  0.00     0.000 C 
BRANCH   2   3
ATOM      3  C   UNL     1       8.506   4.054  53.839  1.00  0.00     0.000 C 
BRANCH   3   4
ATOM      4  C   UNL     1       9.010   5.232  54.690  1.00  0.00    -0.000 C 
BRANCH   4   5
ATOM      5  C   UNL     1       9.607   6.374  53.844  1.00  0.00    -0.000 C 
BRANCH   5   6
ATOM      6  C   UNL     1      10.282   5.938  52.531  1.00  0.00    -0.000 C 
BRANCH   6   7
ATOM      7  C   UNL     1       9.297   5.812  51.359  1.00  0.00    -0.000 C 
BRANCH   7   8
ATOM      8  C   UNL     1      10.028   5.407  50.070  1.00  0.00    -0.000 C 
BRANCH   8   9
ATOM      9  C   UNL     1      10.703   4.030  50.178  1.00  0.00    -0.000 C 
BRANCH   9  10
ATOM     10  C   UNL     1       9.846   3.011  50.949  1.00  0.00    -0.000 C 
BRANCH  10  11
ATOM     11  C   UNL     1      10.695   2.038  51.782  1.00  0.00    -0.003 C 
ATOM     12  C   UNL     1      11.855   2.728  52.500  1.00  0.00     0.004 C 
ENDBRANCH  10  11
ENDBRANCH   9  10
ENDBRANCH   8   9
ENDBRANCH   7   8
ENDBRANCH   6   7
ENDBRANCH   5   6
ENDBRANCH   4   5
ENDBRANCH   3   4
ENDBRANCH   2   3
ENDBRANCH   1   2
BRANCH   1  13
ATOM     13  C   UNL     1       5.249   3.719  51.676  1.00  0.00     0.000 C 
BRANCH  13  14
ATOM     14  C   UNL     1       4.299   4.933  51.605  1.00  0.00     0.000 C 
BRANCH  14  15
ATOM     15  C   UNL     1       3.968   5.375  50.168  1.00  0.00     0.000 C 
BRANCH  15  16
ATOM     16  C   UNL     1       2.466   5.591  49.939  1.00  0.00     0.000 C 
BRANCH  16  17
ATOM     17  C   UNL     1       1.640   4.307  50.121  1.00  0.00     0.000 C 
BRANCH  17  18
ATOM     18  C   UNL     1       0.129   4.509  49.876  1.00  0.00     0.000 C 
BRANCH  18  19
ATOM     19  C   UNL     1      -0.723   3.482  50.634  1.00  0.00     0.000 C 
BRANCH  19  20
ATOM     20  C   UNL     1      -2.088   3.296  49.961  1.00  0.00     0.006 C 
BRANCH  20  21
ATOM     21  C   UNL     1      -2.955   4.549  50.120  1.00  0.00     0.053 C 
BRANCH  21  22
ATOM     22  C   UNL     1      -4.406   4.188  50.109  1.00  0.00     0.041 C 
ATOM     23  O   UNL     1      -4.758   2.980  50.169  1.00  0.00    -0.550 OA
ATOM     24  O   UNL     1      -5.371   5.181  49.979  1.00  0.00    -0.550 OA
ENDBRANCH  21  22
ENDBRANCH  20  21
ENDBRANCH  19  20
ENDBRANCH  18  19
ENDBRANCH  17  18
ENDBRANCH  16  17
ENDBRANCH  15  16
ENDBRANCH  14  15
ENDBRANCH  13  14
ENDBRANCH   1  13
TORSDOF 20
ENDMDL
MODEL 7
REMARK VINA RESULT:    -2.439      4.202     11.419
REMARK INTER + INTRA:          -6.578
REMARK INTER:                  -6.293
REMARK INTRA:                  -0.284
REMARK UNBOUND:                -1.287
REMARK SMILES CCCCCCCCCCCCCCCCCCCCCC(=O)[O-]
REMARK SMILES IDX 12 1 11 2 10 3 9 4 8 5 7 6 6 7 5 8 4 9 3 10 2 11 1 12 13 13
REMARK SMILES IDX 14 14 15 15 16 16 17 17 18 18 19 19 20 20 21 21 22 22 23 23
REMARK SMILES IDX 24 24
REMARK H PARENT
REMARK Flexibility Score: inf
ROOT
ATOM      1  C   UNL     1       5.887   4.881  52.042  1.00  0.00     0.000 C 
ENDROOT
BRANCH   1   2
ATOM      2  C   UNL     1       5.819   3.358  52.260  1.00  0.00     0.000 C 
BRANCH   2   3
ATOM      3  C   UNL     1       6.552   2.517  51.199  1.00  0.00     0.000 C 
BRANCH   3   4
ATOM      4  C   UNL     1       8.079   2.703  51.245  1.00  0.00    -0.000 C 
BRANCH   4   5
ATOM      5  C   UNL     1       8.683   3.072  49.876  1.00  0.00    -0.000 C 
BRANCH   5   6
ATOM      6  C   UNL     1      10.178   3.436  49.892  1.00  0.00    -0.000 C 
BRANCH   6   7
ATOM      7  C   UNL     1      10.909   2.928  51.145  1.00  0.00    -0.000 C 
BRANCH   7   8
ATOM      8  C   UNL     1      11.510   4.098  51.940  1.00  0.00    -0.000 C 
BRANCH   8   9
ATOM      9  C   UNL     1      10.700   5.396  51.789  1.00  0.00    -0.000 C 
BRANCH   9  10
ATOM     10  C   UNL     1      11.465   6.483  51.015  1.00  0.00    -0.000 C 
BRANCH  10  11
ATOM     11  C   UNL     1      12.989   6.350  51.165  1.00  0.00    -0.003 C 
ATOM     12  C   UNL     1      13.672   5.874  49.882  1.00  0.00     0.004 C 
ENDBRANCH  10  11
ENDBRANCH   9  10
ENDBRANCH   8   9
ENDBRANCH   7   8
ENDBRANCH   6   7
ENDBRANCH   5   6
ENDBRANCH   4   5
ENDBRANCH   3   4
ENDBRANCH   2   3
ENDBRANCH   1   2
BRANCH   1  13
ATOM     13  C   UNL     1       4.832   5.389  51.044  1.00  0.00     0.000 C 
BRANCH  13  14
ATOM     14  C   UNL     1       4.216   4.246  50.210  1.00  0.00     0.000 C 
BRANCH  14  15
ATOM     15  C   UNL     1       3.135   3.448  50.959  1.00  0.00     0.000 C 
BRANCH  15  16
ATOM     16  C   UNL     1       2.216   2.655  50.019  1.00  0.00     0.000 C 
BRANCH  16  17
ATOM     17  C   UNL     1       0.820   3.283  49.876  1.00  0.00     0.000 C 
BRANCH  17  18
ATOM     18  C   UNL     1      -0.239   2.639  50.796  1.00  0.00     0.000 C 
BRANCH  18  19
ATOM     19  C   UNL     1      -1.491   2.202  50.021  1.00  0.00     0.000 C 
BRANCH  19  20
ATOM     20  C   UNL     1      -2.639   3.197  50.224  1.00  0.00     0.006 C 
BRANCH  20  21
ATOM     21  C   UNL     1      -3.709   2.619  51.156  1.00  0.00     0.053 C 
BRANCH  21  22
ATOM     22  C   UNL     1      -4.936   3.473  51.139  1.00  0.00     0.041 C 
ATOM     23  O   UNL     1      -5.816   3.334  52.029  1.00  0.00    -0.550 OA
ATOM     24  O   UNL     1      -5.134   4.389  50.112  1.00  0.00    -0.550 OA
ENDBRANCH  21  22
ENDBRANCH  20  21
ENDBRANCH  19  20
ENDBRANCH  18  19
ENDBRANCH  17  18
ENDBRANCH  16  17
ENDBRANCH  15  16
ENDBRANCH  14  15
ENDBRANCH  13  14
ENDBRANCH   1  13
TORSDOF 20
ENDMDL
