MODEL 1
REMARK VINA RESULT:    -4.852      0.000      0.000
REMARK INTER + INTRA:         -11.788
REMARK INTER:                  -9.107
REMARK INTRA:                  -2.681
REMARK UNBOUND:                -2.681
REMARK SMILES CCCCCCCCC=CCCCCCCCC(=O)[O-]
REMARK SMILES IDX 10 1 9 2 11 3 12 4 13 5 14 6 15 7 16 8 17 9 18 10 19 11
REMARK SMILES IDX 20 12 8 13 7 14 6 15 5 16 4 17 3 18 2 19 1 20
REMARK H PARENT
REMARK Flexibility Score: inf
ROOT
ATOM      1  C   UNL     1      18.310 153.610  -4.130  1.00  0.00    -0.031 C 
ATOM      2  C   UNL     1      18.354 152.998  -2.933  1.00  0.00    -0.031 C 
ENDROOT
BRANCH   1   3
ATOM      3  C   UNL     1      19.496 154.254  -4.808  1.00  0.00     0.027 C 
BRANCH   3   4
ATOM      4  C   UNL     1      19.519 155.779  -4.600  1.00  0.00     0.004 C 
BRANCH   4   5
ATOM      5  C   UNL     1      20.689 156.267  -3.727  1.00  0.00     0.000 C 
BRANCH   5   6
ATOM      6  C   UNL     1      20.228 156.735  -2.334  1.00  0.00     0.000 C 
BRANCH   6   7
ATOM      7  C   UNL     1      18.836 157.385  -2.358  1.00  0.00     0.000 C 
BRANCH   7   8
ATOM      8  C   UNL     1      17.960 156.958  -1.169  1.00  0.00     0.006 C 
BRANCH   8   9
ATOM      9  C   UNL     1      16.824 156.039  -1.627  1.00  0.00     0.053 C 
BRANCH   9  10
ATOM     10  C   UNL     1      15.607 156.249  -0.784  1.00  0.00     0.041 C 
ATOM     11  O   UNL     1      15.662 156.983   0.237  1.00  0.00    -0.550 OA
ATOM     12  O   UNL     1      14.396 155.670  -1.151  1.00  0.00    -0.550 OA
ENDBRANCH   9  10
ENDBRANCH   8   9
ENDBRANCH   7   8
ENDBRANCH   6   7
ENDBRANCH   5   6
ENDBRANCH   4   5
ENDBRANCH   3   4
ENDBRANCH   1   3
BRANCH   2  13
ATOM     13  C   UNL     1      19.567 152.951  -2.039  1.00  0.00     0.027 C 
BRANCH  13  14
ATOM     14  C   UNL     1      19.543 151.694  -1.161  1.00  0.00     0.004 C 
BRANCH  14  15
ATOM     15  C   UNL     1      20.629 150.700  -1.590  1.00  0.00     0.000 C 
BRANCH  15  16
ATOM     16  C   UNL     1      21.675 151.383  -2.482  1.00  0.00     0.000 C 
BRANCH  16  17
ATOM     17  C   UNL     1      22.042 150.548  -3.723  1.00  0.00    -0.000 C 
BRANCH  17  18
ATOM     18  C   UNL     1      21.131 150.761  -4.949  1.00  0.00    -0.000 C 
BRANCH  18  19
ATOM     19  C   UNL     1      19.812 149.970  -4.924  1.00  0.00    -0.003 C 
ATOM     20  C   UNL     1      18.849 150.383  -6.035  1.00  0.00     0.004 C 
ENDBRANCH  18  19
ENDBRANCH  17  18
ENDBRANCH  16  17
ENDBRANCH  15  16
ENDBRANCH  14  15
ENDBRANCH  13  14
ENDBRANCH   2  13
TORSDOF 15
ENDMDL
MODEL 2
REMARK VINA RESULT:    -4.840      2.344      4.246
REMARK INTER + INTRA:         -11.766
REMARK INTER:                  -9.752
REMARK INTRA:                  -2.014
REMARK UNBOUND:                -2.681
REMARK SMILES CCCCCCCCC=CCCCCCCCC(=O)[O-]
REMARK SMILES IDX 10 1 9 2 11 3 12 4 13 5 14 6 15 7 16 8 17 9 18 10 19 11
REMARK SMILES IDX 20 12 8 13 7 14 6 15 5 16 4 17 3 18 2 19 1 20
REMARK H PARENT
REMARK Flexibility Score: inf
ROOT
ATOM      1  C   UNL     1      18.664 157.404  -2.459  1.00  0.00    -0.031 C 
ATOM      2  C   UNL     1      18.169 157.120  -3.677  1.00  0.00    -0.031 C 
ENDROOT
BRANCH   1   3
ATOM      3  C   UNL     1      19.043 156.372  -1.424  1.00  0.00     0.027 C 
BRANCH   3   4
ATOM      4  C   UNL     1      18.028 156.317  -0.269  1.00  0.00     0.004 C 
BRANCH   4   5
ATOM      5  C   UNL     1      16.824 157.259  -0.457  1.00  0.00     0.000 C 
BRANCH   5   6
ATOM      6  C   UNL     1      15.487 156.499  -0.526  1.00  0.00     0.000 C 
BRANCH   6   7
ATOM      7  C   UNL     1      15.631 155.104  -1.155  1.00  0.00     0.000 C 
BRANCH   7   8
ATOM      8  C   UNL     1      14.407 154.701  -1.992  1.00  0.00     0.006 C 
BRANCH   8   9
ATOM      9  C   UNL     1      14.783 153.650  -3.041  1.00  0.00     0.053 C 
BRANCH   9  10
ATOM     10  C   UNL     1      13.672 152.665  -3.219  1.00  0.00     0.041 C 
ATOM     11  O   UNL     1      12.507 153.063  -3.485  1.00  0.00    -0.550 OA
ATOM     12  O   UNL     1      13.929 151.300  -3.134  1.00  0.00    -0.550 OA
ENDBRANCH   9  10
ENDBRANCH   8   9
ENDBRANCH   7   8
ENDBRANCH   6   7
ENDBRANCH   5   6
ENDBRANCH   4   5
ENDBRANCH   3   4
ENDBRANCH   1   3
BRANCH   2  13
ATOM     13  C   UNL     1      17.820 155.734  -4.157  1.00  0.00     0.027 C 
BRANCH  13  14
ATOM     14  C   UNL     1      18.984 155.129  -4.953  1.00  0.00     0.004 C 
BRANCH  14  15
ATOM     15  C   UNL     1      19.421 153.785  -4.358  1.00  0.00     0.000 C 
BRANCH  15  16
ATOM     16  C   UNL     1      18.201 152.938  -3.966  1.00  0.00     0.000 C 
BRANCH  16  17
ATOM     17  C   UNL     1      18.574 151.498  -3.569  1.00  0.00    -0.000 C 
BRANCH  17  18
ATOM     18  C   UNL     1      18.173 150.412  -4.588  1.00  0.00    -0.000 C 
BRANCH  18  19
ATOM     19  C   UNL     1      19.003 150.397  -5.883  1.00  0.00    -0.003 C 
ATOM     20  C   UNL     1      20.506 150.312  -5.625  1.00  0.00     0.004 C 
ENDBRANCH  18  19
ENDBRANCH  17  18
ENDBRANCH  16  17
ENDBRANCH  15  16
ENDBRANCH  14  15
ENDBRANCH  13  14
ENDBRANCH   2  13
TORSDOF 15
ENDMDL
MODEL 3
REMARK VINA RESULT:    -4.833      1.042      2.343
REMARK INTER + INTRA:         -11.752
REMARK INTER:                  -9.487
REMARK INTRA:                  -2.265
REMARK UNBOUND:                -2.681
REMARK SMILES CCCCCCCCC=CCCCCCCCC(=O)[O-]
REMARK SMILES IDX 10 1 9 2 11 3 12 4 13 5 14 6 15 7 16 8 17 9 18 10 19 11
REMARK SMILES IDX 20 12 8 13 7 14 6 15 5 16 4 17 3 18 2 19 1 20
REMARK H PARENT
REMARK Flexibility Score: inf
ROOT
ATOM      1  C   UNL     1      18.190 154.470  -4.248  1.00  0.00    -0.031 C 
ATOM      2  C   UNL     1      18.530 153.174  -4.119  1.00  0.00    -0.031 C 
ENDROOT
BRANCH   1   3
ATOM      3  C   UNL     1      18.808 155.424  -5.242  1.00  0.00     0.027 C 
BRANCH   3   4
ATOM      4  C   UNL     1      19.358 156.688  -4.559  1.00  0.00     0.004 C 
BRANCH   4   5
ATOM      5  C   UNL     1      20.318 156.394  -3.392  1.00  0.00     0.000 C 
BRANCH   5   6
ATOM      6  C   UNL     1      19.757 156.863  -2.037  1.00  0.00     0.000 C 
BRANCH   6   7
ATOM      7  C   UNL     1      18.454 157.664  -2.180  1.00  0.00     0.000 C 
BRANCH   7   8
ATOM      8  C   UNL     1      17.403 157.283  -1.126  1.00  0.00     0.006 C 
BRANCH   8   9
ATOM      9  C   UNL     1      17.381 155.768  -0.896  1.00  0.00     0.053 C 
BRANCH   9  10
ATOM     10  C   UNL     1      16.001 155.228  -1.091  1.00  0.00     0.041 C 
ATOM     11  O   UNL     1      15.832 154.024  -1.419  1.00  0.00    -0.550 OA
ATOM     12  O   UNL     1      14.895 156.042  -0.869  1.00  0.00    -0.550 OA
ENDBRANCH   9  10
ENDBRANCH   8   9
ENDBRANCH   7   8
ENDBRANCH   6   7
ENDBRANCH   5   6
ENDBRANCH   4   5
ENDBRANCH   3   4
ENDBRANCH   1   3
BRANCH   2  13
ATOM     13  C   UNL     1      19.648 152.504  -4.874  1.00  0.00     0.027 C 
BRANCH  13  14
ATOM     14  C   UNL     1      19.259 151.069  -5.255  1.00  0.00     0.004 C 
BRANCH  14  15
ATOM     15  C   UNL     1      20.346 150.072  -4.835  1.00  0.00     0.000 C 
BRANCH  15  16
ATOM     16  C   UNL     1      21.591 150.806  -4.316  1.00  0.00     0.000 C 
BRANCH  16  17
ATOM     17  C   UNL     1      22.196 150.147  -3.063  1.00  0.00    -0.000 C 
BRANCH  17  18
ATOM     18  C   UNL     1      21.208 149.913  -1.903  1.00  0.00    -0.000 C 
BRANCH  18  19
ATOM     19  C   UNL     1      20.492 151.175  -1.394  1.00  0.00    -0.003 C 
ATOM     20  C   UNL     1      18.996 150.962  -1.171  1.00  0.00     0.004 C 
ENDBRANCH  18  19
ENDBRANCH  17  18
ENDBRANCH  16  17
ENDBRANCH  15  16
ENDBRANCH  14  15
ENDBRANCH  13  14
ENDBRANCH   2  13
TORSDOF 15
ENDMDL
MODEL 4
REMARK VINA RESULT:    -4.821      1.961      4.219
REMARK INTER + INTRA:         -11.730
REMARK INTER:                  -9.302
REMARK INTRA:                  -2.428
REMARK UNBOUND:                -2.681
REMARK SMILES CCCCCCCCC=CCCCCCCCC(=O)[O-]
REMARK SMILES IDX 10 1 9 2 11 3 12 4 13 5 14 6 15 7 16 8 17 9 18 10 19 11
REMARK SMILES IDX 20 12 8 13 7 14 6 15 5 16 4 17 3 18 2 19 1 20
REMARK H PARENT
REMARK Flexibility Score: inf
ROOT
ATOM      1  C   UNL     1      19.446 150.519  -5.787  1.00  0.00    -0.031 C 
ATOM      2  C   UNL     1      18.168 150.614  -5.376  1.00  0.00    -0.031 C 
ENDROOT
BRANCH   1   3
ATOM      3  C   UNL     1      20.620 150.235  -4.882  1.00  0.00     0.027 C 
BRANCH   3   4
ATOM      4  C   UNL     1      21.379 151.519  -4.504  1.00  0.00     0.004 C 
BRANCH   4   5
ATOM      5  C   UNL     1      21.032 152.728  -5.393  1.00  0.00     0.000 C 
BRANCH   5   6
ATOM      6  C   UNL     1      20.752 154.000  -4.572  1.00  0.00     0.000 C 
BRANCH   6   7
ATOM      7  C   UNL     1      19.451 154.702  -4.991  1.00  0.00     0.000 C 
BRANCH   7   8
ATOM      8  C   UNL     1      19.535 156.232  -4.872  1.00  0.00     0.006 C 
BRANCH   8   9
ATOM      9  C   UNL     1      18.332 156.789  -4.106  1.00  0.00     0.053 C 
BRANCH   9  10
ATOM     10  C   UNL     1      18.701 157.075  -2.685  1.00  0.00     0.041 C 
ATOM     11  O   UNL     1      17.809 157.363  -1.844  1.00  0.00    -0.550 OA
ATOM     12  O   UNL     1      20.027 156.982  -2.277  1.00  0.00    -0.550 OA
ENDBRANCH   9  10
ENDBRANCH   8   9
ENDBRANCH   7   8
ENDBRANCH   6   7
ENDBRANCH   5   6
ENDBRANCH   4   5
ENDBRANCH   3   4
ENDBRANCH   1   3
BRANCH   2  13
ATOM     13  C   UNL     1      17.727 150.553  -3.936  1.00  0.00     0.027 C 
BRANCH  13  14
ATOM     14  C   UNL     1      17.519 151.965  -3.374  1.00  0.00     0.004 C 
BRANCH  14  15
ATOM     15  C   UNL     1      18.507 152.260  -2.239  1.00  0.00     0.000 C 
BRANCH  15  16
ATOM     16  C   UNL     1      18.994 150.958  -1.587  1.00  0.00     0.000 C 
BRANCH  16  17
ATOM     17  C   UNL     1      20.241 151.160  -0.705  1.00  0.00    -0.000 C 
BRANCH  17  18
ATOM     18  C   UNL     1      21.360 150.117  -0.904  1.00  0.00    -0.000 C 
BRANCH  18  19
ATOM     19  C   UNL     1      21.841 149.426   0.384  1.00  0.00    -0.003 C 
ATOM     20  C   UNL     1      21.540 150.238   1.642  1.00  0.00     0.004 C 
ENDBRANCH  18  19
ENDBRANCH  17  18
ENDBRANCH  16  17
ENDBRANCH  15  16
ENDBRANCH  14  15
ENDBRANCH  13  14
ENDBRANCH   2  13
TORSDOF 15
ENDMDL
MODEL 5
REMARK VINA RESULT:    -4.788      1.905      2.646
REMARK INTER + INTRA:         -11.669
REMARK INTER:                  -8.774
REMARK INTRA:                  -2.894
REMARK UNBOUND:                -2.681
REMARK SMILES CCCCCCCCC=CCCCCCCCC(=O)[O-]
REMARK SMILES IDX 10 1 9 2 11 3 12 4 13 5 14 6 15 7 16 8 17 9 18 10 19 11
REMARK SMILES IDX 20 12 8 13 7 14 6 15 5 16 4 17 3 18 2 19 1 20
REMARK H PARENT
REMARK Flexibility Score: inf
ROOT
ATOM      1  C   UNL     1      18.932 155.001  -5.066  1.00  0.00    -0.031 C 
ATOM      2  C   UNL     1      19.702 153.908  -4.913  1.00  0.00    -0.031 C 
ENDROOT
BRANCH   1   3
ATOM      3  C   UNL     1      19.313 156.390  -4.614  1.00  0.00     0.027 C 
BRANCH   3   4
ATOM      4  C   UNL     1      18.137 157.118  -3.938  1.00  0.00     0.004 C 
BRANCH   4   5
ATOM      5  C   UNL     1      18.355 157.386  -2.438  1.00  0.00     0.000 C 
BRANCH   5   6
ATOM      6  C   UNL     1      19.699 156.834  -1.930  1.00  0.00     0.000 C 
BRANCH   6   7
ATOM      7  C   UNL     1      19.528 155.671  -0.941  1.00  0.00     0.000 C 
BRANCH   7   8
ATOM      8  C   UNL     1      18.092 155.124  -0.910  1.00  0.00     0.006 C 
BRANCH   8   9
ATOM      9  C   UNL     1      18.007 153.766  -1.614  1.00  0.00     0.053 C 
BRANCH   9  10
ATOM     10  C   UNL     1      16.610 153.501  -2.075  1.00  0.00     0.041 C 
ATOM     11  O   UNL     1      15.882 152.683  -1.453  1.00  0.00    -0.550 OA
ATOM     12  O   UNL     1      16.093 154.189  -3.168  1.00  0.00    -0.550 OA
ENDBRANCH   9  10
ENDBRANCH   8   9
ENDBRANCH   7   8
ENDBRANCH   6   7
ENDBRANCH   5   6
ENDBRANCH   4   5
ENDBRANCH   3   4
ENDBRANCH   1   3
BRANCH   2  13
ATOM     13  C   UNL     1      21.017 153.885  -4.177  1.00  0.00     0.027 C 
BRANCH  13  14
ATOM     14  C   UNL     1      21.130 152.622  -3.314  1.00  0.00     0.004 C 
BRANCH  14  15
ATOM     15  C   UNL     1      21.808 151.484  -4.087  1.00  0.00     0.000 C 
BRANCH  15  16
ATOM     16  C   UNL     1      20.859 150.287  -4.242  1.00  0.00     0.000 C 
BRANCH  16  17
ATOM     17  C   UNL     1      20.155 150.254  -5.611  1.00  0.00    -0.000 C 
BRANCH  17  18
ATOM     18  C   UNL     1      18.613 150.238  -5.555  1.00  0.00    -0.000 C 
BRANCH  18  19
ATOM     19  C   UNL     1      18.007 150.685  -4.214  1.00  0.00    -0.003 C 
ATOM     20  C   UNL     1      16.578 150.186  -4.012  1.00  0.00     0.004 C 
ENDBRANCH  18  19
ENDBRANCH  17  18
ENDBRANCH  16  17
ENDBRANCH  15  16
ENDBRANCH  14  15
ENDBRANCH  13  14
ENDBRANCH   2  13
TORSDOF 15
ENDMDL
MODEL 6
REMARK VINA RESULT:    -4.773      2.379      5.938
REMARK INTER + INTRA:         -11.641
REMARK INTER:                  -8.999
REMARK INTRA:                  -2.641
REMARK UNBOUND:                -2.681
REMARK SMILES CCCCCCCCC=CCCCCCCCC(=O)[O-]
REMARK SMILES IDX 10 1 9 2 11 3 12 4 13 5 14 6 15 7 16 8 17 9 18 10 19 11
REMARK SMILES IDX 20 12 8 13 7 14 6 15 5 16 4 17 3 18 2 19 1 20
REMARK H PARENT
REMARK Flexibility Score: inf
ROOT
ATOM      1  C   UNL     1      19.263 153.802  -4.592  1.00  0.00    -0.031 C 
ATOM      2  C   UNL     1      18.736 155.012  -4.855  1.00  0.00    -0.031 C 
ENDROOT
BRANCH   1   3
ATOM      3  C   UNL     1      20.394 153.551  -3.623  1.00  0.00     0.027 C 
BRANCH   3   4
ATOM      4  C   UNL     1      21.106 152.216  -3.905  1.00  0.00     0.004 C 
BRANCH   4   5
ATOM      5  C   UNL     1      20.772 151.614  -5.283  1.00  0.00     0.000 C 
BRANCH   5   6
ATOM      6  C   UNL     1      20.018 150.277  -5.173  1.00  0.00     0.000 C 
BRANCH   6   7
ATOM      7  C   UNL     1      18.733 150.250  -6.016  1.00  0.00     0.000 C 
BRANCH   7   8
ATOM      8  C   UNL     1      17.492 149.864  -5.197  1.00  0.00     0.006 C 
BRANCH   8   9
ATOM      9  C   UNL     1      17.379 150.725  -3.935  1.00  0.00     0.053 C 
BRANCH   9  10
ATOM     10  C   UNL     1      16.024 150.582  -3.321  1.00  0.00     0.041 C 
ATOM     11  O   UNL     1      15.294 151.594  -3.151  1.00  0.00    -0.550 OA
ATOM     12  O   UNL     1      15.545 149.323  -2.974  1.00  0.00    -0.550 OA
ENDBRANCH   9  10
ENDBRANCH   8   9
ENDBRANCH   7   8
ENDBRANCH   6   7
ENDBRANCH   5   6
ENDBRANCH   4   5
ENDBRANCH   3   4
ENDBRANCH   1   3
BRANCH   2  13
ATOM     13  C   UNL     1      19.262 156.312  -4.303  1.00  0.00     0.027 C 
BRANCH  13  14
ATOM     14  C   UNL     1      18.157 157.064  -3.549  1.00  0.00     0.004 C 
BRANCH  14  15
ATOM     15  C   UNL     1      18.682 157.640  -2.229  1.00  0.00     0.000 C 
BRANCH  15  16
ATOM     16  C   UNL     1      19.542 156.607  -1.485  1.00  0.00     0.000 C 
BRANCH  16  17
ATOM     17  C   UNL     1      18.764 155.859  -0.387  1.00  0.00    -0.000 C 
BRANCH  17  18
ATOM     18  C   UNL     1      18.554 154.353  -0.642  1.00  0.00    -0.000 C 
BRANCH  18  19
ATOM     19  C   UNL     1      17.253 153.993  -1.380  1.00  0.00    -0.003 C 
ATOM     20  C   UNL     1      16.118 154.974  -1.096  1.00  0.00     0.004 C 
ENDBRANCH  18  19
ENDBRANCH  17  18
ENDBRANCH  16  17
ENDBRANCH  15  16
ENDBRANCH  14  15
ENDBRANCH  13  14
ENDBRANCH   2  13
TORSDOF 15
ENDMDL
MODEL 7
REMARK VINA RESULT:    -4.766      1.845      3.772
REMARK INTER + INTRA:         -11.627
REMARK INTER:                  -8.745
REMARK INTRA:                  -2.882
REMARK UNBOUND:                -2.681
REMARK SMILES CCCCCCCCC=CCCCCCCCC(=O)[O-]
REMARK SMILES IDX 10 1 9 2 11 3 12 4 13 5 14 6 15 7 16 8 17 9 18 10 19 11
REMARK SMILES IDX 20 12 8 13 7 14 6 15 5 16 4 17 3 18 2 19 1 20
REMARK H PARENT
REMARK Flexibility Score: inf
ROOT
ATOM      1  C   UNL     1      21.145 151.218  -5.305  1.00  0.00    -0.031 C 
ATOM      2  C   UNL     1      20.214 150.250  -5.383  1.00  0.00    -0.031 C 
ENDROOT
BRANCH   1   3
ATOM      3  C   UNL     1      20.907 152.667  -5.659  1.00  0.00     0.027 C 
BRANCH   3   4
ATOM      4  C   UNL     1      21.350 153.614  -4.530  1.00  0.00     0.004 C 
BRANCH   4   5
ATOM      5  C   UNL     1      20.565 154.938  -4.488  1.00  0.00     0.000 C 
BRANCH   5   6
ATOM      6  C   UNL     1      19.143 154.796  -5.061  1.00  0.00     0.000 C 
BRANCH   6   7
ATOM      7  C   UNL     1      18.074 155.430  -4.157  1.00  0.00     0.000 C 
BRANCH   7   8
ATOM      8  C   UNL     1      18.382 156.895  -3.809  1.00  0.00     0.006 C 
BRANCH   8   9
ATOM      9  C   UNL     1      18.046 157.193  -2.345  1.00  0.00     0.053 C 
BRANCH   9  10
ATOM     10  C   UNL     1      19.111 156.659  -1.442  1.00  0.00     0.041 C 
ATOM     11  O   UNL     1      20.312 157.002  -1.608  1.00  0.00    -0.550 OA
ATOM     12  O   UNL     1      18.775 155.816  -0.389  1.00  0.00    -0.550 OA
ENDBRANCH   9  10
ENDBRANCH   8   9
ENDBRANCH   7   8
ENDBRANCH   6   7
ENDBRANCH   5   6
ENDBRANCH   4   5
ENDBRANCH   3   4
ENDBRANCH   1   3
BRANCH   2  13
ATOM     13  C   UNL     1      18.823 150.442  -5.931  1.00  0.00     0.027 C 
BRANCH  13  14
ATOM     14  C   UNL     1      17.776 150.267  -4.823  1.00  0.00     0.004 C 
BRANCH  14  15
ATOM     15  C   UNL     1      17.687 151.520  -3.944  1.00  0.00     0.000 C 
BRANCH  15  16
ATOM     16  C   UNL     1      18.233 151.241  -2.536  1.00  0.00     0.000 C 
BRANCH  16  17
ATOM     17  C   UNL     1      18.943 152.459  -1.917  1.00  0.00    -0.000 C 
BRANCH  17  18
ATOM     18  C   UNL     1      20.346 152.176  -1.340  1.00  0.00    -0.000 C 
BRANCH  18  19
ATOM     19  C   UNL     1      20.958 150.826  -1.751  1.00  0.00    -0.003 C 
ATOM     20  C   UNL     1      21.465 150.016  -0.560  1.00  0.00     0.004 C 
ENDBRANCH  18  19
ENDBRANCH  17  18
ENDBRANCH  16  17
ENDBRANCH  15  16
ENDBRANCH  14  15
ENDBRANCH  13  14
ENDBRANCH   2  13
TORSDOF 15
ENDMDL
MODEL 8
REMARK VINA RESULT:    -4.738      3.197      6.111
REMARK INTER + INTRA:         -11.574
REMARK INTER:                  -8.634
REMARK INTRA:                  -2.940
REMARK UNBOUND:                -2.681
REMARK SMILES CCCCCCCCC=CCCCCCCCC(=O)[O-]
REMARK SMILES IDX 10 1 9 2 11 3 12 4 13 5 14 6 15 7 16 8 17 9 18 10 19 11
REMARK SMILES IDX 20 12 8 13 7 14 6 15 5 16 4 17 3 18 2 19 1 20
REMARK H PARENT
REMARK Flexibility Score: inf
ROOT
ATOM      1  C   UNL     1      20.035 149.916  -5.128  1.00  0.00    -0.031 C 
ATOM      2  C   UNL     1      21.082 150.752  -5.004  1.00  0.00    -0.031 C 
ENDROOT
BRANCH   1   3
ATOM      3  C   UNL     1      18.769 150.232  -5.888  1.00  0.00     0.027 C 
BRANCH   3   4
ATOM      4  C   UNL     1      17.524 150.162  -4.987  1.00  0.00     0.004 C 
BRANCH   4   5
ATOM      5  C   UNL     1      17.480 151.256  -3.904  1.00  0.00     0.000 C 
BRANCH   5   6
ATOM      6  C   UNL     1      17.032 150.712  -2.536  1.00  0.00     0.000 C 
BRANCH   6   7
ATOM      7  C   UNL     1      18.064 150.972  -1.427  1.00  0.00     0.000 C 
BRANCH   7   8
ATOM      8  C   UNL     1      19.338 151.653  -1.949  1.00  0.00     0.006 C 
BRANCH   8   9
ATOM      9  C   UNL     1      20.348 151.868  -0.817  1.00  0.00     0.053 C 
BRANCH   9  10
ATOM     10  C   UNL     1      21.385 150.792  -0.827  1.00  0.00     0.041 C 
ATOM     11  O   UNL     1      21.288 149.825  -1.628  1.00  0.00    -0.550 OA
ATOM     12  O   UNL     1      22.486 150.876   0.019  1.00  0.00    -0.550 OA
ENDBRANCH   9  10
ENDBRANCH   8   9
ENDBRANCH   7   8
ENDBRANCH   6   7
ENDBRANCH   5   6
ENDBRANCH   4   5
ENDBRANCH   3   4
ENDBRANCH   1   3
BRANCH   2  13
ATOM     13  C   UNL     1      21.111 152.168  -5.518  1.00  0.00     0.027 C 
BRANCH  13  14
ATOM     14  C   UNL     1      21.644 153.123  -4.442  1.00  0.00     0.004 C 
BRANCH  14  15
ATOM     15  C   UNL     1      20.804 154.404  -4.374  1.00  0.00     0.000 C 
BRANCH  15  16
ATOM     16  C   UNL     1      19.379 154.152  -4.889  1.00  0.00     0.000 C 
BRANCH  16  17
ATOM     17  C   UNL     1      18.391 155.260  -4.482  1.00  0.00    -0.000 C 
BRANCH  17  18
ATOM     18  C   UNL     1      17.366 154.860  -3.401  1.00  0.00    -0.000 C 
BRANCH  18  19
ATOM     19  C   UNL     1      17.820 155.107  -1.952  1.00  0.00    -0.003 C 
ATOM     20  C   UNL     1      18.767 156.298  -1.820  1.00  0.00     0.004 C 
ENDBRANCH  18  19
ENDBRANCH  17  18
ENDBRANCH  16  17
ENDBRANCH  15  16
ENDBRANCH  14  15
ENDBRANCH  13  14
ENDBRANCH   2  13
TORSDOF 15
ENDMDL
MODEL 9
REMARK VINA RESULT:    -4.702      2.949      6.565
REMARK INTER + INTRA:         -11.507
REMARK INTER:                  -9.036
REMARK INTRA:                  -2.471
REMARK UNBOUND:                -2.681
REMARK SMILES CCCCCCCCC=CCCCCCCCC(=O)[O-]
REMARK SMILES IDX 10 1 9 2 11 3 12 4 13 5 14 6 15 7 16 8 17 9 18 10 19 11
REMARK SMILES IDX 20 12 8 13 7 14 6 15 5 16 4 17 3 18 2 19 1 20
REMARK H PARENT
REMARK Flexibility Score: inf
ROOT
ATOM      1  C   UNL     1      18.124 151.174  -3.156  1.00  0.00    -0.031 C 
ATOM      2  C   UNL     1      18.280 152.462  -2.803  1.00  0.00    -0.031 C 
ENDROOT
BRANCH   1   3
ATOM      3  C   UNL     1      17.624 150.707  -4.503  1.00  0.00     0.027 C 
BRANCH   3   4
ATOM      4  C   UNL     1      18.679 149.871  -5.249  1.00  0.00     0.004 C 
BRANCH   4   5
ATOM      5  C   UNL     1      19.937 150.667  -5.641  1.00  0.00     0.000 C 
BRANCH   5   6
ATOM      6  C   UNL     1      21.150 150.323  -4.757  1.00  0.00     0.000 C 
BRANCH   6   7
ATOM      7  C   UNL     1      21.794 151.567  -4.124  1.00  0.00     0.000 C 
BRANCH   7   8
ATOM      8  C   UNL     1      22.013 151.417  -2.610  1.00  0.00     0.006 C 
BRANCH   8   9
ATOM      9  C   UNL     1      21.547 150.042  -2.122  1.00  0.00     0.053 C 
BRANCH   9  10
ATOM     10  C   UNL     1      21.232 150.083  -0.661  1.00  0.00     0.041 C 
ATOM     11  O   UNL     1      21.839 149.324   0.140  1.00  0.00    -0.550 OA
ATOM     12  O   UNL     1      20.298 150.991  -0.174  1.00  0.00    -0.550 OA
ENDBRANCH   9  10
ENDBRANCH   8   9
ENDBRANCH   7   8
ENDBRANCH   6   7
ENDBRANCH   5   6
ENDBRANCH   4   5
ENDBRANCH   3   4
ENDBRANCH   1   3
BRANCH   2  13
ATOM     13  C   UNL     1      17.884 153.638  -3.659  1.00  0.00     0.027 C 
BRANCH  13  14
ATOM     14  C   UNL     1      19.068 154.104  -4.517  1.00  0.00     0.004 C 
BRANCH  14  15
ATOM     15  C   UNL     1      19.608 155.453  -4.028  1.00  0.00     0.000 C 
BRANCH  15  16
ATOM     16  C   UNL     1      18.504 156.520  -4.038  1.00  0.00     0.000 C 
BRANCH  16  17
ATOM     17  C   UNL     1      18.501 157.390  -2.767  1.00  0.00    -0.000 C 
BRANCH  17  18
ATOM     18  C   UNL     1      18.076 156.661  -1.476  1.00  0.00    -0.000 C 
BRANCH  18  19
ATOM     19  C   UNL     1      16.598 156.833  -1.088  1.00  0.00    -0.003 C 
ATOM     20  C   UNL     1      15.871 155.501  -0.912  1.00  0.00     0.004 C 
ENDBRANCH  18  19
ENDBRANCH  17  18
ENDBRANCH  16  17
ENDBRANCH  15  16
ENDBRANCH  14  15
ENDBRANCH  13  14
ENDBRANCH   2  13
TORSDOF 15
ENDMDL
