MODEL 1
REMARK VINA RESULT:    -4.503      0.000      0.000
REMARK INTER + INTRA:          -8.355
REMARK INTER:                  -7.661
REMARK INTRA:                  -0.694
REMARK UNBOUND:                -0.694
REMARK SMILES CCCCCCCCCCCCCC(=O)[O-]
REMARK SMILES IDX 8 1 9 2 10 3 11 4 12 5 13 6 14 7 15 8 16 9 7 10 6 11 5 12
REMARK SMILES IDX 4 13 3 14 2 15 1 16
REMARK H PARENT
REMARK Flexibility Score: inf
ROOT
ATOM      1  C   UNL     1      48.269  -7.897  78.704  1.00  0.00     0.000 C 
ENDROOT
BRANCH   1   2
ATOM      2  C   UNL     1      49.774  -7.856  78.382  1.00  0.00     0.000 C 
BRANCH   2   3
ATOM      3  C   UNL     1      50.400  -6.474  78.630  1.00  0.00     0.000 C 
BRANCH   3   4
ATOM      4  C   UNL     1      49.344  -5.379  78.856  1.00  0.00     0.000 C 
BRANCH   4   5
ATOM      5  C   UNL     1      49.929  -3.962  78.766  1.00  0.00     0.006 C 
BRANCH   5   6
ATOM      6  C   UNL     1      51.455  -3.992  78.888  1.00  0.00     0.053 C 
BRANCH   6   7
ATOM      7  C   UNL     1      51.911  -3.098  79.998  1.00  0.00     0.041 C 
ATOM      8  O   UNL     1      53.094  -3.168  80.424  1.00  0.00    -0.550 OA
ATOM      9  O   UNL     1      51.044  -2.152  80.529  1.00  0.00    -0.550 OA
ENDBRANCH   6   7
ENDBRANCH   5   6
ENDBRANCH   4   5
ENDBRANCH   3   4
ENDBRANCH   2   3
ENDBRANCH   1   2
BRANCH   1  10
ATOM     10  C   UNL     1      47.649  -9.308  78.750  1.00  0.00     0.000 C 
BRANCH  10  11
ATOM     11  C   UNL     1      47.111  -9.744  80.128  1.00  0.00    -0.000 C 
BRANCH  11  12
ATOM     12  C   UNL     1      47.823 -10.958  80.750  1.00  0.00    -0.000 C 
BRANCH  12  13
ATOM     13  C   UNL     1      48.438 -11.894  79.698  1.00  0.00    -0.000 C 
BRANCH  13  14
ATOM     14  C   UNL     1      48.412 -13.352  80.179  1.00  0.00    -0.000 C 
BRANCH  14  15
ATOM     15  C   UNL     1      47.263 -13.629  81.160  1.00  0.00    -0.003 C 
ATOM     16  C   UNL     1      47.662 -14.587  82.283  1.00  0.00     0.004 C 
ENDBRANCH  14  15
ENDBRANCH  13  14
ENDBRANCH  12  13
ENDBRANCH  11  12
ENDBRANCH  10  11
ENDBRANCH   1  10
TORSDOF 12
ENDMDL
MODEL 2
REMARK VINA RESULT:    -4.445      6.267      9.196
REMARK INTER + INTRA:          -8.256
REMARK INTER:                  -7.506
REMARK INTRA:                  -0.750
REMARK UNBOUND:                -0.694
REMARK SMILES CCCCCCCCCCCCCC(=O)[O-]
REMARK SMILES IDX 8 1 9 2 10 3 11 4 12 5 13 6 14 7 15 8 16 9 7 10 6 11 5 12
REMARK SMILES IDX 4 13 3 14 2 15 1 16
REMARK H PARENT
REMARK Flexibility Score: inf
ROOT
ATOM      1  C   UNL     1      47.454  -2.235  83.735  1.00  0.00     0.000 C 
ENDROOT
BRANCH   1   2
ATOM      2  C   UNL     1      46.383  -3.238  84.199  1.00  0.00     0.000 C 
BRANCH   2   3
ATOM      3  C   UNL     1      45.997  -4.249  83.107  1.00  0.00     0.000 C 
BRANCH   3   4
ATOM      4  C   UNL     1      45.191  -5.436  83.659  1.00  0.00     0.000 C 
BRANCH   4   5
ATOM      5  C   UNL     1      44.079  -5.000  84.625  1.00  0.00     0.006 C 
BRANCH   5   6
ATOM      6  C   UNL     1      42.711  -5.482  84.136  1.00  0.00     0.053 C 
BRANCH   6   7
ATOM      7  C   UNL     1      42.607  -6.970  84.249  1.00  0.00     0.041 C 
ATOM      8  O   UNL     1      42.822  -7.539  85.352  1.00  0.00    -0.550 OA
ATOM      9  O   UNL     1      42.223  -7.726  83.149  1.00  0.00    -0.550 OA
ENDBRANCH   6   7
ENDBRANCH   5   6
ENDBRANCH   4   5
ENDBRANCH   3   4
ENDBRANCH   2   3
ENDBRANCH   1   2
BRANCH   1  10
ATOM     10  C   UNL     1      47.426  -1.900  82.229  1.00  0.00     0.000 C 
BRANCH  10  11
ATOM     11  C   UNL     1      48.785  -2.000  81.508  1.00  0.00    -0.000 C 
BRANCH  11  12
ATOM     12  C   UNL     1      48.751  -1.669  80.006  1.00  0.00    -0.000 C 
BRANCH  12  13
ATOM     13  C   UNL     1      47.911  -2.665  79.193  1.00  0.00    -0.000 C 
BRANCH  13  14
ATOM     14  C   UNL     1      48.373  -4.107  79.447  1.00  0.00    -0.000 C 
BRANCH  14  15
ATOM     15  C   UNL     1      49.793  -4.373  78.926  1.00  0.00    -0.003 C 
ATOM     16  C   UNL     1      50.047  -5.850  78.625  1.00  0.00     0.004 C 
ENDBRANCH  14  15
ENDBRANCH  13  14
ENDBRANCH  12  13
ENDBRANCH  11  12
ENDBRANCH  10  11
ENDBRANCH   1  10
TORSDOF 12
ENDMDL
MODEL 3
REMARK VINA RESULT:    -4.434      7.983      9.795
REMARK INTER + INTRA:          -8.238
REMARK INTER:                  -6.526
REMARK INTRA:                  -1.713
REMARK UNBOUND:                -0.694
REMARK SMILES CCCCCCCCCCCCCC(=O)[O-]
REMARK SMILES IDX 8 1 9 2 10 3 11 4 12 5 13 6 14 7 15 8 16 9 7 10 6 11 5 12
REMARK SMILES IDX 4 13 3 14 2 15 1 16
REMARK H PARENT
REMARK Flexibility Score: inf
ROOT
ATOM      1  C   UNL     1      48.813  -0.939  72.121  1.00  0.00     0.000 C 
ENDROOT
BRANCH   1   2
ATOM      2  C   UNL     1      50.216  -1.389  71.677  1.00  0.00     0.000 C 
BRANCH   2   3
ATOM      3  C   UNL     1      51.330  -0.460  72.189  1.00  0.00     0.000 C 
BRANCH   3   4
ATOM      4  C   UNL     1      52.717  -1.123  72.145  1.00  0.00     0.000 C 
BRANCH   4   5
ATOM      5  C   UNL     1      52.875  -2.240  73.187  1.00  0.00     0.006 C 
BRANCH   5   6
ATOM      6  C   UNL     1      54.050  -3.155  72.834  1.00  0.00     0.053 C 
BRANCH   6   7
ATOM      7  C   UNL     1      53.915  -4.474  73.527  1.00  0.00     0.041 C 
ATOM      8  O   UNL     1      54.934  -5.055  73.987  1.00  0.00    -0.550 OA
ATOM      9  O   UNL     1      52.660  -5.038  73.710  1.00  0.00    -0.550 OA
ENDBRANCH   6   7
ENDBRANCH   5   6
ENDBRANCH   4   5
ENDBRANCH   3   4
ENDBRANCH   2   3
ENDBRANCH   1   2
BRANCH   1  10
ATOM     10  C   UNL     1      48.780   0.323  73.007  1.00  0.00     0.000 C 
BRANCH  10  11
ATOM     11  C   UNL     1      48.372   0.084  74.475  1.00  0.00    -0.000 C 
BRANCH  11  12
ATOM     12  C   UNL     1      48.330  -1.393  74.906  1.00  0.00    -0.000 C 
BRANCH  12  13
ATOM     13  C   UNL     1      49.701  -1.925  75.349  1.00  0.00    -0.000 C 
BRANCH  13  14
ATOM     14  C   UNL     1      49.859  -3.407  74.982  1.00  0.00    -0.000 C 
BRANCH  14  15
ATOM     15  C   UNL     1      48.616  -3.978  74.281  1.00  0.00    -0.003 C 
ATOM     16  C   UNL     1      48.933  -4.587  72.916  1.00  0.00     0.004 C 
ENDBRANCH  14  15
ENDBRANCH  13  14
ENDBRANCH  12  13
ENDBRANCH  11  12
ENDBRANCH  10  11
ENDBRANCH   1  10
TORSDOF 12
ENDMDL
MODEL 4
REMARK VINA RESULT:    -4.394      8.072     10.838
REMARK INTER + INTRA:          -8.169
REMARK INTER:                  -6.229
REMARK INTRA:                  -1.940
REMARK UNBOUND:                -0.694
REMARK SMILES CCCCCCCCCCCCCC(=O)[O-]
REMARK SMILES IDX 8 1 9 2 10 3 11 4 12 5 13 6 14 7 15 8 16 9 7 10 6 11 5 12
REMARK SMILES IDX 4 13 3 14 2 15 1 16
REMARK H PARENT
REMARK Flexibility Score: inf
ROOT
ATOM      1  C   UNL     1      52.200  -2.678  72.777  1.00  0.00     0.000 C 
ENDROOT
BRANCH   1   2
ATOM      2  C   UNL     1      51.765  -2.750  74.251  1.00  0.00     0.000 C 
BRANCH   2   3
ATOM      3  C   UNL     1      50.532  -3.643  74.467  1.00  0.00     0.000 C 
BRANCH   3   4
ATOM      4  C   UNL     1      50.145  -4.431  73.204  1.00  0.00     0.000 C 
BRANCH   4   5
ATOM      5  C   UNL     1      48.728  -4.105  72.711  1.00  0.00     0.006 C 
BRANCH   5   6
ATOM      6  C   UNL     1      47.676  -4.602  73.705  1.00  0.00     0.053 C 
BRANCH   6   7
ATOM      7  C   UNL     1      46.971  -5.807  73.165  1.00  0.00     0.041 C 
ATOM      8  O   UNL     1      47.019  -6.070  71.934  1.00  0.00    -0.550 OA
ATOM      9  O   UNL     1      46.303  -6.666  74.027  1.00  0.00    -0.550 OA
ENDBRANCH   6   7
ENDBRANCH   5   6
ENDBRANCH   4   5
ENDBRANCH   3   4
ENDBRANCH   2   3
ENDBRANCH   1   2
BRANCH   1  10
ATOM     10  C   UNL     1      52.429  -1.253  72.232  1.00  0.00     0.000 C 
BRANCH  10  11
ATOM     11  C   UNL     1      51.192  -0.332  72.263  1.00  0.00    -0.000 C 
BRANCH  11  12
ATOM     12  C   UNL     1      49.922  -0.925  71.627  1.00  0.00    -0.000 C 
BRANCH  12  13
ATOM     13  C   UNL     1      48.638  -0.511  72.360  1.00  0.00    -0.000 C 
BRANCH  13  14
ATOM     14  C   UNL     1      48.957   0.048  73.754  1.00  0.00    -0.000 C 
BRANCH  14  15
ATOM     15  C   UNL     1      48.387  -0.823  74.884  1.00  0.00    -0.003 C 
ATOM     16  C   UNL     1      48.826  -0.355  76.271  1.00  0.00     0.004 C 
ENDBRANCH  14  15
ENDBRANCH  13  14
ENDBRANCH  12  13
ENDBRANCH  11  12
ENDBRANCH  10  11
ENDBRANCH   1  10
TORSDOF 12
ENDMDL
MODEL 5
REMARK VINA RESULT:    -4.361      7.769      9.334
REMARK INTER + INTRA:          -8.114
REMARK INTER:                  -6.406
REMARK INTRA:                  -1.709
REMARK UNBOUND:                -0.694
REMARK SMILES CCCCCCCCCCCCCC(=O)[O-]
REMARK SMILES IDX 8 1 9 2 10 3 11 4 12 5 13 6 14 7 15 8 16 9 7 10 6 11 5 12
REMARK SMILES IDX 4 13 3 14 2 15 1 16
REMARK H PARENT
REMARK Flexibility Score: inf
ROOT
ATOM      1  C   UNL     1      48.413   0.170  74.408  1.00  0.00     0.000 C 
ENDROOT
BRANCH   1   2
ATOM      2  C   UNL     1      49.251   0.227  73.118  1.00  0.00     0.000 C 
BRANCH   2   3
ATOM      3  C   UNL     1      48.843  -0.845  72.094  1.00  0.00     0.000 C 
BRANCH   3   4
ATOM      4  C   UNL     1      49.980  -1.837  71.794  1.00  0.00     0.000 C 
BRANCH   4   5
ATOM      5  C   UNL     1      51.247  -1.553  72.614  1.00  0.00     0.006 C 
BRANCH   5   6
ATOM      6  C   UNL     1      52.141  -2.794  72.686  1.00  0.00     0.053 C 
BRANCH   6   7
ATOM      7  C   UNL     1      53.542  -2.456  72.286  1.00  0.00     0.041 C 
ATOM      8  O   UNL     1      54.452  -3.323  72.370  1.00  0.00    -0.550 OA
ATOM      9  O   UNL     1      53.834  -1.199  71.772  1.00  0.00    -0.550 OA
ENDBRANCH   6   7
ENDBRANCH   5   6
ENDBRANCH   4   5
ENDBRANCH   3   4
ENDBRANCH   2   3
ENDBRANCH   1   2
BRANCH   1  10
ATOM     10  C   UNL     1      48.987  -0.730  75.521  1.00  0.00     0.000 C 
BRANCH  10  11
ATOM     11  C   UNL     1      48.354  -2.132  75.625  1.00  0.00    -0.000 C 
BRANCH  11  12
ATOM     12  C   UNL     1      49.354  -3.285  75.823  1.00  0.00    -0.000 C 
BRANCH  12  13
ATOM     13  C   UNL     1      49.423  -4.230  74.614  1.00  0.00    -0.000 C 
BRANCH  13  14
ATOM     14  C   UNL     1      48.016  -4.638  74.155  1.00  0.00    -0.000 C 
BRANCH  14  15
ATOM     15  C   UNL     1      47.902  -4.748  72.626  1.00  0.00    -0.003 C 
ATOM     16  C   UNL     1      47.163  -6.009  72.178  1.00  0.00     0.004 C 
ENDBRANCH  14  15
ENDBRANCH  13  14
ENDBRANCH  12  13
ENDBRANCH  11  12
ENDBRANCH  10  11
ENDBRANCH   1  10
TORSDOF 12
ENDMDL
MODEL 6
REMARK VINA RESULT:    -4.298      8.033     10.474
REMARK INTER + INTRA:          -8.007
REMARK INTER:                  -6.190
REMARK INTRA:                  -1.817
REMARK UNBOUND:                -0.694
REMARK SMILES CCCCCCCCCCCCCC(=O)[O-]
REMARK SMILES IDX 8 1 9 2 10 3 11 4 12 5 13 6 14 7 15 8 16 9 7 10 6 11 5 12
REMARK SMILES IDX 4 13 3 14 2 15 1 16
REMARK H PARENT
REMARK Flexibility Score: inf
ROOT
ATOM      1  C   UNL     1      48.004  -4.248  73.352  1.00  0.00     0.000 C 
ENDROOT
BRANCH   1   2
ATOM      2  C   UNL     1      49.109  -4.603  72.341  1.00  0.00     0.000 C 
BRANCH   2   3
ATOM      3  C   UNL     1      50.359  -3.720  72.488  1.00  0.00     0.000 C 
BRANCH   3   4
ATOM      4  C   UNL     1      50.170  -2.324  71.872  1.00  0.00     0.000 C 
BRANCH   4   5
ATOM      5  C   UNL     1      51.149  -1.286  72.441  1.00  0.00     0.006 C 
BRANCH   5   6
ATOM      6  C   UNL     1      52.332  -1.971  73.130  1.00  0.00     0.053 C 
BRANCH   6   7
ATOM      7  C   UNL     1      53.531  -1.972  72.235  1.00  0.00     0.041 C 
ATOM      8  O   UNL     1      54.227  -3.014  72.108  1.00  0.00    -0.550 OA
ATOM      9  O   UNL     1      53.852  -0.837  71.501  1.00  0.00    -0.550 OA
ENDBRANCH   6   7
ENDBRANCH   5   6
ENDBRANCH   4   5
ENDBRANCH   3   4
ENDBRANCH   2   3
ENDBRANCH   1   2
BRANCH   1  10
ATOM     10  C   UNL     1      48.502  -3.918  74.775  1.00  0.00     0.000 C 
BRANCH  10  11
ATOM     11  C   UNL     1      48.081  -2.535  75.312  1.00  0.00    -0.000 C 
BRANCH  11  12
ATOM     12  C   UNL     1      49.245  -1.592  75.666  1.00  0.00    -0.000 C 
BRANCH  12  13
ATOM     13  C   UNL     1      48.956  -0.127  75.309  1.00  0.00    -0.000 C 
BRANCH  13  14
ATOM     14  C   UNL     1      48.060  -0.031  74.066  1.00  0.00    -0.000 C 
BRANCH  14  15
ATOM     15  C   UNL     1      48.209   1.310  73.332  1.00  0.00    -0.003 C 
ATOM     16  C   UNL     1      49.443   2.094  73.777  1.00  0.00     0.004 C 
ENDBRANCH  14  15
ENDBRANCH  13  14
ENDBRANCH  12  13
ENDBRANCH  11  12
ENDBRANCH  10  11
ENDBRANCH   1  10
TORSDOF 12
ENDMDL
MODEL 7
REMARK VINA RESULT:    -4.277      7.664     10.801
REMARK INTER + INTRA:          -7.971
REMARK INTER:                  -6.557
REMARK INTRA:                  -1.414
REMARK UNBOUND:                -0.694
REMARK SMILES CCCCCCCCCCCCCC(=O)[O-]
REMARK SMILES IDX 8 1 9 2 10 3 11 4 12 5 13 6 14 7 15 8 16 9 7 10 6 11 5 12
REMARK SMILES IDX 4 13 3 14 2 15 1 16
REMARK H PARENT
REMARK Flexibility Score: inf
ROOT
ATOM      1  C   UNL     1      52.363  -4.958  74.263  1.00  0.00     0.000 C 
ENDROOT
BRANCH   1   2
ATOM      2  C   UNL     1      51.270  -4.175  75.010  1.00  0.00     0.000 C 
BRANCH   2   3
ATOM      3  C   UNL     1      49.849  -4.606  74.612  1.00  0.00     0.000 C 
BRANCH   3   4
ATOM      4  C   UNL     1      49.627  -4.577  73.090  1.00  0.00     0.000 C 
BRANCH   4   5
ATOM      5  C   UNL     1      48.154  -4.375  72.708  1.00  0.00     0.006 C 
BRANCH   5   6
ATOM      6  C   UNL     1      47.515  -5.697  72.275  1.00  0.00     0.053 C 
BRANCH   6   7
ATOM      7  C   UNL     1      46.742  -6.301  73.405  1.00  0.00     0.041 C 
ATOM      8  O   UNL     1      45.689  -5.749  73.820  1.00  0.00    -0.550 OA
ATOM      9  O   UNL     1      47.157  -7.501  73.968  1.00  0.00    -0.550 OA
ENDBRANCH   6   7
ENDBRANCH   5   6
ENDBRANCH   4   5
ENDBRANCH   3   4
ENDBRANCH   2   3
ENDBRANCH   1   2
BRANCH   1  10
ATOM     10  C   UNL     1      53.275  -4.106  73.355  1.00  0.00     0.000 C 
BRANCH  10  11
ATOM     11  C   UNL     1      53.210  -2.585  73.604  1.00  0.00    -0.000 C 
BRANCH  11  12
ATOM     12  C   UNL     1      53.548  -1.712  72.382  1.00  0.00    -0.000 C 
BRANCH  12  13
ATOM     13  C   UNL     1      52.388  -0.796  71.964  1.00  0.00    -0.000 C 
BRANCH  13  14
ATOM     14  C   UNL     1      51.082  -1.216  72.652  1.00  0.00    -0.000 C 
BRANCH  14  15
ATOM     15  C   UNL     1      49.867  -1.133  71.713  1.00  0.00    -0.003 C 
ATOM     16  C   UNL     1      48.641  -0.517  72.386  1.00  0.00     0.004 C 
ENDBRANCH  14  15
ENDBRANCH  13  14
ENDBRANCH  12  13
ENDBRANCH  11  12
ENDBRANCH  10  11
ENDBRANCH   1  10
TORSDOF 12
ENDMDL
MODEL 8
REMARK VINA RESULT:    -4.262      5.165      7.643
REMARK INTER + INTRA:          -7.946
REMARK INTER:                  -6.393
REMARK INTRA:                  -1.553
REMARK UNBOUND:                -0.694
REMARK SMILES CCCCCCCCCCCCCC(=O)[O-]
REMARK SMILES IDX 8 1 9 2 10 3 11 4 12 5 13 6 14 7 15 8 16 9 7 10 6 11 5 12
REMARK SMILES IDX 4 13 3 14 2 15 1 16
REMARK H PARENT
REMARK Flexibility Score: inf
ROOT
ATOM      1  C   UNL     1      48.106  -3.984  75.500  1.00  0.00     0.000 C 
ENDROOT
BRANCH   1   2
ATOM      2  C   UNL     1      47.663  -4.258  74.052  1.00  0.00     0.000 C 
BRANCH   2   3
ATOM      3  C   UNL     1      48.540  -3.540  73.013  1.00  0.00     0.000 C 
BRANCH   3   4
ATOM      4  C   UNL     1      49.776  -4.362  72.614  1.00  0.00     0.000 C 
BRANCH   4   5
ATOM      5  C   UNL     1      51.010  -3.489  72.347  1.00  0.00     0.006 C 
BRANCH   5   6
ATOM      6  C   UNL     1      50.690  -2.008  72.568  1.00  0.00     0.053 C 
BRANCH   6   7
ATOM      7  C   UNL     1      51.901  -1.166  72.317  1.00  0.00     0.041 C 
ATOM      8  O   UNL     1      53.050  -1.680  72.354  1.00  0.00    -0.550 OA
ATOM      9  O   UNL     1      51.758   0.177  71.992  1.00  0.00    -0.550 OA
ENDBRANCH   6   7
ENDBRANCH   5   6
ENDBRANCH   4   5
ENDBRANCH   3   4
ENDBRANCH   2   3
ENDBRANCH   1   2
BRANCH   1  10
ATOM     10  C   UNL     1      48.764  -2.608  75.733  1.00  0.00     0.000 C 
BRANCH  10  11
ATOM     11  C   UNL     1      50.165  -2.651  76.375  1.00  0.00    -0.000 C 
BRANCH  11  12
ATOM     12  C   UNL     1      50.706  -4.063  76.664  1.00  0.00    -0.000 C 
BRANCH  12  13
ATOM     13  C   UNL     1      51.038  -4.283  78.148  1.00  0.00    -0.000 C 
BRANCH  13  14
ATOM     14  C   UNL     1      49.791  -4.716  78.931  1.00  0.00    -0.000 C 
BRANCH  14  15
ATOM     15  C   UNL     1      49.396  -6.175  78.653  1.00  0.00    -0.003 C 
ATOM     16  C   UNL     1      47.884  -6.395  78.680  1.00  0.00     0.004 C 
ENDBRANCH  14  15
ENDBRANCH  13  14
ENDBRANCH  12  13
ENDBRANCH  11  12
ENDBRANCH  10  11
ENDBRANCH   1  10
TORSDOF 12
ENDMDL
MODEL 9
REMARK VINA RESULT:    -4.261      5.745      7.217
REMARK INTER + INTRA:          -7.944
REMARK INTER:                  -6.915
REMARK INTRA:                  -1.029
REMARK UNBOUND:                -0.694
REMARK SMILES CCCCCCCCCCCCCC(=O)[O-]
REMARK SMILES IDX 8 1 9 2 10 3 11 4 12 5 13 6 14 7 15 8 16 9 7 10 6 11 5 12
REMARK SMILES IDX 4 13 3 14 2 15 1 16
REMARK H PARENT
REMARK Flexibility Score: inf
ROOT
ATOM      1  C   UNL     1      47.608  -1.811  84.066  1.00  0.00     0.000 C 
ENDROOT
BRANCH   1   2
ATOM      2  C   UNL     1      47.751  -0.516  83.247  1.00  0.00     0.000 C 
BRANCH   2   3
ATOM      3  C   UNL     1      47.835  -0.773  81.733  1.00  0.00     0.000 C 
BRANCH   3   4
ATOM      4  C   UNL     1      46.852  -1.859  81.264  1.00  0.00     0.000 C 
BRANCH   4   5
ATOM      5  C   UNL     1      47.531  -2.951  80.424  1.00  0.00     0.006 C 
BRANCH   5   6
ATOM      6  C   UNL     1      48.575  -2.346  79.481  1.00  0.00     0.053 C 
BRANCH   6   7
ATOM      7  C   UNL     1      49.889  -3.046  79.634  1.00  0.00     0.041 C 
ATOM      8  O   UNL     1      50.101  -4.134  79.035  1.00  0.00    -0.550 OA
ATOM      9  O   UNL     1      50.897  -2.473  80.398  1.00  0.00    -0.550 OA
ENDBRANCH   6   7
ENDBRANCH   5   6
ENDBRANCH   4   5
ENDBRANCH   3   4
ENDBRANCH   2   3
ENDBRANCH   1   2
BRANCH   1  10
ATOM     10  C   UNL     1      46.404  -1.846  85.030  1.00  0.00     0.000 C 
BRANCH  10  11
ATOM     11  C   UNL     1      45.587  -3.153  85.011  1.00  0.00    -0.000 C 
BRANCH  11  12
ATOM     12  C   UNL     1      45.972  -4.146  83.900  1.00  0.00    -0.000 C 
BRANCH  12  13
ATOM     13  C   UNL     1      44.947  -5.278  83.729  1.00  0.00    -0.000 C 
BRANCH  13  14
ATOM     14  C   UNL     1      43.796  -5.132  84.734  1.00  0.00    -0.000 C 
BRANCH  14  15
ATOM     15  C   UNL     1      43.040  -6.451  84.961  1.00  0.00    -0.003 C 
ATOM     16  C   UNL     1      42.585  -7.104  83.656  1.00  0.00     0.004 C 
ENDBRANCH  14  15
ENDBRANCH  13  14
ENDBRANCH  12  13
ENDBRANCH  11  12
ENDBRANCH  10  11
ENDBRANCH   1  10
TORSDOF 12
ENDMDL
