MODEL 1
REMARK VINA RESULT:     3.098      0.000      0.000
REMARK INTER + INTRA:           6.215
REMARK INTER:                   7.806
REMARK INTRA:                  -1.591
REMARK UNBOUND:                -1.591
REMARK SMILES CCCCCCCCCCCCCCCCCCCCCCCCCCCC(=O)[O-]
REMARK SMILES IDX 15 1 16 2 17 3 18 4 19 5 20 6 21 7 22 8 23 9 24 10 25 11
REMARK SMILES IDX 26 12 27 13 28 14 29 15 30 16 14 17 13 18 12 19 11 20 10 21
REMARK SMILES IDX 9 22 8 23 7 24 6 25 5 26 4 27 3 28 2 29 1 30
REMARK H PARENT
REMARK Flexibility Score: inf
ROOT
ATOM      1  C   UNL     1      -3.810  34.811  22.954  1.00  0.00     0.000 C 
ENDROOT
BRANCH   1   2
ATOM      2  C   UNL     1      -5.316  34.777  23.258  1.00  0.00     0.000 C 
BRANCH   2   3
ATOM      3  C   UNL     1      -5.969  36.169  23.198  1.00  0.00     0.000 C 
BRANCH   3   4
ATOM      4  C   UNL     1      -6.125  36.725  21.766  1.00  0.00     0.000 C 
BRANCH   4   5
ATOM      5  C   UNL     1      -5.168  37.897  21.482  1.00  0.00     0.000 C 
BRANCH   5   6
ATOM      6  C   UNL     1      -5.307  39.045  22.502  1.00  0.00     0.000 C 
BRANCH   6   7
ATOM      7  C   UNL     1      -4.348  38.940  23.705  1.00  0.00     0.000 C 
BRANCH   7   8
ATOM      8  C   UNL     1      -5.023  38.735  25.074  1.00  0.00     0.000 C 
BRANCH   8   9
ATOM      9  C   UNL     1      -4.516  37.520  25.881  1.00  0.00     0.000 C 
BRANCH   9  10
ATOM     10  C   UNL     1      -2.985  37.429  26.041  1.00  0.00     0.000 C 
BRANCH  10  11
ATOM     11  C   UNL     1      -2.486  37.420  27.496  1.00  0.00     0.000 C 
BRANCH  11  12
ATOM     12  C   UNL     1      -1.585  36.212  27.806  1.00  0.00     0.006 C 
BRANCH  12  13
ATOM     13  C   UNL     1      -2.354  35.077  28.497  1.00  0.00     0.053 C 
BRANCH  13  14
ATOM     14  C   UNL     1      -1.516  34.385  29.529  1.00  0.00     0.041 C 
ATOM     15  O   UNL     1      -0.266  34.326  29.394  1.00  0.00    -0.550 OA
ATOM     16  O   UNL     1      -2.116  33.799  30.637  1.00  0.00    -0.550 OA
ENDBRANCH  13  14
ENDBRANCH  12  13
ENDBRANCH  11  12
ENDBRANCH  10  11
ENDBRANCH   9  10
ENDBRANCH   8   9
ENDBRANCH   7   8
ENDBRANCH   6   7
ENDBRANCH   5   6
ENDBRANCH   4   5
ENDBRANCH   3   4
ENDBRANCH   2   3
ENDBRANCH   1   2
BRANCH   1  17
ATOM     17  C   UNL     1      -3.432  34.052  21.668  1.00  0.00     0.000 C 
BRANCH  17  18
ATOM     18  C   UNL     1      -3.746  34.783  20.349  1.00  0.00     0.000 C 
BRANCH  18  19
ATOM     19  C   UNL     1      -5.148  34.467  19.802  1.00  0.00     0.000 C 
BRANCH  19  20
ATOM     20  C   UNL     1      -5.380  35.054  18.402  1.00  0.00     0.000 C 
BRANCH  20  21
ATOM     21  C   UNL     1      -4.120  35.710  17.818  1.00  0.00     0.000 C 
BRANCH  21  22
ATOM     22  C   UNL     1      -4.114  37.221  18.096  1.00  0.00    -0.000 C 
BRANCH  22  23
ATOM     23  C   UNL     1      -2.777  37.722  18.669  1.00  0.00    -0.000 C 
BRANCH  23  24
ATOM     24  C   UNL     1      -1.519  37.101  18.036  1.00  0.00    -0.000 C 
BRANCH  24  25
ATOM     25  C   UNL     1      -1.485  37.249  16.505  1.00  0.00    -0.000 C 
BRANCH  25  26
ATOM     26  C   UNL     1      -1.614  35.902  15.777  1.00  0.00    -0.000 C 
BRANCH  26  27
ATOM     27  C   UNL     1      -2.886  35.811  14.914  1.00  0.00    -0.000 C 
BRANCH  27  28
ATOM     28  C   UNL     1      -3.036  36.996  13.943  1.00  0.00    -0.000 C 
BRANCH  28  29
ATOM     29  C   UNL     1      -4.443  37.618  13.905  1.00  0.00    -0.003 C 
ATOM     30  C   UNL     1      -4.443  39.109  14.247  1.00  0.00     0.004 C 
ENDBRANCH  28  29
ENDBRANCH  27  28
ENDBRANCH  26  27
ENDBRANCH  25  26
ENDBRANCH  24  25
ENDBRANCH  23  24
ENDBRANCH  22  23
ENDBRANCH  21  22
ENDBRANCH  20  21
ENDBRANCH  19  20
ENDBRANCH  18  19
ENDBRANCH  17  18
ENDBRANCH   1  17
TORSDOF 26
ENDMDL
MODEL 2
REMARK VINA RESULT:     3.868      1.155      4.622
REMARK INTER + INTRA:           8.157
REMARK INTER:                   9.367
REMARK INTRA:                  -1.210
REMARK UNBOUND:                -1.591
REMARK SMILES CCCCCCCCCCCCCCCCCCCCCCCCCCCC(=O)[O-]
REMARK SMILES IDX 15 1 16 2 17 3 18 4 19 5 20 6 21 7 22 8 23 9 24 10 25 11
REMARK SMILES IDX 26 12 27 13 28 14 29 15 30 16 14 17 13 18 12 19 11 20 10 21
REMARK SMILES IDX 9 22 8 23 7 24 6 25 5 26 4 27 3 28 2 29 1 30
REMARK H PARENT
REMARK Flexibility Score: inf
ROOT
ATOM      1  C   UNL     1      -1.065  37.291  19.426  1.00  0.00     0.000 C 
ENDROOT
BRANCH   1   2
ATOM      2  C   UNL     1      -2.127  38.402  19.433  1.00  0.00     0.000 C 
BRANCH   2   3
ATOM      3  C   UNL     1      -3.511  37.903  19.884  1.00  0.00     0.000 C 
BRANCH   3   4
ATOM      4  C   UNL     1      -3.872  38.287  21.335  1.00  0.00     0.000 C 
BRANCH   4   5
ATOM      5  C   UNL     1      -5.340  38.727  21.480  1.00  0.00     0.000 C 
BRANCH   5   6
ATOM      6  C   UNL     1      -5.536  39.820  22.549  1.00  0.00     0.000 C 
BRANCH   6   7
ATOM      7  C   UNL     1      -4.761  39.569  23.858  1.00  0.00     0.000 C 
BRANCH   7   8
ATOM      8  C   UNL     1      -4.502  38.090  24.201  1.00  0.00     0.000 C 
BRANCH   8   9
ATOM      9  C   UNL     1      -5.064  37.622  25.561  1.00  0.00     0.000 C 
BRANCH   9  10
ATOM     10  C   UNL     1      -4.156  36.660  26.353  1.00  0.00     0.000 C 
BRANCH  10  11
ATOM     11  C   UNL     1      -2.716  37.156  26.564  1.00  0.00     0.000 C 
BRANCH  11  12
ATOM     12  C   UNL     1      -2.099  36.647  27.878  1.00  0.00     0.006 C 
BRANCH  12  13
ATOM     13  C   UNL     1      -2.107  35.115  27.967  1.00  0.00     0.053 C 
BRANCH  13  14
ATOM     14  C   UNL     1      -1.441  34.627  29.219  1.00  0.00     0.041 C 
ATOM     15  O   UNL     1      -2.077  34.599  30.305  1.00  0.00    -0.550 OA
ATOM     16  O   UNL     1      -0.117  34.208  29.186  1.00  0.00    -0.550 OA
ENDBRANCH  13  14
ENDBRANCH  12  13
ENDBRANCH  11  12
ENDBRANCH  10  11
ENDBRANCH   9  10
ENDBRANCH   8   9
ENDBRANCH   7   8
ENDBRANCH   6   7
ENDBRANCH   5   6
ENDBRANCH   4   5
ENDBRANCH   3   4
ENDBRANCH   2   3
ENDBRANCH   1   2
BRANCH   1  17
ATOM     17  C   UNL     1      -0.287  37.202  18.100  1.00  0.00     0.000 C 
BRANCH  17  18
ATOM     18  C   UNL     1      -1.145  37.239  16.822  1.00  0.00     0.000 C 
BRANCH  18  19
ATOM     19  C   UNL     1      -1.079  35.935  16.009  1.00  0.00     0.000 C 
BRANCH  19  20
ATOM     20  C   UNL     1      -1.842  36.030  14.680  1.00  0.00     0.000 C 
BRANCH  20  21
ATOM     21  C   UNL     1      -3.082  36.931  14.771  1.00  0.00     0.000 C 
BRANCH  21  22
ATOM     22  C   UNL     1      -4.188  36.253  15.593  1.00  0.00    -0.000 C 
BRANCH  22  23
ATOM     23  C   UNL     1      -3.971  36.375  17.112  1.00  0.00    -0.000 C 
BRANCH  23  24
ATOM     24  C   UNL     1      -3.972  35.043  17.882  1.00  0.00    -0.000 C 
BRANCH  24  25
ATOM     25  C   UNL     1      -5.346  34.349  17.873  1.00  0.00    -0.000 C 
BRANCH  25  26
ATOM     26  C   UNL     1      -6.119  34.552  19.186  1.00  0.00    -0.000 C 
BRANCH  26  27
ATOM     27  C   UNL     1      -5.201  34.919  20.367  1.00  0.00    -0.000 C 
BRANCH  27  28
ATOM     28  C   UNL     1      -5.976  35.154  21.676  1.00  0.00    -0.000 C 
BRANCH  28  29
ATOM     29  C   UNL     1      -5.140  34.977  22.955  1.00  0.00    -0.003 C 
ATOM     30  C   UNL     1      -5.968  34.488  24.145  1.00  0.00     0.004 C 
ENDBRANCH  28  29
ENDBRANCH  27  28
ENDBRANCH  26  27
ENDBRANCH  25  26
ENDBRANCH  24  25
ENDBRANCH  23  24
ENDBRANCH  22  23
ENDBRANCH  21  22
ENDBRANCH  20  21
ENDBRANCH  19  20
ENDBRANCH  18  19
ENDBRANCH  17  18
ENDBRANCH   1  17
TORSDOF 26
ENDMDL
MODEL 3
REMARK VINA RESULT:     3.991      1.188      2.285
REMARK INTER + INTRA:           8.467
REMARK INTER:                   9.761
REMARK INTRA:                  -1.295
REMARK UNBOUND:                -1.591
REMARK SMILES CCCCCCCCCCCCCCCCCCCCCCCCCCCC(=O)[O-]
REMARK SMILES IDX 15 1 16 2 17 3 18 4 19 5 20 6 21 7 22 8 23 9 24 10 25 11
REMARK SMILES IDX 26 12 27 13 28 14 29 15 30 16 14 17 13 18 12 19 11 20 10 21
REMARK SMILES IDX 9 22 8 23 7 24 6 25 5 26 4 27 3 28 2 29 1 30
REMARK H PARENT
REMARK Flexibility Score: inf
ROOT
ATOM      1  C   UNL     1      -3.195  36.014  20.600  1.00  0.00     0.000 C 
ENDROOT
BRANCH   1   2
ATOM      2  C   UNL     1      -3.506  37.513  20.457  1.00  0.00     0.000 C 
BRANCH   2   3
ATOM      3  C   UNL     1      -4.963  37.783  20.042  1.00  0.00     0.000 C 
BRANCH   3   4
ATOM      4  C   UNL     1      -5.700  38.780  20.961  1.00  0.00     0.000 C 
BRANCH   4   5
ATOM      5  C   UNL     1      -5.005  38.950  22.324  1.00  0.00     0.000 C 
BRANCH   5   6
ATOM      6  C   UNL     1      -5.830  38.376  23.494  1.00  0.00     0.000 C 
BRANCH   6   7
ATOM      7  C   UNL     1      -5.681  36.854  23.684  1.00  0.00     0.000 C 
BRANCH   7   8
ATOM      8  C   UNL     1      -5.208  36.404  25.079  1.00  0.00     0.000 C 
BRANCH   8   9
ATOM      9  C   UNL     1      -4.597  37.518  25.957  1.00  0.00     0.000 C 
BRANCH   9  10
ATOM     10  C   UNL     1      -3.059  37.627  25.904  1.00  0.00     0.000 C 
BRANCH  10  11
ATOM     11  C   UNL     1      -2.355  37.516  27.266  1.00  0.00     0.000 C 
BRANCH  11  12
ATOM     12  C   UNL     1      -2.593  36.157  27.948  1.00  0.00     0.006 C 
BRANCH  12  13
ATOM     13  C   UNL     1      -1.293  35.360  28.123  1.00  0.00     0.053 C 
BRANCH  13  14
ATOM     14  C   UNL     1      -1.400  34.360  29.235  1.00  0.00     0.041 C 
ATOM     15  O   UNL     1      -0.589  33.400  29.304  1.00  0.00    -0.550 OA
ATOM     16  O   UNL     1      -2.399  34.486  30.193  1.00  0.00    -0.550 OA
ENDBRANCH  13  14
ENDBRANCH  12  13
ENDBRANCH  11  12
ENDBRANCH  10  11
ENDBRANCH   9  10
ENDBRANCH   8   9
ENDBRANCH   7   8
ENDBRANCH   6   7
ENDBRANCH   5   6
ENDBRANCH   4   5
ENDBRANCH   3   4
ENDBRANCH   2   3
ENDBRANCH   1   2
BRANCH   1  17
ATOM     17  C   UNL     1      -4.269  35.242  21.388  1.00  0.00     0.000 C 
BRANCH  17  18
ATOM     18  C   UNL     1      -5.172  34.317  20.550  1.00  0.00     0.000 C 
BRANCH  18  19
ATOM     19  C   UNL     1      -5.857  35.040  19.377  1.00  0.00     0.000 C 
BRANCH  19  20
ATOM     20  C   UNL     1      -5.315  34.591  18.013  1.00  0.00     0.000 C 
BRANCH  20  21
ATOM     21  C   UNL     1      -3.853  35.002  17.790  1.00  0.00     0.000 C 
BRANCH  21  22
ATOM     22  C   UNL     1      -3.770  36.389  17.136  1.00  0.00    -0.000 C 
BRANCH  22  23
ATOM     23  C   UNL     1      -2.408  36.664  16.476  1.00  0.00    -0.000 C 
BRANCH  23  24
ATOM     24  C   UNL     1      -2.247  36.106  15.051  1.00  0.00    -0.000 C 
BRANCH  24  25
ATOM     25  C   UNL     1      -3.378  36.547  14.106  1.00  0.00    -0.000 C 
BRANCH  25  26
ATOM     26  C   UNL     1      -3.529  38.075  14.035  1.00  0.00    -0.000 C 
BRANCH  26  27
ATOM     27  C   UNL     1      -4.831  38.576  14.688  1.00  0.00    -0.000 C 
BRANCH  27  28
ATOM     28  C   UNL     1      -5.511  39.697  13.882  1.00  0.00    -0.000 C 
BRANCH  28  29
ATOM     29  C   UNL     1      -4.782  41.051  13.928  1.00  0.00    -0.003 C 
ATOM     30  C   UNL     1      -5.375  42.012  14.959  1.00  0.00     0.004 C 
ENDBRANCH  28  29
ENDBRANCH  27  28
ENDBRANCH  26  27
ENDBRANCH  25  26
ENDBRANCH  24  25
ENDBRANCH  23  24
ENDBRANCH  22  23
ENDBRANCH  21  22
ENDBRANCH  20  21
ENDBRANCH  19  20
ENDBRANCH  18  19
ENDBRANCH  17  18
ENDBRANCH   1  17
TORSDOF 26
ENDMDL
MODEL 4
REMARK VINA RESULT:     4.001      0.936      2.345
REMARK INTER + INTRA:           8.490
REMARK INTER:                   8.399
REMARK INTRA:                   0.091
REMARK UNBOUND:                -1.591
REMARK SMILES CCCCCCCCCCCCCCCCCCCCCCCCCCCC(=O)[O-]
REMARK SMILES IDX 15 1 16 2 17 3 18 4 19 5 20 6 21 7 22 8 23 9 24 10 25 11
REMARK SMILES IDX 26 12 27 13 28 14 29 15 30 16 14 17 13 18 12 19 11 20 10 21
REMARK SMILES IDX 9 22 8 23 7 24 6 25 5 26 4 27 3 28 2 29 1 30
REMARK H PARENT
REMARK Flexibility Score: inf
ROOT
ATOM      1  C   UNL     1      -4.203  36.606  22.029  1.00  0.00     0.000 C 
ENDROOT
BRANCH   1   2
ATOM      2  C   UNL     1      -4.109  37.779  21.040  1.00  0.00     0.000 C 
BRANCH   2   3
ATOM      3  C   UNL     1      -5.485  38.229  20.516  1.00  0.00     0.000 C 
BRANCH   3   4
ATOM      4  C   UNL     1      -6.008  39.527  21.168  1.00  0.00     0.000 C 
BRANCH   4   5
ATOM      5  C   UNL     1      -5.019  40.113  22.192  1.00  0.00     0.000 C 
BRANCH   5   6
ATOM      6  C   UNL     1      -5.505  39.966  23.648  1.00  0.00     0.000 C 
BRANCH   6   7
ATOM      7  C   UNL     1      -4.557  39.152  24.550  1.00  0.00     0.000 C 
BRANCH   7   8
ATOM      8  C   UNL     1      -5.163  37.880  25.172  1.00  0.00     0.000 C 
BRANCH   8   9
ATOM      9  C   UNL     1      -4.215  37.081  26.093  1.00  0.00     0.000 C 
BRANCH   9  10
ATOM     10  C   UNL     1      -2.769  37.612  26.167  1.00  0.00     0.000 C 
BRANCH  10  11
ATOM     11  C   UNL     1      -2.085  37.438  27.532  1.00  0.00     0.000 C 
BRANCH  11  12
ATOM     12  C   UNL     1      -1.560  36.009  27.755  1.00  0.00     0.006 C 
BRANCH  12  13
ATOM     13  C   UNL     1      -2.309  35.285  28.883  1.00  0.00     0.053 C 
BRANCH  13  14
ATOM     14  C   UNL     1      -1.428  34.301  29.593  1.00  0.00     0.041 C 
ATOM     15  O   UNL     1      -0.215  34.192  29.276  1.00  0.00    -0.550 OA
ATOM     16  O   UNL     1      -1.950  33.500  30.602  1.00  0.00    -0.550 OA
ENDBRANCH  13  14
ENDBRANCH  12  13
ENDBRANCH  11  12
ENDBRANCH  10  11
ENDBRANCH   9  10
ENDBRANCH   8   9
ENDBRANCH   7   8
ENDBRANCH   6   7
ENDBRANCH   5   6
ENDBRANCH   4   5
ENDBRANCH   3   4
ENDBRANCH   2   3
ENDBRANCH   1   2
BRANCH   1  17
ATOM     17  C   UNL     1      -5.588  36.476  22.689  1.00  0.00     0.000 C 
BRANCH  17  18
ATOM     18  C   UNL     1      -5.921  35.086  23.265  1.00  0.00     0.000 C 
BRANCH  18  19
ATOM     19  C   UNL     1      -5.054  33.962  22.675  1.00  0.00     0.000 C 
BRANCH  19  20
ATOM     20  C   UNL     1      -4.818  34.132  21.167  1.00  0.00     0.000 C 
BRANCH  20  21
ATOM     21  C   UNL     1      -6.123  34.327  20.381  1.00  0.00     0.000 C 
BRANCH  21  22
ATOM     22  C   UNL     1      -5.865  35.104  19.081  1.00  0.00    -0.000 C 
BRANCH  22  23
ATOM     23  C   UNL     1      -5.050  34.301  18.052  1.00  0.00    -0.000 C 
BRANCH  23  24
ATOM     24  C   UNL     1      -3.864  35.054  17.425  1.00  0.00    -0.000 C 
BRANCH  24  25
ATOM     25  C   UNL     1      -3.604  36.418  18.090  1.00  0.00    -0.000 C 
BRANCH  25  26
ATOM     26  C   UNL     1      -2.855  37.392  17.167  1.00  0.00    -0.000 C 
BRANCH  26  27
ATOM     27  C   UNL     1      -1.829  36.685  16.262  1.00  0.00    -0.000 C 
BRANCH  27  28
ATOM     28  C   UNL     1      -2.484  35.928  15.093  1.00  0.00    -0.000 C 
BRANCH  28  29
ATOM     29  C   UNL     1      -2.927  36.821  13.921  1.00  0.00    -0.003 C 
ATOM     30  C   UNL     1      -4.053  37.784  14.299  1.00  0.00     0.004 C 
ENDBRANCH  28  29
ENDBRANCH  27  28
ENDBRANCH  26  27
ENDBRANCH  25  26
ENDBRANCH  24  25
ENDBRANCH  23  24
ENDBRANCH  22  23
ENDBRANCH  21  22
ENDBRANCH  20  21
ENDBRANCH  19  20
ENDBRANCH  18  19
ENDBRANCH  17  18
ENDBRANCH   1  17
TORSDOF 26
ENDMDL
MODEL 5
REMARK VINA RESULT:     4.161      3.095      9.357
REMARK INTER + INTRA:           8.894
REMARK INTER:                   7.738
REMARK INTRA:                   1.156
REMARK UNBOUND:                -1.591
REMARK SMILES CCCCCCCCCCCCCCCCCCCCCCCCCCCC(=O)[O-]
REMARK SMILES IDX 15 1 16 2 17 3 18 4 19 5 20 6 21 7 22 8 23 9 24 10 25 11
REMARK SMILES IDX 26 12 27 13 28 14 29 15 30 16 14 17 13 18 12 19 11 20 10 21
REMARK SMILES IDX 9 22 8 23 7 24 6 25 5 26 4 27 3 28 2 29 1 30
REMARK H PARENT
REMARK Flexibility Score: inf
ROOT
ATOM      1  C   UNL     1      -4.365  35.905  21.526  1.00  0.00     0.000 C 
ENDROOT
BRANCH   1   2
ATOM      2  C   UNL     1      -3.945  35.025  20.337  1.00  0.00     0.000 C 
BRANCH   2   3
ATOM      3  C   UNL     1      -5.071  34.842  19.303  1.00  0.00     0.000 C 
BRANCH   3   4
ATOM      4  C   UNL     1      -4.602  34.214  17.973  1.00  0.00     0.000 C 
BRANCH   4   5
ATOM      5  C   UNL     1      -4.032  35.259  16.997  1.00  0.00     0.000 C 
BRANCH   5   6
ATOM      6  C   UNL     1      -2.644  34.873  16.448  1.00  0.00     0.000 C 
BRANCH   6   7
ATOM      7  C   UNL     1      -2.130  35.797  15.326  1.00  0.00     0.000 C 
BRANCH   7   8
ATOM      8  C   UNL     1      -3.146  36.117  14.213  1.00  0.00     0.000 C 
BRANCH   8   9
ATOM      9  C   UNL     1      -3.475  37.615  14.035  1.00  0.00     0.000 C 
BRANCH   9  10
ATOM     10  C   UNL     1      -3.804  38.375  15.336  1.00  0.00     0.000 C 
BRANCH  10  11
ATOM     11  C   UNL     1      -3.490  37.608  16.631  1.00  0.00     0.000 C 
BRANCH  11  12
ATOM     12  C   UNL     1      -2.673  38.443  17.633  1.00  0.00     0.006 C 
BRANCH  12  13
ATOM     13  C   UNL     1      -2.125  37.593  18.787  1.00  0.00     0.053 C 
BRANCH  13  14
ATOM     14  C   UNL     1      -0.627  37.535  18.773  1.00  0.00     0.041 C 
ATOM     15  O   UNL     1      -0.003  37.061  19.758  1.00  0.00    -0.550 OA
ATOM     16  O   UNL     1       0.078  38.008  17.674  1.00  0.00    -0.550 OA
ENDBRANCH  13  14
ENDBRANCH  12  13
ENDBRANCH  11  12
ENDBRANCH  10  11
ENDBRANCH   9  10
ENDBRANCH   8   9
ENDBRANCH   7   8
ENDBRANCH   6   7
ENDBRANCH   5   6
ENDBRANCH   4   5
ENDBRANCH   3   4
ENDBRANCH   2   3
ENDBRANCH   1   2
BRANCH   1  17
ATOM     17  C   UNL     1      -5.549  36.836  21.205  1.00  0.00     0.000 C 
BRANCH  17  18
ATOM     18  C   UNL     1      -5.289  37.889  20.111  1.00  0.00     0.000 C 
BRANCH  18  19
ATOM     19  C   UNL     1      -6.027  39.215  20.359  1.00  0.00     0.000 C 
BRANCH  19  20
ATOM     20  C   UNL     1      -5.900  39.696  21.811  1.00  0.00     0.000 C 
BRANCH  20  21
ATOM     21  C   UNL     1      -4.471  39.557  22.358  1.00  0.00     0.000 C 
BRANCH  21  22
ATOM     22  C   UNL     1      -4.481  38.892  23.743  1.00  0.00    -0.000 C 
BRANCH  22  23
ATOM     23  C   UNL     1      -5.848  38.291  24.113  1.00  0.00    -0.000 C 
BRANCH  23  24
ATOM     24  C   UNL     1      -5.794  36.903  24.775  1.00  0.00    -0.000 C 
BRANCH  24  25
ATOM     25  C   UNL     1      -4.410  36.573  25.360  1.00  0.00    -0.000 C 
BRANCH  25  26
ATOM     26  C   UNL     1      -4.031  37.487  26.536  1.00  0.00    -0.000 C 
BRANCH  26  27
ATOM     27  C   UNL     1      -2.509  37.668  26.682  1.00  0.00    -0.000 C 
BRANCH  27  28
ATOM     28  C   UNL     1      -1.939  36.960  27.924  1.00  0.00    -0.000 C 
BRANCH  28  29
ATOM     29  C   UNL     1      -2.405  35.505  28.101  1.00  0.00    -0.003 C 
ATOM     30  C   UNL     1      -1.580  34.738  29.136  1.00  0.00     0.004 C 
ENDBRANCH  28  29
ENDBRANCH  27  28
ENDBRANCH  26  27
ENDBRANCH  25  26
ENDBRANCH  24  25
ENDBRANCH  23  24
ENDBRANCH  22  23
ENDBRANCH  21  22
ENDBRANCH  20  21
ENDBRANCH  19  20
ENDBRANCH  18  19
ENDBRANCH  17  18
ENDBRANCH   1  17
TORSDOF 26
ENDMDL
MODEL 6
REMARK VINA RESULT:     4.217      4.644      9.066
REMARK INTER + INTRA:           9.036
REMARK INTER:                  11.023
REMARK INTRA:                  -1.986
REMARK UNBOUND:                -1.591
REMARK SMILES CCCCCCCCCCCCCCCCCCCCCCCCCCCC(=O)[O-]
REMARK SMILES IDX 15 1 16 2 17 3 18 4 19 5 20 6 21 7 22 8 23 9 24 10 25 11
REMARK SMILES IDX 26 12 27 13 28 14 29 15 30 16 14 17 13 18 12 19 11 20 10 21
REMARK SMILES IDX 9 22 8 23 7 24 6 25 5 26 4 27 3 28 2 29 1 30
REMARK H PARENT
REMARK Flexibility Score: inf
ROOT
ATOM      1  C   UNL     1      -6.120  36.131  22.941  1.00  0.00     0.000 C 
ENDROOT
BRANCH   1   2
ATOM      2  C   UNL     1      -6.033  35.181  21.737  1.00  0.00     0.000 C 
BRANCH   2   3
ATOM      3  C   UNL     1      -4.592  34.730  21.435  1.00  0.00     0.000 C 
BRANCH   3   4
ATOM      4  C   UNL     1      -4.156  34.966  19.973  1.00  0.00     0.000 C 
BRANCH   4   5
ATOM      5  C   UNL     1      -5.153  34.377  18.958  1.00  0.00     0.000 C 
BRANCH   5   6
ATOM      6  C   UNL     1      -4.466  33.836  17.688  1.00  0.00     0.000 C 
BRANCH   6   7
ATOM      7  C   UNL     1      -4.005  34.930  16.705  1.00  0.00     0.000 C 
BRANCH   7   8
ATOM      8  C   UNL     1      -2.548  34.813  16.221  1.00  0.00     0.000 C 
BRANCH   8   9
ATOM      9  C   UNL     1      -1.714  36.109  16.326  1.00  0.00     0.000 C 
BRANCH   9  10
ATOM     10  C   UNL     1      -1.788  37.040  15.099  1.00  0.00     0.000 C 
BRANCH  10  11
ATOM     11  C   UNL     1      -3.082  36.927  14.277  1.00  0.00     0.000 C 
BRANCH  11  12
ATOM     12  C   UNL     1      -4.250  37.714  14.897  1.00  0.00     0.006 C 
BRANCH  12  13
ATOM     13  C   UNL     1      -4.944  38.624  13.875  1.00  0.00     0.053 C 
BRANCH  13  14
ATOM     14  C   UNL     1      -4.821  40.071  14.245  1.00  0.00     0.041 C 
ATOM     15  O   UNL     1      -3.781  40.493  14.816  1.00  0.00    -0.550 OA
ATOM     16  O   UNL     1      -5.857  40.953  13.964  1.00  0.00    -0.550 OA
ENDBRANCH  13  14
ENDBRANCH  12  13
ENDBRANCH  11  12
ENDBRANCH  10  11
ENDBRANCH   9  10
ENDBRANCH   8   9
ENDBRANCH   7   8
ENDBRANCH   6   7
ENDBRANCH   5   6
ENDBRANCH   4   5
ENDBRANCH   3   4
ENDBRANCH   2   3
ENDBRANCH   1   2
BRANCH   1  17
ATOM     17  C   UNL     1      -5.959  35.414  24.295  1.00  0.00     0.000 C 
BRANCH  17  18
ATOM     18  C   UNL     1      -5.694  36.330  25.505  1.00  0.00     0.000 C 
BRANCH  18  19
ATOM     19  C   UNL     1      -4.216  36.728  25.652  1.00  0.00     0.000 C 
BRANCH  19  20
ATOM     20  C   UNL     1      -4.041  38.134  26.244  1.00  0.00     0.000 C 
BRANCH  20  21
ATOM     21  C   UNL     1      -3.673  39.182  25.183  1.00  0.00     0.000 C 
BRANCH  21  22
ATOM     22  C   UNL     1      -4.133  38.731  23.789  1.00  0.00    -0.000 C 
BRANCH  22  23
ATOM     23  C   UNL     1      -5.070  39.743  23.107  1.00  0.00    -0.000 C 
BRANCH  23  24
ATOM     24  C   UNL     1      -5.114  39.662  21.571  1.00  0.00    -0.000 C 
BRANCH  24  25
ATOM     25  C   UNL     1      -4.985  38.222  21.045  1.00  0.00    -0.000 C 
BRANCH  25  26
ATOM     26  C   UNL     1      -5.031  38.146  19.510  1.00  0.00    -0.000 C 
BRANCH  26  27
ATOM     27  C   UNL     1      -3.642  38.310  18.865  1.00  0.00    -0.000 C 
BRANCH  27  28
ATOM     28  C   UNL     1      -2.495  37.892  19.801  1.00  0.00    -0.000 C 
BRANCH  28  29
ATOM     29  C   UNL     1      -1.166  37.585  19.088  1.00  0.00    -0.003 C 
ATOM     30  C   UNL     1      -0.627  38.776  18.295  1.00  0.00     0.004 C 
ENDBRANCH  28  29
ENDBRANCH  27  28
ENDBRANCH  26  27
ENDBRANCH  25  26
ENDBRANCH  24  25
ENDBRANCH  23  24
ENDBRANCH  22  23
ENDBRANCH  21  22
ENDBRANCH  20  21
ENDBRANCH  19  20
ENDBRANCH  18  19
ENDBRANCH  17  18
ENDBRANCH   1  17
TORSDOF 26
ENDMDL
MODEL 7
REMARK VINA RESULT:     4.327      2.982      4.544
REMARK INTER + INTRA:           9.314
REMARK INTER:                   8.049
REMARK INTRA:                   1.265
REMARK UNBOUND:                -1.591
REMARK SMILES CCCCCCCCCCCCCCCCCCCCCCCCCCCC(=O)[O-]
REMARK SMILES IDX 15 1 16 2 17 3 18 4 19 5 20 6 21 7 22 8 23 9 24 10 25 11
REMARK SMILES IDX 26 12 27 13 28 14 29 15 30 16 14 17 13 18 12 19 11 20 10 21
REMARK SMILES IDX 9 22 8 23 7 24 6 25 5 26 4 27 3 28 2 29 1 30
REMARK H PARENT
REMARK Flexibility Score: inf
ROOT
ATOM      1  C   UNL     1      -4.586  36.809  21.033  1.00  0.00     0.000 C 
ENDROOT
BRANCH   1   2
ATOM      2  C   UNL     1      -4.571  38.316  21.333  1.00  0.00     0.000 C 
BRANCH   2   3
ATOM      3  C   UNL     1      -5.862  39.026  20.887  1.00  0.00     0.000 C 
BRANCH   3   4
ATOM      4  C   UNL     1      -5.997  40.469  21.419  1.00  0.00     0.000 C 
BRANCH   4   5
ATOM      5  C   UNL     1      -5.566  40.598  22.891  1.00  0.00     0.000 C 
BRANCH   5   6
ATOM      6  C   UNL     1      -4.815  39.354  23.407  1.00  0.00     0.000 C 
BRANCH   6   7
ATOM      7  C   UNL     1      -5.184  38.947  24.847  1.00  0.00     0.000 C 
BRANCH   7   8
ATOM      8  C   UNL     1      -4.498  37.671  25.371  1.00  0.00     0.000 C 
BRANCH   8   9
ATOM      9  C   UNL     1      -5.426  36.447  25.536  1.00  0.00     0.000 C 
BRANCH   9  10
ATOM     10  C   UNL     1      -6.009  35.882  24.225  1.00  0.00     0.000 C 
BRANCH  10  11
ATOM     11  C   UNL     1      -6.095  34.348  24.163  1.00  0.00     0.000 C 
BRANCH  11  12
ATOM     12  C   UNL     1      -5.168  33.744  23.093  1.00  0.00     0.006 C 
BRANCH  12  13
ATOM     13  C   UNL     1      -3.944  34.629  22.820  1.00  0.00     0.053 C 
BRANCH  13  14
ATOM     14  C   UNL     1      -3.110  34.092  21.696  1.00  0.00     0.041 C 
ATOM     15  O   UNL     1      -2.916  32.854  21.586  1.00  0.00    -0.550 OA
ATOM     16  O   UNL     1      -2.543  34.962  20.772  1.00  0.00    -0.550 OA
ENDBRANCH  13  14
ENDBRANCH  12  13
ENDBRANCH  11  12
ENDBRANCH  10  11
ENDBRANCH   9  10
ENDBRANCH   8   9
ENDBRANCH   7   8
ENDBRANCH   6   7
ENDBRANCH   5   6
ENDBRANCH   4   5
ENDBRANCH   3   4
ENDBRANCH   2   3
ENDBRANCH   1   2
BRANCH   1  17
ATOM     17  C   UNL     1      -6.001  36.249  20.798  1.00  0.00     0.000 C 
BRANCH  17  18
ATOM     18  C   UNL     1      -6.097  35.082  19.796  1.00  0.00     0.000 C 
BRANCH  18  19
ATOM     19  C   UNL     1      -5.401  35.376  18.457  1.00  0.00     0.000 C 
BRANCH  19  20
ATOM     20  C   UNL     1      -4.680  34.147  17.886  1.00  0.00     0.000 C 
BRANCH  20  21
ATOM     21  C   UNL     1      -3.909  34.459  16.595  1.00  0.00     0.000 C 
BRANCH  21  22
ATOM     22  C   UNL     1      -2.535  35.068  16.914  1.00  0.00    -0.000 C 
BRANCH  22  23
ATOM     23  C   UNL     1      -1.709  35.382  15.655  1.00  0.00    -0.000 C 
BRANCH  23  24
ATOM     24  C   UNL     1      -2.093  36.684  14.929  1.00  0.00    -0.000 C 
BRANCH  24  25
ATOM     25  C   UNL     1      -3.481  37.208  15.336  1.00  0.00    -0.000 C 
BRANCH  25  26
ATOM     26  C   UNL     1      -3.409  38.279  16.436  1.00  0.00    -0.000 C 
BRANCH  26  27
ATOM     27  C   UNL     1      -3.506  37.684  17.853  1.00  0.00    -0.000 C 
BRANCH  27  28
ATOM     28  C   UNL     1      -2.305  38.054  18.741  1.00  0.00    -0.000 C 
BRANCH  28  29
ATOM     29  C   UNL     1      -0.961  37.467  18.276  1.00  0.00    -0.003 C 
ATOM     30  C   UNL     1       0.068  37.370  19.403  1.00  0.00     0.004 C 
ENDBRANCH  28  29
ENDBRANCH  27  28
ENDBRANCH  26  27
ENDBRANCH  25  26
ENDBRANCH  24  25
ENDBRANCH  23  24
ENDBRANCH  22  23
ENDBRANCH  21  22
ENDBRANCH  20  21
ENDBRANCH  19  20
ENDBRANCH  18  19
ENDBRANCH  17  18
ENDBRANCH   1  17
TORSDOF 26
ENDMDL
MODEL 8
REMARK VINA RESULT:     4.390      1.190      2.983
REMARK INTER + INTRA:           9.473
REMARK INTER:                   9.624
REMARK INTRA:                  -0.151
REMARK UNBOUND:                -1.591
REMARK SMILES CCCCCCCCCCCCCCCCCCCCCCCCCCCC(=O)[O-]
REMARK SMILES IDX 15 1 16 2 17 3 18 4 19 5 20 6 21 7 22 8 23 9 24 10 25 11
REMARK SMILES IDX 26 12 27 13 28 14 29 15 30 16 14 17 13 18 12 19 11 20 10 21
REMARK SMILES IDX 9 22 8 23 7 24 6 25 5 26 4 27 3 28 2 29 1 30
REMARK H PARENT
REMARK Flexibility Score: inf
ROOT
ATOM      1  C   UNL     1      -4.314  37.670  20.136  1.00  0.00     0.000 C 
ENDROOT
BRANCH   1   2
ATOM      2  C   UNL     1      -5.764  38.146  20.315  1.00  0.00     0.000 C 
BRANCH   2   3
ATOM      3  C   UNL     1      -5.888  39.680  20.361  1.00  0.00     0.000 C 
BRANCH   3   4
ATOM      4  C   UNL     1      -5.855  40.268  21.788  1.00  0.00     0.000 C 
BRANCH   4   5
ATOM      5  C   UNL     1      -4.782  39.608  22.673  1.00  0.00     0.000 C 
BRANCH   5   6
ATOM      6  C   UNL     1      -5.366  38.973  23.951  1.00  0.00     0.000 C 
BRANCH   6   7
ATOM      7  C   UNL     1      -5.752  37.489  23.799  1.00  0.00     0.000 C 
BRANCH   7   8
ATOM      8  C   UNL     1      -5.080  36.524  24.794  1.00  0.00     0.000 C 
BRANCH   8   9
ATOM      9  C   UNL     1      -4.571  37.175  26.099  1.00  0.00     0.000 C 
BRANCH   9  10
ATOM     10  C   UNL     1      -3.060  37.482  26.135  1.00  0.00     0.000 C 
BRANCH  10  11
ATOM     11  C   UNL     1      -2.438  37.506  27.541  1.00  0.00     0.000 C 
BRANCH  11  12
ATOM     12  C   UNL     1      -1.597  36.253  27.839  1.00  0.00     0.006 C 
BRANCH  12  13
ATOM     13  C   UNL     1      -2.403  35.174  28.574  1.00  0.00     0.053 C 
BRANCH  13  14
ATOM     14  C   UNL     1      -1.546  34.383  29.516  1.00  0.00     0.041 C 
ATOM     15  O   UNL     1      -0.314  34.252  29.293  1.00  0.00    -0.550 OA
ATOM     16  O   UNL     1      -2.109  33.787  30.637  1.00  0.00    -0.550 OA
ENDBRANCH  13  14
ENDBRANCH  12  13
ENDBRANCH  11  12
ENDBRANCH  10  11
ENDBRANCH   9  10
ENDBRANCH   8   9
ENDBRANCH   7   8
ENDBRANCH   6   7
ENDBRANCH   5   6
ENDBRANCH   4   5
ENDBRANCH   3   4
ENDBRANCH   2   3
ENDBRANCH   1   2
BRANCH   1  17
ATOM     17  C   UNL     1      -3.918  36.545  21.111  1.00  0.00     0.000 C 
BRANCH  17  18
ATOM     18  C   UNL     1      -4.472  35.148  20.774  1.00  0.00     0.000 C 
BRANCH  18  19
ATOM     19  C   UNL     1      -5.665  35.187  19.804  1.00  0.00     0.000 C 
BRANCH  19  20
ATOM     20  C   UNL     1      -5.424  34.347  18.542  1.00  0.00     0.000 C 
BRANCH  20  21
ATOM     21  C   UNL     1      -4.079  34.659  17.869  1.00  0.00     0.000 C 
BRANCH  21  22
ATOM     22  C   UNL     1      -4.269  34.927  16.369  1.00  0.00    -0.000 C 
BRANCH  22  23
ATOM     23  C   UNL     1      -2.968  35.347  15.663  1.00  0.00    -0.000 C 
BRANCH  23  24
ATOM     24  C   UNL     1      -3.157  36.192  14.391  1.00  0.00    -0.000 C 
BRANCH  24  25
ATOM     25  C   UNL     1      -3.747  37.584  14.682  1.00  0.00    -0.000 C 
BRANCH  25  26
ATOM     26  C   UNL     1      -3.331  38.127  16.058  1.00  0.00    -0.000 C 
BRANCH  26  27
ATOM     27  C   UNL     1      -1.984  37.558  16.541  1.00  0.00    -0.000 C 
BRANCH  27  28
ATOM     28  C   UNL     1      -1.968  37.258  18.050  1.00  0.00    -0.000 C 
BRANCH  28  29
ATOM     29  C   UNL     1      -0.934  38.066  18.852  1.00  0.00    -0.003 C 
ATOM     30  C   UNL     1      -0.215  37.229  19.911  1.00  0.00     0.004 C 
ENDBRANCH  28  29
ENDBRANCH  27  28
ENDBRANCH  26  27
ENDBRANCH  25  26
ENDBRANCH  24  25
ENDBRANCH  23  24
ENDBRANCH  22  23
ENDBRANCH  21  22
ENDBRANCH  20  21
ENDBRANCH  19  20
ENDBRANCH  18  19
ENDBRANCH  17  18
ENDBRANCH   1  17
TORSDOF 26
ENDMDL
MODEL 9
REMARK VINA RESULT:     4.470      1.375      3.841
REMARK INTER + INTRA:           9.673
REMARK INTER:                  11.266
REMARK INTRA:                  -1.594
REMARK UNBOUND:                -1.591
REMARK SMILES CCCCCCCCCCCCCCCCCCCCCCCCCCCC(=O)[O-]
REMARK SMILES IDX 15 1 16 2 17 3 18 4 19 5 20 6 21 7 22 8 23 9 24 10 25 11
REMARK SMILES IDX 26 12 27 13 28 14 29 15 30 16 14 17 13 18 12 19 11 20 10 21
REMARK SMILES IDX 9 22 8 23 7 24 6 25 5 26 4 27 3 28 2 29 1 30
REMARK H PARENT
REMARK Flexibility Score: inf
ROOT
ATOM      1  C   UNL     1      -3.412  34.936  19.953  1.00  0.00     0.000 C 
ENDROOT
BRANCH   1   2
ATOM      2  C   UNL     1      -2.913  34.460  21.327  1.00  0.00     0.000 C 
BRANCH   2   3
ATOM      3  C   UNL     1      -4.010  33.764  22.153  1.00  0.00     0.000 C 
BRANCH   3   4
ATOM      4  C   UNL     1      -5.145  34.707  22.605  1.00  0.00     0.000 C 
BRANCH   4   5
ATOM      5  C   UNL     1      -5.997  34.104  23.736  1.00  0.00     0.000 C 
BRANCH   5   6
ATOM      6  C   UNL     1      -6.124  35.039  24.955  1.00  0.00     0.000 C 
BRANCH   6   7
ATOM      7  C   UNL     1      -5.115  36.204  24.965  1.00  0.00     0.000 C 
BRANCH   7   8
ATOM      8  C   UNL     1      -5.260  37.197  26.133  1.00  0.00     0.000 C 
BRANCH   8   9
ATOM      9  C   UNL     1      -4.142  38.257  26.239  1.00  0.00     0.000 C 
BRANCH   9  10
ATOM     10  C   UNL     1      -2.706  37.696  26.284  1.00  0.00     0.000 C 
BRANCH  10  11
ATOM     11  C   UNL     1      -2.025  37.772  27.660  1.00  0.00     0.000 C 
BRANCH  11  12
ATOM     12  C   UNL     1      -1.238  36.495  28.004  1.00  0.00     0.006 C 
BRANCH  12  13
ATOM     13  C   UNL     1      -2.161  35.322  28.357  1.00  0.00     0.053 C 
BRANCH  13  14
ATOM     14  C   UNL     1      -1.563  34.443  29.415  1.00  0.00     0.041 C 
ATOM     15  O   UNL     1      -2.184  34.232  30.489  1.00  0.00    -0.550 OA
ATOM     16  O   UNL     1      -0.317  33.861  29.215  1.00  0.00    -0.550 OA
ENDBRANCH  13  14
ENDBRANCH  12  13
ENDBRANCH  11  12
ENDBRANCH  10  11
ENDBRANCH   9  10
ENDBRANCH   8   9
ENDBRANCH   7   8
ENDBRANCH   6   7
ENDBRANCH   5   6
ENDBRANCH   4   5
ENDBRANCH   3   4
ENDBRANCH   2   3
ENDBRANCH   1   2
BRANCH   1  17
ATOM     17  C   UNL     1      -4.833  34.446  19.619  1.00  0.00     0.000 C 
BRANCH  17  18
ATOM     18  C   UNL     1      -5.209  34.465  18.125  1.00  0.00     0.000 C 
BRANCH  18  19
ATOM     19  C   UNL     1      -4.439  35.526  17.321  1.00  0.00     0.000 C 
BRANCH  19  20
ATOM     20  C   UNL     1      -3.316  34.917  16.469  1.00  0.00     0.000 C 
BRANCH  20  21
ATOM     21  C   UNL     1      -2.371  35.980  15.887  1.00  0.00     0.000 C 
BRANCH  21  22
ATOM     22  C   UNL     1      -1.446  36.540  16.977  1.00  0.00    -0.000 C 
BRANCH  22  23
ATOM     23  C   UNL     1      -1.854  37.947  17.448  1.00  0.00    -0.000 C 
BRANCH  23  24
ATOM     24  C   UNL     1      -1.705  38.200  18.959  1.00  0.00    -0.000 C 
BRANCH  24  25
ATOM     25  C   UNL     1      -2.874  37.627  19.779  1.00  0.00    -0.000 C 
BRANCH  25  26
ATOM     26  C   UNL     1      -4.246  38.003  19.196  1.00  0.00    -0.000 C 
BRANCH  26  27
ATOM     27  C   UNL     1      -5.371  37.962  20.247  1.00  0.00    -0.000 C 
BRANCH  27  28
ATOM     28  C   UNL     1      -4.848  37.715  21.673  1.00  0.00    -0.000 C 
BRANCH  28  29
ATOM     29  C   UNL     1      -5.437  38.652  22.742  1.00  0.00    -0.003 C 
ATOM     30  C   UNL     1      -4.955  40.096  22.598  1.00  0.00     0.004 C 
ENDBRANCH  28  29
ENDBRANCH  27  28
ENDBRANCH  26  27
ENDBRANCH  25  26
ENDBRANCH  24  25
ENDBRANCH  23  24
ENDBRANCH  22  23
ENDBRANCH  21  22
ENDBRANCH  20  21
ENDBRANCH  19  20
ENDBRANCH  18  19
ENDBRANCH  17  18
ENDBRANCH   1  17
TORSDOF 26
ENDMDL
