MODEL 1
REMARK VINA RESULT:    -7.300      0.000      0.000
REMARK INTER + INTRA:          -9.248
REMARK INTER:                  -9.007
REMARK INTRA:                  -0.241
REMARK UNBOUND:                -0.241
REMARK SMILES Oc1cc(O)c2cc(O)c(-c3cc(O)c(O)c(O)c3)[o+]c2c1
REMARK SMILES IDX 10 1 20 2 21 3 22 4 2 5 3 6 4 7 6 8 7 9 8 10 11 11 12 12
REMARK SMILES IDX 13 13 19 14 15 15 17 16 14 17 16 19 18 21 9 23 1 25 5 27
REMARK H PARENT 14 18 16 20 18 22 9 24 1 26 5 28
REMARK Flexibility Score: inf
ROOT
ATOM      1  C   UNL     1      26.906 -26.437  28.027  1.00  0.00     0.402 A 
ATOM      2  O   UNL     1      25.639 -26.402  27.626  1.00  0.00    -0.202 OA
ATOM      3  C   UNL     1      25.230 -25.731  26.555  1.00  0.00     0.368 A 
ATOM      4  C   UNL     1      23.875 -25.752  26.214  1.00  0.00     0.162 A 
ATOM      5  C   UNL     1      23.417 -25.054  25.097  1.00  0.00     0.128 A 
ATOM      6  C   UNL     1      24.320 -24.329  24.311  1.00  0.00     0.093 A 
ATOM      7  C   UNL     1      25.683 -24.292  24.630  1.00  0.00     0.136 A 
ATOM      8  C   UNL     1      26.152 -25.002  25.765  1.00  0.00     0.125 A 
ATOM      9  C   UNL     1      27.502 -25.033  26.153  1.00  0.00     0.078 A 
ATOM     10  C   UNL     1      27.890 -25.760  27.283  1.00  0.00     0.223 A 
ENDROOT
BRANCH   1  11
ATOM     11  C   UNL     1      27.236 -27.213  29.245  1.00  0.00     0.091 A 
ATOM     12  C   UNL     1      27.988 -28.390  29.130  1.00  0.00     0.068 A 
ATOM     13  C   UNL     1      28.297 -29.153  30.259  1.00  0.00     0.162 A 
ATOM     14  C   UNL     1      26.760 -26.829  30.509  1.00  0.00     0.068 A 
ATOM     15  C   UNL     1      27.841 -28.755  31.529  1.00  0.00     0.200 A 
ATOM     16  C   UNL     1      27.057 -27.582  31.650  1.00  0.00     0.162 A 
BRANCH  13  17
ATOM     17  O   UNL     1      29.064 -30.308  30.098  1.00  0.00    -0.504 OA
ATOM     18  H   UNL     1      29.779 -30.579  30.762  1.00  0.00     0.293 HD
ENDBRANCH  13  17
BRANCH  15  19
ATOM     19  O   UNL     1      28.180 -29.541  32.634  1.00  0.00    -0.502 OA
ATOM     20  H   UNL     1      27.650 -29.574  33.492  1.00  0.00     0.293 HD
ENDBRANCH  15  19
BRANCH  16  21
ATOM     21  O   UNL     1      26.549 -27.137  32.872  1.00  0.00    -0.504 OA
ATOM     22  H   UNL     1      25.614 -26.776  33.000  1.00  0.00     0.293 HD
ENDBRANCH  16  21
ENDBRANCH   1  11
BRANCH  10  23
ATOM     23  O   UNL     1      29.237 -25.833  27.640  1.00  0.00    -0.500 OA
ATOM     24  H   UNL     1      29.766 -25.006  27.889  1.00  0.00     0.294 HD
ENDBRANCH  10  23
BRANCH   5  25
ATOM     25  O   UNL     1      22.062 -25.086  24.774  1.00  0.00    -0.507 OA
ATOM     26  H   UNL     1      21.497 -24.246  24.774  1.00  0.00     0.293 HD
ENDBRANCH   5  25
BRANCH   7  27
ATOM     27  O   UNL     1      26.519 -23.542  23.798  1.00  0.00    -0.507 OA
ATOM     28  H   UNL     1      26.632 -23.704  22.807  1.00  0.00     0.293 HD
ENDBRANCH   7  27
TORSDOF 7
ENDMDL
MODEL 2
REMARK VINA RESULT:    -7.278      0.551      1.887
REMARK INTER + INTRA:          -9.220
REMARK INTER:                  -8.938
REMARK INTRA:                  -0.282
REMARK UNBOUND:                -0.241
REMARK SMILES Oc1cc(O)c2cc(O)c(-c3cc(O)c(O)c(O)c3)[o+]c2c1
REMARK SMILES IDX 10 1 20 2 21 3 22 4 2 5 3 6 4 7 6 8 7 9 8 10 11 11 12 12
REMARK SMILES IDX 13 13 19 14 15 15 17 16 14 17 16 19 18 21 9 23 1 25 5 27
REMARK H PARENT 14 18 16 20 18 22 9 24 1 26 5 28
REMARK Flexibility Score: inf
ROOT
ATOM      1  C   UNL     1      26.468 -26.503  28.133  1.00  0.00     0.402 A 
ATOM      2  O   UNL     1      25.196 -26.599  27.756  1.00  0.00    -0.202 OA
ATOM      3  C   UNL     1      24.685 -25.922  26.733  1.00  0.00     0.368 A 
ATOM      4  C   UNL     1      23.335 -26.087  26.414  1.00  0.00     0.162 A 
ATOM      5  C   UNL     1      22.771 -25.387  25.347  1.00  0.00     0.128 A 
ATOM      6  C   UNL     1      23.562 -24.515  24.591  1.00  0.00     0.093 A 
ATOM      7  C   UNL     1      24.918 -24.332  24.890  1.00  0.00     0.136 A 
ATOM      8  C   UNL     1      25.495 -25.044  25.973  1.00  0.00     0.125 A 
ATOM      9  C   UNL     1      26.848 -24.934  26.336  1.00  0.00     0.078 A 
ATOM     10  C   UNL     1      27.346 -25.672  27.414  1.00  0.00     0.223 A 
ENDROOT
BRANCH   1  11
ATOM     11  C   UNL     1      26.916 -27.302  29.298  1.00  0.00     0.091 A 
ATOM     12  C   UNL     1      26.531 -26.914  30.589  1.00  0.00     0.068 A 
ATOM     13  C   UNL     1      26.954 -27.637  31.707  1.00  0.00     0.162 A 
ATOM     14  C   UNL     1      27.768 -28.407  29.143  1.00  0.00     0.068 A 
ATOM     15  C   UNL     1      27.789 -28.759  31.550  1.00  0.00     0.200 A 
ATOM     16  C   UNL     1      28.204 -29.141  30.252  1.00  0.00     0.162 A 
BRANCH  13  17
ATOM     17  O   UNL     1      26.532 -27.224  32.971  1.00  0.00    -0.504 OA
ATOM     18  H   UNL     1      25.568 -27.302  33.272  1.00  0.00     0.293 HD
ENDBRANCH  13  17
BRANCH  15  19
ATOM     19  O   UNL     1      28.182 -29.460  32.694  1.00  0.00    -0.502 OA
ATOM     20  H   UNL     1      28.123 -30.462  32.794  1.00  0.00     0.293 HD
ENDBRANCH  15  19
BRANCH  16  21
ATOM     21  O   UNL     1      29.050 -30.227  30.019  1.00  0.00    -0.504 OA
ATOM     22  H   UNL     1      29.298 -30.566  29.100  1.00  0.00     0.293 HD
ENDBRANCH  16  21
ENDBRANCH   1  11
BRANCH  10  23
ATOM     23  O   UNL     1      28.700 -25.601  27.744  1.00  0.00    -0.500 OA
ATOM     24  H   UNL     1      29.120 -26.239  28.409  1.00  0.00     0.294 HD
ENDBRANCH  10  23
BRANCH   5  25
ATOM     25  O   UNL     1      21.423 -25.565  25.045  1.00  0.00    -0.507 OA
ATOM     26  H   UNL     1      20.854 -26.241  25.540  1.00  0.00     0.293 HD
ENDBRANCH   5  25
BRANCH   7  27
ATOM     27  O   UNL     1      25.639 -23.441  24.089  1.00  0.00    -0.507 OA
ATOM     28  H   UNL     1      26.170 -23.709  23.272  1.00  0.00     0.293 HD
ENDBRANCH   7  27
TORSDOF 7
ENDMDL
MODEL 3
REMARK VINA RESULT:    -7.063      5.470      8.279
REMARK INTER + INTRA:          -8.956
REMARK INTER:                  -8.579
REMARK INTRA:                  -0.377
REMARK UNBOUND:                -0.241
REMARK SMILES Oc1cc(O)c2cc(O)c(-c3cc(O)c(O)c(O)c3)[o+]c2c1
REMARK SMILES IDX 10 1 20 2 21 3 22 4 2 5 3 6 4 7 6 8 7 9 8 10 11 11 12 12
REMARK SMILES IDX 13 13 19 14 15 15 17 16 14 17 16 19 18 21 9 23 1 25 5 27
REMARK H PARENT 14 18 16 20 18 22 9 24 1 26 5 28
REMARK Flexibility Score: inf
ROOT
ATOM      1  C   UNL     1      23.607 -21.409  26.727  1.00  0.00     0.402 A 
ATOM      2  O   UNL     1      24.049 -21.864  25.557  1.00  0.00    -0.202 OA
ATOM      3  C   UNL     1      23.926 -23.130  25.174  1.00  0.00     0.368 A 
ATOM      4  C   UNL     1      24.425 -23.515  23.926  1.00  0.00     0.162 A 
ATOM      5  C   UNL     1      24.313 -24.838  23.499  1.00  0.00     0.128 A 
ATOM      6  C   UNL     1      23.698 -25.786  24.323  1.00  0.00     0.093 A 
ATOM      7  C   UNL     1      23.190 -25.427  25.578  1.00  0.00     0.136 A 
ATOM      8  C   UNL     1      23.300 -24.081  26.015  1.00  0.00     0.125 A 
ATOM      9  C   UNL     1      22.808 -23.628  27.250  1.00  0.00     0.078 A 
ATOM     10  C   UNL     1      22.950 -22.284  27.610  1.00  0.00     0.223 A 
ENDROOT
BRANCH   1  11
ATOM     11  C   UNL     1      23.812 -19.977  27.044  1.00  0.00     0.091 A 
ATOM     12  C   UNL     1      24.926 -19.591  27.803  1.00  0.00     0.068 A 
ATOM     13  C   UNL     1      25.135 -18.250  28.134  1.00  0.00     0.162 A 
ATOM     14  C   UNL     1      22.883 -19.000  26.652  1.00  0.00     0.068 A 
ATOM     15  C   UNL     1      24.216 -17.267  27.720  1.00  0.00     0.200 A 
ATOM     16  C   UNL     1      23.074 -17.652  26.977  1.00  0.00     0.162 A 
BRANCH  13  17
ATOM     17  O   UNL     1      26.266 -17.911  28.876  1.00  0.00    -0.504 OA
ATOM     18  H   UNL     1      26.678 -16.987  28.844  1.00  0.00     0.293 HD
ENDBRANCH  13  17
BRANCH  15  19
ATOM     19  O   UNL     1      24.467 -15.936  28.064  1.00  0.00    -0.502 OA
ATOM     20  H   UNL     1      24.116 -15.490  28.898  1.00  0.00     0.293 HD
ENDBRANCH  15  19
BRANCH  16  21
ATOM     21  O   UNL     1      22.108 -16.739  26.551  1.00  0.00    -0.504 OA
ATOM     22  H   UNL     1      21.143 -16.977  26.372  1.00  0.00     0.293 HD
ENDBRANCH  16  21
ENDBRANCH   1  11
BRANCH  10  23
ATOM     23  O   UNL     1      22.417 -21.822  28.814  1.00  0.00    -0.500 OA
ATOM     24  H   UNL     1      22.879 -21.991  29.700  1.00  0.00     0.294 HD
ENDBRANCH  10  23
BRANCH   5  25
ATOM     25  O   UNL     1      24.817 -25.202  22.252  1.00  0.00    -0.507 OA
ATOM     26  H   UNL     1      24.800 -26.163  21.933  1.00  0.00     0.293 HD
ENDBRANCH   5  25
BRANCH   7  27
ATOM     27  O   UNL     1      22.593 -26.433  26.343  1.00  0.00    -0.507 OA
ATOM     28  H   UNL     1      21.811 -26.994  26.037  1.00  0.00     0.293 HD
ENDBRANCH   7  27
TORSDOF 7
ENDMDL
MODEL 4
REMARK VINA RESULT:    -7.027      4.991      8.254
REMARK INTER + INTRA:          -8.911
REMARK INTER:                  -8.533
REMARK INTRA:                  -0.378
REMARK UNBOUND:                -0.241
REMARK SMILES Oc1cc(O)c2cc(O)c(-c3cc(O)c(O)c(O)c3)[o+]c2c1
REMARK SMILES IDX 10 1 20 2 21 3 22 4 2 5 3 6 4 7 6 8 7 9 8 10 11 11 12 12
REMARK SMILES IDX 13 13 19 14 15 15 17 16 14 17 16 19 18 21 9 23 1 25 5 27
REMARK H PARENT 14 18 16 20 18 22 9 24 1 26 5 28
REMARK Flexibility Score: inf
ROOT
ATOM      1  C   UNL     1      27.081 -28.687  35.620  1.00  0.00     0.402 A 
ATOM      2  O   UNL     1      26.219 -28.229  34.716  1.00  0.00    -0.202 OA
ATOM      3  C   UNL     1      26.407 -28.344  33.405  1.00  0.00     0.368 A 
ATOM      4  C   UNL     1      25.445 -27.828  32.532  1.00  0.00     0.162 A 
ATOM      5  C   UNL     1      25.617 -27.932  31.152  1.00  0.00     0.128 A 
ATOM      6  C   UNL     1      26.758 -28.558  30.637  1.00  0.00     0.093 A 
ATOM      7  C   UNL     1      27.736 -29.083  31.491  1.00  0.00     0.136 A 
ATOM      8  C   UNL     1      27.564 -28.981  32.895  1.00  0.00     0.125 A 
ATOM      9  C   UNL     1      28.485 -29.491  33.825  1.00  0.00     0.078 A 
ATOM     10  C   UNL     1      28.244 -29.356  35.196  1.00  0.00     0.223 A 
ENDROOT
BRANCH   1  11
ATOM     11  C   UNL     1      26.764 -28.488  37.053  1.00  0.00     0.091 A 
ATOM     12  C   UNL     1      26.038 -29.470  37.742  1.00  0.00     0.068 A 
ATOM     13  C   UNL     1      25.709 -29.301  39.089  1.00  0.00     0.162 A 
ATOM     14  C   UNL     1      27.124 -27.310  37.726  1.00  0.00     0.068 A 
ATOM     15  C   UNL     1      26.091 -28.130  39.770  1.00  0.00     0.200 A 
ATOM     16  C   UNL     1      26.800 -27.121  39.074  1.00  0.00     0.162 A 
BRANCH  13  17
ATOM     17  O   UNL     1      25.000 -30.313  39.737  1.00  0.00    -0.504 OA
ATOM     18  H   UNL     1      24.600 -30.188  40.659  1.00  0.00     0.293 HD
ENDBRANCH  13  17
BRANCH  15  19
ATOM     19  O   UNL     1      25.749 -28.004  41.119  1.00  0.00    -0.502 OA
ATOM     20  H   UNL     1      25.179 -27.261  41.494  1.00  0.00     0.293 HD
ENDBRANCH  15  19
BRANCH  16  21
ATOM     21  O   UNL     1      27.192 -25.924  39.674  1.00  0.00    -0.504 OA
ATOM     22  H   UNL     1      27.812 -25.864  40.470  1.00  0.00     0.293 HD
ENDBRANCH  16  21
ENDBRANCH   1  11
BRANCH  10  23
ATOM     23  O   UNL     1      29.133 -29.906  36.121  1.00  0.00    -0.500 OA
ATOM     24  H   UNL     1      29.980 -29.424  36.395  1.00  0.00     0.294 HD
ENDBRANCH  10  23
BRANCH   5  25
ATOM     25  O   UNL     1      24.648 -27.411  30.298  1.00  0.00    -0.507 OA
ATOM     26  H   UNL     1      24.065 -26.629  30.573  1.00  0.00     0.293 HD
ENDBRANCH   5  25
BRANCH   7  27
ATOM     27  O   UNL     1      28.848 -29.690  30.899  1.00  0.00    -0.507 OA
ATOM     28  H   UNL     1      29.807 -29.435  31.090  1.00  0.00     0.293 HD
ENDBRANCH   7  27
TORSDOF 7
ENDMDL
MODEL 5
REMARK VINA RESULT:    -7.017      1.142      2.728
REMARK INTER + INTRA:          -8.899
REMARK INTER:                  -8.625
REMARK INTRA:                  -0.273
REMARK UNBOUND:                -0.241
REMARK SMILES Oc1cc(O)c2cc(O)c(-c3cc(O)c(O)c(O)c3)[o+]c2c1
REMARK SMILES IDX 10 1 20 2 21 3 22 4 2 5 3 6 4 7 6 8 7 9 8 10 11 11 12 12
REMARK SMILES IDX 13 13 19 14 15 15 17 16 14 17 16 19 18 21 9 23 1 25 5 27
REMARK H PARENT 14 18 16 20 18 22 9 24 1 26 5 28
REMARK Flexibility Score: inf
ROOT
ATOM      1  C   UNL     1      26.606 -26.485  28.159  1.00  0.00     0.402 A 
ATOM      2  O   UNL     1      27.520 -25.723  27.564  1.00  0.00    -0.202 OA
ATOM      3  C   UNL     1      27.271 -24.993  26.483  1.00  0.00     0.368 A 
ATOM      4  C   UNL     1      28.298 -24.226  25.927  1.00  0.00     0.162 A 
ATOM      5  C   UNL     1      28.066 -23.452  24.790  1.00  0.00     0.128 A 
ATOM      6  C   UNL     1      26.796 -23.442  24.202  1.00  0.00     0.093 A 
ATOM      7  C   UNL     1      25.749 -24.201  24.740  1.00  0.00     0.136 A 
ATOM      8  C   UNL     1      25.982 -24.988  25.898  1.00  0.00     0.125 A 
ATOM      9  C   UNL     1      24.989 -25.769  26.512  1.00  0.00     0.078 A 
ATOM     10  C   UNL     1      25.293 -26.516  27.655  1.00  0.00     0.223 A 
ENDROOT
BRANCH   1  11
ATOM     11  C   UNL     1      27.010 -27.261  29.353  1.00  0.00     0.091 A 
ATOM     12  C   UNL     1      27.830 -28.387  29.199  1.00  0.00     0.068 A 
ATOM     13  C   UNL     1      28.212 -29.150  30.306  1.00  0.00     0.162 A 
ATOM     14  C   UNL     1      26.541 -26.931  30.635  1.00  0.00     0.068 A 
ATOM     15  C   UNL     1      27.761 -28.805  31.593  1.00  0.00     0.200 A 
ATOM     16  C   UNL     1      26.909 -27.685  31.754  1.00  0.00     0.162 A 
BRANCH  13  17
ATOM     17  O   UNL     1      29.044 -30.252  30.105  1.00  0.00    -0.504 OA
ATOM     18  H   UNL     1      29.276 -30.593  29.181  1.00  0.00     0.293 HD
ENDBRANCH  13  17
BRANCH  15  19
ATOM     19  O   UNL     1      28.173 -29.589  32.674  1.00  0.00    -0.502 OA
ATOM     20  H   UNL     1      29.046 -29.465  33.166  1.00  0.00     0.293 HD
ENDBRANCH  15  19
BRANCH  16  21
ATOM     21  O   UNL     1      26.403 -27.294  32.995  1.00  0.00    -0.504 OA
ATOM     22  H   UNL     1      26.939 -27.290  33.851  1.00  0.00     0.293 HD
ENDBRANCH  16  21
ENDBRANCH   1  11
BRANCH  10  23
ATOM     23  O   UNL     1      24.295 -27.253  28.295  1.00  0.00    -0.500 OA
ATOM     24  H   UNL     1      24.438 -28.218  28.567  1.00  0.00     0.294 HD
ENDBRANCH  10  23
BRANCH   5  25
ATOM     25  O   UNL     1      29.103 -22.694  24.251  1.00  0.00    -0.507 OA
ATOM     26  H   UNL     1      29.863 -22.351  24.826  1.00  0.00     0.293 HD
ENDBRANCH   5  25
BRANCH   7  27
ATOM     27  O   UNL     1      24.512 -24.140  24.093  1.00  0.00    -0.507 OA
ATOM     28  H   UNL     1      23.859 -23.374  24.180  1.00  0.00     0.293 HD
ENDBRANCH   7  27
TORSDOF 7
ENDMDL
MODEL 6
REMARK VINA RESULT:    -6.957      5.318      7.894
REMARK INTER + INTRA:          -8.824
REMARK INTER:                  -8.444
REMARK INTRA:                  -0.380
REMARK UNBOUND:                -0.241
REMARK SMILES Oc1cc(O)c2cc(O)c(-c3cc(O)c(O)c(O)c3)[o+]c2c1
REMARK SMILES IDX 10 1 20 2 21 3 22 4 2 5 3 6 4 7 6 8 7 9 8 10 11 11 12 12
REMARK SMILES IDX 13 13 19 14 15 15 17 16 14 17 16 19 18 21 9 23 1 25 5 27
REMARK H PARENT 14 18 16 20 18 22 9 24 1 26 5 28
REMARK Flexibility Score: inf
ROOT
ATOM      1  C   UNL     1      23.502 -21.681  26.598  1.00  0.00     0.402 A 
ATOM      2  O   UNL     1      24.547 -21.294  27.325  1.00  0.00    -0.202 OA
ATOM      3  C   UNL     1      24.621 -20.111  27.924  1.00  0.00     0.368 A 
ATOM      4  C   UNL     1      25.763 -19.794  28.665  1.00  0.00     0.162 A 
ATOM      5  C   UNL     1      25.870 -18.557  29.302  1.00  0.00     0.128 A 
ATOM      6  C   UNL     1      24.828 -17.629  29.200  1.00  0.00     0.093 A 
ATOM      7  C   UNL     1      23.673 -17.922  28.464  1.00  0.00     0.136 A 
ATOM      8  C   UNL     1      23.560 -19.180  27.816  1.00  0.00     0.125 A 
ATOM      9  C   UNL     1      22.435 -19.565  27.069  1.00  0.00     0.078 A 
ATOM     10  C   UNL     1      22.394 -20.824  26.462  1.00  0.00     0.223 A 
ENDROOT
BRANCH   1  11
ATOM     11  C   UNL     1      23.542 -23.022  25.971  1.00  0.00     0.091 A 
ATOM     12  C   UNL     1      24.009 -23.155  24.656  1.00  0.00     0.068 A 
ATOM     13  C   UNL     1      24.040 -24.405  24.033  1.00  0.00     0.162 A 
ATOM     14  C   UNL     1      23.066 -24.159  26.644  1.00  0.00     0.068 A 
ATOM     15  C   UNL     1      23.586 -25.549  24.715  1.00  0.00     0.200 A 
ATOM     16  C   UNL     1      23.086 -25.419  26.034  1.00  0.00     0.162 A 
BRANCH  13  17
ATOM     17  O   UNL     1      24.530 -24.491  22.729  1.00  0.00    -0.504 OA
ATOM     18  H   UNL     1      24.266 -25.239  22.100  1.00  0.00     0.293 HD
ENDBRANCH  13  17
BRANCH  15  19
ATOM     19  O   UNL     1      23.643 -26.781  24.059  1.00  0.00    -0.502 OA
ATOM     20  H   UNL     1      23.184 -27.619  24.384  1.00  0.00     0.293 HD
ENDBRANCH  15  19
BRANCH  16  21
ATOM     21  O   UNL     1      22.597 -26.502  26.765  1.00  0.00    -0.504 OA
ATOM     22  H   UNL     1      22.946 -27.446  26.684  1.00  0.00     0.293 HD
ENDBRANCH  16  21
ENDBRANCH   1  11
BRANCH  10  23
ATOM     23  O   UNL     1      21.256 -21.227  25.762  1.00  0.00    -0.500 OA
ATOM     24  H   UNL     1      20.375 -20.737  25.853  1.00  0.00     0.294 HD
ENDBRANCH  10  23
BRANCH   5  25
ATOM     25  O   UNL     1      27.016 -18.260  30.036  1.00  0.00    -0.507 OA
ATOM     26  H   UNL     1      27.159 -18.627  30.969  1.00  0.00     0.293 HD
ENDBRANCH   5  25
BRANCH   7  27
ATOM     27  O   UNL     1      22.679 -16.941  28.407  1.00  0.00    -0.507 OA
ATOM     28  H   UNL     1      22.653 -16.194  27.728  1.00  0.00     0.293 HD
ENDBRANCH   7  27
TORSDOF 7
ENDMDL
MODEL 7
REMARK VINA RESULT:    -6.949      5.317      8.068
REMARK INTER + INTRA:          -8.814
REMARK INTER:                  -8.449
REMARK INTRA:                  -0.365
REMARK UNBOUND:                -0.241
REMARK SMILES Oc1cc(O)c2cc(O)c(-c3cc(O)c(O)c(O)c3)[o+]c2c1
REMARK SMILES IDX 10 1 20 2 21 3 22 4 2 5 3 6 4 7 6 8 7 9 8 10 11 11 12 12
REMARK SMILES IDX 13 13 19 14 15 15 17 16 14 17 16 19 18 21 9 23 1 25 5 27
REMARK H PARENT 14 18 16 20 18 22 9 24 1 26 5 28
REMARK Flexibility Score: inf
ROOT
ATOM      1  C   UNL     1      24.481 -20.914  26.040  1.00  0.00     0.402 A 
ATOM      2  O   UNL     1      23.814 -21.948  26.544  1.00  0.00    -0.202 OA
ATOM      3  C   UNL     1      23.809 -23.155  25.989  1.00  0.00     0.368 A 
ATOM      4  C   UNL     1      23.074 -24.178  26.592  1.00  0.00     0.162 A 
ATOM      5  C   UNL     1      23.048 -25.455  26.030  1.00  0.00     0.128 A 
ATOM      6  C   UNL     1      23.764 -25.713  24.856  1.00  0.00     0.093 A 
ATOM      7  C   UNL     1      24.509 -24.704  24.231  1.00  0.00     0.136 A 
ATOM      8  C   UNL     1      24.538 -23.405  24.802  1.00  0.00     0.125 A 
ATOM      9  C   UNL     1      25.268 -22.338  24.254  1.00  0.00     0.078 A 
ATOM     10  C   UNL     1      25.253 -21.085  24.876  1.00  0.00     0.223 A 
ENDROOT
BRANCH   1  11
ATOM     11  C   UNL     1      24.400 -19.614  26.746  1.00  0.00     0.091 A 
ATOM     12  C   UNL     1      25.390 -19.272  27.677  1.00  0.00     0.068 A 
ATOM     13  C   UNL     1      25.328 -18.061  28.371  1.00  0.00     0.162 A 
ATOM     14  C   UNL     1      23.318 -18.741  26.548  1.00  0.00     0.068 A 
ATOM     15  C   UNL     1      24.257 -17.174  28.155  1.00  0.00     0.200 A 
ATOM     16  C   UNL     1      23.238 -17.525  27.238  1.00  0.00     0.162 A 
BRANCH  13  17
ATOM     17  O   UNL     1      26.346 -17.755  29.276  1.00  0.00    -0.504 OA
ATOM     18  H   UNL     1      26.183 -17.197  30.105  1.00  0.00     0.293 HD
ENDBRANCH  13  17
BRANCH  15  19
ATOM     19  O   UNL     1      24.238 -15.970  28.864  1.00  0.00    -0.502 OA
ATOM     20  H   UNL     1      23.743 -15.829  29.732  1.00  0.00     0.293 HD
ENDBRANCH  15  19
BRANCH  16  21
ATOM     21  O   UNL     1      22.134 -16.710  26.987  1.00  0.00    -0.504 OA
ATOM     22  H   UNL     1      21.292 -17.020  26.524  1.00  0.00     0.293 HD
ENDBRANCH  16  21
ENDBRANCH   1  11
BRANCH  10  23
ATOM     23  O   UNL     1      26.017 -20.038  24.360  1.00  0.00    -0.500 OA
ATOM     24  H   UNL     1      26.425 -20.084  23.434  1.00  0.00     0.294 HD
ENDBRANCH  10  23
BRANCH   5  25
ATOM     25  O   UNL     1      22.309 -26.462  26.646  1.00  0.00    -0.507 OA
ATOM     26  H   UNL     1      21.998 -27.280  26.135  1.00  0.00     0.293 HD
ENDBRANCH   5  25
BRANCH   7  27
ATOM     27  O   UNL     1      25.193 -25.040  23.060  1.00  0.00    -0.507 OA
ATOM     28  H   UNL     1      25.999 -24.545  22.707  1.00  0.00     0.293 HD
ENDBRANCH   7  27
TORSDOF 7
ENDMDL
MODEL 8
REMARK VINA RESULT:    -6.945      5.108      7.296
REMARK INTER + INTRA:          -8.810
REMARK INTER:                  -8.424
REMARK INTRA:                  -0.386
REMARK UNBOUND:                -0.241
REMARK SMILES Oc1cc(O)c2cc(O)c(-c3cc(O)c(O)c(O)c3)[o+]c2c1
REMARK SMILES IDX 10 1 20 2 21 3 22 4 2 5 3 6 4 7 6 8 7 9 8 10 11 11 12 12
REMARK SMILES IDX 13 13 19 14 15 15 17 16 14 17 16 19 18 21 9 23 1 25 5 27
REMARK H PARENT 14 18 16 20 18 22 9 24 1 26 5 28
REMARK Flexibility Score: inf
ROOT
ATOM      1  C   UNL     1      24.415 -21.881  26.455  1.00  0.00     0.402 A 
ATOM      2  O   UNL     1      23.521 -20.917  26.252  1.00  0.00    -0.202 OA
ATOM      3  C   UNL     1      23.639 -19.694  26.758  1.00  0.00     0.368 A 
ATOM      4  C   UNL     1      22.645 -18.749  26.491  1.00  0.00     0.162 A 
ATOM      5  C   UNL     1      22.740 -17.458  27.012  1.00  0.00     0.128 A 
ATOM      6  C   UNL     1      23.838 -17.107  27.805  1.00  0.00     0.093 A 
ATOM      7  C   UNL     1      24.848 -18.036  28.087  1.00  0.00     0.136 A 
ATOM      8  C   UNL     1      24.755 -19.349  27.558  1.00  0.00     0.125 A 
ATOM      9  C   UNL     1      25.726 -20.340  27.777  1.00  0.00     0.078 A 
ATOM     10  C   UNL     1      25.567 -21.612  27.218  1.00  0.00     0.223 A 
ENDROOT
BRANCH   1  11
ATOM     11  C   UNL     1      24.167 -23.208  25.846  1.00  0.00     0.091 A 
ATOM     12  C   UNL     1      24.519 -23.428  24.507  1.00  0.00     0.068 A 
ATOM     13  C   UNL     1      24.279 -24.664  23.900  1.00  0.00     0.162 A 
ATOM     14  C   UNL     1      23.531 -24.234  26.562  1.00  0.00     0.068 A 
ATOM     15  C   UNL     1      23.663 -25.701  24.625  1.00  0.00     0.200 A 
ATOM     16  C   UNL     1      23.279 -25.477  25.969  1.00  0.00     0.162 A 
BRANCH  13  17
ATOM     17  O   UNL     1      24.663 -24.843  22.571  1.00  0.00    -0.504 OA
ATOM     18  H   UNL     1      24.494 -25.707  22.070  1.00  0.00     0.293 HD
ENDBRANCH  13  17
BRANCH  15  19
ATOM     19  O   UNL     1      23.450 -26.924  23.983  1.00  0.00    -0.502 OA
ATOM     20  H   UNL     1      23.702 -27.114  23.025  1.00  0.00     0.293 HD
ENDBRANCH  15  19
BRANCH  16  21
ATOM     21  O   UNL     1      22.644 -26.449  26.744  1.00  0.00    -0.504 OA
ATOM     22  H   UNL     1      21.783 -26.297  27.250  1.00  0.00     0.293 HD
ENDBRANCH  16  21
ENDBRANCH   1  11
BRANCH  10  23
ATOM     23  O   UNL     1      26.555 -22.582  27.393  1.00  0.00    -0.500 OA
ATOM     24  H   UNL     1      27.501 -22.443  27.060  1.00  0.00     0.294 HD
ENDBRANCH  10  23
BRANCH   5  25
ATOM     25  O   UNL     1      21.739 -16.530  26.735  1.00  0.00    -0.507 OA
ATOM     26  H   UNL     1      21.512 -15.786  27.383  1.00  0.00     0.293 HD
ENDBRANCH   5  25
BRANCH   7  27
ATOM     27  O   UNL     1      25.909 -17.608  28.890  1.00  0.00    -0.507 OA
ATOM     28  H   UNL     1      26.693 -17.063  28.558  1.00  0.00     0.293 HD
ENDBRANCH   7  27
TORSDOF 7
ENDMDL
MODEL 9
REMARK VINA RESULT:    -6.889      1.126      7.303
REMARK INTER + INTRA:          -8.741
REMARK INTER:                  -8.419
REMARK INTRA:                  -0.322
REMARK UNBOUND:                -0.241
REMARK SMILES Oc1cc(O)c2cc(O)c(-c3cc(O)c(O)c(O)c3)[o+]c2c1
REMARK SMILES IDX 10 1 20 2 21 3 22 4 2 5 3 6 4 7 6 8 7 9 8 10 11 11 12 12
REMARK SMILES IDX 13 13 19 14 15 15 17 16 14 17 16 19 18 21 9 23 1 25 5 27
REMARK H PARENT 14 18 16 20 18 22 9 24 1 26 5 28
REMARK Flexibility Score: inf
ROOT
ATOM      1  C   UNL     1      25.700 -25.911  27.928  1.00  0.00     0.402 A 
ATOM      2  O   UNL     1      26.535 -26.943  28.001  1.00  0.00    -0.202 OA
ATOM      3  C   UNL     1      26.928 -27.485  29.150  1.00  0.00     0.368 A 
ATOM      4  C   UNL     1      27.812 -28.567  29.125  1.00  0.00     0.162 A 
ATOM      5  C   UNL     1      28.243 -29.153  30.315  1.00  0.00     0.128 A 
ATOM      6  C   UNL     1      27.788 -28.656  31.541  1.00  0.00     0.093 A 
ATOM      7  C   UNL     1      26.902 -27.572  31.593  1.00  0.00     0.136 A 
ATOM      8  C   UNL     1      26.459 -26.975  30.384  1.00  0.00     0.125 A 
ATOM      9  C   UNL     1      25.562 -25.896  30.340  1.00  0.00     0.078 A 
ATOM     10  C   UNL     1      25.168 -25.362  29.109  1.00  0.00     0.223 A 
ENDROOT
BRANCH   1  11
ATOM     11  C   UNL     1      25.345 -25.390  26.588  1.00  0.00     0.091 A 
ATOM     12  C   UNL     1      24.101 -25.714  26.029  1.00  0.00     0.068 A 
ATOM     13  C   UNL     1      23.748 -25.252  24.758  1.00  0.00     0.162 A 
ATOM     14  C   UNL     1      26.252 -24.625  25.836  1.00  0.00     0.068 A 
ATOM     15  C   UNL     1      24.647 -24.466  24.015  1.00  0.00     0.200 A 
ATOM     16  C   UNL     1      25.916 -24.157  24.561  1.00  0.00     0.162 A 
BRANCH  13  17
ATOM     17  O   UNL     1      22.492 -25.586  24.250  1.00  0.00    -0.504 OA
ATOM     18  H   UNL     1      22.336 -26.421  23.699  1.00  0.00     0.293 HD
ENDBRANCH  13  17
BRANCH  15  19
ATOM     19  O   UNL     1      24.250 -24.017  22.752  1.00  0.00    -0.502 OA
ATOM     20  H   UNL     1      23.607 -23.255  22.597  1.00  0.00     0.293 HD
ENDBRANCH  15  19
BRANCH  16  21
ATOM     21  O   UNL     1      26.869 -23.402  23.875  1.00  0.00    -0.504 OA
ATOM     22  H   UNL     1      26.891 -22.393  23.861  1.00  0.00     0.293 HD
ENDBRANCH  16  21
ENDBRANCH   1  11
BRANCH  10  23
ATOM     23  O   UNL     1      24.238 -24.322  29.062  1.00  0.00    -0.500 OA
ATOM     24  H   UNL     1      23.410 -24.323  29.646  1.00  0.00     0.294 HD
ENDBRANCH  10  23
BRANCH   5  25
ATOM     25  O   UNL     1      29.125 -30.230  30.270  1.00  0.00    -0.507 OA
ATOM     26  H   UNL     1      28.796 -31.187  30.317  1.00  0.00     0.293 HD
ENDBRANCH   5  25
BRANCH   7  27
ATOM     27  O   UNL     1      26.496 -27.132  32.857  1.00  0.00    -0.507 OA
ATOM     28  H   UNL     1      27.099 -26.666  33.520  1.00  0.00     0.293 HD
ENDBRANCH   7  27
TORSDOF 7
ENDMDL
