MODEL 1
REMARK VINA RESULT:    -6.854      0.000      0.000
REMARK INTER + INTRA:          -8.350
REMARK INTER:                  -8.056
REMARK INTRA:                  -0.295
REMARK UNBOUND:                -0.295
REMARK SMILES O=c1cc(-c2ccc(O)c(O)c2)oc2cc(O)cc(O)c12
REMARK SMILES IDX 4 1 3 2 2 3 1 4 21 5 19 6 18 7 16 8 15 9 14 10 13 11 5 12
REMARK SMILES IDX 6 13 7 14 8 15 12 16 10 17 9 18 11 20 20 22 17 24
REMARK H PARENT 9 19 11 21 20 23 17 25
REMARK Flexibility Score: inf
ROOT
ATOM      1  C   UNL     1      20.601 204.532  14.519  1.00  0.00     0.138 A 
ATOM      2  C   UNL     1      21.793 205.155  14.915  1.00  0.00     0.100 A 
ATOM      3  C   UNL     1      22.082 206.443  14.463  1.00  0.00     0.197 A 
ATOM      4  O   UNL     1      23.129 206.999  14.885  1.00  0.00    -0.289 OA
ATOM      5  C   UNL     1      21.186 207.098  13.586  1.00  0.00     0.107 A 
ATOM      6  C   UNL     1      21.397 208.396  13.030  1.00  0.00     0.134 A 
ATOM      7  C   UNL     1      20.386 208.992  12.266  1.00  0.00     0.093 A 
ATOM      8  C   UNL     1      19.199 208.314  11.988  1.00  0.00     0.123 A 
ATOM      9  C   UNL     1      19.005 207.023  12.481  1.00  0.00     0.094 A 
ATOM     10  C   UNL     1      19.980 206.416  13.276  1.00  0.00     0.146 A 
ATOM     11  O   UNL     1      19.751 205.192  13.738  1.00  0.00    -0.456 OA
ENDROOT
BRANCH   1  12
ATOM     12  C   UNL     1      20.244 203.163  14.969  1.00  0.00     0.021 A 
ATOM     13  C   UNL     1      20.456 202.742  16.294  1.00  0.00     0.016 A 
ATOM     14  C   UNL     1      20.120 201.446  16.686  1.00  0.00     0.051 A 
ATOM     15  C   UNL     1      19.574 200.540  15.771  1.00  0.00     0.157 A 
ATOM     16  C   UNL     1      19.708 202.248  14.047  1.00  0.00     0.062 A 
ATOM     17  C   UNL     1      19.368 200.946  14.433  1.00  0.00     0.158 A 
BRANCH  15  18
ATOM     18  O   UNL     1      19.258 199.259  16.229  1.00  0.00    -0.504 OA
ATOM     19  H   UNL     1      18.768 198.568  15.681  1.00  0.00     0.293 HD
ENDBRANCH  15  18
BRANCH  17  20
ATOM     20  O   UNL     1      18.833 200.097  13.462  1.00  0.00    -0.504 OA
ATOM     21  H   UNL     1      19.296 199.269  13.118  1.00  0.00     0.293 HD
ENDBRANCH  17  20
ENDBRANCH   1  12
BRANCH   6  22
ATOM     22  O   UNL     1      22.580 209.125  13.175  1.00  0.00    -0.507 OA
ATOM     23  H   UNL     1      22.749 210.037  12.779  1.00  0.00     0.293 HD
ENDBRANCH   6  22
BRANCH   8  24
ATOM     24  O   UNL     1      18.222 208.932  11.211  1.00  0.00    -0.508 OA
ATOM     25  H   UNL     1      17.549 209.572  11.617  1.00  0.00     0.293 HD
ENDBRANCH   8  24
TORSDOF 5
ENDMDL
MODEL 2
REMARK VINA RESULT:    -6.408      1.159      2.669
REMARK INTER + INTRA:          -7.827
REMARK INTER:                  -7.551
REMARK INTRA:                  -0.276
REMARK UNBOUND:                -0.295
REMARK SMILES O=c1cc(-c2ccc(O)c(O)c2)oc2cc(O)cc(O)c12
REMARK SMILES IDX 4 1 3 2 2 3 1 4 21 5 19 6 18 7 16 8 15 9 14 10 13 11 5 12
REMARK SMILES IDX 6 13 7 14 8 15 12 16 10 17 9 18 11 20 20 22 17 24
REMARK H PARENT 9 19 11 21 20 23 17 25
REMARK Flexibility Score: inf
ROOT
ATOM      1  C   UNL     1      20.159 204.372  14.316  1.00  0.00     0.138 A 
ATOM      2  C   UNL     1      19.197 204.964  13.487  1.00  0.00     0.100 A 
ATOM      3  C   UNL     1      19.406 206.255  13.000  1.00  0.00     0.197 A 
ATOM      4  O   UNL     1      18.554 206.736  12.207  1.00  0.00    -0.289 OA
ATOM      5  C   UNL     1      20.570 206.967  13.373  1.00  0.00     0.107 A 
ATOM      6  C   UNL     1      20.868 208.304  12.970  1.00  0.00     0.134 A 
ATOM      7  C   UNL     1      22.106 208.866  13.306  1.00  0.00     0.093 A 
ATOM      8  C   UNL     1      23.030 208.163  14.078  1.00  0.00     0.123 A 
ATOM      9  C   UNL     1      22.727 206.876  14.523  1.00  0.00     0.094 A 
ATOM     10  C   UNL     1      21.514 206.275  14.175  1.00  0.00     0.146 A 
ATOM     11  O   UNL     1      21.270 205.042  14.607  1.00  0.00    -0.456 OA
ENDROOT
BRANCH   1  12
ATOM     12  C   UNL     1      19.988 203.002  14.862  1.00  0.00     0.021 A 
ATOM     13  C   UNL     1      20.295 202.697  16.200  1.00  0.00     0.016 A 
ATOM     14  C   UNL     1      20.135 201.398  16.685  1.00  0.00     0.051 A 
ATOM     15  C   UNL     1      19.674 200.375  15.850  1.00  0.00     0.157 A 
ATOM     16  C   UNL     1      19.538 201.971  14.021  1.00  0.00     0.062 A 
ATOM     17  C   UNL     1      19.373 200.665  14.499  1.00  0.00     0.158 A 
BRANCH  15  18
ATOM     18  O   UNL     1      19.533 199.098  16.397  1.00  0.00    -0.504 OA
ATOM     19  H   UNL     1      20.186 198.687  17.048  1.00  0.00     0.293 HD
ENDBRANCH  15  18
BRANCH  17  20
ATOM     20  O   UNL     1      18.914 199.696  13.604  1.00  0.00    -0.504 OA
ATOM     21  H   UNL     1      18.586 199.899  12.672  1.00  0.00     0.293 HD
ENDBRANCH  17  20
ENDBRANCH   1  12
BRANCH   6  22
ATOM     22  O   UNL     1      19.981 209.125  12.269  1.00  0.00    -0.507 OA
ATOM     23  H   UNL     1      19.111 209.481  12.635  1.00  0.00     0.293 HD
ENDBRANCH   6  22
BRANCH   8  24
ATOM     24  O   UNL     1      24.246 208.760  14.406  1.00  0.00    -0.508 OA
ATOM     25  H   UNL     1      24.619 208.720  15.348  1.00  0.00     0.293 HD
ENDBRANCH   8  24
TORSDOF 5
ENDMDL
MODEL 3
REMARK VINA RESULT:    -6.159      2.393      2.725
REMARK INTER + INTRA:          -7.534
REMARK INTER:                  -7.251
REMARK INTRA:                  -0.283
REMARK UNBOUND:                -0.295
REMARK SMILES O=c1cc(-c2ccc(O)c(O)c2)oc2cc(O)cc(O)c12
REMARK SMILES IDX 4 1 3 2 2 3 1 4 21 5 19 6 18 7 16 8 15 9 14 10 13 11 5 12
REMARK SMILES IDX 6 13 7 14 8 15 12 16 10 17 9 18 11 20 20 22 17 24
REMARK H PARENT 9 19 11 21 20 23 17 25
REMARK Flexibility Score: inf
ROOT
ATOM      1  C   UNL     1      20.720 204.192  15.550  1.00  0.00     0.138 A 
ATOM      2  C   UNL     1      20.218 205.025  16.560  1.00  0.00     0.100 A 
ATOM      3  C   UNL     1      20.624 206.358  16.621  1.00  0.00     0.197 A 
ATOM      4  O   UNL     1      20.108 207.097  17.500  1.00  0.00    -0.289 OA
ATOM      5  C   UNL     1      21.563 206.851  15.684  1.00  0.00     0.107 A 
ATOM      6  C   UNL     1      22.080 208.182  15.676  1.00  0.00     0.134 A 
ATOM      7  C   UNL     1      22.916 208.590  14.629  1.00  0.00     0.093 A 
ATOM      8  C   UNL     1      23.303 207.701  13.626  1.00  0.00     0.123 A 
ATOM      9  C   UNL     1      22.846 206.382  13.655  1.00  0.00     0.094 A 
ATOM     10  C   UNL     1      21.982 205.955  14.666  1.00  0.00     0.146 A 
ATOM     11  O   UNL     1      21.559 204.695  14.649  1.00  0.00    -0.456 OA
ENDROOT
BRANCH   1  12
ATOM     12  C   UNL     1      20.323 202.766  15.439  1.00  0.00     0.021 A 
ATOM     13  C   UNL     1      20.502 201.865  16.503  1.00  0.00     0.016 A 
ATOM     14  C   UNL     1      20.128 200.527  16.366  1.00  0.00     0.051 A 
ATOM     15  C   UNL     1      19.577 200.056  15.170  1.00  0.00     0.157 A 
ATOM     16  C   UNL     1      19.782 202.290  14.233  1.00  0.00     0.062 A 
ATOM     17  C   UNL     1      19.404 200.949  14.088  1.00  0.00     0.158 A 
BRANCH  15  18
ATOM     18  O   UNL     1      19.222 198.707  15.101  1.00  0.00    -0.504 OA
ATOM     19  H   UNL     1      19.455 198.101  14.328  1.00  0.00     0.293 HD
ENDBRANCH  15  18
BRANCH  17  20
ATOM     20  O   UNL     1      18.866 200.552  12.862  1.00  0.00    -0.504 OA
ATOM     21  H   UNL     1      17.877 200.493  12.672  1.00  0.00     0.293 HD
ENDBRANCH  17  20
ENDBRANCH   1  12
BRANCH   6  22
ATOM     22  O   UNL     1      21.826 209.125  16.675  1.00  0.00    -0.507 OA
ATOM     23  H   UNL     1      20.917 209.324  17.064  1.00  0.00     0.293 HD
ENDBRANCH   6  22
BRANCH   8  24
ATOM     24  O   UNL     1      24.149 208.138  12.610  1.00  0.00    -0.508 OA
ATOM     25  H   UNL     1      24.593 207.486  11.974  1.00  0.00     0.293 HD
ENDBRANCH   8  24
TORSDOF 5
ENDMDL
MODEL 4
REMARK VINA RESULT:    -5.376      1.789      6.616
REMARK INTER + INTRA:          -6.613
REMARK INTER:                  -6.296
REMARK INTRA:                  -0.317
REMARK UNBOUND:                -0.295
REMARK SMILES O=c1cc(-c2ccc(O)c(O)c2)oc2cc(O)cc(O)c12
REMARK SMILES IDX 4 1 3 2 2 3 1 4 21 5 19 6 18 7 16 8 15 9 14 10 13 11 5 12
REMARK SMILES IDX 6 13 7 14 8 15 12 16 10 17 9 18 11 20 20 22 17 24
REMARK H PARENT 9 19 11 21 20 23 17 25
REMARK Flexibility Score: inf
ROOT
ATOM      1  C   UNL     1      19.723 205.178  13.924  1.00  0.00     0.138 A 
ATOM      2  C   UNL     1      20.572 205.575  14.966  1.00  0.00     0.100 A 
ATOM      3  C   UNL     1      20.999 204.635  15.905  1.00  0.00     0.197 A 
ATOM      4  O   UNL     1      21.810 205.007  16.792  1.00  0.00    -0.289 OA
ATOM      5  C   UNL     1      20.546 203.297  15.816  1.00  0.00     0.107 A 
ATOM      6  C   UNL     1      20.883 202.263  16.741  1.00  0.00     0.134 A 
ATOM      7  C   UNL     1      20.470 200.949  16.486  1.00  0.00     0.093 A 
ATOM      8  C   UNL     1      19.684 200.643  15.376  1.00  0.00     0.123 A 
ATOM      9  C   UNL     1      19.303 201.656  14.495  1.00  0.00     0.094 A 
ATOM     10  C   UNL     1      19.729 202.971  14.702  1.00  0.00     0.146 A 
ATOM     11  O   UNL     1      19.357 203.903  13.832  1.00  0.00    -0.456 OA
ENDROOT
BRANCH   1  12
ATOM     12  C   UNL     1      19.238 206.136  12.898  1.00  0.00     0.021 A 
ATOM     13  C   UNL     1      19.741 207.447  12.817  1.00  0.00     0.016 A 
ATOM     14  C   UNL     1      19.259 208.330  11.849  1.00  0.00     0.051 A 
ATOM     15  C   UNL     1      18.266 207.933  10.948  1.00  0.00     0.157 A 
ATOM     16  C   UNL     1      18.231 205.742  12.002  1.00  0.00     0.062 A 
ATOM     17  C   UNL     1      17.743 206.621  11.027  1.00  0.00     0.158 A 
BRANCH  15  18
ATOM     18  O   UNL     1      17.831 208.864  10.003  1.00  0.00    -0.504 OA
ATOM     19  H   UNL     1      17.830 208.699   9.007  1.00  0.00     0.293 HD
ENDBRANCH  15  18
BRANCH  17  20
ATOM     20  O   UNL     1      16.747 206.154  10.167  1.00  0.00    -0.504 OA
ATOM     21  H   UNL     1      16.618 206.482   9.222  1.00  0.00     0.293 HD
ENDBRANCH  17  20
ENDBRANCH   1  12
BRANCH   6  22
ATOM     22  O   UNL     1      21.592 202.475  17.926  1.00  0.00    -0.507 OA
ATOM     23  H   UNL     1      21.456 203.258  18.548  1.00  0.00     0.293 HD
ENDBRANCH   6  22
BRANCH   8  24
ATOM     24  O   UNL     1      19.279 199.327  15.163  1.00  0.00    -0.508 OA
ATOM     25  H   UNL     1      19.932 198.555  15.230  1.00  0.00     0.293 HD
ENDBRANCH   8  24
TORSDOF 5
ENDMDL
MODEL 5
REMARK VINA RESULT:    -4.236      2.896      7.073
REMARK INTER + INTRA:          -5.273
REMARK INTER:                  -5.006
REMARK INTRA:                  -0.268
REMARK UNBOUND:                -0.295
REMARK SMILES O=c1cc(-c2ccc(O)c(O)c2)oc2cc(O)cc(O)c12
REMARK SMILES IDX 4 1 3 2 2 3 1 4 21 5 19 6 18 7 16 8 15 9 14 10 13 11 5 12
REMARK SMILES IDX 6 13 7 14 8 15 12 16 10 17 9 18 11 20 20 22 17 24
REMARK H PARENT 9 19 11 21 20 23 17 25
REMARK Flexibility Score: inf
ROOT
ATOM      1  C   UNL     1      20.227 204.353  15.270  1.00  0.00     0.138 A 
ATOM      2  C   UNL     1      19.600 204.376  14.017  1.00  0.00     0.100 A 
ATOM      3  C   UNL     1      19.215 203.176  13.415  1.00  0.00     0.197 A 
ATOM      4  O   UNL     1      18.598 203.233  12.320  1.00  0.00    -0.289 OA
ATOM      5  C   UNL     1      19.488 201.947  14.060  1.00  0.00     0.107 A 
ATOM      6  C   UNL     1      19.178 200.661  13.522  1.00  0.00     0.134 A 
ATOM      7  C   UNL     1      19.391 199.518  14.303  1.00  0.00     0.093 A 
ATOM      8  C   UNL     1      19.957 199.608  15.574  1.00  0.00     0.123 A 
ATOM      9  C   UNL     1      20.314 200.856  16.088  1.00  0.00     0.094 A 
ATOM     10  C   UNL     1      20.082 202.018  15.348  1.00  0.00     0.146 A 
ATOM     11  O   UNL     1      20.423 203.187  15.879  1.00  0.00    -0.456 OA
ENDROOT
BRANCH   1  12
ATOM     12  C   UNL     1      20.657 205.598  15.955  1.00  0.00     0.021 A 
ATOM     13  C   UNL     1      21.984 205.784  16.383  1.00  0.00     0.016 A 
ATOM     14  C   UNL     1      22.358 206.960  17.034  1.00  0.00     0.051 A 
ATOM     15  C   UNL     1      21.424 207.972  17.278  1.00  0.00     0.157 A 
ATOM     16  C   UNL     1      19.716 206.609  16.212  1.00  0.00     0.062 A 
ATOM     17  C   UNL     1      20.084 207.793  16.864  1.00  0.00     0.158 A 
BRANCH  15  18
ATOM     18  O   UNL     1      21.865 209.125  17.931  1.00  0.00    -0.504 OA
ATOM     19  H   UNL     1      21.272 209.719  18.492  1.00  0.00     0.293 HD
ENDBRANCH  15  18
BRANCH  17  20
ATOM     20  O   UNL     1      19.094 208.754  17.077  1.00  0.00    -0.504 OA
ATOM     21  H   UNL     1      18.416 208.711  17.823  1.00  0.00     0.293 HD
ENDBRANCH  17  20
ENDBRANCH   1  12
BRANCH   6  22
ATOM     22  O   UNL     1      18.689 200.452  12.230  1.00  0.00    -0.507 OA
ATOM     23  H   UNL     1      17.714 200.464  11.973  1.00  0.00     0.293 HD
ENDBRANCH   6  22
BRANCH   8  24
ATOM     24  O   UNL     1      20.168 198.448  16.316  1.00  0.00    -0.508 OA
ATOM     25  H   UNL     1      19.991 198.418  17.314  1.00  0.00     0.293 HD
ENDBRANCH   8  24
TORSDOF 5
ENDMDL
MODEL 6
REMARK VINA RESULT:    -3.881      1.851      2.363
REMARK INTER + INTRA:          -4.856
REMARK INTER:                  -4.568
REMARK INTRA:                  -0.288
REMARK UNBOUND:                -0.295
REMARK SMILES O=c1cc(-c2ccc(O)c(O)c2)oc2cc(O)cc(O)c12
REMARK SMILES IDX 4 1 3 2 2 3 1 4 21 5 19 6 18 7 16 8 15 9 14 10 13 11 5 12
REMARK SMILES IDX 6 13 7 14 8 15 12 16 10 17 9 18 11 20 20 22 17 24
REMARK H PARENT 9 19 11 21 20 23 17 25
REMARK Flexibility Score: inf
ROOT
ATOM      1  C   UNL     1      19.844 204.098  15.057  1.00  0.00     0.138 A 
ATOM      2  C   UNL     1      19.833 204.727  16.309  1.00  0.00     0.100 A 
ATOM      3  C   UNL     1      19.842 206.121  16.382  1.00  0.00     0.197 A 
ATOM      4  O   UNL     1      19.768 206.656  17.518  1.00  0.00    -0.289 OA
ATOM      5  C   UNL     1      19.895 206.887  15.193  1.00  0.00     0.107 A 
ATOM      6  C   UNL     1      19.949 208.313  15.148  1.00  0.00     0.134 A 
ATOM      7  C   UNL     1      19.881 208.966  13.911  1.00  0.00     0.093 A 
ATOM      8  C   UNL     1      19.821 208.247  12.718  1.00  0.00     0.123 A 
ATOM      9  C   UNL     1      19.822 206.852  12.749  1.00  0.00     0.094 A 
ATOM     10  C   UNL     1      19.854 206.171  13.968  1.00  0.00     0.146 A 
ATOM     11  O   UNL     1      19.839 204.842  13.954  1.00  0.00    -0.456 OA
ENDROOT
BRANCH   1  12
ATOM     12  C   UNL     1      19.836 202.620  14.921  1.00  0.00     0.021 A 
ATOM     13  C   UNL     1      19.306 201.986  13.783  1.00  0.00     0.016 A 
ATOM     14  C   UNL     1      19.302 200.594  13.686  1.00  0.00     0.051 A 
ATOM     15  C   UNL     1      19.816 199.803  14.718  1.00  0.00     0.157 A 
ATOM     16  C   UNL     1      20.341 201.825  15.963  1.00  0.00     0.062 A 
ATOM     17  C   UNL     1      20.341 200.427  15.874  1.00  0.00     0.158 A 
BRANCH  15  18
ATOM     18  O   UNL     1      19.785 198.416  14.557  1.00  0.00    -0.504 OA
ATOM     19  H   UNL     1      19.009 197.912  14.155  1.00  0.00     0.293 HD
ENDBRANCH  15  18
BRANCH  17  20
ATOM     20  O   UNL     1      20.867 199.705  16.947  1.00  0.00    -0.504 OA
ATOM     21  H   UNL     1      21.382 198.843  16.850  1.00  0.00     0.293 HD
ENDBRANCH  17  20
ENDBRANCH   1  12
BRANCH   6  22
ATOM     22  O   UNL     1      20.096 209.125  16.275  1.00  0.00    -0.507 OA
ATOM     23  H   UNL     1      19.713 208.923  17.187  1.00  0.00     0.293 HD
ENDBRANCH   6  22
BRANCH   8  24
ATOM     24  O   UNL     1      19.770 208.931  11.506  1.00  0.00    -0.508 OA
ATOM     25  H   UNL     1      19.493 208.468  10.647  1.00  0.00     0.293 HD
ENDBRANCH   8  24
TORSDOF 5
ENDMDL
