MODEL 1
REMARK VINA RESULT:    -5.182      0.000      0.000
REMARK INTER + INTRA:          -6.391
REMARK INTER:                  -6.091
REMARK INTRA:                  -0.300
REMARK UNBOUND:                -0.300
REMARK SMILES O=c1c(O)c(-c2ccc(O)cc2)oc2cc(O)cc(O)c12
REMARK SMILES IDX 5 1 3 2 2 3 1 4 21 5 19 6 18 7 16 8 15 9 14 10 13 11 6 12
REMARK SMILES IDX 7 13 8 14 9 15 12 16 11 17 10 18 4 20 20 22 17 24
REMARK H PARENT 10 19 4 21 20 23 17 25
REMARK Flexibility Score: inf
ROOT
ATOM      1  C   UNL     1     110.456 108.418 113.350  1.00  0.00     0.180 A 
ATOM      2  C   UNL     1     109.766 107.292 113.832  1.00  0.00     0.208 A 
ATOM      3  C   UNL     1     108.363 107.323 113.885  1.00  0.00     0.238 A 
ATOM      4  O   UNL     1     107.749 106.293 114.266  1.00  0.00    -0.285 OA
ATOM      5  C   UNL     1     107.669 108.486 113.470  1.00  0.00     0.111 A 
ATOM      6  C   UNL     1     106.250 108.643 113.518  1.00  0.00     0.134 A 
ATOM      7  C   UNL     1     105.664 109.784 112.960  1.00  0.00     0.093 A 
ATOM      8  C   UNL     1     106.447 110.804 112.414  1.00  0.00     0.123 A 
ATOM      9  C   UNL     1     107.835 110.687 112.417  1.00  0.00     0.094 A 
ATOM     10  C   UNL     1     108.449 109.543 112.933  1.00  0.00     0.146 A 
ATOM     11  O   UNL     1     109.774 109.467 112.907  1.00  0.00    -0.452 OA
ENDROOT
BRANCH   1  12
ATOM     12  C   UNL     1     111.935 108.468 113.289  1.00  0.00     0.021 A 
ATOM     13  C   UNL     1     112.590 108.112 112.098  1.00  0.00     0.016 A 
ATOM     14  C   UNL     1     113.983 108.174 112.011  1.00  0.00     0.047 A 
ATOM     15  C   UNL     1     114.739 108.607 113.104  1.00  0.00     0.115 A 
ATOM     16  C   UNL     1     112.698 108.924 114.379  1.00  0.00     0.016 A 
ATOM     17  C   UNL     1     114.092 108.986 114.288  1.00  0.00     0.047 A 
BRANCH  15  18
ATOM     18  O   UNL     1     116.127 108.664 113.003  1.00  0.00    -0.508 OA
ATOM     19  H   UNL     1     116.601 109.501 112.686  1.00  0.00     0.293 HD
ENDBRANCH  15  18
ENDBRANCH   1  12
BRANCH   2  20
ATOM     20  O   UNL     1     110.470 106.147 114.216  1.00  0.00    -0.502 OA
ATOM     21  H   UNL     1     111.420 105.966 113.915  1.00  0.00     0.293 HD
ENDBRANCH   2  20
BRANCH   6  22
ATOM     22  O   UNL     1     105.384 107.727 114.122  1.00  0.00    -0.507 OA
ATOM     23  H   UNL     1     105.518 107.328 115.038  1.00  0.00     0.293 HD
ENDBRANCH   6  22
BRANCH   8  24
ATOM     24  O   UNL     1     105.855 111.945 111.875  1.00  0.00    -0.508 OA
ATOM     25  H   UNL     1     106.327 112.507 111.177  1.00  0.00     0.293 HD
ENDBRANCH   8  24
TORSDOF 5
ENDMDL
MODEL 2
REMARK VINA RESULT:    -4.985      3.101      7.885
REMARK INTER + INTRA:          -6.160
REMARK INTER:                  -5.880
REMARK INTRA:                  -0.280
REMARK UNBOUND:                -0.300
REMARK SMILES O=c1c(O)c(-c2ccc(O)cc2)oc2cc(O)cc(O)c12
REMARK SMILES IDX 5 1 3 2 2 3 1 4 21 5 19 6 18 7 16 8 15 9 14 10 13 11 6 12
REMARK SMILES IDX 7 13 8 14 9 15 12 16 11 17 10 18 4 20 20 22 17 24
REMARK H PARENT 10 19 4 21 20 23 17 25
REMARK Flexibility Score: inf
ROOT
ATOM      1  C   UNL     1     113.069 107.988 114.302  1.00  0.00     0.180 A 
ATOM      2  C   UNL     1     114.065 108.110 113.318  1.00  0.00     0.208 A 
ATOM      3  C   UNL     1     115.186 107.266 113.375  1.00  0.00     0.238 A 
ATOM      4  O   UNL     1     116.048 107.343 112.461  1.00  0.00    -0.285 OA
ATOM      5  C   UNL     1     115.304 106.323 114.425  1.00  0.00     0.111 A 
ATOM      6  C   UNL     1     116.417 105.446 114.604  1.00  0.00     0.134 A 
ATOM      7  C   UNL     1     116.367 104.464 115.600  1.00  0.00     0.093 A 
ATOM      8  C   UNL     1     115.275 104.370 116.466  1.00  0.00     0.123 A 
ATOM      9  C   UNL     1     114.212 105.260 116.338  1.00  0.00     0.094 A 
ATOM     10  C   UNL     1     114.215 106.228 115.329  1.00  0.00     0.146 A 
ATOM     11  O   UNL     1     113.177 107.050 115.235  1.00  0.00    -0.452 OA
ENDROOT
BRANCH   1  12
ATOM     12  C   UNL     1     111.871 108.859 114.322  1.00  0.00     0.021 A 
ATOM     13  C   UNL     1     111.889 110.043 115.078  1.00  0.00     0.016 A 
ATOM     14  C   UNL     1     110.778 110.891 115.093  1.00  0.00     0.047 A 
ATOM     15  C   UNL     1     109.641 110.575 114.343  1.00  0.00     0.115 A 
ATOM     16  C   UNL     1     110.733 108.557 113.552  1.00  0.00     0.016 A 
ATOM     17  C   UNL     1     109.623 109.407 113.569  1.00  0.00     0.047 A 
BRANCH  15  18
ATOM     18  O   UNL     1     108.541 111.429 114.367  1.00  0.00    -0.508 OA
ATOM     19  H   UNL     1     107.794 111.311 115.041  1.00  0.00     0.293 HD
ENDBRANCH  15  18
ENDBRANCH   1  12
BRANCH   2  20
ATOM     20  O   UNL     1     113.918 109.032 112.278  1.00  0.00    -0.502 OA
ATOM     21  H   UNL     1     113.821 108.751 111.310  1.00  0.00     0.293 HD
ENDBRANCH   2  20
BRANCH   6  22
ATOM     22  O   UNL     1     117.594 105.515 113.853  1.00  0.00    -0.507 OA
ATOM     23  H   UNL     1     118.414 104.952 114.018  1.00  0.00     0.293 HD
ENDBRANCH   6  22
BRANCH   8  24
ATOM     24  O   UNL     1     115.242 103.400 117.466  1.00  0.00    -0.508 OA
ATOM     25  H   UNL     1     114.375 103.135 117.917  1.00  0.00     0.293 HD
ENDBRANCH   8  24
TORSDOF 5
ENDMDL
MODEL 3
REMARK VINA RESULT:    -4.940      1.834      6.912
REMARK INTER + INTRA:          -6.107
REMARK INTER:                  -5.811
REMARK INTRA:                  -0.295
REMARK UNBOUND:                -0.300
REMARK SMILES O=c1c(O)c(-c2ccc(O)cc2)oc2cc(O)cc(O)c12
REMARK SMILES IDX 5 1 3 2 2 3 1 4 21 5 19 6 18 7 16 8 15 9 14 10 13 11 6 12
REMARK SMILES IDX 7 13 8 14 9 15 12 16 11 17 10 18 4 20 20 22 17 24
REMARK H PARENT 10 19 4 21 20 23 17 25
REMARK Flexibility Score: inf
ROOT
ATOM      1  C   UNL     1     109.317 108.911 113.654  1.00  0.00     0.180 A 
ATOM      2  C   UNL     1     109.940 109.903 114.430  1.00  0.00     0.208 A 
ATOM      3  C   UNL     1     111.333 109.858 114.603  1.00  0.00     0.238 A 
ATOM      4  O   UNL     1     111.891 110.779 115.255  1.00  0.00    -0.285 OA
ATOM      5  C   UNL     1     112.082 108.813 114.011  1.00  0.00     0.111 A 
ATOM      6  C   UNL     1     113.494 108.647 114.154  1.00  0.00     0.134 A 
ATOM      7  C   UNL     1     114.149 107.653 113.417  1.00  0.00     0.093 A 
ATOM      8  C   UNL     1     113.436 106.779 112.593  1.00  0.00     0.123 A 
ATOM      9  C   UNL     1     112.052 106.895 112.493  1.00  0.00     0.094 A 
ATOM     10  C   UNL     1     111.373 107.900 113.188  1.00  0.00     0.146 A 
ATOM     11  O   UNL     1     110.055 107.982 113.057  1.00  0.00    -0.452 OA
ENDROOT
BRANCH   1  12
ATOM     12  C   UNL     1     107.851 108.878 113.447  1.00  0.00     0.021 A 
ATOM     13  C   UNL     1     107.305 109.424 112.273  1.00  0.00     0.016 A 
ATOM     14  C   UNL     1     105.927 109.384 112.047  1.00  0.00     0.047 A 
ATOM     15  C   UNL     1     105.077 108.785 112.981  1.00  0.00     0.115 A 
ATOM     16  C   UNL     1     106.994 108.258 114.374  1.00  0.00     0.016 A 
ATOM     17  C   UNL     1     105.615 108.218 114.144  1.00  0.00     0.047 A 
BRANCH  15  18
ATOM     18  O   UNL     1     103.705 108.751 112.743  1.00  0.00    -0.508 OA
ATOM     19  H   UNL     1     103.210 107.876 112.624  1.00  0.00     0.293 HD
ENDBRANCH  15  18
ENDBRANCH   1  12
BRANCH   2  20
ATOM     20  O   UNL     1     109.184 110.938 114.988  1.00  0.00    -0.502 OA
ATOM     21  H   UNL     1     108.306 111.248 114.588  1.00  0.00     0.293 HD
ENDBRANCH   2  20
BRANCH   6  22
ATOM     22  O   UNL     1     114.285 109.406 115.019  1.00  0.00    -0.507 OA
ATOM     23  H   UNL     1     114.883 110.166 114.733  1.00  0.00     0.293 HD
ENDBRANCH   6  22
BRANCH   8  24
ATOM     24  O   UNL     1     114.094 105.782 111.875  1.00  0.00    -0.508 OA
ATOM     25  H   UNL     1     113.603 105.194 111.212  1.00  0.00     0.293 HD
ENDBRANCH   8  24
TORSDOF 5
ENDMDL
MODEL 4
REMARK VINA RESULT:    -4.777      2.282      3.819
REMARK INTER + INTRA:          -5.916
REMARK INTER:                  -5.653
REMARK INTRA:                  -0.263
REMARK UNBOUND:                -0.300
REMARK SMILES O=c1c(O)c(-c2ccc(O)cc2)oc2cc(O)cc(O)c12
REMARK SMILES IDX 5 1 3 2 2 3 1 4 21 5 19 6 18 7 16 8 15 9 14 10 13 11 6 12
REMARK SMILES IDX 7 13 8 14 9 15 12 16 11 17 10 18 4 20 20 22 17 24
REMARK H PARENT 10 19 4 21 20 23 17 25
REMARK Flexibility Score: inf
ROOT
ATOM      1  C   UNL     1     112.260 107.668 114.174  1.00  0.00     0.180 A 
ATOM      2  C   UNL     1     112.313 109.044 114.455  1.00  0.00     0.208 A 
ATOM      3  C   UNL     1     111.114 109.740 114.680  1.00  0.00     0.238 A 
ATOM      4  O   UNL     1     111.172 110.960 114.984  1.00  0.00    -0.285 OA
ATOM      5  C   UNL     1     109.877 109.055 114.605  1.00  0.00     0.111 A 
ATOM      6  C   UNL     1     108.599 109.670 114.775  1.00  0.00     0.134 A 
ATOM      7  C   UNL     1     107.450 108.871 114.810  1.00  0.00     0.093 A 
ATOM      8  C   UNL     1     107.525 107.490 114.615  1.00  0.00     0.123 A 
ATOM      9  C   UNL     1     108.761 106.890 114.389  1.00  0.00     0.094 A 
ATOM     10  C   UNL     1     109.930 107.654 114.385  1.00  0.00     0.146 A 
ATOM     11  O   UNL     1     111.089 107.041 114.175  1.00  0.00    -0.452 OA
ENDROOT
BRANCH   1  12
ATOM     12  C   UNL     1     113.478 106.872 113.902  1.00  0.00     0.021 A 
ATOM     13  C   UNL     1     114.246 106.393 114.976  1.00  0.00     0.016 A 
ATOM     14  C   UNL     1     115.388 105.621 114.743  1.00  0.00     0.047 A 
ATOM     15  C   UNL     1     115.768 105.305 113.435  1.00  0.00     0.115 A 
ATOM     16  C   UNL     1     113.854 106.533 112.589  1.00  0.00     0.016 A 
ATOM     17  C   UNL     1     114.996 105.760 112.358  1.00  0.00     0.047 A 
BRANCH  15  18
ATOM     18  O   UNL     1     116.908 104.534 113.217  1.00  0.00    -0.508 OA
ATOM     19  H   UNL     1     117.448 104.618 112.364  1.00  0.00     0.293 HD
ENDBRANCH  15  18
ENDBRANCH   1  12
BRANCH   2  20
ATOM     20  O   UNL     1     113.546 109.696 114.546  1.00  0.00    -0.502 OA
ATOM     21  H   UNL     1     114.290 109.549 113.875  1.00  0.00     0.293 HD
ENDBRANCH   2  20
BRANCH   6  22
ATOM     22  O   UNL     1     108.405 111.049 114.886  1.00  0.00    -0.507 OA
ATOM     23  H   UNL     1     109.139 111.722 115.047  1.00  0.00     0.293 HD
ENDBRANCH   6  22
BRANCH   8  24
ATOM     24  O   UNL     1     106.374 106.705 114.635  1.00  0.00    -0.508 OA
ATOM     25  H   UNL     1     105.918 106.456 115.504  1.00  0.00     0.293 HD
ENDBRANCH   8  24
TORSDOF 5
ENDMDL
MODEL 5
REMARK VINA RESULT:    -4.700      3.164      7.328
REMARK INTER + INTRA:          -5.825
REMARK INTER:                  -5.587
REMARK INTRA:                  -0.238
REMARK UNBOUND:                -0.300
REMARK SMILES O=c1c(O)c(-c2ccc(O)cc2)oc2cc(O)cc(O)c12
REMARK SMILES IDX 5 1 3 2 2 3 1 4 21 5 19 6 18 7 16 8 15 9 14 10 13 11 6 12
REMARK SMILES IDX 7 13 8 14 9 15 12 16 11 17 10 18 4 20 20 22 17 24
REMARK H PARENT 10 19 4 21 20 23 17 25
REMARK Flexibility Score: inf
ROOT
ATOM      1  C   UNL     1     112.641 107.491 113.531  1.00  0.00     0.180 A 
ATOM      2  C   UNL     1     113.832 107.695 112.811  1.00  0.00     0.208 A 
ATOM      3  C   UNL     1     114.688 106.605 112.587  1.00  0.00     0.238 A 
ATOM      4  O   UNL     1     115.725 106.784 111.896  1.00  0.00    -0.285 OA
ATOM      5  C   UNL     1     114.351 105.329 113.098  1.00  0.00     0.111 A 
ATOM      6  C   UNL     1     115.165 104.162 112.965  1.00  0.00     0.134 A 
ATOM      7  C   UNL     1     114.672 102.925 113.395  1.00  0.00     0.093 A 
ATOM      8  C   UNL     1     113.423 102.822 114.013  1.00  0.00     0.123 A 
ATOM      9  C   UNL     1     112.648 103.963 114.202  1.00  0.00     0.094 A 
ATOM     10  C   UNL     1     113.097 105.207 113.750  1.00  0.00     0.146 A 
ATOM     11  O   UNL     1     112.322 106.269 113.941  1.00  0.00    -0.452 OA
ENDROOT
BRANCH   1  12
ATOM     12  C   UNL     1     111.701 108.595 113.829  1.00  0.00     0.021 A 
ATOM     13  C   UNL     1     110.461 108.644 113.171  1.00  0.00     0.016 A 
ATOM     14  C   UNL     1     109.549 109.665 113.454  1.00  0.00     0.047 A 
ATOM     15  C   UNL     1     109.857 110.641 114.407  1.00  0.00     0.115 A 
ATOM     16  C   UNL     1     111.998 109.567 114.802  1.00  0.00     0.016 A 
ATOM     17  C   UNL     1     111.083 110.587 115.084  1.00  0.00     0.047 A 
BRANCH  15  18
ATOM     18  O   UNL     1     108.939 111.653 114.679  1.00  0.00    -0.508 OA
ATOM     19  H   UNL     1     109.152 112.625 114.490  1.00  0.00     0.293 HD
ENDBRANCH  15  18
ENDBRANCH   1  12
BRANCH   2  20
ATOM     20  O   UNL     1     114.134 108.959 112.297  1.00  0.00    -0.502 OA
ATOM     21  H   UNL     1     113.977 109.204 111.327  1.00  0.00     0.293 HD
ENDBRANCH   2  20
BRANCH   6  22
ATOM     22  O   UNL     1     116.463 104.171 112.446  1.00  0.00    -0.507 OA
ATOM     23  H   UNL     1     117.239 104.672 112.850  1.00  0.00     0.293 HD
ENDBRANCH   6  22
BRANCH   8  24
ATOM     24  O   UNL     1     112.947 101.588 114.454  1.00  0.00    -0.508 OA
ATOM     25  H   UNL     1     112.421 100.975 113.843  1.00  0.00     0.293 HD
ENDBRANCH   8  24
TORSDOF 5
ENDMDL
MODEL 6
REMARK VINA RESULT:    -4.700      2.935      7.046
REMARK INTER + INTRA:          -5.825
REMARK INTER:                  -5.558
REMARK INTRA:                  -0.268
REMARK UNBOUND:                -0.300
REMARK SMILES O=c1c(O)c(-c2ccc(O)cc2)oc2cc(O)cc(O)c12
REMARK SMILES IDX 5 1 3 2 2 3 1 4 21 5 19 6 18 7 16 8 15 9 14 10 13 11 6 12
REMARK SMILES IDX 7 13 8 14 9 15 12 16 11 17 10 18 4 20 20 22 17 24
REMARK H PARENT 10 19 4 21 20 23 17 25
REMARK Flexibility Score: inf
ROOT
ATOM      1  C   UNL     1     111.179 106.613 114.716  1.00  0.00     0.180 A 
ATOM      2  C   UNL     1     111.646 105.304 114.498  1.00  0.00     0.208 A 
ATOM      3  C   UNL     1     112.908 105.120 113.912  1.00  0.00     0.238 A 
ATOM      4  O   UNL     1     113.342 103.948 113.768  1.00  0.00    -0.285 OA
ATOM      5  C   UNL     1     113.681 106.246 113.537  1.00  0.00     0.111 A 
ATOM      6  C   UNL     1     114.957 106.176 112.900  1.00  0.00     0.134 A 
ATOM      7  C   UNL     1     115.691 107.350 112.694  1.00  0.00     0.093 A 
ATOM      8  C   UNL     1     115.167 108.597 113.043  1.00  0.00     0.123 A 
ATOM      9  C   UNL     1     113.898 108.681 113.611  1.00  0.00     0.094 A 
ATOM     10  C   UNL     1     113.157 107.523 113.862  1.00  0.00     0.146 A 
ATOM     11  O   UNL     1     111.956 107.647 114.415  1.00  0.00    -0.452 OA
ENDROOT
BRANCH   1  12
ATOM     12  C   UNL     1     109.849 106.887 115.306  1.00  0.00     0.021 A 
ATOM     13  C   UNL     1     109.758 107.307 116.644  1.00  0.00     0.016 A 
ATOM     14  C   UNL     1     108.515 107.592 117.214  1.00  0.00     0.047 A 
ATOM     15  C   UNL     1     107.348 107.477 116.453  1.00  0.00     0.115 A 
ATOM     16  C   UNL     1     108.674 106.793 114.538  1.00  0.00     0.016 A 
ATOM     17  C   UNL     1     107.431 107.081 115.111  1.00  0.00     0.047 A 
BRANCH  15  18
ATOM     18  O   UNL     1     106.115 107.765 117.034  1.00  0.00    -0.508 OA
ATOM     19  H   UNL     1     105.596 107.064 117.549  1.00  0.00     0.293 HD
ENDBRANCH  15  18
ENDBRANCH   1  12
BRANCH   2  20
ATOM     20  O   UNL     1     110.875 104.208 114.894  1.00  0.00    -0.502 OA
ATOM     21  H   UNL     1     109.863 104.209 114.847  1.00  0.00     0.293 HD
ENDBRANCH   2  20
BRANCH   6  22
ATOM     22  O   UNL     1     115.531 104.991 112.429  1.00  0.00    -0.507 OA
ATOM     23  H   UNL     1     116.523 104.817 112.368  1.00  0.00     0.293 HD
ENDBRANCH   6  22
BRANCH   8  24
ATOM     24  O   UNL     1     115.897 109.763 112.820  1.00  0.00    -0.508 OA
ATOM     25  H   UNL     1     115.678 110.386 112.052  1.00  0.00     0.293 HD
ENDBRANCH   8  24
TORSDOF 5
ENDMDL
MODEL 7
REMARK VINA RESULT:    -4.643      2.434      7.589
REMARK INTER + INTRA:          -5.758
REMARK INTER:                  -5.502
REMARK INTRA:                  -0.256
REMARK UNBOUND:                -0.300
REMARK SMILES O=c1c(O)c(-c2ccc(O)cc2)oc2cc(O)cc(O)c12
REMARK SMILES IDX 5 1 3 2 2 3 1 4 21 5 19 6 18 7 16 8 15 9 14 10 13 11 6 12
REMARK SMILES IDX 7 13 8 14 9 15 12 16 11 17 10 18 4 20 20 22 17 24
REMARK H PARENT 10 19 4 21 20 23 17 25
REMARK Flexibility Score: inf
ROOT
ATOM      1  C   UNL     1     106.545 109.342 114.203  1.00  0.00     0.180 A 
ATOM      2  C   UNL     1     107.376 110.469 114.076  1.00  0.00     0.208 A 
ATOM      3  C   UNL     1     108.764 110.311 114.213  1.00  0.00     0.238 A 
ATOM      4  O   UNL     1     109.507 111.314 114.045  1.00  0.00    -0.285 OA
ATOM      5  C   UNL     1     109.303 109.032 114.492  1.00  0.00     0.111 A 
ATOM      6  C   UNL     1     110.692 108.763 114.690  1.00  0.00     0.134 A 
ATOM      7  C   UNL     1     111.125 107.439 114.830  1.00  0.00     0.093 A 
ATOM      8  C   UNL     1     110.214 106.380 114.843  1.00  0.00     0.123 A 
ATOM      9  C   UNL     1     108.852 106.638 114.710  1.00  0.00     0.094 A 
ATOM     10  C   UNL     1     108.392 107.945 114.532  1.00  0.00     0.146 A 
ATOM     11  O   UNL     1     107.086 108.146 114.399  1.00  0.00    -0.452 OA
ENDROOT
BRANCH   1  12
ATOM     12  C   UNL     1     105.071 109.434 114.096  1.00  0.00     0.021 A 
ATOM     13  C   UNL     1     104.430 108.954 112.942  1.00  0.00     0.016 A 
ATOM     14  C   UNL     1     103.038 109.011 112.829  1.00  0.00     0.047 A 
ATOM     15  C   UNL     1     102.268 109.532 113.873  1.00  0.00     0.115 A 
ATOM     16  C   UNL     1     104.290 109.938 115.152  1.00  0.00     0.016 A 
ATOM     17  C   UNL     1     102.897 109.993 115.037  1.00  0.00     0.047 A 
BRANCH  15  18
ATOM     18  O   UNL     1     100.881 109.582 113.747  1.00  0.00    -0.508 OA
ATOM     19  H   UNL     1     100.315 110.154 114.362  1.00  0.00     0.293 HD
ENDBRANCH  15  18
ENDBRANCH   1  12
BRANCH   2  20
ATOM     20  O   UNL     1     106.825 111.719 113.780  1.00  0.00    -0.502 OA
ATOM     21  H   UNL     1     105.931 112.021 114.149  1.00  0.00     0.293 HD
ENDBRANCH   2  20
BRANCH   6  22
ATOM     22  O   UNL     1     111.673 109.754 114.785  1.00  0.00    -0.507 OA
ATOM     23  H   UNL     1     112.136 110.024 115.639  1.00  0.00     0.293 HD
ENDBRANCH   6  22
BRANCH   8  24
ATOM     24  O   UNL     1     110.652 105.067 114.999  1.00  0.00    -0.508 OA
ATOM     25  H   UNL     1     111.543 104.853 115.431  1.00  0.00     0.293 HD
ENDBRANCH   8  24
TORSDOF 5
ENDMDL
MODEL 8
REMARK VINA RESULT:    -4.575      8.941     11.550
REMARK INTER + INTRA:          -5.678
REMARK INTER:                  -5.389
REMARK INTRA:                  -0.289
REMARK UNBOUND:                -0.300
REMARK SMILES O=c1c(O)c(-c2ccc(O)cc2)oc2cc(O)cc(O)c12
REMARK SMILES IDX 5 1 3 2 2 3 1 4 21 5 19 6 18 7 16 8 15 9 14 10 13 11 6 12
REMARK SMILES IDX 7 13 8 14 9 15 12 16 11 17 10 18 4 20 20 22 17 24
REMARK H PARENT 10 19 4 21 20 23 17 25
REMARK Flexibility Score: inf
ROOT
ATOM      1  C   UNL     1     100.580 110.197 118.483  1.00  0.00     0.180 A 
ATOM      2  C   UNL     1      99.998 111.477 118.510  1.00  0.00     0.208 A 
ATOM      3  C   UNL     1     100.004 112.253 117.341  1.00  0.00     0.238 A 
ATOM      4  O   UNL     1      99.433 113.375 117.358  1.00  0.00    -0.285 OA
ATOM      5  C   UNL     1     100.605 111.748 116.163  1.00  0.00     0.111 A 
ATOM      6  C   UNL     1     100.704 112.465 114.932  1.00  0.00     0.134 A 
ATOM      7  C   UNL     1     101.202 111.819 113.795  1.00  0.00     0.093 A 
ATOM      8  C   UNL     1     101.666 110.502 113.860  1.00  0.00     0.123 A 
ATOM      9  C   UNL     1     101.629 109.815 115.070  1.00  0.00     0.094 A 
ATOM     10  C   UNL     1     101.103 110.421 116.214  1.00  0.00     0.146 A 
ATOM     11  O   UNL     1     101.078 109.726 117.345  1.00  0.00    -0.452 OA
ENDROOT
BRANCH   1  12
ATOM     12  C   UNL     1     100.634 109.330 119.682  1.00  0.00     0.021 A 
ATOM     13  C   UNL     1      99.689 108.301 119.835  1.00  0.00     0.016 A 
ATOM     14  C   UNL     1      99.736 107.457 120.948  1.00  0.00     0.047 A 
ATOM     15  C   UNL     1     100.734 107.618 121.913  1.00  0.00     0.115 A 
ATOM     16  C   UNL     1     101.649 109.474 120.645  1.00  0.00     0.016 A 
ATOM     17  C   UNL     1     101.694 108.627 121.756  1.00  0.00     0.047 A 
BRANCH  15  18
ATOM     18  O   UNL     1     100.769 106.769 123.017  1.00  0.00    -0.508 OA
ATOM     19  H   UNL     1     100.663 107.123 123.960  1.00  0.00     0.293 HD
ENDBRANCH  15  18
ENDBRANCH   1  12
BRANCH   2  20
ATOM     20  O   UNL     1      99.390 111.947 119.678  1.00  0.00    -0.502 OA
ATOM     21  H   UNL     1      99.838 112.616 120.293  1.00  0.00     0.293 HD
ENDBRANCH   2  20
BRANCH   6  22
ATOM     22  O   UNL     1     100.355 113.811 114.782  1.00  0.00    -0.507 OA
ATOM     23  H   UNL     1     100.890 114.586 115.142  1.00  0.00     0.293 HD
ENDBRANCH   6  22
BRANCH   8  24
ATOM     24  O   UNL     1     102.176 109.871 112.727  1.00  0.00    -0.508 OA
ATOM     25  H   UNL     1     103.086 110.110 112.352  1.00  0.00     0.293 HD
ENDBRANCH   8  24
TORSDOF 5
ENDMDL
MODEL 9
REMARK VINA RESULT:    -4.538      1.552      1.662
REMARK INTER + INTRA:          -5.634
REMARK INTER:                  -5.490
REMARK INTRA:                  -0.144
REMARK UNBOUND:                -0.300
REMARK SMILES O=c1c(O)c(-c2ccc(O)cc2)oc2cc(O)cc(O)c12
REMARK SMILES IDX 5 1 3 2 2 3 1 4 21 5 19 6 18 7 16 8 15 9 14 10 13 11 6 12
REMARK SMILES IDX 7 13 8 14 9 15 12 16 11 17 10 18 4 20 20 22 17 24
REMARK H PARENT 10 19 4 21 20 23 17 25
REMARK Flexibility Score: inf
ROOT
ATOM      1  C   UNL     1     110.694 108.184 114.328  1.00  0.00     0.180 A 
ATOM      2  C   UNL     1     110.285 107.748 115.601  1.00  0.00     0.208 A 
ATOM      3  C   UNL     1     108.920 107.784 115.927  1.00  0.00     0.238 A 
ATOM      4  O   UNL     1     108.555 107.342 117.048  1.00  0.00    -0.285 OA
ATOM      5  C   UNL     1     107.983 108.269 114.983  1.00  0.00     0.111 A 
ATOM      6  C   UNL     1     106.580 108.387 115.221  1.00  0.00     0.134 A 
ATOM      7  C   UNL     1     105.731 108.756 114.172  1.00  0.00     0.093 A 
ATOM      8  C   UNL     1     106.240 109.075 112.910  1.00  0.00     0.123 A 
ATOM      9  C   UNL     1     107.613 109.020 112.685  1.00  0.00     0.094 A 
ATOM     10  C   UNL     1     108.483 108.620 113.702  1.00  0.00     0.146 A 
ATOM     11  O   UNL     1     109.785 108.572 113.442  1.00  0.00    -0.452 OA
ENDROOT
BRANCH   1  12
ATOM     12  C   UNL     1     112.118 108.199 113.921  1.00  0.00     0.021 A 
ATOM     13  C   UNL     1     112.529 107.440 112.813  1.00  0.00     0.016 A 
ATOM     14  C   UNL     1     113.863 107.457 112.397  1.00  0.00     0.047 A 
ATOM     15  C   UNL     1     114.800 108.245 113.072  1.00  0.00     0.115 A 
ATOM     16  C   UNL     1     113.061 109.006 114.583  1.00  0.00     0.016 A 
ATOM     17  C   UNL     1     114.395 109.023 114.164  1.00  0.00     0.047 A 
BRANCH  15  18
ATOM     18  O   UNL     1     116.127 108.253 112.647  1.00  0.00    -0.508 OA
ATOM     19  H   UNL     1     116.462 108.930 111.972  1.00  0.00     0.293 HD
ENDBRANCH  15  18
ENDBRANCH   1  12
BRANCH   2  20
ATOM     20  O   UNL     1     111.224 107.253 116.510  1.00  0.00    -0.502 OA
ATOM     21  H   UNL     1     112.184 107.059 116.249  1.00  0.00     0.293 HD
ENDBRANCH   2  20
BRANCH   6  22
ATOM     22  O   UNL     1     105.980 108.182 116.467  1.00  0.00    -0.507 OA
ATOM     23  H   UNL     1     106.306 107.525 117.160  1.00  0.00     0.293 HD
ENDBRANCH   6  22
BRANCH   8  24
ATOM     24  O   UNL     1     105.389 109.457 111.875  1.00  0.00    -0.508 OA
ATOM     25  H   UNL     1     105.709 109.499 110.915  1.00  0.00     0.293 HD
ENDBRANCH   8  24
TORSDOF 5
ENDMDL
