MODEL 1
REMARK VINA RESULT:    -4.020      0.000      0.000
REMARK INTER + INTRA:          -6.802
REMARK INTER:                  -6.369
REMARK INTRA:                  -0.432
REMARK UNBOUND:                -0.432
REMARK SMILES CCCCCCCCCCCC(=O)[O-]
REMARK SMILES IDX 7 1 8 2 9 3 10 4 11 5 12 6 13 7 14 8 6 9 5 10 4 11 3 12 2 13
REMARK SMILES IDX 1 14
REMARK H PARENT
REMARK Flexibility Score: inf
ROOT
ATOM      1  C   UNL     1      12.224  79.865   2.055  1.00  0.00     0.000 C 
ENDROOT
BRANCH   1   2
ATOM      2  C   UNL     1      11.352  79.878   3.324  1.00  0.00     0.000 C 
BRANCH   2   3
ATOM      3  C   UNL     1       9.861  79.659   3.018  1.00  0.00     0.000 C 
BRANCH   3   4
ATOM      4  C   UNL     1       9.210  78.633   3.957  1.00  0.00     0.006 C 
BRANCH   4   5
ATOM      5  C   UNL     1       8.071  79.269   4.758  1.00  0.00     0.053 C 
BRANCH   5   6
ATOM      6  C   UNL     1       7.567  78.320   5.800  1.00  0.00     0.041 C 
ATOM      7  O   UNL     1       6.358  78.345   6.148  1.00  0.00    -0.550 OA
ATOM      8  O   UNL     1       8.423  77.375   6.349  1.00  0.00    -0.550 OA
ENDBRANCH   5   6
ENDBRANCH   4   5
ENDBRANCH   3   4
ENDBRANCH   2   3
ENDBRANCH   1   2
BRANCH   1   9
ATOM      9  C   UNL     1      13.711  80.106   2.359  1.00  0.00     0.000 C 
BRANCH   9  10
ATOM     10  C   UNL     1      14.638  79.454   1.322  1.00  0.00    -0.000 C 
BRANCH  10  11
ATOM     11  C   UNL     1      13.873  78.439   0.463  1.00  0.00    -0.000 C 
BRANCH  11  12
ATOM     12  C   UNL     1      14.469  78.356  -0.950  1.00  0.00    -0.000 C 
BRANCH  12  13
ATOM     13  C   UNL     1      15.077  79.689  -1.413  1.00  0.00    -0.003 C 
ATOM     14  C   UNL     1      14.980  79.891  -2.925  1.00  0.00     0.004 C 
ENDBRANCH  12  13
ENDBRANCH  11  12
ENDBRANCH  10  11
ENDBRANCH   9  10
ENDBRANCH   1   9
TORSDOF 10
ENDMDL
MODEL 2
REMARK VINA RESULT:    -3.873      5.470      8.495
REMARK INTER + INTRA:          -6.570
REMARK INTER:                  -5.933
REMARK INTRA:                  -0.637
REMARK UNBOUND:                -0.432
REMARK SMILES CCCCCCCCCCCC(=O)[O-]
REMARK SMILES IDX 7 1 8 2 9 3 10 4 11 5 12 6 13 7 14 8 6 9 5 10 4 11 3 12 2 13
REMARK SMILES IDX 1 14
REMARK H PARENT
REMARK Flexibility Score: inf
ROOT
ATOM      1  C   UNL     1      13.369  78.052   0.176  1.00  0.00     0.000 C 
ENDROOT
BRANCH   1   2
ATOM      2  C   UNL     1      14.030  77.750  -1.181  1.00  0.00     0.000 C 
BRANCH   2   3
ATOM      3  C   UNL     1      15.125  78.766  -1.544  1.00  0.00     0.000 C 
BRANCH   3   4
ATOM      4  C   UNL     1      14.882  79.437  -2.904  1.00  0.00     0.006 C 
BRANCH   4   5
ATOM      5  C   UNL     1      14.246  78.454  -3.892  1.00  0.00     0.053 C 
BRANCH   5   6
ATOM      6  C   UNL     1      14.422  78.936  -5.298  1.00  0.00     0.041 C 
ATOM      7  O   UNL     1      14.888  80.084  -5.521  1.00  0.00    -0.550 OA
ATOM      8  O   UNL     1      14.119  78.098  -6.363  1.00  0.00    -0.550 OA
ENDBRANCH   5   6
ENDBRANCH   4   5
ENDBRANCH   3   4
ENDBRANCH   2   3
ENDBRANCH   1   2
BRANCH   1   9
ATOM      9  C   UNL     1      14.398  78.268   1.298  1.00  0.00     0.000 C 
BRANCH   9  10
ATOM     10  C   UNL     1      14.149  79.564   2.085  1.00  0.00    -0.000 C 
BRANCH  10  11
ATOM     11  C   UNL     1      12.752  80.125   1.791  1.00  0.00    -0.000 C 
BRANCH  11  12
ATOM     12  C   UNL     1      11.824  79.949   3.002  1.00  0.00    -0.000 C 
BRANCH  12  13
ATOM     13  C   UNL     1      10.428  79.444   2.607  1.00  0.00    -0.003 C 
ATOM     14  C   UNL     1       9.538  79.155   3.815  1.00  0.00     0.004 C 
ENDBRANCH  12  13
ENDBRANCH  11  12
ENDBRANCH  10  11
ENDBRANCH   9  10
ENDBRANCH   1   9
TORSDOF 10
ENDMDL
MODEL 3
REMARK VINA RESULT:    -3.458      2.118      3.897
REMARK INTER + INTRA:          -5.913
REMARK INTER:                  -5.469
REMARK INTRA:                  -0.443
REMARK UNBOUND:                -0.432
REMARK SMILES CCCCCCCCCCCC(=O)[O-]
REMARK SMILES IDX 7 1 8 2 9 3 10 4 11 5 12 6 13 7 14 8 6 9 5 10 4 11 3 12 2 13
REMARK SMILES IDX 1 14
REMARK H PARENT
REMARK Flexibility Score: inf
ROOT
ATOM      1  C   UNL     1      13.457  77.825  -0.061  1.00  0.00     0.000 C 
ENDROOT
BRANCH   1   2
ATOM      2  C   UNL     1      14.167  78.093   1.279  1.00  0.00     0.000 C 
BRANCH   2   3
ATOM      3  C   UNL     1      13.827  79.474   1.861  1.00  0.00     0.000 C 
BRANCH   3   4
ATOM      4  C   UNL     1      12.329  79.801   1.771  1.00  0.00     0.006 C 
BRANCH   4   5
ATOM      5  C   UNL     1      11.705  79.898   3.166  1.00  0.00     0.053 C 
BRANCH   5   6
ATOM      6  C   UNL     1      10.239  79.600   3.107  1.00  0.00     0.041 C 
ATOM      7  O   UNL     1       9.696  78.911   4.009  1.00  0.00    -0.550 OA
ATOM      8  O   UNL     1       9.465  80.125   2.081  1.00  0.00    -0.550 OA
ENDBRANCH   5   6
ENDBRANCH   4   5
ENDBRANCH   3   4
ENDBRANCH   2   3
ENDBRANCH   1   2
BRANCH   1   9
ATOM      9  C   UNL     1      14.378  78.048  -1.271  1.00  0.00     0.000 C 
BRANCH   9  10
ATOM     10  C   UNL     1      14.804  79.516  -1.427  1.00  0.00    -0.000 C 
BRANCH  10  11
ATOM     11  C   UNL     1      15.020  79.871  -2.903  1.00  0.00    -0.000 C 
BRANCH  11  12
ATOM     12  C   UNL     1      14.291  78.876  -3.819  1.00  0.00    -0.000 C 
BRANCH  12  13
ATOM     13  C   UNL     1      14.441  79.227  -5.307  1.00  0.00    -0.003 C 
ATOM     14  C   UNL     1      14.447  77.992  -6.208  1.00  0.00     0.004 C 
ENDBRANCH  12  13
ENDBRANCH  11  12
ENDBRANCH  10  11
ENDBRANCH   9  10
ENDBRANCH   1   9
TORSDOF 10
ENDMDL
MODEL 4
REMARK VINA RESULT:    -3.070      1.300      2.307
REMARK INTER + INTRA:          -5.297
REMARK INTER:                  -5.226
REMARK INTRA:                  -0.072
REMARK UNBOUND:                -0.432
REMARK SMILES CCCCCCCCCCCC(=O)[O-]
REMARK SMILES IDX 7 1 8 2 9 3 10 4 11 5 12 6 13 7 14 8 6 9 5 10 4 11 3 12 2 13
REMARK SMILES IDX 1 14
REMARK H PARENT
REMARK Flexibility Score: inf
ROOT
ATOM      1  C   UNL     1      12.788  78.696   0.918  1.00  0.00     0.000 C 
ENDROOT
BRANCH   1   2
ATOM      2  C   UNL     1      13.212  79.753   1.954  1.00  0.00     0.000 C 
BRANCH   2   3
ATOM      3  C   UNL     1      12.074  80.123   2.919  1.00  0.00     0.000 C 
BRANCH   3   4
ATOM      4  C   UNL     1      10.840  79.225   2.751  1.00  0.00     0.006 C 
BRANCH   4   5
ATOM      5  C   UNL     1       9.568  79.954   3.190  1.00  0.00     0.053 C 
BRANCH   5   6
ATOM      6  C   UNL     1       8.817  79.140   4.197  1.00  0.00     0.041 C 
ATOM      7  O   UNL     1       9.230  77.996   4.521  1.00  0.00    -0.550 OA
ATOM      8  O   UNL     1       7.690  79.666   4.814  1.00  0.00    -0.550 OA
ENDBRANCH   5   6
ENDBRANCH   4   5
ENDBRANCH   3   4
ENDBRANCH   2   3
ENDBRANCH   1   2
BRANCH   1   9
ATOM      9  C   UNL     1      13.960  77.810   0.466  1.00  0.00     0.000 C 
BRANCH   9  10
ATOM     10  C   UNL     1      15.120  78.624  -0.128  1.00  0.00    -0.000 C 
BRANCH  10  11
ATOM     11  C   UNL     1      14.625  79.971  -0.668  1.00  0.00    -0.000 C 
BRANCH  11  12
ATOM     12  C   UNL     1      14.964  80.124  -2.158  1.00  0.00    -0.000 C 
BRANCH  12  13
ATOM     13  C   UNL     1      14.620  78.867  -2.973  1.00  0.00    -0.003 C 
ATOM     14  C   UNL     1      14.492  79.148  -4.469  1.00  0.00     0.004 C 
ENDBRANCH  12  13
ENDBRANCH  11  12
ENDBRANCH  10  11
ENDBRANCH   9  10
ENDBRANCH   1   9
TORSDOF 10
ENDMDL
MODEL 5
REMARK VINA RESULT:    -2.621      4.071      8.021
REMARK INTER + INTRA:          -4.586
REMARK INTER:                  -4.591
REMARK INTRA:                   0.005
REMARK UNBOUND:                -0.432
REMARK SMILES CCCCCCCCCCCC(=O)[O-]
REMARK SMILES IDX 7 1 8 2 9 3 10 4 11 5 12 6 13 7 14 8 6 9 5 10 4 11 3 12 2 13
REMARK SMILES IDX 1 14
REMARK H PARENT
REMARK Flexibility Score: inf
ROOT
ATOM      1  C   UNL     1      12.340  79.309   2.129  1.00  0.00     0.000 C 
ENDROOT
BRANCH   1   2
ATOM      2  C   UNL     1      13.696  80.007   1.923  1.00  0.00     0.000 C 
BRANCH   2   3
ATOM      3  C   UNL     1      14.613  79.243   0.955  1.00  0.00     0.000 C 
BRANCH   3   4
ATOM      4  C   UNL     1      15.125  80.125  -0.194  1.00  0.00     0.006 C 
BRANCH   4   5
ATOM      5  C   UNL     1      14.208  80.017  -1.416  1.00  0.00     0.053 C 
BRANCH   5   6
ATOM      6  C   UNL     1      14.341  78.670  -2.055  1.00  0.00     0.041 C 
ATOM      7  O   UNL     1      14.784  78.566  -3.228  1.00  0.00    -0.550 OA
ATOM      8  O   UNL     1      14.024  77.526  -1.335  1.00  0.00    -0.550 OA
ENDBRANCH   5   6
ENDBRANCH   4   5
ENDBRANCH   3   4
ENDBRANCH   2   3
ENDBRANCH   1   2
BRANCH   1   9
ATOM      9  C   UNL     1      11.421  80.076   3.093  1.00  0.00     0.000 C 
BRANCH   9  10
ATOM     10  C   UNL     1      10.201  79.250   3.528  1.00  0.00    -0.000 C 
BRANCH  10  11
ATOM     11  C   UNL     1       8.895  79.944   3.120  1.00  0.00    -0.000 C 
BRANCH  11  12
ATOM     12  C   UNL     1       7.706  79.388   3.917  1.00  0.00    -0.000 C 
BRANCH  12  13
ATOM     13  C   UNL     1       8.085  79.011   5.357  1.00  0.00    -0.003 C 
ATOM     14  C   UNL     1       6.978  78.243   6.079  1.00  0.00     0.004 C 
ENDBRANCH  12  13
ENDBRANCH  11  12
ENDBRANCH  10  11
ENDBRANCH   9  10
ENDBRANCH   1   9
TORSDOF 10
ENDMDL
MODEL 6
REMARK VINA RESULT:    -2.294     22.862     24.549
REMARK INTER + INTRA:          -4.067
REMARK INTER:                  -3.912
REMARK INTRA:                  -0.155
REMARK UNBOUND:                -0.432
REMARK SMILES CCCCCCCCCCCC(=O)[O-]
REMARK SMILES IDX 7 1 8 2 9 3 10 4 11 5 12 6 13 7 14 8 6 9 5 10 4 11 3 12 2 13
REMARK SMILES IDX 1 14
REMARK H PARENT
REMARK Flexibility Score: inf
ROOT
ATOM      1  C   UNL     1      -0.393  59.999  -4.521  1.00  0.00     0.000 C 
ENDROOT
BRANCH   1   2
ATOM      2  C   UNL     1       0.968  60.687  -4.315  1.00  0.00     0.000 C 
BRANCH   2   3
ATOM      3  C   UNL     1       1.893  60.544  -5.535  1.00  0.00     0.000 C 
BRANCH   3   4
ATOM      4  C   UNL     1       1.193  59.884  -6.733  1.00  0.00     0.006 C 
BRANCH   4   5
ATOM      5  C   UNL     1       2.106  59.875  -7.962  1.00  0.00     0.053 C 
BRANCH   5   6
ATOM      6  C   UNL     1       3.144  60.948  -7.854  1.00  0.00     0.041 C 
ATOM      7  O   UNL     1       2.803  62.159  -7.832  1.00  0.00    -0.550 OA
ATOM      8  O   UNL     1       4.484  60.607  -7.726  1.00  0.00    -0.550 OA
ENDBRANCH   5   6
ENDBRANCH   4   5
ENDBRANCH   3   4
ENDBRANCH   2   3
ENDBRANCH   1   2
BRANCH   1   9
ATOM      9  C   UNL     1      -1.577  60.928  -4.209  1.00  0.00     0.000 C 
BRANCH   9  10
ATOM     10  C   UNL     1      -2.650  60.248  -3.345  1.00  0.00    -0.000 C 
BRANCH  10  11
ATOM     11  C   UNL     1      -3.938  60.023  -4.146  1.00  0.00    -0.000 C 
BRANCH  11  12
ATOM     12  C   UNL     1      -4.036  61.013  -5.317  1.00  0.00    -0.000 C 
BRANCH  12  13
ATOM     13  C   UNL     1      -4.867  60.463  -6.486  1.00  0.00    -0.003 C 
ATOM     14  C   UNL     1      -4.936  61.428  -7.669  1.00  0.00     0.004 C 
ENDBRANCH  12  13
ENDBRANCH  11  12
ENDBRANCH  10  11
ENDBRANCH   9  10
ENDBRANCH   1   9
TORSDOF 10
ENDMDL
MODEL 7
REMARK VINA RESULT:    -2.242     22.845     23.844
REMARK INTER + INTRA:          -3.984
REMARK INTER:                  -3.534
REMARK INTRA:                  -0.451
REMARK UNBOUND:                -0.432
REMARK SMILES CCCCCCCCCCCC(=O)[O-]
REMARK SMILES IDX 7 1 8 2 9 3 10 4 11 5 12 6 13 7 14 8 6 9 5 10 4 11 3 12 2 13
REMARK SMILES IDX 1 14
REMARK H PARENT
REMARK Flexibility Score: inf
ROOT
ATOM      1  C   UNL     1      -0.240  60.109  -4.334  1.00  0.00     0.000 C 
ENDROOT
BRANCH   1   2
ATOM      2  C   UNL     1      -1.274  60.923  -3.535  1.00  0.00     0.000 C 
BRANCH   2   3
ATOM      3  C   UNL     1      -2.540  60.114  -3.211  1.00  0.00     0.000 C 
BRANCH   3   4
ATOM      4  C   UNL     1      -3.442  59.912  -4.437  1.00  0.00     0.006 C 
BRANCH   4   5
ATOM      5  C   UNL     1      -3.431  61.154  -5.334  1.00  0.00     0.053 C 
BRANCH   5   6
ATOM      6  C   UNL     1      -3.978  60.827  -6.689  1.00  0.00     0.041 C 
ATOM      7  O   UNL     1      -3.431  59.940  -7.395  1.00  0.00    -0.550 OA
ATOM      8  O   UNL     1      -5.120  61.468  -7.149  1.00  0.00    -0.550 OA
ENDBRANCH   5   6
ENDBRANCH   4   5
ENDBRANCH   3   4
ENDBRANCH   2   3
ENDBRANCH   1   2
BRANCH   1   9
ATOM      9  C   UNL     1       1.025  60.919  -4.660  1.00  0.00     0.000 C 
BRANCH   9  10
ATOM     10  C   UNL     1       1.983  60.167  -5.596  1.00  0.00    -0.000 C 
BRANCH  10  11
ATOM     11  C   UNL     1       1.369  60.002  -6.992  1.00  0.00    -0.000 C 
BRANCH  11  12
ATOM     12  C   UNL     1       2.443  60.128  -8.083  1.00  0.00    -0.000 C 
BRANCH  12  13
ATOM     13  C   UNL     1       3.590  61.065  -7.676  1.00  0.00    -0.003 C 
ATOM     14  C   UNL     1       4.959  60.556  -8.125  1.00  0.00     0.004 C 
ENDBRANCH  12  13
ENDBRANCH  11  12
ENDBRANCH  10  11
ENDBRANCH   9  10
ENDBRANCH   1   9
TORSDOF 10
ENDMDL
MODEL 8
REMARK VINA RESULT:    -1.954      3.796      9.085
REMARK INTER + INTRA:          -3.528
REMARK INTER:                  -3.336
REMARK INTRA:                  -0.192
REMARK UNBOUND:                -0.432
REMARK SMILES CCCCCCCCCCCC(=O)[O-]
REMARK SMILES IDX 7 1 8 2 9 3 10 4 11 5 12 6 13 7 14 8 6 9 5 10 4 11 3 12 2 13
REMARK SMILES IDX 1 14
REMARK H PARENT
REMARK Flexibility Score: inf
ROOT
ATOM      1  C   UNL     1       9.140  78.562   3.990  1.00  0.00     0.000 C 
ENDROOT
BRANCH   1   2
ATOM      2  C   UNL     1       9.781  79.621   3.075  1.00  0.00     0.000 C 
BRANCH   2   3
ATOM      3  C   UNL     1      11.277  79.824   3.363  1.00  0.00     0.000 C 
BRANCH   3   4
ATOM      4  C   UNL     1      12.100  80.049   2.086  1.00  0.00     0.006 C 
BRANCH   4   5
ATOM      5  C   UNL     1      13.594  79.843   2.354  1.00  0.00     0.053 C 
BRANCH   5   6
ATOM      6  C   UNL     1      14.266  79.257   1.152  1.00  0.00     0.041 C 
ATOM      7  O   UNL     1      15.079  78.305   1.282  1.00  0.00    -0.550 OA
ATOM      8  O   UNL     1      13.958  79.731  -0.116  1.00  0.00    -0.550 OA
ENDBRANCH   5   6
ENDBRANCH   4   5
ENDBRANCH   3   4
ENDBRANCH   2   3
ENDBRANCH   1   2
BRANCH   1   9
ATOM      9  C   UNL     1       7.957  79.118   4.798  1.00  0.00     0.000 C 
BRANCH   9  10
ATOM     10  C   UNL     1       7.597  78.234   6.002  1.00  0.00    -0.000 C 
BRANCH  10  11
ATOM     11  C   UNL     1       6.084  77.999   6.077  1.00  0.00    -0.000 C 
BRANCH  11  12
ATOM     12  C   UNL     1       5.547  78.323   7.479  1.00  0.00    -0.000 C 
BRANCH  12  13
ATOM     13  C   UNL     1       4.119  77.799   7.700  1.00  0.00    -0.003 C 
ATOM     14  C   UNL     1       3.719  77.775   9.174  1.00  0.00     0.004 C 
ENDBRANCH  12  13
ENDBRANCH  11  12
ENDBRANCH  10  11
ENDBRANCH   9  10
ENDBRANCH   1   9
TORSDOF 10
ENDMDL
