MODEL 1
REMARK VINA RESULT:    -1.028      0.000      0.000
REMARK INTER + INTRA:          -7.487
REMARK INTER:                  -2.349
REMARK INTRA:                  -5.138
REMARK UNBOUND:                -5.138
REMARK SMILES CCCCCCCCCCCCCCCCCCCCCCCC(=O)[O-]
REMARK SMILES IDX 13 1 14 2 15 3 16 4 17 5 18 6 19 7 20 8 21 9 22 10 23 11
REMARK SMILES IDX 24 12 25 13 26 14 12 15 11 16 10 17 9 18 8 19 7 20 6 21 5 22
REMARK SMILES IDX 4 23 3 24 2 25 1 26
REMARK H PARENT
REMARK Flexibility Score: inf
ROOT
ATOM      1  C   UNL     1     144.114  40.198  -8.978  1.00  0.00     0.000 C 
ENDROOT
BRANCH   1   2
ATOM      2  C   UNL     1     143.571  38.966  -8.232  1.00  0.00     0.000 C 
BRANCH   2   3
ATOM      3  C   UNL     1     144.466  37.724  -8.399  1.00  0.00     0.000 C 
BRANCH   3   4
ATOM      4  C   UNL     1     144.751  36.942  -7.102  1.00  0.00     0.000 C 
BRANCH   4   5
ATOM      5  C   UNL     1     146.106  37.247  -6.434  1.00  0.00     0.000 C 
BRANCH   5   6
ATOM      6  C   UNL     1     145.989  37.947  -5.063  1.00  0.00     0.000 C 
BRANCH   6   7
ATOM      7  C   UNL     1     146.365  39.439  -5.128  1.00  0.00     0.000 C 
BRANCH   7   8
ATOM      8  C   UNL     1     145.190  40.356  -4.727  1.00  0.00     0.000 C 
BRANCH   8   9
ATOM      9  C   UNL     1     143.880  39.593  -4.469  1.00  0.00     0.000 C 
BRANCH   9  10
ATOM     10  C   UNL     1     142.647  40.317  -5.034  1.00  0.00     0.006 C 
BRANCH  10  11
ATOM     11  C   UNL     1     142.991  41.711  -5.571  1.00  0.00     0.053 C 
BRANCH  11  12
ATOM     12  C   UNL     1     141.891  42.259  -6.431  1.00  0.00     0.041 C 
ATOM     13  O   UNL     1     141.290  41.507  -7.245  1.00  0.00    -0.550 OA
ATOM     14  O   UNL     1     141.531  43.595  -6.331  1.00  0.00    -0.550 OA
ENDBRANCH  11  12
ENDBRANCH  10  11
ENDBRANCH   9  10
ENDBRANCH   8   9
ENDBRANCH   7   8
ENDBRANCH   6   7
ENDBRANCH   5   6
ENDBRANCH   4   5
ENDBRANCH   3   4
ENDBRANCH   2   3
ENDBRANCH   1   2
BRANCH   1  15
ATOM     15  C   UNL     1     145.365  40.791  -8.309  1.00  0.00     0.000 C 
BRANCH  15  16
ATOM     16  C   UNL     1     146.616  40.712  -9.203  1.00  0.00     0.000 C 
BRANCH  16  17
ATOM     17  C   UNL     1     147.758  39.906  -8.555  1.00  0.00     0.000 C 
BRANCH  17  18
ATOM     18  C   UNL     1     148.038  38.541  -9.210  1.00  0.00    -0.000 C 
BRANCH  18  19
ATOM     19  C   UNL     1     147.436  38.420 -10.620  1.00  0.00    -0.000 C 
BRANCH  19  20
ATOM     20  C   UNL     1     147.030  36.980 -10.967  1.00  0.00    -0.000 C 
BRANCH  20  21
ATOM     21  C   UNL     1     145.725  36.916 -11.781  1.00  0.00    -0.000 C 
BRANCH  21  22
ATOM     22  C   UNL     1     145.102  38.306 -11.993  1.00  0.00    -0.000 C 
BRANCH  22  23
ATOM     23  C   UNL     1     143.647  38.222 -12.488  1.00  0.00    -0.000 C 
BRANCH  23  24
ATOM     24  C   UNL     1     142.977  36.888 -12.123  1.00  0.00    -0.000 C 
BRANCH  24  25
ATOM     25  C   UNL     1     141.559  37.076 -11.567  1.00  0.00    -0.003 C 
ATOM     26  C   UNL     1     141.288  38.542 -11.240  1.00  0.00     0.004 C 
ENDBRANCH  24  25
ENDBRANCH  23  24
ENDBRANCH  22  23
ENDBRANCH  21  22
ENDBRANCH  20  21
ENDBRANCH  19  20
ENDBRANCH  18  19
ENDBRANCH  17  18
ENDBRANCH  16  17
ENDBRANCH  15  16
ENDBRANCH   1  15
TORSDOF 22
ENDMDL
MODEL 2
REMARK VINA RESULT:    -0.977      2.476      5.962
REMARK INTER + INTRA:          -7.370
REMARK INTER:                  -2.357
REMARK INTRA:                  -5.013
REMARK UNBOUND:                -5.138
REMARK SMILES CCCCCCCCCCCCCCCCCCCCCCCC(=O)[O-]
REMARK SMILES IDX 13 1 14 2 15 3 16 4 17 5 18 6 19 7 20 8 21 9 22 10 23 11
REMARK SMILES IDX 24 12 25 13 26 14 12 15 11 16 10 17 9 18 8 19 7 20 6 21 5 22
REMARK SMILES IDX 4 23 3 24 2 25 1 26
REMARK H PARENT
REMARK Flexibility Score: inf
ROOT
ATOM      1  C   UNL     1     143.808  40.178  -9.937  1.00  0.00     0.000 C 
ENDROOT
BRANCH   1   2
ATOM      2  C   UNL     1     142.875  39.167  -9.247  1.00  0.00     0.000 C 
BRANCH   2   3
ATOM      3  C   UNL     1     142.870  37.791  -9.939  1.00  0.00     0.000 C 
BRANCH   3   4
ATOM      4  C   UNL     1     143.880  37.634 -11.093  1.00  0.00     0.000 C 
BRANCH   4   5
ATOM      5  C   UNL     1     143.264  37.299 -12.466  1.00  0.00     0.000 C 
BRANCH   5   6
ATOM      6  C   UNL     1     141.735  37.505 -12.537  1.00  0.00     0.000 C 
BRANCH   6   7
ATOM      7  C   UNL     1     141.333  38.599 -13.543  1.00  0.00     0.000 C 
BRANCH   7   8
ATOM      8  C   UNL     1     141.662  40.016 -13.027  1.00  0.00     0.000 C 
BRANCH   8   9
ATOM      9  C   UNL     1     140.703  40.505 -11.929  1.00  0.00     0.000 C 
BRANCH   9  10
ATOM     10  C   UNL     1     140.948  41.970 -11.533  1.00  0.00     0.006 C 
BRANCH  10  11
ATOM     11  C   UNL     1     141.880  42.688 -12.517  1.00  0.00     0.053 C 
BRANCH  11  12
ATOM     12  C   UNL     1     143.056  43.302 -11.816  1.00  0.00     0.041 C 
ATOM     13  O   UNL     1     142.877  44.068 -10.832  1.00  0.00    -0.550 OA
ATOM     14  O   UNL     1     144.344  43.025 -12.250  1.00  0.00    -0.550 OA
ENDBRANCH  11  12
ENDBRANCH  10  11
ENDBRANCH   9  10
ENDBRANCH   8   9
ENDBRANCH   7   8
ENDBRANCH   6   7
ENDBRANCH   5   6
ENDBRANCH   4   5
ENDBRANCH   3   4
ENDBRANCH   2   3
ENDBRANCH   1   2
BRANCH   1  15
ATOM     15  C   UNL     1     144.257  41.307  -8.993  1.00  0.00     0.000 C 
BRANCH  15  16
ATOM     16  C   UNL     1     145.772  41.575  -9.060  1.00  0.00     0.000 C 
BRANCH  16  17
ATOM     17  C   UNL     1     146.445  40.874 -10.255  1.00  0.00     0.000 C 
BRANCH  17  18
ATOM     18  C   UNL     1     147.750  40.129  -9.917  1.00  0.00    -0.000 C 
BRANCH  18  19
ATOM     19  C   UNL     1     147.628  39.250  -8.660  1.00  0.00    -0.000 C 
BRANCH  19  20
ATOM     20  C   UNL     1     146.866  37.942  -8.927  1.00  0.00    -0.000 C 
BRANCH  20  21
ATOM     21  C   UNL     1     145.904  37.577  -7.782  1.00  0.00    -0.000 C 
BRANCH  21  22
ATOM     22  C   UNL     1     146.225  38.339  -6.486  1.00  0.00    -0.000 C 
BRANCH  22  23
ATOM     23  C   UNL     1     145.046  39.208  -6.013  1.00  0.00    -0.000 C 
BRANCH  23  24
ATOM     24  C   UNL     1     145.495  40.600  -5.540  1.00  0.00    -0.000 C 
BRANCH  24  25
ATOM     25  C   UNL     1     146.985  40.643  -5.172  1.00  0.00    -0.003 C 
ATOM     26  C   UNL     1     147.699  41.774  -5.905  1.00  0.00     0.004 C 
ENDBRANCH  24  25
ENDBRANCH  23  24
ENDBRANCH  22  23
ENDBRANCH  21  22
ENDBRANCH  20  21
ENDBRANCH  19  20
ENDBRANCH  18  19
ENDBRANCH  17  18
ENDBRANCH  16  17
ENDBRANCH  15  16
ENDBRANCH   1  15
TORSDOF 22
ENDMDL
MODEL 3
REMARK VINA RESULT:    -0.914      3.108      6.776
REMARK INTER + INTRA:          -7.228
REMARK INTER:                  -2.409
REMARK INTRA:                  -4.819
REMARK UNBOUND:                -5.138
REMARK SMILES CCCCCCCCCCCCCCCCCCCCCCCC(=O)[O-]
REMARK SMILES IDX 13 1 14 2 15 3 16 4 17 5 18 6 19 7 20 8 21 9 22 10 23 11
REMARK SMILES IDX 24 12 25 13 26 14 12 15 11 16 10 17 9 18 8 19 7 20 6 21 5 22
REMARK SMILES IDX 4 23 3 24 2 25 1 26
REMARK H PARENT
REMARK Flexibility Score: inf
ROOT
ATOM      1  C   UNL     1     142.849  41.907  -9.043  1.00  0.00     0.000 C 
ENDROOT
BRANCH   1   2
ATOM      2  C   UNL     1     143.687  41.242 -10.150  1.00  0.00     0.000 C 
BRANCH   2   3
ATOM      3  C   UNL     1     143.048  41.373 -11.545  1.00  0.00     0.000 C 
BRANCH   3   4
ATOM      4  C   UNL     1     141.519  41.566 -11.549  1.00  0.00     0.000 C 
BRANCH   4   5
ATOM      5  C   UNL     1     140.702  40.331 -11.975  1.00  0.00     0.000 C 
BRANCH   5   6
ATOM      6  C   UNL     1     141.101  39.755 -13.352  1.00  0.00     0.000 C 
BRANCH   6   7
ATOM      7  C   UNL     1     141.484  38.266 -13.280  1.00  0.00     0.000 C 
BRANCH   7   8
ATOM      8  C   UNL     1     141.456  37.724 -11.835  1.00  0.00     0.000 C 
BRANCH   8   9
ATOM      9  C   UNL     1     142.834  37.276 -11.323  1.00  0.00     0.000 C 
BRANCH   9  10
ATOM     10  C   UNL     1     143.954  37.496 -12.354  1.00  0.00     0.006 C 
BRANCH  10  11
ATOM     11  C   UNL     1     145.124  38.300 -11.775  1.00  0.00     0.053 C 
BRANCH  11  12
ATOM     12  C   UNL     1     146.393  38.054 -12.536  1.00  0.00     0.041 C 
ATOM     13  O   UNL     1     146.611  38.664 -13.617  1.00  0.00    -0.550 OA
ATOM     14  O   UNL     1     147.331  37.155 -12.049  1.00  0.00    -0.550 OA
ENDBRANCH  11  12
ENDBRANCH  10  11
ENDBRANCH   9  10
ENDBRANCH   8   9
ENDBRANCH   7   8
ENDBRANCH   6   7
ENDBRANCH   5   6
ENDBRANCH   4   5
ENDBRANCH   3   4
ENDBRANCH   2   3
ENDBRANCH   1   2
BRANCH   1  15
ATOM     15  C   UNL     1     142.472  40.929  -7.918  1.00  0.00     0.000 C 
BRANCH  15  16
ATOM     16  C   UNL     1     142.058  39.542  -8.445  1.00  0.00     0.000 C 
BRANCH  16  17
ATOM     17  C   UNL     1     142.816  38.394  -7.751  1.00  0.00     0.000 C 
BRANCH  17  18
ATOM     18  C   UNL     1     144.323  38.336  -8.059  1.00  0.00    -0.000 C 
BRANCH  18  19
ATOM     19  C   UNL     1     145.187  38.205  -6.793  1.00  0.00    -0.000 C 
BRANCH  19  20
ATOM     20  C   UNL     1     146.660  37.904  -7.112  1.00  0.00    -0.000 C 
BRANCH  20  21
ATOM     21  C   UNL     1     146.959  37.962  -8.620  1.00  0.00    -0.000 C 
BRANCH  21  22
ATOM     22  C   UNL     1     147.946  39.086  -8.976  1.00  0.00    -0.000 C 
BRANCH  22  23
ATOM     23  C   UNL     1     147.239  40.312  -9.580  1.00  0.00    -0.000 C 
BRANCH  23  24
ATOM     24  C   UNL     1     147.606  41.618  -8.857  1.00  0.00    -0.000 C 
BRANCH  24  25
ATOM     25  C   UNL     1     147.423  41.518  -7.335  1.00  0.00    -0.003 C 
ATOM     26  C   UNL     1     145.992  41.860  -6.932  1.00  0.00     0.004 C 
ENDBRANCH  24  25
ENDBRANCH  23  24
ENDBRANCH  22  23
ENDBRANCH  21  22
ENDBRANCH  20  21
ENDBRANCH  19  20
ENDBRANCH  18  19
ENDBRANCH  17  18
ENDBRANCH  16  17
ENDBRANCH  15  16
ENDBRANCH   1  15
TORSDOF 22
ENDMDL
MODEL 4
REMARK VINA RESULT:    -0.883      2.122      5.777
REMARK INTER + INTRA:          -7.156
REMARK INTER:                  -2.533
REMARK INTRA:                  -4.624
REMARK UNBOUND:                -5.138
REMARK SMILES CCCCCCCCCCCCCCCCCCCCCCCC(=O)[O-]
REMARK SMILES IDX 13 1 14 2 15 3 16 4 17 5 18 6 19 7 20 8 21 9 22 10 23 11
REMARK SMILES IDX 24 12 25 13 26 14 12 15 11 16 10 17 9 18 8 19 7 20 6 21 5 22
REMARK SMILES IDX 4 23 3 24 2 25 1 26
REMARK H PARENT
REMARK Flexibility Score: inf
ROOT
ATOM      1  C   UNL     1     144.532  39.932 -10.388  1.00  0.00     0.000 C 
ENDROOT
BRANCH   1   2
ATOM      2  C   UNL     1     143.618  39.143  -9.433  1.00  0.00     0.000 C 
BRANCH   2   3
ATOM      3  C   UNL     1     143.297  37.727  -9.946  1.00  0.00     0.000 C 
BRANCH   3   4
ATOM      4  C   UNL     1     141.796  37.396 -10.061  1.00  0.00     0.000 C 
BRANCH   4   5
ATOM      5  C   UNL     1     141.339  36.883 -11.441  1.00  0.00     0.000 C 
BRANCH   5   6
ATOM      6  C   UNL     1     142.324  37.196 -12.588  1.00  0.00     0.000 C 
BRANCH   6   7
ATOM      7  C   UNL     1     141.730  38.160 -13.630  1.00  0.00     0.000 C 
BRANCH   7   8
ATOM      8  C   UNL     1     142.623  39.398 -13.857  1.00  0.00     0.000 C 
BRANCH   8   9
ATOM      9  C   UNL     1     142.225  40.606 -12.993  1.00  0.00     0.000 C 
BRANCH   9  10
ATOM     10  C   UNL     1     140.827  40.457 -12.369  1.00  0.00     0.006 C 
BRANCH  10  11
ATOM     11  C   UNL     1     140.756  41.059 -10.960  1.00  0.00     0.053 C 
BRANCH  11  12
ATOM     12  C   UNL     1     139.455  40.736 -10.287  1.00  0.00     0.041 C 
ATOM     13  O   UNL     1     139.408  39.849  -9.393  1.00  0.00    -0.550 OA
ATOM     14  O   UNL     1     138.300  41.415 -10.646  1.00  0.00    -0.550 OA
ENDBRANCH  11  12
ENDBRANCH  10  11
ENDBRANCH   9  10
ENDBRANCH   8   9
ENDBRANCH   7   8
ENDBRANCH   6   7
ENDBRANCH   5   6
ENDBRANCH   4   5
ENDBRANCH   3   4
ENDBRANCH   2   3
ENDBRANCH   1   2
BRANCH   1  15
ATOM     15  C   UNL     1     145.332  39.018 -11.331  1.00  0.00     0.000 C 
BRANCH  15  16
ATOM     16  C   UNL     1     146.853  39.120 -11.115  1.00  0.00     0.000 C 
BRANCH  16  17
ATOM     17  C   UNL     1     147.405  37.977 -10.242  1.00  0.00     0.000 C 
BRANCH  17  18
ATOM     18  C   UNL     1     147.928  38.411  -8.861  1.00  0.00    -0.000 C 
BRANCH  18  19
ATOM     19  C   UNL     1     146.832  38.416  -7.781  1.00  0.00    -0.000 C 
BRANCH  19  20
ATOM     20  C   UNL     1     146.685  39.783  -7.095  1.00  0.00    -0.000 C 
BRANCH  20  21
ATOM     21  C   UNL     1     147.302  40.925  -7.921  1.00  0.00    -0.000 C 
BRANCH  21  22
ATOM     22  C   UNL     1     146.432  42.193  -7.902  1.00  0.00    -0.000 C 
BRANCH  22  23
ATOM     23  C   UNL     1     145.259  42.080  -6.912  1.00  0.00    -0.000 C 
BRANCH  23  24
ATOM     24  C   UNL     1     143.901  42.355  -7.577  1.00  0.00    -0.000 C 
BRANCH  24  25
ATOM     25  C   UNL     1     142.718  41.966  -6.679  1.00  0.00    -0.003 C 
ATOM     26  C   UNL     1     141.387  42.256  -7.367  1.00  0.00     0.004 C 
ENDBRANCH  24  25
ENDBRANCH  23  24
ENDBRANCH  22  23
ENDBRANCH  21  22
ENDBRANCH  20  21
ENDBRANCH  19  20
ENDBRANCH  18  19
ENDBRANCH  17  18
ENDBRANCH  16  17
ENDBRANCH  15  16
ENDBRANCH   1  15
TORSDOF 22
ENDMDL
MODEL 5
REMARK VINA RESULT:    -0.870      2.832      5.816
REMARK INTER + INTRA:          -7.126
REMARK INTER:                  -2.084
REMARK INTRA:                  -5.042
REMARK UNBOUND:                -5.138
REMARK SMILES CCCCCCCCCCCCCCCCCCCCCCCC(=O)[O-]
REMARK SMILES IDX 13 1 14 2 15 3 16 4 17 5 18 6 19 7 20 8 21 9 22 10 23 11
REMARK SMILES IDX 24 12 25 13 26 14 12 15 11 16 10 17 9 18 8 19 7 20 6 21 5 22
REMARK SMILES IDX 4 23 3 24 2 25 1 26
REMARK H PARENT
REMARK Flexibility Score: inf
ROOT
ATOM      1  C   UNL     1     144.523  41.979 -11.334  1.00  0.00     0.000 C 
ENDROOT
BRANCH   1   2
ATOM      2  C   UNL     1     144.405  41.442  -9.896  1.00  0.00     0.000 C 
BRANCH   2   3
ATOM      3  C   UNL     1     145.739  41.493  -9.128  1.00  0.00     0.000 C 
BRANCH   3   4
ATOM      4  C   UNL     1     147.002  41.535 -10.011  1.00  0.00     0.000 C 
BRANCH   4   5
ATOM      5  C   UNL     1     147.660  40.168 -10.284  1.00  0.00     0.000 C 
BRANCH   5   6
ATOM      6  C   UNL     1     147.568  39.707 -11.755  1.00  0.00     0.000 C 
BRANCH   6   7
ATOM      7  C   UNL     1     146.646  38.487 -11.935  1.00  0.00     0.000 C 
BRANCH   7   8
ATOM      8  C   UNL     1     146.339  37.785 -10.596  1.00  0.00     0.000 C 
BRANCH   8   9
ATOM      9  C   UNL     1     144.838  37.730 -10.264  1.00  0.00     0.000 C 
BRANCH   9  10
ATOM     10  C   UNL     1     144.560  37.775  -8.753  1.00  0.00     0.006 C 
BRANCH  10  11
ATOM     11  C   UNL     1     145.844  37.945  -7.932  1.00  0.00     0.053 C 
BRANCH  11  12
ATOM     12  C   UNL     1     145.719  37.323  -6.574  1.00  0.00     0.041 C 
ATOM     13  O   UNL     1     146.750  37.080  -5.891  1.00  0.00    -0.550 OA
ATOM     14  O   UNL     1     144.466  37.015  -6.064  1.00  0.00    -0.550 OA
ENDBRANCH  11  12
ENDBRANCH  10  11
ENDBRANCH   9  10
ENDBRANCH   8   9
ENDBRANCH   7   8
ENDBRANCH   6   7
ENDBRANCH   5   6
ENDBRANCH   4   5
ENDBRANCH   3   4
ENDBRANCH   2   3
ENDBRANCH   1   2
BRANCH   1  15
ATOM     15  C   UNL     1     144.046  40.964 -12.386  1.00  0.00     0.000 C 
BRANCH  15  16
ATOM     16  C   UNL     1     143.383  41.632 -13.604  1.00  0.00     0.000 C 
BRANCH  16  17
ATOM     17  C   UNL     1     141.845  41.553 -13.559  1.00  0.00     0.000 C 
BRANCH  17  18
ATOM     18  C   UNL     1     141.155  42.748 -12.877  1.00  0.00    -0.000 C 
BRANCH  18  19
ATOM     19  C   UNL     1     140.118  42.319 -11.825  1.00  0.00    -0.000 C 
BRANCH  19  20
ATOM     20  C   UNL     1     140.764  41.697 -10.578  1.00  0.00    -0.000 C 
BRANCH  20  21
ATOM     21  C   UNL     1     140.243  40.277 -10.291  1.00  0.00    -0.000 C 
BRANCH  21  22
ATOM     22  C   UNL     1     141.385  39.270 -10.075  1.00  0.00    -0.000 C 
BRANCH  22  23
ATOM     23  C   UNL     1     141.213  38.002 -10.930  1.00  0.00    -0.000 C 
BRANCH  23  24
ATOM     24  C   UNL     1     141.546  38.243 -12.411  1.00  0.00    -0.000 C 
BRANCH  24  25
ATOM     25  C   UNL     1     142.421  37.129 -13.004  1.00  0.00    -0.003 C 
ATOM     26  C   UNL     1     143.514  37.707 -13.898  1.00  0.00     0.004 C 
ENDBRANCH  24  25
ENDBRANCH  23  24
ENDBRANCH  22  23
ENDBRANCH  21  22
ENDBRANCH  20  21
ENDBRANCH  19  20
ENDBRANCH  18  19
ENDBRANCH  17  18
ENDBRANCH  16  17
ENDBRANCH  15  16
ENDBRANCH   1  15
TORSDOF 22
ENDMDL
MODEL 6
REMARK VINA RESULT:    -0.844      1.905      5.188
REMARK INTER + INTRA:          -7.068
REMARK INTER:                  -2.233
REMARK INTRA:                  -4.835
REMARK UNBOUND:                -5.138
REMARK SMILES CCCCCCCCCCCCCCCCCCCCCCCC(=O)[O-]
REMARK SMILES IDX 13 1 14 2 15 3 16 4 17 5 18 6 19 7 20 8 21 9 22 10 23 11
REMARK SMILES IDX 24 12 25 13 26 14 12 15 11 16 10 17 9 18 8 19 7 20 6 21 5 22
REMARK SMILES IDX 4 23 3 24 2 25 1 26
REMARK H PARENT
REMARK Flexibility Score: inf
ROOT
ATOM      1  C   UNL     1     144.070  41.290 -10.427  1.00  0.00     0.000 C 
ENDROOT
BRANCH   1   2
ATOM      2  C   UNL     1     144.564  40.957 -11.846  1.00  0.00     0.000 C 
BRANCH   2   3
ATOM      3  C   UNL     1     144.829  39.454 -12.050  1.00  0.00     0.000 C 
BRANCH   3   4
ATOM      4  C   UNL     1     144.432  38.552 -10.865  1.00  0.00     0.000 C 
BRANCH   4   5
ATOM      5  C   UNL     1     144.170  37.075 -11.220  1.00  0.00     0.000 C 
BRANCH   5   6
ATOM      6  C   UNL     1     143.232  36.875 -12.430  1.00  0.00     0.000 C 
BRANCH   6   7
ATOM      7  C   UNL     1     141.795  37.350 -12.148  1.00  0.00     0.000 C 
BRANCH   7   8
ATOM      8  C   UNL     1     141.326  38.424 -13.153  1.00  0.00     0.000 C 
BRANCH   8   9
ATOM      9  C   UNL     1     141.020  39.781 -12.499  1.00  0.00     0.000 C 
BRANCH   9  10
ATOM     10  C   UNL     1     140.951  39.701 -10.965  1.00  0.00     0.006 C 
BRANCH  10  11
ATOM     11  C   UNL     1     139.812  40.553 -10.392  1.00  0.00     0.053 C 
BRANCH  11  12
ATOM     12  C   UNL     1     140.131  42.017 -10.456  1.00  0.00     0.041 C 
ATOM     13  O   UNL     1     139.755  42.704 -11.443  1.00  0.00    -0.550 OA
ATOM     14  O   UNL     1     140.839  42.619  -9.426  1.00  0.00    -0.550 OA
ENDBRANCH  11  12
ENDBRANCH  10  11
ENDBRANCH   9  10
ENDBRANCH   8   9
ENDBRANCH   7   8
ENDBRANCH   6   7
ENDBRANCH   5   6
ENDBRANCH   4   5
ENDBRANCH   3   4
ENDBRANCH   2   3
ENDBRANCH   1   2
BRANCH   1  15
ATOM     15  C   UNL     1     144.997  42.272  -9.692  1.00  0.00     0.000 C 
BRANCH  15  16
ATOM     16  C   UNL     1     146.480  42.087 -10.064  1.00  0.00     0.000 C 
BRANCH  16  17
ATOM     17  C   UNL     1     147.205  41.097  -9.132  1.00  0.00     0.000 C 
BRANCH  17  18
ATOM     18  C   UNL     1     147.748  39.835  -9.827  1.00  0.00    -0.000 C 
BRANCH  18  19
ATOM     19  C   UNL     1     147.609  38.570  -8.962  1.00  0.00    -0.000 C 
BRANCH  19  20
ATOM     20  C   UNL     1     146.867  38.836  -7.643  1.00  0.00    -0.000 C 
BRANCH  20  21
ATOM     21  C   UNL     1     146.169  37.578  -7.096  1.00  0.00    -0.000 C 
BRANCH  21  22
ATOM     22  C   UNL     1     144.636  37.689  -7.157  1.00  0.00    -0.000 C 
BRANCH  22  23
ATOM     23  C   UNL     1     144.162  39.149  -7.263  1.00  0.00    -0.000 C 
BRANCH  23  24
ATOM     24  C   UNL     1     142.688  39.259  -7.684  1.00  0.00    -0.000 C 
BRANCH  24  25
ATOM     25  C   UNL     1     141.953  40.394  -6.954  1.00  0.00    -0.003 C 
ATOM     26  C   UNL     1     142.887  41.569  -6.685  1.00  0.00     0.004 C 
ENDBRANCH  24  25
ENDBRANCH  23  24
ENDBRANCH  22  23
ENDBRANCH  21  22
ENDBRANCH  20  21
ENDBRANCH  19  20
ENDBRANCH  18  19
ENDBRANCH  17  18
ENDBRANCH  16  17
ENDBRANCH  15  16
ENDBRANCH   1  15
TORSDOF 22
ENDMDL
MODEL 7
REMARK VINA RESULT:    -0.834      3.234      7.033
REMARK INTER + INTRA:          -7.045
REMARK INTER:                  -2.167
REMARK INTRA:                  -4.878
REMARK UNBOUND:                -5.138
REMARK SMILES CCCCCCCCCCCCCCCCCCCCCCCC(=O)[O-]
REMARK SMILES IDX 13 1 14 2 15 3 16 4 17 5 18 6 19 7 20 8 21 9 22 10 23 11
REMARK SMILES IDX 24 12 25 13 26 14 12 15 11 16 10 17 9 18 8 19 7 20 6 21 5 22
REMARK SMILES IDX 4 23 3 24 2 25 1 26
REMARK H PARENT
REMARK Flexibility Score: inf
ROOT
ATOM      1  C   UNL     1     141.697  40.545  -9.664  1.00  0.00     0.000 C 
ENDROOT
BRANCH   1   2
ATOM      2  C   UNL     1     141.983  39.033  -9.608  1.00  0.00     0.000 C 
BRANCH   2   3
ATOM      3  C   UNL     1     140.753  38.178  -9.963  1.00  0.00     0.000 C 
BRANCH   3   4
ATOM      4  C   UNL     1     141.025  37.006 -10.925  1.00  0.00     0.000 C 
BRANCH   4   5
ATOM      5  C   UNL     1     141.945  37.333 -12.118  1.00  0.00     0.000 C 
BRANCH   5   6
ATOM      6  C   UNL     1     141.374  38.398 -13.080  1.00  0.00     0.000 C 
BRANCH   6   7
ATOM      7  C   UNL     1     142.397  39.500 -13.415  1.00  0.00     0.000 C 
BRANCH   7   8
ATOM      8  C   UNL     1     143.826  39.126 -12.967  1.00  0.00     0.000 C 
BRANCH   8   9
ATOM      9  C   UNL     1     144.612  40.311 -12.382  1.00  0.00     0.000 C 
BRANCH   9  10
ATOM     10  C   UNL     1     145.259  39.986 -11.025  1.00  0.00     0.006 C 
BRANCH  10  11
ATOM     11  C   UNL     1     145.517  38.484 -10.853  1.00  0.00     0.053 C 
BRANCH  11  12
ATOM     12  C   UNL     1     146.984  38.175 -10.822  1.00  0.00     0.041 C 
ATOM     13  O   UNL     1     147.829  39.095 -10.995  1.00  0.00    -0.550 OA
ATOM     14  O   UNL     1     147.416  36.876 -10.600  1.00  0.00    -0.550 OA
ENDBRANCH  11  12
ENDBRANCH  10  11
ENDBRANCH   9  10
ENDBRANCH   8   9
ENDBRANCH   7   8
ENDBRANCH   6   7
ENDBRANCH   5   6
ENDBRANCH   4   5
ENDBRANCH   3   4
ENDBRANCH   2   3
ENDBRANCH   1   2
BRANCH   1  15
ATOM     15  C   UNL     1     140.392  40.872 -10.410  1.00  0.00     0.000 C 
BRANCH  15  16
ATOM     16  C   UNL     1     140.564  41.994 -11.451  1.00  0.00     0.000 C 
BRANCH  16  17
ATOM     17  C   UNL     1     141.961  42.642 -11.399  1.00  0.00     0.000 C 
BRANCH  17  18
ATOM     18  C   UNL     1     141.993  44.065 -10.812  1.00  0.00    -0.000 C 
BRANCH  18  19
ATOM     19  C   UNL     1     143.148  44.276  -9.818  1.00  0.00    -0.000 C 
BRANCH  19  20
ATOM     20  C   UNL     1     144.498  43.793 -10.371  1.00  0.00    -0.000 C 
BRANCH  20  21
ATOM     21  C   UNL     1     145.393  43.176  -9.282  1.00  0.00    -0.000 C 
BRANCH  21  22
ATOM     22  C   UNL     1     144.585  42.377  -8.246  1.00  0.00    -0.000 C 
BRANCH  22  23
ATOM     23  C   UNL     1     145.482  41.746  -7.167  1.00  0.00    -0.000 C 
BRANCH  23  24
ATOM     24  C   UNL     1     145.282  40.226  -7.051  1.00  0.00    -0.000 C 
BRANCH  24  25
ATOM     25  C   UNL     1     146.534  39.437  -7.461  1.00  0.00    -0.003 C 
ATOM     26  C   UNL     1     147.734  40.363  -7.635  1.00  0.00     0.004 C 
ENDBRANCH  24  25
ENDBRANCH  23  24
ENDBRANCH  22  23
ENDBRANCH  21  22
ENDBRANCH  20  21
ENDBRANCH  19  20
ENDBRANCH  18  19
ENDBRANCH  17  18
ENDBRANCH  16  17
ENDBRANCH  15  16
ENDBRANCH   1  15
TORSDOF 22
ENDMDL
MODEL 8
REMARK VINA RESULT:    -0.826      2.279      5.142
REMARK INTER + INTRA:          -7.027
REMARK INTER:                  -2.325
REMARK INTRA:                  -4.701
REMARK UNBOUND:                -5.138
REMARK SMILES CCCCCCCCCCCCCCCCCCCCCCCC(=O)[O-]
REMARK SMILES IDX 13 1 14 2 15 3 16 4 17 5 18 6 19 7 20 8 21 9 22 10 23 11
REMARK SMILES IDX 24 12 25 13 26 14 12 15 11 16 10 17 9 18 8 19 7 20 6 21 5 22
REMARK SMILES IDX 4 23 3 24 2 25 1 26
REMARK H PARENT
REMARK Flexibility Score: inf
ROOT
ATOM      1  C   UNL     1     143.755  39.277  -8.936  1.00  0.00     0.000 C 
ENDROOT
BRANCH   1   2
ATOM      2  C   UNL     1     143.854  37.802  -8.506  1.00  0.00     0.000 C 
BRANCH   2   3
ATOM      3  C   UNL     1     142.951  36.875  -9.341  1.00  0.00     0.000 C 
BRANCH   3   4
ATOM      4  C   UNL     1     141.920  37.594 -10.233  1.00  0.00     0.000 C 
BRANCH   4   5
ATOM      5  C   UNL     1     141.614  36.902 -11.575  1.00  0.00     0.000 C 
BRANCH   5   6
ATOM      6  C   UNL     1     142.778  36.948 -12.588  1.00  0.00     0.000 C 
BRANCH   6   7
ATOM      7  C   UNL     1     142.380  37.617 -13.916  1.00  0.00     0.000 C 
BRANCH   7   8
ATOM      8  C   UNL     1     141.342  38.742 -13.715  1.00  0.00     0.000 C 
BRANCH   8   9
ATOM      9  C   UNL     1     141.973  40.134 -13.551  1.00  0.00     0.000 C 
BRANCH   9  10
ATOM     10  C   UNL     1     141.131  41.071 -12.668  1.00  0.00     0.006 C 
BRANCH  10  11
ATOM     11  C   UNL     1     141.664  41.147 -11.233  1.00  0.00     0.053 C 
BRANCH  11  12
ATOM     12  C   UNL     1     140.578  41.490 -10.257  1.00  0.00     0.041 C 
ATOM     13  O   UNL     1     140.054  42.636 -10.271  1.00  0.00    -0.550 OA
ATOM     14  O   UNL     1     140.147  40.546  -9.338  1.00  0.00    -0.550 OA
ENDBRANCH  11  12
ENDBRANCH  10  11
ENDBRANCH   9  10
ENDBRANCH   8   9
ENDBRANCH   7   8
ENDBRANCH   6   7
ENDBRANCH   5   6
ENDBRANCH   4   5
ENDBRANCH   3   4
ENDBRANCH   2   3
ENDBRANCH   1   2
BRANCH   1  15
ATOM     15  C   UNL     1     144.750  40.179  -8.186  1.00  0.00     0.000 C 
BRANCH  15  16
ATOM     16  C   UNL     1     146.042  39.442  -7.788  1.00  0.00     0.000 C 
BRANCH  16  17
ATOM     17  C   UNL     1     147.135  39.535  -8.870  1.00  0.00     0.000 C 
BRANCH  17  18
ATOM     18  C   UNL     1     147.871  38.215  -9.161  1.00  0.00    -0.000 C 
BRANCH  18  19
ATOM     19  C   UNL     1     147.818  37.815 -10.645  1.00  0.00    -0.000 C 
BRANCH  19  20
ATOM     20  C   UNL     1     146.402  37.435 -11.104  1.00  0.00    -0.000 C 
BRANCH  20  21
ATOM     21  C   UNL     1     146.272  37.389 -12.637  1.00  0.00    -0.000 C 
BRANCH  21  22
ATOM     22  C   UNL     1     146.016  38.779 -13.243  1.00  0.00    -0.000 C 
BRANCH  22  23
ATOM     23  C   UNL     1     145.292  39.718 -12.261  1.00  0.00    -0.000 C 
BRANCH  23  24
ATOM     24  C   UNL     1     145.946  41.107 -12.185  1.00  0.00    -0.000 C 
BRANCH  24  25
ATOM     25  C   UNL     1     145.151  42.082 -11.304  1.00  0.00    -0.003 C 
ATOM     26  C   UNL     1     146.080  42.883 -10.396  1.00  0.00     0.004 C 
ENDBRANCH  24  25
ENDBRANCH  23  24
ENDBRANCH  22  23
ENDBRANCH  21  22
ENDBRANCH  20  21
ENDBRANCH  19  20
ENDBRANCH  18  19
ENDBRANCH  17  18
ENDBRANCH  16  17
ENDBRANCH  15  16
ENDBRANCH   1  15
TORSDOF 22
ENDMDL
MODEL 9
REMARK VINA RESULT:    -0.823      2.454      5.759
REMARK INTER + INTRA:          -7.019
REMARK INTER:                  -2.250
REMARK INTRA:                  -4.769
REMARK UNBOUND:                -5.138
REMARK SMILES CCCCCCCCCCCCCCCCCCCCCCCC(=O)[O-]
REMARK SMILES IDX 13 1 14 2 15 3 16 4 17 5 18 6 19 7 20 8 21 9 22 10 23 11
REMARK SMILES IDX 24 12 25 13 26 14 12 15 11 16 10 17 9 18 8 19 7 20 6 21 5 22
REMARK SMILES IDX 4 23 3 24 2 25 1 26
REMARK H PARENT
REMARK Flexibility Score: inf
ROOT
ATOM      1  C   UNL     1     145.279  40.504 -10.674  1.00  0.00     0.000 C 
ENDROOT
BRANCH   1   2
ATOM      2  C   UNL     1     145.650  39.369 -11.645  1.00  0.00     0.000 C 
BRANCH   2   3
ATOM      3  C   UNL     1     144.969  38.034 -11.292  1.00  0.00     0.000 C 
BRANCH   3   4
ATOM      4  C   UNL     1     143.803  38.138 -10.290  1.00  0.00     0.000 C 
BRANCH   4   5
ATOM      5  C   UNL     1     142.691  37.084 -10.461  1.00  0.00     0.000 C 
BRANCH   5   6
ATOM      6  C   UNL     1     142.242  36.875 -11.924  1.00  0.00     0.000 C 
BRANCH   6   7
ATOM      7  C   UNL     1     141.373  38.033 -12.446  1.00  0.00     0.000 C 
BRANCH   7   8
ATOM      8  C   UNL     1     141.782  38.476 -13.867  1.00  0.00     0.000 C 
BRANCH   8   9
ATOM      9  C   UNL     1     142.673  39.729 -13.885  1.00  0.00     0.000 C 
BRANCH   9  10
ATOM     10  C   UNL     1     142.347  40.708 -12.744  1.00  0.00     0.006 C 
BRANCH  10  11
ATOM     11  C   UNL     1     141.584  41.941 -13.240  1.00  0.00     0.053 C 
BRANCH  11  12
ATOM     12  C   UNL     1     140.210  42.018 -12.644  1.00  0.00     0.041 C 
ATOM     13  O   UNL     1     139.450  41.013 -12.672  1.00  0.00    -0.550 OA
ATOM     14  O   UNL     1     139.773  43.196 -12.056  1.00  0.00    -0.550 OA
ENDBRANCH  11  12
ENDBRANCH  10  11
ENDBRANCH   9  10
ENDBRANCH   8   9
ENDBRANCH   7   8
ENDBRANCH   6   7
ENDBRANCH   5   6
ENDBRANCH   4   5
ENDBRANCH   3   4
ENDBRANCH   2   3
ENDBRANCH   1   2
BRANCH   1  15
ATOM     15  C   UNL     1     146.504  41.313 -10.214  1.00  0.00     0.000 C 
BRANCH  15  16
ATOM     16  C   UNL     1     147.737  40.430  -9.948  1.00  0.00     0.000 C 
BRANCH  16  17
ATOM     17  C   UNL     1     147.755  39.852  -8.520  1.00  0.00     0.000 C 
BRANCH  17  18
ATOM     18  C   UNL     1     147.335  38.374  -8.415  1.00  0.00    -0.000 C 
BRANCH  18  19
ATOM     19  C   UNL     1     146.224  38.140  -7.377  1.00  0.00    -0.000 C 
BRANCH  19  20
ATOM     20  C   UNL     1     145.736  39.446  -6.731  1.00  0.00    -0.000 C 
BRANCH  20  21
ATOM     21  C   UNL     1     144.256  39.738  -7.039  1.00  0.00    -0.000 C 
BRANCH  21  22
ATOM     22  C   UNL     1     144.013  41.218  -7.378  1.00  0.00    -0.000 C 
BRANCH  22  23
ATOM     23  C   UNL     1     142.724  41.759  -6.735  1.00  0.00    -0.000 C 
BRANCH  23  24
ATOM     24  C   UNL     1     141.459  41.104  -7.313  1.00  0.00    -0.000 C 
BRANCH  24  25
ATOM     25  C   UNL     1     141.358  41.268  -8.837  1.00  0.00    -0.003 C 
ATOM     26  C   UNL     1     140.666  40.066  -9.473  1.00  0.00     0.004 C 
ENDBRANCH  24  25
ENDBRANCH  23  24
ENDBRANCH  22  23
ENDBRANCH  21  22
ENDBRANCH  20  21
ENDBRANCH  19  20
ENDBRANCH  18  19
ENDBRANCH  17  18
ENDBRANCH  16  17
ENDBRANCH  15  16
ENDBRANCH   1  15
TORSDOF 22
ENDMDL
