MODEL 1
REMARK VINA RESULT:    -4.619      0.000      0.000
REMARK INTER + INTRA:          -5.562
REMARK INTER:                  -5.429
REMARK INTRA:                  -0.134
REMARK UNBOUND:                -0.134
REMARK SMILES O=C([O-])C=Cc1ccc(O)c(O)c1
REMARK SMILES IDX 6 1 13 2 7 3 11 4 8 5 9 6 5 7 4 8 2 9 1 10 3 11 12 12 10 14
REMARK H PARENT 12 13 10 15
REMARK Flexibility Score: inf
ROOT
ATOM      1  C   UNL     1     -32.956 -56.770  67.710  1.00  0.00    -0.022 A 
ATOM      2  C   UNL     1     -33.361 -57.515  68.830  1.00  0.00     0.058 A 
ATOM      3  C   UNL     1     -32.724 -57.443  66.494  1.00  0.00     0.012 A 
ATOM      4  C   UNL     1     -33.557 -58.898  68.740  1.00  0.00     0.157 A 
ATOM      5  C   UNL     1     -32.918 -58.823  66.402  1.00  0.00     0.051 A 
ATOM      6  C   UNL     1     -33.337 -59.556  67.520  1.00  0.00     0.157 A 
ENDROOT
BRANCH   1   7
ATOM      7  C   UNL     1     -32.753 -55.307  67.865  1.00  0.00     0.010 C 
ATOM      8  C   UNL     1     -31.671 -54.654  67.417  1.00  0.00     0.025 C 
BRANCH   8   9
ATOM      9  C   UNL     1     -31.509 -53.199  67.579  1.00  0.00     0.064 C 
ATOM     10  O   UNL     1     -31.011 -52.710  68.628  1.00  0.00    -0.545 OA
ATOM     11  O   UNL     1     -31.911 -52.351  66.556  1.00  0.00    -0.545 OA
ENDBRANCH   8   9
ENDBRANCH   1   7
BRANCH   4  12
ATOM     12  O   UNL     1     -33.969 -59.598  69.873  1.00  0.00    -0.504 OA
ATOM     13  H   UNL     1     -33.335 -59.813  70.633  1.00  0.00     0.293 HD
ENDBRANCH   4  12
BRANCH   6  14
ATOM     14  O   UNL     1     -33.532 -60.933  67.422  1.00  0.00    -0.504 OA
ATOM     15  H   UNL     1     -34.267 -61.326  66.846  1.00  0.00     0.293 HD
ENDBRANCH   6  14
TORSDOF 4
ENDMDL
MODEL 2
REMARK VINA RESULT:    -4.595      0.822      1.890
REMARK INTER + INTRA:          -5.535
REMARK INTER:                  -5.406
REMARK INTRA:                  -0.129
REMARK UNBOUND:                -0.134
REMARK SMILES O=C([O-])C=Cc1ccc(O)c(O)c1
REMARK SMILES IDX 6 1 13 2 7 3 11 4 8 5 9 6 5 7 4 8 2 9 1 10 3 11 12 12 10 14
REMARK H PARENT 12 13 10 15
REMARK Flexibility Score: inf
ROOT
ATOM      1  C   UNL     1     -32.970 -56.786  67.750  1.00  0.00    -0.022 A 
ATOM      2  C   UNL     1     -32.426 -57.484  66.658  1.00  0.00     0.058 A 
ATOM      3  C   UNL     1     -33.717 -57.499  68.708  1.00  0.00     0.012 A 
ATOM      4  C   UNL     1     -32.598 -58.867  66.532  1.00  0.00     0.157 A 
ATOM      5  C   UNL     1     -33.890 -58.880  68.585  1.00  0.00     0.051 A 
ATOM      6  C   UNL     1     -33.331 -59.570  67.502  1.00  0.00     0.157 A 
ENDROOT
BRANCH   1   7
ATOM      7  C   UNL     1     -32.766 -55.317  67.827  1.00  0.00     0.010 C 
ATOM      8  C   UNL     1     -31.634 -54.703  67.456  1.00  0.00     0.025 C 
BRANCH   8   9
ATOM      9  C   UNL     1     -31.472 -53.241  67.535  1.00  0.00     0.064 C 
ATOM     10  O   UNL     1     -31.015 -52.690  68.573  1.00  0.00    -0.545 OA
ATOM     11  O   UNL     1     -31.827 -52.456  66.447  1.00  0.00    -0.545 OA
ENDBRANCH   8   9
ENDBRANCH   1   7
BRANCH   4  12
ATOM     12  O   UNL     1     -32.034 -59.523  65.440  1.00  0.00    -0.504 OA
ATOM     13  H   UNL     1     -31.631 -60.449  65.517  1.00  0.00     0.293 HD
ENDBRANCH   4  12
BRANCH   6  14
ATOM     14  O   UNL     1     -33.505 -60.948  67.384  1.00  0.00    -0.504 OA
ATOM     15  H   UNL     1     -33.270 -61.580  68.141  1.00  0.00     0.293 HD
ENDBRANCH   6  14
TORSDOF 4
ENDMDL
MODEL 3
REMARK VINA RESULT:    -4.573     17.442     19.472
REMARK INTER + INTRA:          -5.509
REMARK INTER:                  -5.374
REMARK INTRA:                  -0.135
REMARK UNBOUND:                -0.134
REMARK SMILES O=C([O-])C=Cc1ccc(O)c(O)c1
REMARK SMILES IDX 6 1 13 2 7 3 11 4 8 5 9 6 5 7 4 8 2 9 1 10 3 11 12 12 10 14
REMARK H PARENT 12 13 10 15
REMARK Flexibility Score: inf
ROOT
ATOM      1  C   UNL     1     -22.217 -68.751  57.072  1.00  0.00    -0.022 A 
ATOM      2  C   UNL     1     -23.535 -68.318  56.848  1.00  0.00     0.058 A 
ATOM      3  C   UNL     1     -21.838 -69.125  58.377  1.00  0.00     0.012 A 
ATOM      4  C   UNL     1     -24.466 -68.281  57.891  1.00  0.00     0.157 A 
ATOM      5  C   UNL     1     -22.766 -69.088  59.420  1.00  0.00     0.051 A 
ATOM      6  C   UNL     1     -24.082 -68.670  59.184  1.00  0.00     0.157 A 
ENDROOT
BRANCH   1   7
ATOM      7  C   UNL     1     -21.268 -68.760  55.931  1.00  0.00     0.010 C 
ATOM      8  C   UNL     1     -21.586 -68.349  54.695  1.00  0.00     0.025 C 
BRANCH   8   9
ATOM      9  C   UNL     1     -20.613 -68.361  53.589  1.00  0.00     0.064 C 
ATOM     10  O   UNL     1     -19.610 -69.124  53.610  1.00  0.00    -0.545 OA
ATOM     11  O   UNL     1     -20.805 -67.517  52.504  1.00  0.00    -0.545 OA
ENDBRANCH   8   9
ENDBRANCH   1   7
BRANCH   4  12
ATOM     12  O   UNL     1     -25.766 -67.854  57.624  1.00  0.00    -0.504 OA
ATOM     13  H   UNL     1     -25.964 -67.106  56.971  1.00  0.00     0.293 HD
ENDBRANCH   4  12
BRANCH   6  14
ATOM     14  O   UNL     1     -25.005 -68.638  60.228  1.00  0.00    -0.504 OA
ATOM     15  H   UNL     1     -25.971 -68.913  60.093  1.00  0.00     0.293 HD
ENDBRANCH   6  14
TORSDOF 4
ENDMDL
MODEL 4
REMARK VINA RESULT:    -4.573     16.400     17.747
REMARK INTER + INTRA:          -5.509
REMARK INTER:                  -5.378
REMARK INTRA:                  -0.131
REMARK UNBOUND:                -0.134
REMARK SMILES O=C([O-])C=Cc1ccc(O)c(O)c1
REMARK SMILES IDX 6 1 13 2 7 3 11 4 8 5 9 6 5 7 4 8 2 9 1 10 3 11 12 12 10 14
REMARK H PARENT 12 13 10 15
REMARK Flexibility Score: inf
ROOT
ATOM      1  C   UNL     1     -28.377 -52.345  51.505  1.00  0.00    -0.022 A 
ATOM      2  C   UNL     1     -29.711 -52.757  51.659  1.00  0.00     0.058 A 
ATOM      3  C   UNL     1     -28.117 -51.017  51.114  1.00  0.00     0.012 A 
ATOM      4  C   UNL     1     -30.767 -51.863  51.454  1.00  0.00     0.157 A 
ATOM      5  C   UNL     1     -29.170 -50.122  50.908  1.00  0.00     0.051 A 
ATOM      6  C   UNL     1     -30.496 -50.537  51.079  1.00  0.00     0.157 A 
ENDROOT
BRANCH   1   7
ATOM      7  C   UNL     1     -27.296 -53.339  51.724  1.00  0.00     0.010 C 
ATOM      8  C   UNL     1     -27.441 -54.444  52.470  1.00  0.00     0.025 C 
BRANCH   8   9
ATOM      9  C   UNL     1     -26.350 -55.415  52.655  1.00  0.00     0.064 C 
ATOM     10  O   UNL     1     -25.871 -55.648  53.798  1.00  0.00    -0.545 OA
ATOM     11  O   UNL     1     -25.840 -56.087  51.553  1.00  0.00    -0.545 OA
ENDBRANCH   8   9
ENDBRANCH   1   7
BRANCH   4  12
ATOM     12  O   UNL     1     -32.076 -52.309  51.627  1.00  0.00    -0.504 OA
ATOM     13  H   UNL     1     -32.785 -52.190  50.913  1.00  0.00     0.293 HD
ENDBRANCH   4  12
BRANCH   6  14
ATOM     14  O   UNL     1     -31.543 -49.639  50.875  1.00  0.00    -0.504 OA
ATOM     15  H   UNL     1     -31.375 -48.687  50.573  1.00  0.00     0.293 HD
ENDBRANCH   6  14
TORSDOF 4
ENDMDL
MODEL 5
REMARK VINA RESULT:    -4.353     12.542     14.466
REMARK INTER + INTRA:          -5.251
REMARK INTER:                  -5.121
REMARK INTRA:                  -0.130
REMARK UNBOUND:                -0.134
REMARK SMILES O=C([O-])C=Cc1ccc(O)c(O)c1
REMARK SMILES IDX 6 1 13 2 7 3 11 4 8 5 9 6 5 7 4 8 2 9 1 10 3 11 12 12 10 14
REMARK H PARENT 12 13 10 15
REMARK Flexibility Score: inf
ROOT
ATOM      1  C   UNL     1     -28.598 -54.327  54.910  1.00  0.00    -0.022 A 
ATOM      2  C   UNL     1     -27.686 -53.722  55.791  1.00  0.00     0.058 A 
ATOM      3  C   UNL     1     -28.532 -54.008  53.539  1.00  0.00     0.012 A 
ATOM      4  C   UNL     1     -26.711 -52.836  55.319  1.00  0.00     0.157 A 
ATOM      5  C   UNL     1     -27.560 -53.124  53.066  1.00  0.00     0.051 A 
ATOM      6  C   UNL     1     -26.645 -52.537  53.949  1.00  0.00     0.157 A 
ENDROOT
BRANCH   1   7
ATOM      7  C   UNL     1     -29.618 -55.250  55.467  1.00  0.00     0.010 C 
ATOM      8  C   UNL     1     -29.378 -56.110  56.467  1.00  0.00     0.025 C 
BRANCH   8   9
ATOM      9  C   UNL     1     -30.419 -57.003  57.003  1.00  0.00     0.064 C 
ATOM     10  O   UNL     1     -31.159 -57.677  56.236  1.00  0.00    -0.545 OA
ATOM     11  O   UNL     1     -30.588 -57.107  58.377  1.00  0.00    -0.545 OA
ENDBRANCH   8   9
ENDBRANCH   1   7
BRANCH   4  12
ATOM     12  O   UNL     1     -25.819 -52.265  56.225  1.00  0.00    -0.504 OA
ATOM     13  H   UNL     1     -25.580 -51.281  56.197  1.00  0.00     0.293 HD
ENDBRANCH   4  12
BRANCH   6  14
ATOM     14  O   UNL     1     -25.675 -51.657  53.471  1.00  0.00    -0.504 OA
ATOM     15  H   UNL     1     -25.729 -51.261  52.540  1.00  0.00     0.293 HD
ENDBRANCH   6  14
TORSDOF 4
ENDMDL
MODEL 6
REMARK VINA RESULT:    -4.290     16.764     18.145
REMARK INTER + INTRA:          -5.175
REMARK INTER:                  -5.035
REMARK INTRA:                  -0.141
REMARK UNBOUND:                -0.134
REMARK SMILES O=C([O-])C=Cc1ccc(O)c(O)c1
REMARK SMILES IDX 6 1 13 2 7 3 11 4 8 5 9 6 5 7 4 8 2 9 1 10 3 11 12 12 10 14
REMARK H PARENT 12 13 10 15
REMARK Flexibility Score: inf
ROOT
ATOM      1  C   UNL     1     -22.545 -67.457  58.276  1.00  0.00    -0.022 A 
ATOM      2  C   UNL     1     -21.398 -66.646  58.313  1.00  0.00     0.058 A 
ATOM      3  C   UNL     1     -22.511 -68.711  58.918  1.00  0.00     0.012 A 
ATOM      4  C   UNL     1     -20.248 -67.059  58.995  1.00  0.00     0.157 A 
ATOM      5  C   UNL     1     -21.364 -69.125  59.600  1.00  0.00     0.051 A 
ATOM      6  C   UNL     1     -20.231 -68.304  59.645  1.00  0.00     0.157 A 
ENDROOT
BRANCH   1   7
ATOM      7  C   UNL     1     -23.733 -66.974  57.528  1.00  0.00     0.010 C 
ATOM      8  C   UNL     1     -24.871 -67.673  57.408  1.00  0.00     0.025 C 
BRANCH   8   9
ATOM      9  C   UNL     1     -26.035 -67.156  56.668  1.00  0.00     0.064 C 
ATOM     10  O   UNL     1     -25.893 -66.346  55.712  1.00  0.00    -0.545 OA
ATOM     11  O   UNL     1     -27.310 -67.570  57.028  1.00  0.00    -0.545 OA
ENDBRANCH   8   9
ENDBRANCH   1   7
BRANCH   4  12
ATOM     12  O   UNL     1     -19.135 -66.220  59.016  1.00  0.00    -0.504 OA
ATOM     13  H   UNL     1     -18.261 -66.496  59.446  1.00  0.00     0.293 HD
ENDBRANCH   4  12
BRANCH   6  14
ATOM     14  O   UNL     1     -19.089 -68.720  60.328  1.00  0.00    -0.504 OA
ATOM     15  H   UNL     1     -18.162 -68.437  60.035  1.00  0.00     0.293 HD
ENDBRANCH   6  14
TORSDOF 4
ENDMDL
MODEL 7
REMARK VINA RESULT:    -4.288     13.250     15.382
REMARK INTER + INTRA:          -5.174
REMARK INTER:                  -5.038
REMARK INTRA:                  -0.136
REMARK UNBOUND:                -0.134
REMARK SMILES O=C([O-])C=Cc1ccc(O)c(O)c1
REMARK SMILES IDX 6 1 13 2 7 3 11 4 8 5 9 6 5 7 4 8 2 9 1 10 3 11 12 12 10 14
REMARK H PARENT 12 13 10 15
REMARK Flexibility Score: inf
ROOT
ATOM      1  C   UNL     1     -27.346 -54.230  54.904  1.00  0.00    -0.022 A 
ATOM      2  C   UNL     1     -27.181 -53.376  53.801  1.00  0.00     0.058 A 
ATOM      3  C   UNL     1     -26.833 -53.832  56.155  1.00  0.00     0.012 A 
ATOM      4  C   UNL     1     -26.543 -52.138  53.940  1.00  0.00     0.157 A 
ATOM      5  C   UNL     1     -26.195 -52.597  56.296  1.00  0.00     0.051 A 
ATOM      6  C   UNL     1     -26.049 -51.745  55.194  1.00  0.00     0.157 A 
ENDROOT
BRANCH   1   7
ATOM      7  C   UNL     1     -28.020 -55.536  54.697  1.00  0.00     0.010 C 
ATOM      8  C   UNL     1     -27.848 -56.598  55.497  1.00  0.00     0.025 C 
BRANCH   8   9
ATOM      9  C   UNL     1     -28.544 -57.876  55.267  1.00  0.00     0.064 C 
ATOM     10  O   UNL     1     -28.125 -58.703  54.413  1.00  0.00    -0.545 OA
ATOM     11  O   UNL     1     -29.681 -58.175  56.005  1.00  0.00    -0.545 OA
ENDBRANCH   8   9
ENDBRANCH   1   7
BRANCH   4  12
ATOM     12  O   UNL     1     -26.409 -51.316  52.823  1.00  0.00    -0.504 OA
ATOM     13  H   UNL     1     -26.685 -51.617  51.896  1.00  0.00     0.293 HD
ENDBRANCH   4  12
BRANCH   6  14
ATOM     14  O   UNL     1     -25.414 -50.512  55.341  1.00  0.00    -0.504 OA
ATOM     15  H   UNL     1     -24.475 -50.440  55.715  1.00  0.00     0.293 HD
ENDBRANCH   6  14
TORSDOF 4
ENDMDL
MODEL 8
REMARK VINA RESULT:    -4.208     13.970     15.928
REMARK INTER + INTRA:          -5.079
REMARK INTER:                  -4.950
REMARK INTRA:                  -0.129
REMARK UNBOUND:                -0.134
REMARK SMILES O=C([O-])C=Cc1ccc(O)c(O)c1
REMARK SMILES IDX 6 1 13 2 7 3 11 4 8 5 9 6 5 7 4 8 2 9 1 10 3 11 12 12 10 14
REMARK H PARENT 12 13 10 15
REMARK Flexibility Score: inf
ROOT
ATOM      1  C   UNL     1     -28.072 -54.022  53.481  1.00  0.00    -0.022 A 
ATOM      2  C   UNL     1     -26.990 -53.280  53.985  1.00  0.00     0.058 A 
ATOM      3  C   UNL     1     -28.815 -53.495  52.406  1.00  0.00     0.012 A 
ATOM      4  C   UNL     1     -26.636 -52.051  53.418  1.00  0.00     0.157 A 
ATOM      5  C   UNL     1     -28.463 -52.269  51.838  1.00  0.00     0.051 A 
ATOM      6  C   UNL     1     -27.374 -51.543  52.337  1.00  0.00     0.157 A 
ENDROOT
BRANCH   1   7
ATOM      7  C   UNL     1     -28.410 -55.315  54.128  1.00  0.00     0.010 C 
ATOM      8  C   UNL     1     -28.568 -55.466  55.451  1.00  0.00     0.025 C 
BRANCH   8   9
ATOM      9  C   UNL     1     -28.916 -56.762  56.058  1.00  0.00     0.064 C 
ATOM     10  O   UNL     1     -28.398 -57.835  55.645  1.00  0.00    -0.545 OA
ATOM     11  O   UNL     1     -29.828 -56.803  57.103  1.00  0.00    -0.545 OA
ENDBRANCH   8   9
ENDBRANCH   1   7
BRANCH   4  12
ATOM     12  O   UNL     1     -25.550 -51.352  53.941  1.00  0.00    -0.504 OA
ATOM     13  H   UNL     1     -25.013 -51.700  54.726  1.00  0.00     0.293 HD
ENDBRANCH   4  12
BRANCH   6  14
ATOM     14  O   UNL     1     -27.026 -50.320  51.765  1.00  0.00    -0.504 OA
ATOM     15  H   UNL     1     -26.447 -50.267  50.936  1.00  0.00     0.293 HD
ENDBRANCH   6  14
TORSDOF 4
ENDMDL
MODEL 9
REMARK VINA RESULT:    -4.108      6.466      9.453
REMARK INTER + INTRA:          -4.962
REMARK INTER:                  -4.829
REMARK INTRA:                  -0.133
REMARK UNBOUND:                -0.134
REMARK SMILES O=C([O-])C=Cc1ccc(O)c(O)c1
REMARK SMILES IDX 6 1 13 2 7 3 11 4 8 5 9 6 5 7 4 8 2 9 1 10 3 11 12 12 10 14
REMARK H PARENT 12 13 10 15
REMARK Flexibility Score: inf
ROOT
ATOM      1  C   UNL     1     -30.861 -61.550  61.668  1.00  0.00    -0.022 A 
ATOM      2  C   UNL     1     -31.795 -61.641  62.713  1.00  0.00     0.058 A 
ATOM      3  C   UNL     1     -29.746 -60.703  61.825  1.00  0.00     0.012 A 
ATOM      4  C   UNL     1     -31.615 -60.925  63.902  1.00  0.00     0.157 A 
ATOM      5  C   UNL     1     -29.564 -59.987  63.010  1.00  0.00     0.051 A 
ATOM      6  C   UNL     1     -30.492 -60.096  64.054  1.00  0.00     0.157 A 
ENDROOT
BRANCH   1   7
ATOM      7  C   UNL     1     -31.109 -62.323  60.425  1.00  0.00     0.010 C 
ATOM      8  C   UNL     1     -32.066 -63.253  60.305  1.00  0.00     0.025 C 
BRANCH   8   9
ATOM      9  C   UNL     1     -32.291 -63.992  59.051  1.00  0.00     0.064 C 
ATOM     10  O   UNL     1     -32.632 -63.395  57.994  1.00  0.00    -0.545 OA
ATOM     11  O   UNL     1     -32.123 -65.370  59.031  1.00  0.00    -0.545 OA
ENDBRANCH   8   9
ENDBRANCH   1   7
BRANCH   4  12
ATOM     12  O   UNL     1     -32.560 -61.052  64.919  1.00  0.00    -0.504 OA
ATOM     13  H   UNL     1     -32.808 -60.277  65.522  1.00  0.00     0.293 HD
ENDBRANCH   4  12
BRANCH   6  14
ATOM     14  O   UNL     1     -30.304 -59.381  65.236  1.00  0.00    -0.504 OA
ATOM     15  H   UNL     1     -29.393 -59.308  65.673  1.00  0.00     0.293 HD
ENDBRANCH   6  14
TORSDOF 4
ENDMDL
