MODEL 1
REMARK VINA RESULT:    -4.553      0.000      0.000
REMARK INTER + INTRA:          -5.618
REMARK INTER:                  -5.351
REMARK INTRA:                  -0.267
REMARK UNBOUND:                -0.267
REMARK SMILES O=c1cc(-c2ccc(O)c(O)c2)oc2cc(O)cc(O)c12
REMARK SMILES IDX 4 1 3 2 2 3 1 4 21 5 19 6 18 7 16 8 15 9 14 10 13 11 5 12
REMARK SMILES IDX 6 13 7 14 8 15 12 16 10 17 9 18 11 20 20 22 17 24
REMARK H PARENT 9 19 11 21 20 23 17 25
REMARK Flexibility Score: inf
ROOT
ATOM      1  C   UNL     1       6.222   8.269  35.210  1.00  0.00     0.138 A 
ATOM      2  C   UNL     1       5.324   7.511  35.972  1.00  0.00     0.100 A 
ATOM      3  C   UNL     1       5.684   6.229  36.390  1.00  0.00     0.197 A 
ATOM      4  O   UNL     1       4.882   5.597  37.125  1.00  0.00    -0.289 OA
ATOM      5  C   UNL     1       6.939   5.694  36.014  1.00  0.00     0.107 A 
ATOM      6  C   UNL     1       7.396   4.383  36.348  1.00  0.00     0.134 A 
ATOM      7  C   UNL     1       8.704   4.005  36.021  1.00  0.00     0.093 A 
ATOM      8  C   UNL     1       9.550   4.868  35.319  1.00  0.00     0.123 A 
ATOM      9  C   UNL     1       9.094   6.128  34.942  1.00  0.00     0.094 A 
ATOM     10  C   UNL     1       7.807   6.548  35.284  1.00  0.00     0.146 A 
ATOM     11  O   UNL     1       7.416   7.765  34.917  1.00  0.00    -0.456 OA
ENDROOT
BRANCH   1  12
ATOM     12  C   UNL     1       5.890   9.638  34.739  1.00  0.00     0.021 A 
ATOM     13  C   UNL     1       5.948   9.986  33.375  1.00  0.00     0.016 A 
ATOM     14  C   UNL     1       5.641  11.284  32.961  1.00  0.00     0.051 A 
ATOM     15  C   UNL     1       5.279  12.258  33.900  1.00  0.00     0.157 A 
ATOM     16  C   UNL     1       5.540  10.627  35.675  1.00  0.00     0.062 A 
ATOM     17  C   UNL     1       5.231  11.930  35.259  1.00  0.00     0.158 A 
BRANCH  15  18
ATOM     18  O   UNL     1       4.971  13.555  33.489  1.00  0.00    -0.504 OA
ATOM     19  H   UNL     1       5.028  14.340  34.126  1.00  0.00     0.293 HD
ENDBRANCH  15  18
BRANCH  17  20
ATOM     20  O   UNL     1       4.875  12.903  36.192  1.00  0.00    -0.504 OA
ATOM     21  H   UNL     1       4.002  13.412  36.122  1.00  0.00     0.293 HD
ENDBRANCH  17  20
ENDBRANCH   1  12
BRANCH   6  22
ATOM     22  O   UNL     1       6.604   3.415  36.973  1.00  0.00    -0.507 OA
ATOM     23  H   UNL     1       5.596   3.422  36.996  1.00  0.00     0.293 HD
ENDBRANCH   6  22
BRANCH   8  24
ATOM     24  O   UNL     1      10.844   4.477  34.984  1.00  0.00    -0.508 OA
ATOM     25  H   UNL     1      11.098   3.499  34.904  1.00  0.00     0.293 HD
ENDBRANCH   8  24
TORSDOF 5
ENDMDL
MODEL 2
REMARK VINA RESULT:    -4.416      1.631      2.600
REMARK INTER + INTRA:          -5.457
REMARK INTER:                  -5.194
REMARK INTRA:                  -0.263
REMARK UNBOUND:                -0.267
REMARK SMILES O=c1cc(-c2ccc(O)c(O)c2)oc2cc(O)cc(O)c12
REMARK SMILES IDX 4 1 3 2 2 3 1 4 21 5 19 6 18 7 16 8 15 9 14 10 13 11 5 12
REMARK SMILES IDX 6 13 7 14 8 15 12 16 10 17 9 18 11 20 20 22 17 24
REMARK H PARENT 9 19 11 21 20 23 17 25
REMARK Flexibility Score: inf
ROOT
ATOM      1  C   UNL     1       6.743   7.459  35.263  1.00  0.00     0.138 A 
ATOM      2  C   UNL     1       7.939   7.241  35.959  1.00  0.00     0.100 A 
ATOM      3  C   UNL     1       8.311   5.940  36.302  1.00  0.00     0.197 A 
ATOM      4  O   UNL     1       9.420   5.771  36.872  1.00  0.00    -0.289 OA
ATOM      5  C   UNL     1       7.463   4.857  35.972  1.00  0.00     0.107 A 
ATOM      6  C   UNL     1       7.720   3.493  36.307  1.00  0.00     0.134 A 
ATOM      7  C   UNL     1       6.867   2.492  35.826  1.00  0.00     0.093 A 
ATOM      8  C   UNL     1       5.733   2.812  35.074  1.00  0.00     0.123 A 
ATOM      9  C   UNL     1       5.445   4.143  34.788  1.00  0.00     0.094 A 
ATOM     10  C   UNL     1       6.295   5.162  35.224  1.00  0.00     0.146 A 
ATOM     11  O   UNL     1       5.992   6.419  34.917  1.00  0.00    -0.456 OA
ENDROOT
BRANCH   1  12
ATOM     12  C   UNL     1       6.299   8.822  34.874  1.00  0.00     0.021 A 
ATOM     13  C   UNL     1       6.392   9.279  33.544  1.00  0.00     0.016 A 
ATOM     14  C   UNL     1       5.977  10.570  33.208  1.00  0.00     0.051 A 
ATOM     15  C   UNL     1       5.470  11.428  34.192  1.00  0.00     0.157 A 
ATOM     16  C   UNL     1       5.801   9.696  35.857  1.00  0.00     0.062 A 
ATOM     17  C   UNL     1       5.384  10.991  35.519  1.00  0.00     0.158 A 
BRANCH  15  18
ATOM     18  O   UNL     1       5.054  12.716  33.859  1.00  0.00    -0.504 OA
ATOM     19  H   UNL     1       4.210  12.878  33.323  1.00  0.00     0.293 HD
ENDBRANCH  15  18
BRANCH  17  20
ATOM     20  O   UNL     1       4.884  11.849  36.497  1.00  0.00    -0.504 OA
ATOM     21  H   UNL     1       4.773  11.551  37.459  1.00  0.00     0.293 HD
ENDBRANCH  17  20
ENDBRANCH   1  12
BRANCH   6  22
ATOM     22  O   UNL     1       8.776   3.074  37.123  1.00  0.00    -0.507 OA
ATOM     23  H   UNL     1       9.014   2.112  37.307  1.00  0.00     0.293 HD
ENDBRANCH   6  22
BRANCH   8  24
ATOM     24  O   UNL     1       4.882   1.810  34.613  1.00  0.00    -0.508 OA
ATOM     25  H   UNL     1       4.739   0.954  35.136  1.00  0.00     0.293 HD
ENDBRANCH   8  24
TORSDOF 5
ENDMDL
MODEL 3
REMARK VINA RESULT:    -4.350      1.193      1.467
REMARK INTER + INTRA:          -5.380
REMARK INTER:                  -5.103
REMARK INTRA:                  -0.277
REMARK UNBOUND:                -0.267
REMARK SMILES O=c1cc(-c2ccc(O)c(O)c2)oc2cc(O)cc(O)c12
REMARK SMILES IDX 4 1 3 2 2 3 1 4 21 5 19 6 18 7 16 8 15 9 14 10 13 11 5 12
REMARK SMILES IDX 6 13 7 14 8 15 12 16 10 17 9 18 11 20 20 22 17 24
REMARK H PARENT 9 19 11 21 20 23 17 25
REMARK Flexibility Score: inf
ROOT
ATOM      1  C   UNL     1       7.263   7.666  34.990  1.00  0.00     0.138 A 
ATOM      2  C   UNL     1       6.662   6.801  35.914  1.00  0.00     0.100 A 
ATOM      3  C   UNL     1       7.292   5.600  36.246  1.00  0.00     0.197 A 
ATOM      4  O   UNL     1       6.759   4.873  37.124  1.00  0.00    -0.289 OA
ATOM      5  C   UNL     1       8.514   5.252  35.624  1.00  0.00     0.107 A 
ATOM      6  C   UNL     1       9.225   4.035  35.853  1.00  0.00     0.134 A 
ATOM      7  C   UNL     1      10.485   3.851  35.268  1.00  0.00     0.093 A 
ATOM      8  C   UNL     1      11.030   4.814  34.415  1.00  0.00     0.123 A 
ATOM      9  C   UNL     1      10.319   5.980  34.142  1.00  0.00     0.094 A 
ATOM     10  C   UNL     1       9.077   6.208  34.737  1.00  0.00     0.146 A 
ATOM     11  O   UNL     1       8.438   7.341  34.462  1.00  0.00    -0.456 OA
ENDROOT
BRANCH   1  12
ATOM     12  C   UNL     1       6.637   8.955  34.602  1.00  0.00     0.021 A 
ATOM     13  C   UNL     1       6.622   9.397  33.264  1.00  0.00     0.016 A 
ATOM     14  C   UNL     1       6.036  10.620  32.928  1.00  0.00     0.051 A 
ATOM     15  C   UNL     1       5.462  11.424  33.920  1.00  0.00     0.157 A 
ATOM     16  C   UNL     1       6.071   9.777  35.592  1.00  0.00     0.062 A 
ATOM     17  C   UNL     1       5.481  11.003  35.254  1.00  0.00     0.158 A 
BRANCH  15  18
ATOM     18  O   UNL     1       4.875  12.644  33.587  1.00  0.00    -0.504 OA
ATOM     19  H   UNL     1       5.435  13.466  33.391  1.00  0.00     0.293 HD
ENDBRANCH  15  18
BRANCH  17  20
ATOM     20  O   UNL     1       4.914  11.809  36.240  1.00  0.00    -0.504 OA
ATOM     21  H   UNL     1       3.951  11.691  36.533  1.00  0.00     0.293 HD
ENDBRANCH  17  20
ENDBRANCH   1  12
BRANCH   6  22
ATOM     22  O   UNL     1       8.732   2.975  36.620  1.00  0.00    -0.507 OA
ATOM     23  H   UNL     1       7.810   2.937  37.026  1.00  0.00     0.293 HD
ENDBRANCH   6  22
BRANCH   8  24
ATOM     24  O   UNL     1      12.277   4.615  33.826  1.00  0.00    -0.508 OA
ATOM     25  H   UNL     1      12.739   3.714  33.856  1.00  0.00     0.293 HD
ENDBRANCH   8  24
TORSDOF 5
ENDMDL
MODEL 4
REMARK VINA RESULT:    -4.188      1.795      2.527
REMARK INTER + INTRA:          -5.189
REMARK INTER:                  -4.921
REMARK INTRA:                  -0.268
REMARK UNBOUND:                -0.267
REMARK SMILES O=c1cc(-c2ccc(O)c(O)c2)oc2cc(O)cc(O)c12
REMARK SMILES IDX 4 1 3 2 2 3 1 4 21 5 19 6 18 7 16 8 15 9 14 10 13 11 5 12
REMARK SMILES IDX 6 13 7 14 8 15 12 16 10 17 9 18 11 20 20 22 17 24
REMARK H PARENT 9 19 11 21 20 23 17 25
REMARK Flexibility Score: inf
ROOT
ATOM      1  C   UNL     1       6.820   5.906  35.310  1.00  0.00     0.138 A 
ATOM      2  C   UNL     1       5.747   5.086  35.681  1.00  0.00     0.100 A 
ATOM      3  C   UNL     1       5.998   3.821  36.215  1.00  0.00     0.197 A 
ATOM      4  O   UNL     1       5.016   3.132  36.596  1.00  0.00    -0.289 OA
ATOM      5  C   UNL     1       7.331   3.365  36.346  1.00  0.00     0.107 A 
ATOM      6  C   UNL     1       7.705   2.078  36.838  1.00  0.00     0.134 A 
ATOM      7  C   UNL     1       9.060   1.781  37.034  1.00  0.00     0.093 A 
ATOM      8  C   UNL     1      10.055   2.703  36.697  1.00  0.00     0.123 A 
ATOM      9  C   UNL     1       9.702   3.940  36.165  1.00  0.00     0.094 A 
ATOM     10  C   UNL     1       8.358   4.279  35.991  1.00  0.00     0.146 A 
ATOM     11  O   UNL     1       8.063   5.476  35.494  1.00  0.00    -0.456 OA
ENDROOT
BRANCH   1  12
ATOM     12  C   UNL     1       6.610   7.261  34.737  1.00  0.00     0.021 A 
ATOM     13  C   UNL     1       7.184   7.642  33.508  1.00  0.00     0.016 A 
ATOM     14  C   UNL     1       6.980   8.926  32.998  1.00  0.00     0.051 A 
ATOM     15  C   UNL     1       6.206   9.853  33.708  1.00  0.00     0.157 A 
ATOM     16  C   UNL     1       5.847   8.203  35.449  1.00  0.00     0.062 A 
ATOM     17  C   UNL     1       5.641   9.492  34.936  1.00  0.00     0.158 A 
BRANCH  15  18
ATOM     18  O   UNL     1       5.999  11.135  33.201  1.00  0.00    -0.504 OA
ATOM     19  H   UNL     1       5.067  11.489  33.019  1.00  0.00     0.293 HD
ENDBRANCH  15  18
BRANCH  17  20
ATOM     20  O   UNL     1       4.875  10.418  35.643  1.00  0.00    -0.504 OA
ATOM     21  H   UNL     1       4.783  10.372  36.650  1.00  0.00     0.293 HD
ENDBRANCH  17  20
ENDBRANCH   1  12
BRANCH   6  22
ATOM     22  O   UNL     1       6.794   1.056  37.125  1.00  0.00    -0.507 OA
ATOM     23  H   UNL     1       6.713   0.591  38.016  1.00  0.00     0.293 HD
ENDBRANCH   6  22
BRANCH   8  24
ATOM     24  O   UNL     1      11.401   2.392  36.880  1.00  0.00    -0.508 OA
ATOM     25  H   UNL     1      12.136   3.010  36.557  1.00  0.00     0.293 HD
ENDBRANCH   8  24
TORSDOF 5
ENDMDL
MODEL 5
REMARK VINA RESULT:    -3.901      3.097      3.734
REMARK INTER + INTRA:          -4.852
REMARK INTER:                  -4.540
REMARK INTRA:                  -0.312
REMARK UNBOUND:                -0.267
REMARK SMILES O=c1cc(-c2ccc(O)c(O)c2)oc2cc(O)cc(O)c12
REMARK SMILES IDX 4 1 3 2 2 3 1 4 21 5 19 6 18 7 16 8 15 9 14 10 13 11 5 12
REMARK SMILES IDX 6 13 7 14 8 15 12 16 10 17 9 18 11 20 20 22 17 24
REMARK H PARENT 9 19 11 21 20 23 17 25
REMARK Flexibility Score: inf
ROOT
ATOM      1  C   UNL     1       5.250   6.567  34.840  1.00  0.00     0.138 A 
ATOM      2  C   UNL     1       5.349   5.693  35.930  1.00  0.00     0.100 A 
ATOM      3  C   UNL     1       5.306   4.314  35.715  1.00  0.00     0.197 A 
ATOM      4  O   UNL     1       5.460   3.554  36.706  1.00  0.00    -0.289 OA
ATOM      5  C   UNL     1       5.130   3.812  34.404  1.00  0.00     0.107 A 
ATOM      6  C   UNL     1       5.030   2.428  34.071  1.00  0.00     0.134 A 
ATOM      7  C   UNL     1       4.975   2.045  32.724  1.00  0.00     0.093 A 
ATOM      8  C   UNL     1       4.954   2.999  31.704  1.00  0.00     0.123 A 
ATOM      9  C   UNL     1       4.997   4.354  32.022  1.00  0.00     0.094 A 
ATOM     10  C   UNL     1       5.087   4.767  33.353  1.00  0.00     0.146 A 
ATOM     11  O   UNL     1       5.140   6.069  33.613  1.00  0.00    -0.456 OA
ENDROOT
BRANCH   1  12
ATOM     12  C   UNL     1       5.289   8.042  35.011  1.00  0.00     0.021 A 
ATOM     13  C   UNL     1       4.962   8.653  36.238  1.00  0.00     0.016 A 
ATOM     14  C   UNL     1       4.997  10.044  36.368  1.00  0.00     0.051 A 
ATOM     15  C   UNL     1       5.352  10.847  35.277  1.00  0.00     0.157 A 
ATOM     16  C   UNL     1       5.631   8.858  33.918  1.00  0.00     0.062 A 
ATOM     17  C   UNL     1       5.667  10.253  34.050  1.00  0.00     0.158 A 
BRANCH  15  18
ATOM     18  O   UNL     1       5.389  12.235  35.405  1.00  0.00    -0.504 OA
ATOM     19  H   UNL     1       6.216  12.767  35.163  1.00  0.00     0.293 HD
ENDBRANCH  15  18
BRANCH  17  20
ATOM     20  O   UNL     1       6.016  11.055  32.964  1.00  0.00    -0.504 OA
ATOM     21  H   UNL     1       5.608  10.915  32.048  1.00  0.00     0.293 HD
ENDBRANCH  17  20
ENDBRANCH   1  12
BRANCH   6  22
ATOM     22  O   UNL     1       4.958   1.399  35.015  1.00  0.00    -0.507 OA
ATOM     23  H   UNL     1       4.117   1.114  35.493  1.00  0.00     0.293 HD
ENDBRANCH   6  22
BRANCH   8  24
ATOM     24  O   UNL     1       4.883   2.609  30.368  1.00  0.00    -0.508 OA
ATOM     25  H   UNL     1       4.005   2.336  29.942  1.00  0.00     0.293 HD
ENDBRANCH   8  24
TORSDOF 5
ENDMDL
MODEL 6
REMARK VINA RESULT:    -3.424      1.550      7.241
REMARK INTER + INTRA:          -4.292
REMARK INTER:                  -4.023
REMARK INTRA:                  -0.269
REMARK UNBOUND:                -0.267
REMARK SMILES O=c1cc(-c2ccc(O)c(O)c2)oc2cc(O)cc(O)c12
REMARK SMILES IDX 4 1 3 2 2 3 1 4 21 5 19 6 18 7 16 8 15 9 14 10 13 11 5 12
REMARK SMILES IDX 6 13 7 14 8 15 12 16 10 17 9 18 11 20 20 22 17 24
REMARK H PARENT 9 19 11 21 20 23 17 25
REMARK Flexibility Score: inf
ROOT
ATOM      1  C   UNL     1       7.385   7.147  35.061  1.00  0.00     0.138 A 
ATOM      2  C   UNL     1       7.464   7.458  33.697  1.00  0.00     0.100 A 
ATOM      3  C   UNL     1       6.969   8.680  33.239  1.00  0.00     0.197 A 
ATOM      4  O   UNL     1       7.110   8.957  32.019  1.00  0.00    -0.289 OA
ATOM      5  C   UNL     1       6.364   9.579  34.148  1.00  0.00     0.107 A 
ATOM      6  C   UNL     1       5.789  10.835  33.787  1.00  0.00     0.134 A 
ATOM      7  C   UNL     1       5.323  11.694  34.790  1.00  0.00     0.093 A 
ATOM      8  C   UNL     1       5.357  11.316  36.135  1.00  0.00     0.123 A 
ATOM      9  C   UNL     1       5.866  10.071  36.492  1.00  0.00     0.094 A 
ATOM     10  C   UNL     1       6.371   9.206  35.518  1.00  0.00     0.146 A 
ATOM     11  O   UNL     1       6.862   8.032  35.902  1.00  0.00    -0.456 OA
ENDROOT
BRANCH   1  12
ATOM     12  C   UNL     1       7.896   5.861  35.603  1.00  0.00     0.021 A 
ATOM     13  C   UNL     1       9.273   5.565  35.630  1.00  0.00     0.016 A 
ATOM     14  C   UNL     1       9.724   4.343  36.135  1.00  0.00     0.051 A 
ATOM     15  C   UNL     1       8.811   3.395  36.614  1.00  0.00     0.157 A 
ATOM     16  C   UNL     1       6.986   4.898  36.073  1.00  0.00     0.062 A 
ATOM     17  C   UNL     1       7.440   3.672  36.581  1.00  0.00     0.158 A 
BRANCH  15  18
ATOM     18  O   UNL     1       9.259   2.176  37.120  1.00  0.00    -0.504 OA
ATOM     19  H   UNL     1       8.730   1.664  37.816  1.00  0.00     0.293 HD
ENDBRANCH  15  18
BRANCH  17  20
ATOM     20  O   UNL     1       6.533   2.725  37.054  1.00  0.00    -0.504 OA
ATOM     21  H   UNL     1       6.129   2.793  37.980  1.00  0.00     0.293 HD
ENDBRANCH  17  20
ENDBRANCH   1  12
BRANCH   6  22
ATOM     22  O   UNL     1       5.630  11.272  32.468  1.00  0.00    -0.507 OA
ATOM     23  H   UNL     1       4.750  11.311  31.976  1.00  0.00     0.293 HD
ENDBRANCH   6  22
BRANCH   8  24
ATOM     24  O   UNL     1       4.876  12.171  37.125  1.00  0.00    -0.508 OA
ATOM     25  H   UNL     1       5.298  12.206  38.045  1.00  0.00     0.293 HD
ENDBRANCH   8  24
TORSDOF 5
ENDMDL
