MODEL 1
REMARK VINA RESULT:    -6.291      0.000      0.000
REMARK INTER + INTRA:          -7.942
REMARK INTER:                  -7.578
REMARK INTRA:                  -0.363
REMARK UNBOUND:                -0.363
REMARK SMILES O=c1c(O)c(-c2ccc(O)cc2O)oc2cc(O)cc(O)c12
REMARK SMILES IDX 5 1 3 2 2 3 1 4 22 5 20 6 19 7 17 8 16 9 15 10 14 11 6 12
REMARK SMILES IDX 8 13 7 14 9 15 11 16 12 17 10 18 13 20 4 22 21 24 18 26
REMARK H PARENT 10 19 13 21 4 23 21 25 18 27
REMARK Flexibility Score: inf
ROOT
ATOM      1  C   UNL     1      15.467  -7.376 -31.337  1.00  0.00     0.184 A 
ATOM      2  C   UNL     1      14.950  -7.170 -32.626  1.00  0.00     0.208 A 
ATOM      3  C   UNL     1      15.839  -7.062 -33.706  1.00  0.00     0.238 A 
ATOM      4  O   UNL     1      15.372  -6.825 -34.851  1.00  0.00    -0.285 OA
ATOM      5  C   UNL     1      17.232  -7.178 -33.485  1.00  0.00     0.111 A 
ATOM      6  C   UNL     1      18.223  -7.124 -34.511  1.00  0.00     0.134 A 
ATOM      7  C   UNL     1      19.579  -7.120 -34.163  1.00  0.00     0.093 A 
ATOM      8  C   UNL     1      19.981  -7.232 -32.833  1.00  0.00     0.123 A 
ATOM      9  C   UNL     1      19.022  -7.344 -31.826  1.00  0.00     0.094 A 
ATOM     10  C   UNL     1      17.661  -7.315 -32.138  1.00  0.00     0.146 A 
ATOM     11  O   UNL     1      16.780  -7.414 -31.150  1.00  0.00    -0.451 OA
ENDROOT
BRANCH   1  12
ATOM     12  C   UNL     1      14.586  -7.515 -30.158  1.00  0.00     0.063 A 
ATOM     13  C   UNL     1      12.969  -6.514 -28.643  1.00  0.00     0.047 A 
ATOM     14  C   UNL     1      13.808  -6.418 -29.756  1.00  0.00     0.020 A 
ATOM     15  C   UNL     1      12.906  -7.702 -27.911  1.00  0.00     0.119 A 
ATOM     16  C   UNL     1      13.695  -8.796 -28.290  1.00  0.00     0.093 A 
ATOM     17  C   UNL     1      14.545  -8.706 -29.403  1.00  0.00     0.130 A 
BRANCH  15  18
ATOM     18  O   UNL     1      12.061  -7.785 -26.807  1.00  0.00    -0.508 OA
ATOM     19  H   UNL     1      12.381  -7.549 -25.876  1.00  0.00     0.293 HD
ENDBRANCH  15  18
BRANCH  17  20
ATOM     20  O   UNL     1      15.361  -9.785 -29.741  1.00  0.00    -0.507 OA
ATOM     21  H   UNL     1      15.893  -9.799 -30.603  1.00  0.00     0.293 HD
ENDBRANCH  17  20
ENDBRANCH   1  12
BRANCH   2  22
ATOM     22  O   UNL     1      13.571  -7.043 -32.812  1.00  0.00    -0.502 OA
ATOM     23  H   UNL     1      12.982  -7.827 -33.064  1.00  0.00     0.293 HD
ENDBRANCH   2  22
BRANCH   6  24
ATOM     24  O   UNL     1      17.930  -7.103 -35.879  1.00  0.00    -0.507 OA
ATOM     25  H   UNL     1      17.716  -6.271 -36.407  1.00  0.00     0.293 HD
ENDBRANCH   6  24
BRANCH   8  26
ATOM     26  O   UNL     1      21.340  -7.239 -32.524  1.00  0.00    -0.508 OA
ATOM     27  H   UNL     1      21.821  -8.093 -32.268  1.00  0.00     0.293 HD
ENDBRANCH   8  26
TORSDOF 6
ENDMDL
MODEL 2
REMARK VINA RESULT:    -6.164      1.822      6.700
REMARK INTER + INTRA:          -7.788
REMARK INTER:                  -7.384
REMARK INTRA:                  -0.404
REMARK UNBOUND:                -0.363
REMARK SMILES O=c1c(O)c(-c2ccc(O)cc2O)oc2cc(O)cc(O)c12
REMARK SMILES IDX 5 1 3 2 2 3 1 4 22 5 20 6 19 7 17 8 16 9 15 10 14 11 6 12
REMARK SMILES IDX 8 13 7 14 9 15 11 16 12 17 10 18 13 20 4 22 21 24 18 26
REMARK H PARENT 10 19 13 21 4 23 21 25 18 27
REMARK Flexibility Score: inf
ROOT
ATOM      1  C   UNL     1      16.689  -6.742 -31.226  1.00  0.00     0.184 A 
ATOM      2  C   UNL     1      16.036  -5.525 -30.976  1.00  0.00     0.208 A 
ATOM      3  C   UNL     1      14.946  -5.506 -30.092  1.00  0.00     0.238 A 
ATOM      4  O   UNL     1      14.332  -4.422 -29.913  1.00  0.00    -0.285 OA
ATOM      5  C   UNL     1      14.535  -6.703 -29.457  1.00  0.00     0.111 A 
ATOM      6  C   UNL     1      13.469  -6.794 -28.513  1.00  0.00     0.134 A 
ATOM      7  C   UNL     1      13.064  -8.050 -28.046  1.00  0.00     0.093 A 
ATOM      8  C   UNL     1      13.727  -9.212 -28.439  1.00  0.00     0.123 A 
ATOM      9  C   UNL     1      14.809  -9.130 -29.317  1.00  0.00     0.094 A 
ATOM     10  C   UNL     1      15.213  -7.894 -29.828  1.00  0.00     0.146 A 
ATOM     11  O   UNL     1      16.240  -7.860 -30.668  1.00  0.00    -0.451 OA
ENDROOT
BRANCH   1  12
ATOM     12  C   UNL     1      17.853  -6.829 -32.133  1.00  0.00     0.063 A 
ATOM     13  C   UNL     1      18.711  -7.018 -34.400  1.00  0.00     0.047 A 
ATOM     14  C   UNL     1      17.633  -6.929 -33.516  1.00  0.00     0.020 A 
ATOM     15  C   UNL     1      20.020  -7.021 -33.914  1.00  0.00     0.119 A 
ATOM     16  C   UNL     1      20.251  -6.945 -32.534  1.00  0.00     0.093 A 
ATOM     17  C   UNL     1      19.174  -6.862 -31.639  1.00  0.00     0.130 A 
BRANCH  15  18
ATOM     18  O   UNL     1      21.086  -7.106 -34.808  1.00  0.00    -0.508 OA
ATOM     19  H   UNL     1      21.720  -7.894 -34.803  1.00  0.00     0.293 HD
ENDBRANCH  15  18
BRANCH  17  20
ATOM     20  O   UNL     1      19.415  -6.836 -30.265  1.00  0.00    -0.507 OA
ATOM     21  H   UNL     1      19.578  -5.967 -29.771  1.00  0.00     0.293 HD
ENDBRANCH  17  20
ENDBRANCH   1  12
BRANCH   2  22
ATOM     22  O   UNL     1      16.453  -4.362 -31.630  1.00  0.00    -0.502 OA
ATOM     23  H   UNL     1      16.910  -4.381 -32.533  1.00  0.00     0.293 HD
ENDBRANCH   2  22
BRANCH   6  24
ATOM     24  O   UNL     1      12.798  -5.687 -27.984  1.00  0.00    -0.507 OA
ATOM     25  H   UNL     1      11.836  -5.452 -28.175  1.00  0.00     0.293 HD
ENDBRANCH   6  24
BRANCH   8  26
ATOM     26  O   UNL     1      13.307 -10.445 -27.944  1.00  0.00    -0.508 OA
ATOM     27  H   UNL     1      13.111 -10.581 -26.959  1.00  0.00     0.293 HD
ENDBRANCH   8  26
TORSDOF 6
ENDMDL
MODEL 3
REMARK VINA RESULT:    -5.816      2.085      6.868
REMARK INTER + INTRA:          -7.369
REMARK INTER:                  -6.951
REMARK INTRA:                  -0.418
REMARK UNBOUND:                -0.363
REMARK SMILES O=c1c(O)c(-c2ccc(O)cc2O)oc2cc(O)cc(O)c12
REMARK SMILES IDX 5 1 3 2 2 3 1 4 22 5 20 6 19 7 17 8 16 9 15 10 14 11 6 12
REMARK SMILES IDX 8 13 7 14 9 15 11 16 12 17 10 18 13 20 4 22 21 24 18 26
REMARK H PARENT 10 19 13 21 4 23 21 25 18 27
REMARK Flexibility Score: inf
ROOT
ATOM      1  C   UNL     1      16.014  -6.583 -30.406  1.00  0.00     0.184 A 
ATOM      2  C   UNL     1      15.364  -7.647 -29.762  1.00  0.00     0.208 A 
ATOM      3  C   UNL     1      14.142  -7.405 -29.115  1.00  0.00     0.238 A 
ATOM      4  O   UNL     1      13.591  -8.352 -28.493  1.00  0.00    -0.285 OA
ATOM      5  C   UNL     1      13.580  -6.107 -29.137  1.00  0.00     0.111 A 
ATOM      6  C   UNL     1      12.327  -5.757 -28.548  1.00  0.00     0.134 A 
ATOM      7  C   UNL     1      11.929  -4.415 -28.517  1.00  0.00     0.093 A 
ATOM      8  C   UNL     1      12.706  -3.420 -29.109  1.00  0.00     0.123 A 
ATOM      9  C   UNL     1      13.905  -3.758 -29.738  1.00  0.00     0.094 A 
ATOM     10  C   UNL     1      14.346  -5.083 -29.754  1.00  0.00     0.146 A 
ATOM     11  O   UNL     1      15.496  -5.362 -30.354  1.00  0.00    -0.451 OA
ENDROOT
BRANCH   1  12
ATOM     12  C   UNL     1      17.295  -6.772 -31.120  1.00  0.00     0.063 A 
ATOM     13  C   UNL     1      19.725  -6.694 -31.084  1.00  0.00     0.047 A 
ATOM     14  C   UNL     1      18.498  -6.530 -30.437  1.00  0.00     0.020 A 
ATOM     15  C   UNL     1      19.767  -7.088 -32.423  1.00  0.00     0.119 A 
ATOM     16  C   UNL     1      18.572  -7.310 -33.121  1.00  0.00     0.093 A 
ATOM     17  C   UNL     1      17.335  -7.142 -32.481  1.00  0.00     0.130 A 
BRANCH  15  18
ATOM     18  O   UNL     1      20.998  -7.253 -33.054  1.00  0.00    -0.508 OA
ATOM     19  H   UNL     1      21.166  -6.900 -33.988  1.00  0.00     0.293 HD
ENDBRANCH  15  18
BRANCH  17  20
ATOM     20  O   UNL     1      16.153  -7.318 -33.200  1.00  0.00    -0.507 OA
ATOM     21  H   UNL     1      15.825  -8.238 -33.466  1.00  0.00     0.293 HD
ENDBRANCH  17  20
ENDBRANCH   1  12
BRANCH   2  22
ATOM     22  O   UNL     1      15.952  -8.915 -29.741  1.00  0.00    -0.502 OA
ATOM     23  H   UNL     1      16.069  -9.473 -30.578  1.00  0.00     0.293 HD
ENDBRANCH   2  22
BRANCH   6  24
ATOM     24  O   UNL     1      11.430  -6.686 -28.011  1.00  0.00    -0.507 OA
ATOM     25  H   UNL     1      10.609  -7.031 -28.483  1.00  0.00     0.293 HD
ENDBRANCH   6  24
BRANCH   8  26
ATOM     26  O   UNL     1      12.272  -2.096 -29.072  1.00  0.00    -0.508 OA
ATOM     27  H   UNL     1      11.545  -1.759 -29.691  1.00  0.00     0.293 HD
ENDBRANCH   8  26
TORSDOF 6
ENDMDL
MODEL 4
REMARK VINA RESULT:    -5.751      2.312      7.170
REMARK INTER + INTRA:          -7.291
REMARK INTER:                  -6.866
REMARK INTRA:                  -0.425
REMARK UNBOUND:                -0.363
REMARK SMILES O=c1c(O)c(-c2ccc(O)cc2O)oc2cc(O)cc(O)c12
REMARK SMILES IDX 5 1 3 2 2 3 1 4 22 5 20 6 19 7 17 8 16 9 15 10 14 11 6 12
REMARK SMILES IDX 8 13 7 14 9 15 11 16 12 17 10 18 13 20 4 22 21 24 18 26
REMARK H PARENT 10 19 13 21 4 23 21 25 18 27
REMARK Flexibility Score: inf
ROOT
ATOM      1  C   UNL     1      17.006  -5.889 -30.905  1.00  0.00     0.184 A 
ATOM      2  C   UNL     1      17.115  -5.087 -29.759  1.00  0.00     0.208 A 
ATOM      3  C   UNL     1      15.979  -4.888 -28.958  1.00  0.00     0.238 A 
ATOM      4  O   UNL     1      16.070  -4.125 -27.961  1.00  0.00    -0.285 OA
ATOM      5  C   UNL     1      14.756  -5.508 -29.306  1.00  0.00     0.111 A 
ATOM      6  C   UNL     1      13.551  -5.408 -28.547  1.00  0.00     0.134 A 
ATOM      7  C   UNL     1      12.367  -5.955 -29.054  1.00  0.00     0.093 A 
ATOM      8  C   UNL     1      12.355  -6.654 -30.260  1.00  0.00     0.123 A 
ATOM      9  C   UNL     1      13.538  -6.809 -30.984  1.00  0.00     0.094 A 
ATOM     10  C   UNL     1      14.729  -6.243 -30.521  1.00  0.00     0.146 A 
ATOM     11  O   UNL     1      15.831  -6.404 -31.244  1.00  0.00    -0.451 OA
ENDROOT
BRANCH   1  12
ATOM     12  C   UNL     1      18.167  -6.153 -31.783  1.00  0.00     0.063 A 
ATOM     13  C   UNL     1      20.254  -7.339 -32.165  1.00  0.00     0.047 A 
ATOM     14  C   UNL     1      19.143  -7.071 -31.363  1.00  0.00     0.020 A 
ATOM     15  C   UNL     1      20.412  -6.685 -33.389  1.00  0.00     0.119 A 
ATOM     16  C   UNL     1      19.456  -5.750 -33.807  1.00  0.00     0.093 A 
ATOM     17  C   UNL     1      18.339  -5.470 -33.005  1.00  0.00     0.130 A 
BRANCH  15  18
ATOM     18  O   UNL     1      21.523  -6.966 -34.182  1.00  0.00    -0.508 OA
ATOM     19  H   UNL     1      22.380  -6.432 -34.102  1.00  0.00     0.293 HD
ENDBRANCH  15  18
BRANCH  17  20
ATOM     20  O   UNL     1      17.420  -4.502 -33.409  1.00  0.00    -0.507 OA
ATOM     21  H   UNL     1      16.669  -4.719 -34.054  1.00  0.00     0.293 HD
ENDBRANCH  17  20
ENDBRANCH   1  12
BRANCH   2  22
ATOM     22  O   UNL     1      18.331  -4.474 -29.448  1.00  0.00    -0.502 OA
ATOM     23  H   UNL     1      18.385  -3.542 -29.056  1.00  0.00     0.293 HD
ENDBRANCH   2  22
BRANCH   6  24
ATOM     24  O   UNL     1      13.472  -4.811 -27.285  1.00  0.00    -0.507 OA
ATOM     25  H   UNL     1      13.409  -5.315 -26.413  1.00  0.00     0.293 HD
ENDBRANCH   6  24
BRANCH   8  26
ATOM     26  O   UNL     1      11.160  -7.198 -30.728  1.00  0.00    -0.508 OA
ATOM     27  H   UNL     1      10.714  -6.852 -31.569  1.00  0.00     0.293 HD
ENDBRANCH   8  26
TORSDOF 6
ENDMDL
MODEL 5
REMARK VINA RESULT:    -5.748      1.578      3.296
REMARK INTER + INTRA:          -7.288
REMARK INTER:                  -6.869
REMARK INTRA:                  -0.419
REMARK UNBOUND:                -0.363
REMARK SMILES O=c1c(O)c(-c2ccc(O)cc2O)oc2cc(O)cc(O)c12
REMARK SMILES IDX 5 1 3 2 2 3 1 4 22 5 20 6 19 7 17 8 16 9 15 10 14 11 6 12
REMARK SMILES IDX 8 13 7 14 9 15 11 16 12 17 10 18 13 20 4 22 21 24 18 26
REMARK H PARENT 10 19 13 21 4 23 21 25 18 27
REMARK Flexibility Score: inf
ROOT
ATOM      1  C   UNL     1      16.231  -7.559 -31.378  1.00  0.00     0.184 A 
ATOM      2  C   UNL     1      17.593  -7.300 -31.155  1.00  0.00     0.208 A 
ATOM      3  C   UNL     1      18.403  -6.937 -32.243  1.00  0.00     0.238 A 
ATOM      4  O   UNL     1      19.634  -6.759 -32.046  1.00  0.00    -0.285 OA
ATOM      5  C   UNL     1      17.836  -6.823 -33.534  1.00  0.00     0.111 A 
ATOM      6  C   UNL     1      18.554  -6.424 -34.702  1.00  0.00     0.134 A 
ATOM      7  C   UNL     1      17.923  -6.471 -35.951  1.00  0.00     0.093 A 
ATOM      8  C   UNL     1      16.583  -6.839 -36.067  1.00  0.00     0.123 A 
ATOM      9  C   UNL     1      15.854  -7.175 -34.926  1.00  0.00     0.094 A 
ATOM     10  C   UNL     1      16.466  -7.172 -33.670  1.00  0.00     0.146 A 
ATOM     11  O   UNL     1      15.741  -7.508 -32.610  1.00  0.00    -0.451 OA
ENDROOT
BRANCH   1  12
ATOM     12  C   UNL     1      15.319  -7.928 -30.274  1.00  0.00     0.063 A 
ATOM     13  C   UNL     1      14.515  -9.618 -28.722  1.00  0.00     0.047 A 
ATOM     14  C   UNL     1      15.366  -9.234 -29.761  1.00  0.00     0.020 A 
ATOM     15  C   UNL     1      13.598  -8.707 -28.192  1.00  0.00     0.119 A 
ATOM     16  C   UNL     1      13.527  -7.408 -28.713  1.00  0.00     0.093 A 
ATOM     17  C   UNL     1      14.374  -7.016 -29.760  1.00  0.00     0.130 A 
BRANCH  15  18
ATOM     18  O   UNL     1      12.758  -9.102 -27.153  1.00  0.00    -0.508 OA
ATOM     19  H   UNL     1      12.663 -10.075 -26.889  1.00  0.00     0.293 HD
ENDBRANCH  15  18
BRANCH  17  20
ATOM     20  O   UNL     1      14.260  -5.736 -30.302  1.00  0.00    -0.507 OA
ATOM     21  H   UNL     1      14.462  -4.908 -29.755  1.00  0.00     0.293 HD
ENDBRANCH  17  20
ENDBRANCH   1  12
BRANCH   2  22
ATOM     22  O   UNL     1      18.130  -7.437 -29.872  1.00  0.00    -0.502 OA
ATOM     23  H   UNL     1      19.020  -7.888 -29.701  1.00  0.00     0.293 HD
ENDBRANCH   2  22
BRANCH   6  24
ATOM     24  O   UNL     1      19.870  -5.951 -34.685  1.00  0.00    -0.507 OA
ATOM     25  H   UNL     1      20.645  -6.424 -34.246  1.00  0.00     0.293 HD
ENDBRANCH   6  24
BRANCH   8  26
ATOM     26  O   UNL     1      15.983  -6.861 -37.325  1.00  0.00    -0.508 OA
ATOM     27  H   UNL     1      16.380  -6.357 -38.110  1.00  0.00     0.293 HD
ENDBRANCH   8  26
TORSDOF 6
ENDMDL
MODEL 6
REMARK VINA RESULT:    -5.621      2.017      2.362
REMARK INTER + INTRA:          -7.134
REMARK INTER:                  -6.709
REMARK INTRA:                  -0.425
REMARK UNBOUND:                -0.363
REMARK SMILES O=c1c(O)c(-c2ccc(O)cc2O)oc2cc(O)cc(O)c12
REMARK SMILES IDX 5 1 3 2 2 3 1 4 22 5 20 6 19 7 17 8 16 9 15 10 14 11 6 12
REMARK SMILES IDX 8 13 7 14 9 15 11 16 12 17 10 18 13 20 4 22 21 24 18 26
REMARK H PARENT 10 19 13 21 4 23 21 25 18 27
REMARK Flexibility Score: inf
ROOT
ATOM      1  C   UNL     1      15.940  -7.166 -30.951  1.00  0.00     0.184 A 
ATOM      2  C   UNL     1      15.775  -7.498 -32.305  1.00  0.00     0.208 A 
ATOM      3  C   UNL     1      16.599  -6.883 -33.261  1.00  0.00     0.238 A 
ATOM      4  O   UNL     1      16.411  -7.145 -34.478  1.00  0.00    -0.285 OA
ATOM      5  C   UNL     1      17.587  -5.958 -32.847  1.00  0.00     0.111 A 
ATOM      6  C   UNL     1      18.504  -5.305 -33.725  1.00  0.00     0.134 A 
ATOM      7  C   UNL     1      19.353  -4.311 -33.223  1.00  0.00     0.093 A 
ATOM      8  C   UNL     1      19.364  -3.992 -31.865  1.00  0.00     0.123 A 
ATOM      9  C   UNL     1      18.514  -4.665 -30.988  1.00  0.00     0.094 A 
ATOM     10  C   UNL     1      17.630  -5.637 -31.464  1.00  0.00     0.146 A 
ATOM     11  O   UNL     1      16.830  -6.246 -30.599  1.00  0.00    -0.451 OA
ENDROOT
BRANCH   1  12
ATOM     12  C   UNL     1      15.117  -7.788 -29.892  1.00  0.00     0.063 A 
ATOM     13  C   UNL     1      14.609  -9.740 -28.533  1.00  0.00     0.047 A 
ATOM     14  C   UNL     1      15.371  -9.120 -29.526  1.00  0.00     0.020 A 
ATOM     15  C   UNL     1      13.575  -9.043 -27.903  1.00  0.00     0.119 A 
ATOM     16  C   UNL     1      13.297  -7.721 -28.277  1.00  0.00     0.093 A 
ATOM     17  C   UNL     1      14.054  -7.093 -29.277  1.00  0.00     0.130 A 
BRANCH  15  18
ATOM     18  O   UNL     1      12.826  -9.672 -26.912  1.00  0.00    -0.508 OA
ATOM     19  H   UNL     1      11.906 -10.049 -27.101  1.00  0.00     0.293 HD
ENDBRANCH  15  18
BRANCH  17  20
ATOM     20  O   UNL     1      13.737  -5.794 -29.675  1.00  0.00    -0.507 OA
ATOM     21  H   UNL     1      14.111  -4.985 -29.193  1.00  0.00     0.293 HD
ENDBRANCH  17  20
ENDBRANCH   1  12
BRANCH   2  22
ATOM     22  O   UNL     1      14.780  -8.401 -32.687  1.00  0.00    -0.502 OA
ATOM     23  H   UNL     1      14.553  -9.223 -32.140  1.00  0.00     0.293 HD
ENDBRANCH   2  22
BRANCH   6  24
ATOM     24  O   UNL     1      18.640  -5.614 -35.082  1.00  0.00    -0.507 OA
ATOM     25  H   UNL     1      19.518  -5.658 -35.576  1.00  0.00     0.293 HD
ENDBRANCH   6  24
BRANCH   8  26
ATOM     26  O   UNL     1      20.233  -3.008 -31.398  1.00  0.00    -0.508 OA
ATOM     27  H   UNL     1      21.239  -3.119 -31.452  1.00  0.00     0.293 HD
ENDBRANCH   8  26
TORSDOF 6
ENDMDL
MODEL 7
REMARK VINA RESULT:    -5.614      2.810      6.946
REMARK INTER + INTRA:          -7.126
REMARK INTER:                  -6.712
REMARK INTRA:                  -0.414
REMARK UNBOUND:                -0.363
REMARK SMILES O=c1c(O)c(-c2ccc(O)cc2O)oc2cc(O)cc(O)c12
REMARK SMILES IDX 5 1 3 2 2 3 1 4 22 5 20 6 19 7 17 8 16 9 15 10 14 11 6 12
REMARK SMILES IDX 8 13 7 14 9 15 11 16 12 17 10 18 13 20 4 22 21 24 18 26
REMARK H PARENT 10 19 13 21 4 23 21 25 18 27
REMARK Flexibility Score: inf
ROOT
ATOM      1  C   UNL     1      16.966  -5.833 -30.569  1.00  0.00     0.184 A 
ATOM      2  C   UNL     1      15.742  -6.512 -30.677  1.00  0.00     0.208 A 
ATOM      3  C   UNL     1      14.699  -6.177 -29.801  1.00  0.00     0.238 A 
ATOM      4  O   UNL     1      13.622  -6.826 -29.868  1.00  0.00    -0.285 OA
ATOM      5  C   UNL     1      14.888  -5.155 -28.840  1.00  0.00     0.111 A 
ATOM      6  C   UNL     1      13.887  -4.706 -27.927  1.00  0.00     0.134 A 
ATOM      7  C   UNL     1      14.225  -3.780 -26.932  1.00  0.00     0.093 A 
ATOM      8  C   UNL     1      15.508  -3.239 -26.857  1.00  0.00     0.123 A 
ATOM      9  C   UNL     1      16.479  -3.627 -27.780  1.00  0.00     0.094 A 
ATOM     10  C   UNL     1      16.183  -4.576 -28.762  1.00  0.00     0.146 A 
ATOM     11  O   UNL     1      17.137  -4.927 -29.615  1.00  0.00    -0.451 OA
ENDROOT
BRANCH   1  12
ATOM     12  C   UNL     1      18.101  -6.126 -31.471  1.00  0.00     0.063 A 
ATOM     13  C   UNL     1      20.179  -7.321 -31.874  1.00  0.00     0.047 A 
ATOM     14  C   UNL     1      19.091  -7.026 -31.049  1.00  0.00     0.020 A 
ATOM     15  C   UNL     1      20.298  -6.710 -33.125  1.00  0.00     0.119 A 
ATOM     16  C   UNL     1      19.326  -5.792 -33.547  1.00  0.00     0.093 A 
ATOM     17  C   UNL     1      18.234  -5.486 -32.721  1.00  0.00     0.130 A 
BRANCH  15  18
ATOM     18  O   UNL     1      21.385  -7.017 -33.940  1.00  0.00    -0.508 OA
ATOM     19  H   UNL     1      21.267  -7.236 -34.921  1.00  0.00     0.293 HD
ENDBRANCH  15  18
BRANCH  17  20
ATOM     20  O   UNL     1      17.300  -4.535 -33.131  1.00  0.00    -0.507 OA
ATOM     21  H   UNL     1      17.359  -4.089 -34.039  1.00  0.00     0.293 HD
ENDBRANCH  17  20
ENDBRANCH   1  12
BRANCH   2  22
ATOM     22  O   UNL     1      15.589  -7.528 -31.624  1.00  0.00    -0.502 OA
ATOM     23  H   UNL     1      15.187  -7.362 -32.539  1.00  0.00     0.293 HD
ENDBRANCH   2  22
BRANCH   6  24
ATOM     24  O   UNL     1      12.550  -5.113 -27.972  1.00  0.00    -0.507 OA
ATOM     25  H   UNL     1      12.189  -5.830 -28.582  1.00  0.00     0.293 HD
ENDBRANCH   6  24
BRANCH   8  26
ATOM     26  O   UNL     1      15.804  -2.308 -25.863  1.00  0.00    -0.508 OA
ATOM     27  H   UNL     1      15.763  -2.552 -24.880  1.00  0.00     0.293 HD
ENDBRANCH   8  26
TORSDOF 6
ENDMDL
MODEL 8
REMARK VINA RESULT:    -5.425      2.423      6.676
REMARK INTER + INTRA:          -6.898
REMARK INTER:                  -6.641
REMARK INTRA:                  -0.257
REMARK UNBOUND:                -0.363
REMARK SMILES O=c1c(O)c(-c2ccc(O)cc2O)oc2cc(O)cc(O)c12
REMARK SMILES IDX 5 1 3 2 2 3 1 4 22 5 20 6 19 7 17 8 16 9 15 10 14 11 6 12
REMARK SMILES IDX 8 13 7 14 9 15 11 16 12 17 10 18 13 20 4 22 21 24 18 26
REMARK H PARENT 10 19 13 21 4 23 21 25 18 27
REMARK Flexibility Score: inf
ROOT
ATOM      1  C   UNL     1      16.624  -6.315 -30.919  1.00  0.00     0.184 A 
ATOM      2  C   UNL     1      15.465  -7.106 -30.879  1.00  0.00     0.208 A 
ATOM      3  C   UNL     1      14.460  -6.794 -29.951  1.00  0.00     0.238 A 
ATOM      4  O   UNL     1      13.447  -7.539 -29.884  1.00  0.00    -0.285 OA
ATOM      5  C   UNL     1      14.620  -5.684 -29.088  1.00  0.00     0.111 A 
ATOM      6  C   UNL     1      13.649  -5.251 -28.136  1.00  0.00     0.134 A 
ATOM      7  C   UNL     1      13.967  -4.220 -27.243  1.00  0.00     0.093 A 
ATOM      8  C   UNL     1      15.195  -3.563 -27.310  1.00  0.00     0.123 A 
ATOM      9  C   UNL     1      16.130  -3.938 -28.275  1.00  0.00     0.094 A 
ATOM     10  C   UNL     1      15.856  -4.988 -29.156  1.00  0.00     0.146 A 
ATOM     11  O   UNL     1      16.776  -5.321 -30.053  1.00  0.00    -0.451 OA
ENDROOT
BRANCH   1  12
ATOM     12  C   UNL     1      17.713  -6.579 -31.883  1.00  0.00     0.063 A 
ATOM     13  C   UNL     1      18.410  -6.927 -34.186  1.00  0.00     0.047 A 
ATOM     14  C   UNL     1      17.406  -6.673 -33.249  1.00  0.00     0.020 A 
ATOM     15  C   UNL     1      19.732  -7.104 -33.769  1.00  0.00     0.119 A 
ATOM     16  C   UNL     1      20.046  -7.035 -32.405  1.00  0.00     0.093 A 
ATOM     17  C   UNL     1      19.043  -6.786 -31.457  1.00  0.00     0.130 A 
BRANCH  15  18
ATOM     18  O   UNL     1      20.724  -7.352 -34.714  1.00  0.00    -0.508 OA
ATOM     19  H   UNL     1      20.993  -6.654 -35.397  1.00  0.00     0.293 HD
ENDBRANCH  15  18
BRANCH  17  20
ATOM     20  O   UNL     1      19.360  -6.768 -30.099  1.00  0.00    -0.507 OA
ATOM     21  H   UNL     1      19.420  -7.622 -29.556  1.00  0.00     0.293 HD
ENDBRANCH  17  20
ENDBRANCH   1  12
BRANCH   2  22
ATOM     22  O   UNL     1      15.341  -8.206 -31.732  1.00  0.00    -0.502 OA
ATOM     23  H   UNL     1      15.974  -8.996 -31.696  1.00  0.00     0.293 HD
ENDBRANCH   2  22
BRANCH   6  24
ATOM     24  O   UNL     1      12.356  -5.777 -28.045  1.00  0.00    -0.507 OA
ATOM     25  H   UNL     1      11.894  -6.294 -28.777  1.00  0.00     0.293 HD
ENDBRANCH   6  24
BRANCH   8  26
ATOM     26  O   UNL     1      15.473  -2.531 -26.416  1.00  0.00    -0.508 OA
ATOM     27  H   UNL     1      16.184  -2.627 -25.701  1.00  0.00     0.293 HD
ENDBRANCH   8  26
TORSDOF 6
ENDMDL
MODEL 9
REMARK VINA RESULT:    -5.338      2.246      6.619
REMARK INTER + INTRA:          -6.794
REMARK INTER:                  -6.532
REMARK INTRA:                  -0.262
REMARK UNBOUND:                -0.363
REMARK SMILES O=c1c(O)c(-c2ccc(O)cc2O)oc2cc(O)cc(O)c12
REMARK SMILES IDX 5 1 3 2 2 3 1 4 22 5 20 6 19 7 17 8 16 9 15 10 14 11 6 12
REMARK SMILES IDX 8 13 7 14 9 15 11 16 12 17 10 18 13 20 4 22 21 24 18 26
REMARK H PARENT 10 19 13 21 4 23 21 25 18 27
REMARK Flexibility Score: inf
ROOT
ATOM      1  C   UNL     1      15.858  -7.123 -32.196  1.00  0.00     0.184 A 
ATOM      2  C   UNL     1      15.282  -6.146 -31.369  1.00  0.00     0.208 A 
ATOM      3  C   UNL     1      13.899  -6.183 -31.134  1.00  0.00     0.238 A 
ATOM      4  O   UNL     1      13.381  -5.272 -30.435  1.00  0.00    -0.285 OA
ATOM      5  C   UNL     1      13.114  -7.208 -31.714  1.00  0.00     0.111 A 
ATOM      6  C   UNL     1      11.710  -7.366 -31.511  1.00  0.00     0.134 A 
ATOM      7  C   UNL     1      11.012  -8.338 -32.239  1.00  0.00     0.093 A 
ATOM      8  C   UNL     1      11.676  -9.198 -33.112  1.00  0.00     0.123 A 
ATOM      9  C   UNL     1      13.057  -9.092 -33.275  1.00  0.00     0.094 A 
ATOM     10  C   UNL     1      13.776  -8.108 -32.590  1.00  0.00     0.146 A 
ATOM     11  O   UNL     1      15.088  -8.033 -32.780  1.00  0.00    -0.451 OA
ENDROOT
BRANCH   1  12
ATOM     12  C   UNL     1      17.310  -7.152 -32.472  1.00  0.00     0.063 A 
ATOM     13  C   UNL     1      19.587  -7.181 -31.618  1.00  0.00     0.047 A 
ATOM     14  C   UNL     1      18.208  -7.160 -31.393  1.00  0.00     0.020 A 
ATOM     15  C   UNL     1      20.085  -7.181 -32.923  1.00  0.00     0.119 A 
ATOM     16  C   UNL     1      19.198  -7.149 -34.008  1.00  0.00     0.093 A 
ATOM     17  C   UNL     1      17.813  -7.122 -33.790  1.00  0.00     0.130 A 
BRANCH  15  18
ATOM     18  O   UNL     1      21.462  -7.207 -33.133  1.00  0.00    -0.508 OA
ATOM     19  H   UNL     1      21.930  -6.489 -33.672  1.00  0.00     0.293 HD
ENDBRANCH  15  18
BRANCH  17  20
ATOM     20  O   UNL     1      16.941  -7.041 -34.876  1.00  0.00    -0.507 OA
ATOM     21  H   UNL     1      16.825  -6.183 -35.401  1.00  0.00     0.293 HD
ENDBRANCH  17  20
ENDBRANCH   1  12
BRANCH   2  22
ATOM     22  O   UNL     1      16.079  -5.136 -30.823  1.00  0.00    -0.502 OA
ATOM     23  H   UNL     1      16.905  -4.783 -31.290  1.00  0.00     0.293 HD
ENDBRANCH   2  22
BRANCH   6  24
ATOM     24  O   UNL     1      10.965  -6.619 -30.593  1.00  0.00    -0.507 OA
ATOM     25  H   UNL     1      10.964  -6.771 -29.596  1.00  0.00     0.293 HD
ENDBRANCH   6  24
BRANCH   8  26
ATOM     26  O   UNL     1      10.951 -10.163 -33.809  1.00  0.00    -0.508 OA
ATOM     27  H   UNL     1      10.733 -11.063 -33.396  1.00  0.00     0.293 HD
ENDBRANCH   8  26
TORSDOF 6
ENDMDL
