MODEL 1
REMARK VINA RESULT:    -6.083      0.000      0.000
REMARK INTER + INTRA:          -7.614
REMARK INTER:                  -7.328
REMARK INTRA:                  -0.286
REMARK UNBOUND:                -0.286
REMARK SMILES O=c1c(O)c(-c2ccc(O)c(O)c2)oc2cc(O)cc(O)c12
REMARK SMILES IDX 5 1 3 2 2 3 1 4 22 5 20 6 19 7 17 8 16 9 15 10 14 11 6 12
REMARK SMILES IDX 7 13 8 14 9 15 13 16 11 17 10 18 12 20 4 22 21 24 18 26
REMARK H PARENT 10 19 12 21 4 23 21 25 18 27
REMARK Flexibility Score: inf
ROOT
ATOM      1  C   UNL     1      29.279 -17.433  24.209  1.00  0.00     0.180 A 
ATOM      2  C   UNL     1      29.327 -17.532  25.610  1.00  0.00     0.208 A 
ATOM      3  C   UNL     1      29.251 -18.801  26.206  1.00  0.00     0.238 A 
ATOM      4  O   UNL     1      29.349 -18.888  27.458  1.00  0.00    -0.285 OA
ATOM      5  C   UNL     1      29.111 -19.953  25.396  1.00  0.00     0.111 A 
ATOM      6  C   UNL     1      28.984 -21.285  25.893  1.00  0.00     0.134 A 
ATOM      7  C   UNL     1      28.983 -22.360  24.997  1.00  0.00     0.093 A 
ATOM      8  C   UNL     1      29.038 -22.150  23.619  1.00  0.00     0.123 A 
ATOM      9  C   UNL     1      29.102 -20.849  23.119  1.00  0.00     0.094 A 
ATOM     10  C   UNL     1      29.141 -19.757  23.990  1.00  0.00     0.146 A 
ATOM     11  O   UNL     1      29.214 -18.536  23.474  1.00  0.00    -0.452 OA
ENDROOT
BRANCH   1  12
ATOM     12  C   UNL     1      29.329 -16.128  23.509  1.00  0.00     0.025 A 
ATOM     13  C   UNL     1      30.521 -15.648  22.943  1.00  0.00     0.016 A 
ATOM     14  C   UNL     1      30.550 -14.403  22.308  1.00  0.00     0.051 A 
ATOM     15  C   UNL     1      29.397 -13.615  22.241  1.00  0.00     0.157 A 
ATOM     16  C   UNL     1      28.177 -15.326  23.460  1.00  0.00     0.062 A 
ATOM     17  C   UNL     1      28.204 -14.077  22.822  1.00  0.00     0.158 A 
BRANCH  15  18
ATOM     18  O   UNL     1      29.455 -12.379  21.599  1.00  0.00    -0.504 OA
ATOM     19  H   UNL     1      29.214 -11.516  22.070  1.00  0.00     0.293 HD
ENDBRANCH  15  18
BRANCH  17  20
ATOM     20  O   UNL     1      27.052 -13.294  22.766  1.00  0.00    -0.504 OA
ATOM     21  H   UNL     1      26.594 -13.085  21.886  1.00  0.00     0.293 HD
ENDBRANCH  17  20
ENDBRANCH   1  12
BRANCH   2  22
ATOM     22  O   UNL     1      29.487 -16.384  26.392  1.00  0.00    -0.502 OA
ATOM     23  H   UNL     1      29.966 -15.558  26.055  1.00  0.00     0.293 HD
ENDBRANCH   2  22
BRANCH   6  24
ATOM     24  O   UNL     1      28.829 -21.601  27.246  1.00  0.00    -0.507 OA
ATOM     25  H   UNL     1      28.777 -22.539  27.615  1.00  0.00     0.293 HD
ENDBRANCH   6  24
BRANCH   8  26
ATOM     26  O   UNL     1      29.020 -23.243  22.756  1.00  0.00    -0.508 OA
ATOM     27  H   UNL     1      28.167 -23.759  22.573  1.00  0.00     0.293 HD
ENDBRANCH   8  26
TORSDOF 6
ENDMDL
MODEL 2
REMARK VINA RESULT:    -5.939      1.543      2.945
REMARK INTER + INTRA:          -7.440
REMARK INTER:                  -7.137
REMARK INTRA:                  -0.303
REMARK UNBOUND:                -0.286
REMARK SMILES O=c1c(O)c(-c2ccc(O)c(O)c2)oc2cc(O)cc(O)c12
REMARK SMILES IDX 5 1 3 2 2 3 1 4 22 5 20 6 19 7 17 8 16 9 15 10 14 11 6 12
REMARK SMILES IDX 7 13 8 14 9 15 13 16 11 17 10 18 12 20 4 22 21 24 18 26
REMARK H PARENT 10 19 12 21 4 23 21 25 18 27
REMARK Flexibility Score: inf
ROOT
ATOM      1  C   UNL     1      29.328 -18.259  23.860  1.00  0.00     0.180 A 
ATOM      2  C   UNL     1      29.561 -18.958  22.664  1.00  0.00     0.208 A 
ATOM      3  C   UNL     1      29.454 -20.359  22.661  1.00  0.00     0.238 A 
ATOM      4  O   UNL     1      29.611 -20.975  21.575  1.00  0.00    -0.285 OA
ATOM      5  C   UNL     1      29.133 -21.043  23.858  1.00  0.00     0.111 A 
ATOM      6  C   UNL     1      29.038 -22.462  23.981  1.00  0.00     0.134 A 
ATOM      7  C   UNL     1      28.585 -23.023  25.181  1.00  0.00     0.093 A 
ATOM      8  C   UNL     1      28.286 -22.222  26.283  1.00  0.00     0.123 A 
ATOM      9  C   UNL     1      28.432 -20.837  26.193  1.00  0.00     0.094 A 
ATOM     10  C   UNL     1      28.847 -20.246  24.997  1.00  0.00     0.146 A 
ATOM     11  O   UNL     1      28.963 -18.924  24.950  1.00  0.00    -0.452 OA
ENDROOT
BRANCH   1  12
ATOM     12  C   UNL     1      29.445 -16.785  23.947  1.00  0.00     0.025 A 
ATOM     13  C   UNL     1      30.602 -16.173  24.460  1.00  0.00     0.016 A 
ATOM     14  C   UNL     1      30.681 -14.781  24.555  1.00  0.00     0.051 A 
ATOM     15  C   UNL     1      29.606 -13.982  24.155  1.00  0.00     0.157 A 
ATOM     16  C   UNL     1      28.359 -15.981  23.566  1.00  0.00     0.062 A 
ATOM     17  C   UNL     1      28.438 -14.583  23.661  1.00  0.00     0.158 A 
BRANCH  15  18
ATOM     18  O   UNL     1      29.715 -12.596  24.260  1.00  0.00    -0.504 OA
ATOM     19  H   UNL     1      30.575 -12.106  24.048  1.00  0.00     0.293 HD
ENDBRANCH  15  18
BRANCH  17  20
ATOM     20  O   UNL     1      27.358 -13.793  23.267  1.00  0.00    -0.504 OA
ATOM     21  H   UNL     1      26.665 -14.132  22.609  1.00  0.00     0.293 HD
ENDBRANCH  17  20
ENDBRANCH   1  12
BRANCH   2  22
ATOM     22  O   UNL     1      29.857 -18.262  21.488  1.00  0.00    -0.502 OA
ATOM     23  H   UNL     1      30.223 -18.719  20.663  1.00  0.00     0.293 HD
ENDBRANCH   2  22
BRANCH   6  24
ATOM     24  O   UNL     1      29.400 -23.358  22.971  1.00  0.00    -0.507 OA
ATOM     25  H   UNL     1      30.001 -24.158  23.101  1.00  0.00     0.293 HD
ENDBRANCH   6  24
BRANCH   8  26
ATOM     26  O   UNL     1      27.852 -22.816  27.466  1.00  0.00    -0.508 OA
ATOM     27  H   UNL     1      27.060 -23.448  27.482  1.00  0.00     0.293 HD
ENDBRANCH   8  26
TORSDOF 6
ENDMDL
MODEL 3
REMARK VINA RESULT:    -5.864      2.706      3.591
REMARK INTER + INTRA:          -7.349
REMARK INTER:                  -7.165
REMARK INTRA:                  -0.185
REMARK UNBOUND:                -0.286
REMARK SMILES O=c1c(O)c(-c2ccc(O)c(O)c2)oc2cc(O)cc(O)c12
REMARK SMILES IDX 5 1 3 2 2 3 1 4 22 5 20 6 19 7 17 8 16 9 15 10 14 11 6 12
REMARK SMILES IDX 7 13 8 14 9 15 13 16 11 17 10 18 12 20 4 22 21 24 18 26
REMARK H PARENT 10 19 12 21 4 23 21 25 18 27
REMARK Flexibility Score: inf
ROOT
ATOM      1  C   UNL     1      29.751 -18.966  22.413  1.00  0.00     0.180 A 
ATOM      2  C   UNL     1      29.361 -19.831  23.449  1.00  0.00     0.208 A 
ATOM      3  C   UNL     1      29.933 -21.112  23.518  1.00  0.00     0.238 A 
ATOM      4  O   UNL     1      29.620 -21.863  24.479  1.00  0.00    -0.285 OA
ATOM      5  C   UNL     1      30.874 -21.518  22.540  1.00  0.00     0.111 A 
ATOM      6  C   UNL     1      31.487 -22.805  22.489  1.00  0.00     0.134 A 
ATOM      7  C   UNL     1      32.500 -23.052  21.556  1.00  0.00     0.093 A 
ATOM      8  C   UNL     1      32.879 -22.080  20.630  1.00  0.00     0.123 A 
ATOM      9  C   UNL     1      32.245 -20.837  20.632  1.00  0.00     0.094 A 
ATOM     10  C   UNL     1      31.255 -20.549  21.575  1.00  0.00     0.146 A 
ATOM     11  O   UNL     1      30.685 -19.351  21.550  1.00  0.00    -0.452 OA
ENDROOT
BRANCH   1  12
ATOM     12  C   UNL     1      29.175 -17.610  22.260  1.00  0.00     0.025 A 
ATOM     13  C   UNL     1      28.375 -17.276  21.154  1.00  0.00     0.016 A 
ATOM     14  C   UNL     1      27.861 -15.983  21.017  1.00  0.00     0.051 A 
ATOM     15  C   UNL     1      28.149 -15.004  21.972  1.00  0.00     0.157 A 
ATOM     16  C   UNL     1      29.480 -16.618  23.206  1.00  0.00     0.062 A 
ATOM     17  C   UNL     1      28.964 -15.320  23.071  1.00  0.00     0.158 A 
BRANCH  15  18
ATOM     18  O   UNL     1      27.621 -13.723  21.811  1.00  0.00    -0.504 OA
ATOM     19  H   UNL     1      27.309 -13.167  22.597  1.00  0.00     0.293 HD
ENDBRANCH  15  18
BRANCH  17  20
ATOM     20  O   UNL     1      29.262 -14.346  24.024  1.00  0.00    -0.504 OA
ATOM     21  H   UNL     1      29.539 -13.409  23.756  1.00  0.00     0.293 HD
ENDBRANCH  17  20
ENDBRANCH   1  12
BRANCH   2  22
ATOM     22  O   UNL     1      28.446 -19.404  24.415  1.00  0.00    -0.502 OA
ATOM     23  H   UNL     1      27.482 -19.190  24.195  1.00  0.00     0.293 HD
ENDBRANCH   2  22
BRANCH   6  24
ATOM     24  O   UNL     1      31.119 -23.878  23.308  1.00  0.00    -0.507 OA
ATOM     25  H   UNL     1      31.074 -24.840  23.009  1.00  0.00     0.293 HD
ENDBRANCH   6  24
BRANCH   8  26
ATOM     26  O   UNL     1      33.881 -22.365  19.706  1.00  0.00    -0.508 OA
ATOM     27  H   UNL     1      34.553 -21.663  19.419  1.00  0.00     0.293 HD
ENDBRANCH   8  26
TORSDOF 6
ENDMDL
MODEL 4
REMARK VINA RESULT:    -5.767      1.926      3.232
REMARK INTER + INTRA:          -7.233
REMARK INTER:                  -6.905
REMARK INTRA:                  -0.328
REMARK UNBOUND:                -0.286
REMARK SMILES O=c1c(O)c(-c2ccc(O)c(O)c2)oc2cc(O)cc(O)c12
REMARK SMILES IDX 5 1 3 2 2 3 1 4 22 5 20 6 19 7 17 8 16 9 15 10 14 11 6 12
REMARK SMILES IDX 7 13 8 14 9 15 13 16 11 17 10 18 12 20 4 22 21 24 18 26
REMARK H PARENT 10 19 12 21 4 23 21 25 18 27
REMARK Flexibility Score: inf
ROOT
ATOM      1  C   UNL     1      29.855 -19.014  23.009  1.00  0.00     0.180 A 
ATOM      2  C   UNL     1      30.518 -19.977  22.230  1.00  0.00     0.208 A 
ATOM      3  C   UNL     1      30.469 -21.324  22.627  1.00  0.00     0.238 A 
ATOM      4  O   UNL     1      31.019 -22.189  21.896  1.00  0.00    -0.285 OA
ATOM      5  C   UNL     1      29.773 -21.687  23.805  1.00  0.00     0.111 A 
ATOM      6  C   UNL     1      29.692 -23.015  24.322  1.00  0.00     0.134 A 
ATOM      7  C   UNL     1      28.868 -23.279  25.423  1.00  0.00     0.093 A 
ATOM      8  C   UNL     1      28.173 -22.254  26.064  1.00  0.00     0.123 A 
ATOM      9  C   UNL     1      28.291 -20.941  25.603  1.00  0.00     0.094 A 
ATOM     10  C   UNL     1      29.078 -20.653  24.485  1.00  0.00     0.146 A 
ATOM     11  O   UNL     1      29.156 -19.394  24.072  1.00  0.00    -0.452 OA
ENDROOT
BRANCH   1  12
ATOM     12  C   UNL     1      29.881 -17.572  22.670  1.00  0.00     0.025 A 
ATOM     13  C   UNL     1      30.857 -16.713  23.203  1.00  0.00     0.016 A 
ATOM     14  C   UNL     1      30.849 -15.351  22.888  1.00  0.00     0.051 A 
ATOM     15  C   UNL     1      29.861 -14.826  22.050  1.00  0.00     0.157 A 
ATOM     16  C   UNL     1      28.878 -17.037  21.845  1.00  0.00     0.062 A 
ATOM     17  C   UNL     1      28.868 -15.671  21.527  1.00  0.00     0.158 A 
BRANCH  15  18
ATOM     18  O   UNL     1      29.879 -13.464  21.751  1.00  0.00    -0.504 OA
ATOM     19  H   UNL     1      30.607 -13.047  21.184  1.00  0.00     0.293 HD
ENDBRANCH  15  18
BRANCH  17  20
ATOM     20  O   UNL     1      27.876 -15.152  20.696  1.00  0.00    -0.504 OA
ATOM     21  H   UNL     1      27.439 -15.716  19.976  1.00  0.00     0.293 HD
ENDBRANCH  17  20
ENDBRANCH   1  12
BRANCH   2  22
ATOM     22  O   UNL     1      31.182 -19.601  21.059  1.00  0.00    -0.502 OA
ATOM     23  H   UNL     1      31.425 -20.264  20.335  1.00  0.00     0.293 HD
ENDBRANCH   2  22
BRANCH   6  24
ATOM     24  O   UNL     1      30.418 -24.096  23.813  1.00  0.00    -0.507 OA
ATOM     25  H   UNL     1      31.340 -24.030  23.410  1.00  0.00     0.293 HD
ENDBRANCH   6  24
BRANCH   8  26
ATOM     26  O   UNL     1      27.374 -22.550  27.166  1.00  0.00    -0.508 OA
ATOM     27  H   UNL     1      27.555 -22.144  28.077  1.00  0.00     0.293 HD
ENDBRANCH   8  26
TORSDOF 6
ENDMDL
MODEL 5
REMARK VINA RESULT:    -5.741      3.800      6.418
REMARK INTER + INTRA:          -7.201
REMARK INTER:                  -6.869
REMARK INTRA:                  -0.332
REMARK UNBOUND:                -0.286
REMARK SMILES O=c1c(O)c(-c2ccc(O)c(O)c2)oc2cc(O)cc(O)c12
REMARK SMILES IDX 5 1 3 2 2 3 1 4 22 5 20 6 19 7 17 8 16 9 15 10 14 11 6 12
REMARK SMILES IDX 7 13 8 14 9 15 13 16 11 17 10 18 12 20 4 22 21 24 18 26
REMARK H PARENT 10 19 12 21 4 23 21 25 18 27
REMARK Flexibility Score: inf
ROOT
ATOM      1  C   UNL     1      31.221 -21.843  22.954  1.00  0.00     0.180 A 
ATOM      2  C   UNL     1      30.686 -23.116  23.214  1.00  0.00     0.208 A 
ATOM      3  C   UNL     1      29.578 -23.226  24.070  1.00  0.00     0.238 A 
ATOM      4  O   UNL     1      29.069 -24.363  24.256  1.00  0.00    -0.285 OA
ATOM      5  C   UNL     1      29.030 -22.065  24.667  1.00  0.00     0.111 A 
ATOM      6  C   UNL     1      27.933 -22.063  25.580  1.00  0.00     0.134 A 
ATOM      7  C   UNL     1      27.391 -20.845  26.007  1.00  0.00     0.093 A 
ATOM      8  C   UNL     1      27.945 -19.630  25.605  1.00  0.00     0.123 A 
ATOM      9  C   UNL     1      29.055 -19.621  24.759  1.00  0.00     0.094 A 
ATOM     10  C   UNL     1      29.596 -20.820  24.288  1.00  0.00     0.146 A 
ATOM     11  O   UNL     1      30.645 -20.767  23.476  1.00  0.00    -0.452 OA
ENDROOT
BRANCH   1  12
ATOM     12  C   UNL     1      32.404 -21.648  22.083  1.00  0.00     0.025 A 
ATOM     13  C   UNL     1      33.710 -21.739  22.593  1.00  0.00     0.016 A 
ATOM     14  C   UNL     1      34.811 -21.528  21.757  1.00  0.00     0.051 A 
ATOM     15  C   UNL     1      34.625 -21.211  20.409  1.00  0.00     0.157 A 
ATOM     16  C   UNL     1      32.220 -21.309  20.732  1.00  0.00     0.062 A 
ATOM     17  C   UNL     1      33.323 -21.098  19.893  1.00  0.00     0.158 A 
BRANCH  15  18
ATOM     18  O   UNL     1      35.741 -21.008  19.599  1.00  0.00    -0.504 OA
ATOM     19  H   UNL     1      36.211 -21.771  19.129  1.00  0.00     0.293 HD
ENDBRANCH  15  18
BRANCH  17  20
ATOM     20  O   UNL     1      33.130 -20.775  18.550  1.00  0.00    -0.504 OA
ATOM     21  H   UNL     1      33.824 -20.996  17.845  1.00  0.00     0.293 HD
ENDBRANCH  17  20
ENDBRANCH   1  12
BRANCH   2  22
ATOM     22  O   UNL     1      31.229 -24.247  22.598  1.00  0.00    -0.502 OA
ATOM     23  H   UNL     1      31.738 -24.955  23.112  1.00  0.00     0.293 HD
ENDBRANCH   2  22
BRANCH   6  24
ATOM     24  O   UNL     1      27.363 -23.222  26.117  1.00  0.00    -0.507 OA
ATOM     25  H   UNL     1      26.479 -23.255  26.604  1.00  0.00     0.293 HD
ENDBRANCH   6  24
BRANCH   8  26
ATOM     26  O   UNL     1      27.389 -18.438  26.061  1.00  0.00    -0.508 OA
ATOM     27  H   UNL     1      27.802 -17.540  25.835  1.00  0.00     0.293 HD
ENDBRANCH   8  26
TORSDOF 6
ENDMDL
MODEL 6
REMARK VINA RESULT:    -5.695      1.674      6.737
REMARK INTER + INTRA:          -7.146
REMARK INTER:                  -6.864
REMARK INTRA:                  -0.282
REMARK UNBOUND:                -0.286
REMARK SMILES O=c1c(O)c(-c2ccc(O)c(O)c2)oc2cc(O)cc(O)c12
REMARK SMILES IDX 5 1 3 2 2 3 1 4 22 5 20 6 19 7 17 8 16 9 15 10 14 11 6 12
REMARK SMILES IDX 7 13 8 14 9 15 13 16 11 17 10 18 12 20 4 22 21 24 18 26
REMARK H PARENT 10 19 12 21 4 23 21 25 18 27
REMARK Flexibility Score: inf
ROOT
ATOM      1  C   UNL     1      29.535 -18.264  23.607  1.00  0.00     0.180 A 
ATOM      2  C   UNL     1      30.076 -17.678  24.764  1.00  0.00     0.208 A 
ATOM      3  C   UNL     1      29.981 -16.287  24.931  1.00  0.00     0.238 A 
ATOM      4  O   UNL     1      30.418 -15.774  25.994  1.00  0.00    -0.285 OA
ATOM      5  C   UNL     1      29.361 -15.498  23.931  1.00  0.00     0.111 A 
ATOM      6  C   UNL     1      29.244 -14.077  23.976  1.00  0.00     0.134 A 
ATOM      7  C   UNL     1      28.497 -13.413  22.996  1.00  0.00     0.093 A 
ATOM      8  C   UNL     1      27.917 -14.111  21.937  1.00  0.00     0.123 A 
ATOM      9  C   UNL     1      28.075 -15.496  21.850  1.00  0.00     0.094 A 
ATOM     10  C   UNL     1      28.785 -16.189  22.833  1.00  0.00     0.146 A 
ATOM     11  O   UNL     1      28.903 -17.507  22.719  1.00  0.00    -0.452 OA
ENDROOT
BRANCH   1  12
ATOM     12  C   UNL     1      29.619 -19.721  23.349  1.00  0.00     0.025 A 
ATOM     13  C   UNL     1      28.764 -20.628  23.997  1.00  0.00     0.016 A 
ATOM     14  C   UNL     1      28.877 -22.001  23.757  1.00  0.00     0.051 A 
ATOM     15  C   UNL     1      29.851 -22.487  22.879  1.00  0.00     0.157 A 
ATOM     16  C   UNL     1      30.611 -20.214  22.485  1.00  0.00     0.062 A 
ATOM     17  C   UNL     1      30.724 -21.591  22.242  1.00  0.00     0.158 A 
BRANCH  15  18
ATOM     18  O   UNL     1      29.939 -23.861  22.657  1.00  0.00    -0.504 OA
ATOM     19  H   UNL     1      29.832 -24.265  21.735  1.00  0.00     0.293 HD
ENDBRANCH  15  18
BRANCH  17  20
ATOM     20  O   UNL     1      31.703 -22.069  21.371  1.00  0.00    -0.504 OA
ATOM     21  H   UNL     1      32.070 -21.497  20.619  1.00  0.00     0.293 HD
ENDBRANCH  17  20
ENDBRANCH   1  12
BRANCH   2  22
ATOM     22  O   UNL     1      30.665 -18.477  25.749  1.00  0.00    -0.502 OA
ATOM     23  H   UNL     1      31.631 -18.368  26.032  1.00  0.00     0.293 HD
ENDBRANCH   2  22
BRANCH   6  24
ATOM     24  O   UNL     1      29.861 -13.273  24.939  1.00  0.00    -0.507 OA
ATOM     25  H   UNL     1      29.715 -13.354  25.935  1.00  0.00     0.293 HD
ENDBRANCH   6  24
BRANCH   8  26
ATOM     26  O   UNL     1      27.193 -13.417  20.971  1.00  0.00    -0.508 OA
ATOM     27  H   UNL     1      26.984 -12.430  21.072  1.00  0.00     0.293 HD
ENDBRANCH   8  26
TORSDOF 6
ENDMDL
MODEL 7
REMARK VINA RESULT:    -5.680      1.957      2.626
REMARK INTER + INTRA:          -7.128
REMARK INTER:                  -6.805
REMARK INTRA:                  -0.323
REMARK UNBOUND:                -0.286
REMARK SMILES O=c1c(O)c(-c2ccc(O)c(O)c2)oc2cc(O)cc(O)c12
REMARK SMILES IDX 5 1 3 2 2 3 1 4 22 5 20 6 19 7 17 8 16 9 15 10 14 11 6 12
REMARK SMILES IDX 7 13 8 14 9 15 13 16 11 17 10 18 12 20 4 22 21 24 18 26
REMARK H PARENT 10 19 12 21 4 23 21 25 18 27
REMARK Flexibility Score: inf
ROOT
ATOM      1  C   UNL     1      29.404 -16.240  24.897  1.00  0.00     0.180 A 
ATOM      2  C   UNL     1      30.223 -15.740  25.923  1.00  0.00     0.208 A 
ATOM      3  C   UNL     1      30.479 -16.547  27.044  1.00  0.00     0.238 A 
ATOM      4  O   UNL     1      31.258 -16.116  27.934  1.00  0.00    -0.285 OA
ATOM      5  C   UNL     1      29.899 -17.836  27.132  1.00  0.00     0.111 A 
ATOM      6  C   UNL     1      30.058 -18.723  28.239  1.00  0.00     0.134 A 
ATOM      7  C   UNL     1      29.547 -20.023  28.161  1.00  0.00     0.093 A 
ATOM      8  C   UNL     1      28.827 -20.449  27.045  1.00  0.00     0.123 A 
ATOM      9  C   UNL     1      28.614 -19.570  25.981  1.00  0.00     0.094 A 
ATOM     10  C   UNL     1      29.143 -18.278  26.015  1.00  0.00     0.146 A 
ATOM     11  O   UNL     1      28.928 -17.477  24.978  1.00  0.00    -0.452 OA
ENDROOT
BRANCH   1  12
ATOM     12  C   UNL     1      29.068 -15.439  23.697  1.00  0.00     0.025 A 
ATOM     13  C   UNL     1      29.889 -15.452  22.557  1.00  0.00     0.016 A 
ATOM     14  C   UNL     1      29.565 -14.670  21.444  1.00  0.00     0.051 A 
ATOM     15  C   UNL     1      28.429 -13.856  21.458  1.00  0.00     0.157 A 
ATOM     16  C   UNL     1      27.938 -14.604  23.716  1.00  0.00     0.062 A 
ATOM     17  C   UNL     1      27.612 -13.820  22.600  1.00  0.00     0.158 A 
BRANCH  15  18
ATOM     18  O   UNL     1      28.130 -13.089  20.333  1.00  0.00    -0.504 OA
ATOM     19  H   UNL     1      27.248 -12.603  20.232  1.00  0.00     0.293 HD
ENDBRANCH  15  18
BRANCH  17  20
ATOM     20  O   UNL     1      26.481 -13.005  22.624  1.00  0.00    -0.504 OA
ATOM     21  H   UNL     1      26.508 -12.070  23.017  1.00  0.00     0.293 HD
ENDBRANCH  17  20
ENDBRANCH   1  12
BRANCH   2  22
ATOM     22  O   UNL     1      30.803 -14.474  25.807  1.00  0.00    -0.502 OA
ATOM     23  H   UNL     1      31.648 -14.309  25.275  1.00  0.00     0.293 HD
ENDBRANCH   2  22
BRANCH   6  24
ATOM     24  O   UNL     1      30.681 -18.369  29.439  1.00  0.00    -0.507 OA
ATOM     25  H   UNL     1      30.602 -17.466  29.883  1.00  0.00     0.293 HD
ENDBRANCH   6  24
BRANCH   8  26
ATOM     26  O   UNL     1      28.319 -21.745  27.007  1.00  0.00    -0.508 OA
ATOM     27  H   UNL     1      28.842 -22.530  27.379  1.00  0.00     0.293 HD
ENDBRANCH   8  26
TORSDOF 6
ENDMDL
MODEL 8
REMARK VINA RESULT:    -5.558      2.276      3.137
REMARK INTER + INTRA:          -6.981
REMARK INTER:                  -6.684
REMARK INTRA:                  -0.296
REMARK UNBOUND:                -0.286
REMARK SMILES O=c1c(O)c(-c2ccc(O)c(O)c2)oc2cc(O)cc(O)c12
REMARK SMILES IDX 5 1 3 2 2 3 1 4 22 5 20 6 19 7 17 8 16 9 15 10 14 11 6 12
REMARK SMILES IDX 7 13 8 14 9 15 13 16 11 17 10 18 12 20 4 22 21 24 18 26
REMARK H PARENT 10 19 12 21 4 23 21 25 18 27
REMARK Flexibility Score: inf
ROOT
ATOM      1  C   UNL     1      29.978 -18.514  23.086  1.00  0.00     0.180 A 
ATOM      2  C   UNL     1      31.352 -18.646  22.824  1.00  0.00     0.208 A 
ATOM      3  C   UNL     1      31.931 -19.925  22.851  1.00  0.00     0.238 A 
ATOM      4  O   UNL     1      33.151 -20.043  22.563  1.00  0.00    -0.285 OA
ATOM      5  C   UNL     1      31.132 -21.054  23.156  1.00  0.00     0.111 A 
ATOM      6  C   UNL     1      31.620 -22.392  23.250  1.00  0.00     0.134 A 
ATOM      7  C   UNL     1      30.717 -23.446  23.428  1.00  0.00     0.093 A 
ATOM      8  C   UNL     1      29.351 -23.207  23.581  1.00  0.00     0.123 A 
ATOM      9  C   UNL     1      28.869 -21.897  23.549  1.00  0.00     0.094 A 
ATOM     10  C   UNL     1      29.743 -20.827  23.337  1.00  0.00     0.146 A 
ATOM     11  O   UNL     1      29.243 -19.598  23.304  1.00  0.00    -0.452 OA
ENDROOT
BRANCH   1  12
ATOM     12  C   UNL     1      29.302 -17.196  23.100  1.00  0.00     0.025 A 
ATOM     13  C   UNL     1      28.999 -16.543  24.306  1.00  0.00     0.016 A 
ATOM     14  C   UNL     1      28.338 -15.311  24.297  1.00  0.00     0.051 A 
ATOM     15  C   UNL     1      27.959 -14.721  23.087  1.00  0.00     0.157 A 
ATOM     16  C   UNL     1      28.900 -16.612  21.887  1.00  0.00     0.062 A 
ATOM     17  C   UNL     1      28.238 -15.375  21.876  1.00  0.00     0.158 A 
BRANCH  15  18
ATOM     18  O   UNL     1      27.303 -13.491  23.108  1.00  0.00    -0.504 OA
ATOM     19  H   UNL     1      27.432 -12.826  23.860  1.00  0.00     0.293 HD
ENDBRANCH  15  18
BRANCH  17  20
ATOM     20  O   UNL     1      27.856 -14.797  20.666  1.00  0.00    -0.504 OA
ATOM     21  H   UNL     1      28.111 -15.210  19.776  1.00  0.00     0.293 HD
ENDBRANCH  17  20
ENDBRANCH   1  12
BRANCH   2  22
ATOM     22  O   UNL     1      32.119 -17.522  22.505  1.00  0.00    -0.502 OA
ATOM     23  H   UNL     1      32.915 -17.231  23.059  1.00  0.00     0.293 HD
ENDBRANCH   2  22
BRANCH   6  24
ATOM     24  O   UNL     1      32.975 -22.733  23.204  1.00  0.00    -0.507 OA
ATOM     25  H   UNL     1      33.341 -23.581  22.797  1.00  0.00     0.293 HD
ENDBRANCH   6  24
BRANCH   8  26
ATOM     26  O   UNL     1      28.483 -24.279  23.772  1.00  0.00    -0.508 OA
ATOM     27  H   UNL     1      27.680 -24.424  23.170  1.00  0.00     0.293 HD
ENDBRANCH   8  26
TORSDOF 6
ENDMDL
MODEL 9
REMARK VINA RESULT:    -5.468      1.702      7.003
REMARK INTER + INTRA:          -6.873
REMARK INTER:                  -6.538
REMARK INTRA:                  -0.334
REMARK UNBOUND:                -0.286
REMARK SMILES O=c1c(O)c(-c2ccc(O)c(O)c2)oc2cc(O)cc(O)c12
REMARK SMILES IDX 5 1 3 2 2 3 1 4 22 5 20 6 19 7 17 8 16 9 15 10 14 11 6 12
REMARK SMILES IDX 7 13 8 14 9 15 13 16 11 17 10 18 12 20 4 22 21 24 18 26
REMARK H PARENT 10 19 12 21 4 23 21 25 18 27
REMARK Flexibility Score: inf
ROOT
ATOM      1  C   UNL     1      29.865 -18.259  23.171  1.00  0.00     0.180 A 
ATOM      2  C   UNL     1      31.190 -17.794  23.220  1.00  0.00     0.208 A 
ATOM      3  C   UNL     1      31.475 -16.498  22.760  1.00  0.00     0.238 A 
ATOM      4  O   UNL     1      32.654 -16.068  22.857  1.00  0.00    -0.285 OA
ATOM      5  C   UNL     1      30.435 -15.690  22.242  1.00  0.00     0.111 A 
ATOM      6  C   UNL     1      30.615 -14.377  21.713  1.00  0.00     0.134 A 
ATOM      7  C   UNL     1      29.496 -13.619  21.348  1.00  0.00     0.093 A 
ATOM      8  C   UNL     1      28.208 -14.148  21.433  1.00  0.00     0.123 A 
ATOM      9  C   UNL     1      28.025 -15.453  21.894  1.00  0.00     0.094 A 
ATOM     10  C   UNL     1      29.119 -16.221  22.299  1.00  0.00     0.146 A 
ATOM     11  O   UNL     1      28.901 -17.453  22.741  1.00  0.00    -0.452 OA
ENDROOT
BRANCH   1  12
ATOM     12  C   UNL     1      29.491 -19.622  23.614  1.00  0.00     0.025 A 
ATOM     13  C   UNL     1      29.528 -20.714  22.731  1.00  0.00     0.016 A 
ATOM     14  C   UNL     1      29.147 -21.987  23.164  1.00  0.00     0.051 A 
ATOM     15  C   UNL     1      28.712 -22.186  24.478  1.00  0.00     0.157 A 
ATOM     16  C   UNL     1      29.033 -19.821  24.927  1.00  0.00     0.062 A 
ATOM     17  C   UNL     1      28.652 -21.098  25.364  1.00  0.00     0.158 A 
BRANCH  15  18
ATOM     18  O   UNL     1      28.341 -23.467  24.883  1.00  0.00    -0.504 OA
ATOM     19  H   UNL     1      27.550 -23.631  25.494  1.00  0.00     0.293 HD
ENDBRANCH  15  18
BRANCH  17  20
ATOM     20  O   UNL     1      28.212 -21.288  26.674  1.00  0.00    -0.504 OA
ATOM     21  H   UNL     1      27.626 -22.075  26.928  1.00  0.00     0.293 HD
ENDBRANCH  17  20
ENDBRANCH   1  12
BRANCH   2  22
ATOM     22  O   UNL     1      32.199 -18.601  23.755  1.00  0.00    -0.502 OA
ATOM     23  H   UNL     1      32.955 -18.971  23.192  1.00  0.00     0.293 HD
ENDBRANCH   2  22
BRANCH   6  24
ATOM     24  O   UNL     1      31.864 -13.786  21.499  1.00  0.00    -0.507 OA
ATOM     25  H   UNL     1      32.045 -12.794  21.540  1.00  0.00     0.293 HD
ENDBRANCH   6  24
BRANCH   8  26
ATOM     26  O   UNL     1      27.119 -13.371  21.048  1.00  0.00    -0.508 OA
ATOM     27  H   UNL     1      26.224 -13.443  21.518  1.00  0.00     0.293 HD
ENDBRANCH   8  26
TORSDOF 6
ENDMDL
