MODEL 1
REMARK VINA RESULT:    -3.538      0.000      0.000
REMARK INTER + INTRA:          -4.839
REMARK INTER:                  -4.572
REMARK INTRA:                  -0.267
REMARK UNBOUND:                -0.267
REMARK SMILES CCOC(=O)C=Cc1ccc(O)c(O)c1
REMARK SMILES IDX 6 1 7 2 4 3 5 4 3 5 2 6 1 7 8 8 15 9 9 10 13 11 10 12 11 13
REMARK SMILES IDX 14 14 12 16
REMARK H PARENT 14 15 12 17
REMARK Flexibility Score: inf
ROOT
ATOM      1  C   UNL     1     -10.387 -20.529  18.142  1.00  0.00     0.094 C 
ATOM      2  C   UNL     1     -11.078 -20.418  19.286  1.00  0.00     0.016 C 
ENDROOT
BRANCH   1   3
ATOM      3  C   UNL     1     -10.883 -19.965  16.876  1.00  0.00     0.330 C 
ATOM      4  O   UNL     1     -11.124 -18.729  16.811  1.00  0.00    -0.247 OA
BRANCH   3   5
ATOM      5  O   UNL     1     -11.079 -20.788  15.761  1.00  0.00    -0.463 OA
BRANCH   5   6
ATOM      6  C   UNL     1     -10.560 -20.493  14.465  1.00  0.00     0.230 C 
ATOM      7  C   UNL     1      -9.038 -20.576  14.463  1.00  0.00     0.049 C 
ENDBRANCH   5   6
ENDBRANCH   3   5
ENDBRANCH   1   3
BRANCH   2   8
ATOM      8  C   UNL     1     -10.622 -20.979  20.582  1.00  0.00    -0.021 A 
ATOM      9  C   UNL     1      -9.629 -20.294  21.299  1.00  0.00     0.058 A 
ATOM     10  C   UNL     1     -11.121 -22.188  21.100  1.00  0.00     0.012 A 
ATOM     11  C   UNL     1      -9.153 -20.781  22.523  1.00  0.00     0.157 A 
ATOM     12  C   UNL     1     -10.652 -22.681  22.318  1.00  0.00     0.051 A 
ATOM     13  C   UNL     1      -9.673 -21.989  23.041  1.00  0.00     0.157 A 
BRANCH  11  14
ATOM     14  O   UNL     1      -8.171 -20.039  23.182  1.00  0.00    -0.504 OA
ATOM     15  H   UNL     1      -8.357 -19.419  23.957  1.00  0.00     0.293 HD
ENDBRANCH  11  14
BRANCH  13  16
ATOM     16  O   UNL     1      -9.251 -22.535  24.255  1.00  0.00    -0.504 OA
ATOM     17  H   UNL     1      -8.946 -23.490  24.370  1.00  0.00     0.293 HD
ENDBRANCH  13  16
ENDBRANCH   2   8
TORSDOF 6
ENDMDL
MODEL 2
REMARK VINA RESULT:    -3.467      2.403      2.866
REMARK INTER + INTRA:          -4.747
REMARK INTER:                  -4.362
REMARK INTRA:                  -0.386
REMARK UNBOUND:                -0.267
REMARK SMILES CCOC(=O)C=Cc1ccc(O)c(O)c1
REMARK SMILES IDX 6 1 7 2 4 3 5 4 3 5 2 6 1 7 8 8 15 9 9 10 13 11 10 12 11 13
REMARK SMILES IDX 14 14 12 16
REMARK H PARENT 14 15 12 17
REMARK Flexibility Score: inf
ROOT
ATOM      1  C   UNL     1      -7.555 -21.837  17.591  1.00  0.00     0.094 C 
ATOM      2  C   UNL     1      -8.675 -22.200  18.232  1.00  0.00     0.016 C 
ENDROOT
BRANCH   1   3
ATOM      3  C   UNL     1      -7.398 -22.014  16.139  1.00  0.00     0.330 C 
ATOM      4  O   UNL     1      -6.997 -23.125  15.698  1.00  0.00    -0.247 OA
BRANCH   3   5
ATOM      5  O   UNL     1      -7.696 -20.965  15.259  1.00  0.00    -0.463 OA
BRANCH   5   6
ATOM      6  C   UNL     1      -8.914 -20.880  14.521  1.00  0.00     0.230 C 
ATOM      7  C   UNL     1     -10.005 -20.224  15.359  1.00  0.00     0.049 C 
ENDBRANCH   5   6
ENDBRANCH   3   5
ENDBRANCH   1   3
BRANCH   2   8
ATOM      8  C   UNL     1      -8.872 -22.051  19.695  1.00  0.00    -0.021 A 
ATOM      9  C   UNL     1      -9.681 -21.004  20.161  1.00  0.00     0.058 A 
ATOM     10  C   UNL     1      -8.251 -22.896  20.633  1.00  0.00     0.012 A 
ATOM     11  C   UNL     1      -9.896 -20.807  21.531  1.00  0.00     0.157 A 
ATOM     12  C   UNL     1      -8.459 -22.708  22.000  1.00  0.00     0.051 A 
ATOM     13  C   UNL     1      -9.279 -21.673  22.463  1.00  0.00     0.157 A 
BRANCH  11  14
ATOM     14  O   UNL     1     -10.721 -19.749  21.916  1.00  0.00    -0.504 OA
ATOM     15  H   UNL     1     -11.640 -19.866  22.320  1.00  0.00     0.293 HD
ENDBRANCH  11  14
BRANCH  13  16
ATOM     16  O   UNL     1      -9.449 -21.542  23.843  1.00  0.00    -0.504 OA
ATOM     17  H   UNL     1     -10.157 -22.028  24.374  1.00  0.00     0.293 HD
ENDBRANCH  13  16
ENDBRANCH   2   8
TORSDOF 6
ENDMDL
MODEL 3
REMARK VINA RESULT:    -3.464     17.272     19.971
REMARK INTER + INTRA:          -4.744
REMARK INTER:                  -4.793
REMARK INTRA:                   0.050
REMARK UNBOUND:                -0.267
REMARK SMILES CCOC(=O)C=Cc1ccc(O)c(O)c1
REMARK SMILES IDX 6 1 7 2 4 3 5 4 3 5 2 6 1 7 8 8 15 9 9 10 13 11 10 12 11 13
REMARK SMILES IDX 14 14 12 16
REMARK H PARENT 14 15 12 17
REMARK Flexibility Score: inf
ROOT
ATOM      1  C   UNL     1       6.330 -22.421  13.301  1.00  0.00     0.094 C 
ATOM      2  C   UNL     1       7.409 -21.677  13.017  1.00  0.00     0.016 C 
ENDROOT
BRANCH   1   3
ATOM      3  C   UNL     1       6.014 -22.839  14.677  1.00  0.00     0.330 C 
ATOM      4  O   UNL     1       4.816 -23.095  14.978  1.00  0.00    -0.247 OA
BRANCH   3   5
ATOM      5  O   UNL     1       7.029 -22.955  15.634  1.00  0.00    -0.463 OA
BRANCH   5   6
ATOM      6  C   UNL     1       7.184 -22.054  16.729  1.00  0.00     0.230 C 
ATOM      7  C   UNL     1       5.868 -21.887  17.480  1.00  0.00     0.049 C 
ENDBRANCH   5   6
ENDBRANCH   3   5
ENDBRANCH   1   3
BRANCH   2   8
ATOM      8  C   UNL     1       7.772 -21.243  11.645  1.00  0.00    -0.021 A 
ATOM      9  C   UNL     1       7.008 -20.237  11.034  1.00  0.00     0.058 A 
ATOM     10  C   UNL     1       8.828 -21.825  10.922  1.00  0.00     0.012 A 
ATOM     11  C   UNL     1       7.297 -19.792   9.738  1.00  0.00     0.157 A 
ATOM     12  C   UNL     1       9.124 -21.389   9.629  1.00  0.00     0.051 A 
ATOM     13  C   UNL     1       8.372 -20.374   9.027  1.00  0.00     0.157 A 
BRANCH  11  14
ATOM     14  O   UNL     1       6.497 -18.782   9.201  1.00  0.00    -0.504 OA
ATOM     15  H   UNL     1       5.508 -18.689   9.383  1.00  0.00     0.293 HD
ENDBRANCH  11  14
BRANCH  13  16
ATOM     16  O   UNL     1       8.722 -19.982   7.733  1.00  0.00    -0.504 OA
ATOM     17  H   UNL     1       8.405 -20.447   6.896  1.00  0.00     0.293 HD
ENDBRANCH  13  16
ENDBRANCH   2   8
TORSDOF 6
ENDMDL
MODEL 4
REMARK VINA RESULT:    -3.377      1.884      6.581
REMARK INTER + INTRA:          -4.631
REMARK INTER:                  -4.369
REMARK INTRA:                  -0.263
REMARK UNBOUND:                -0.267
REMARK SMILES CCOC(=O)C=Cc1ccc(O)c(O)c1
REMARK SMILES IDX 6 1 7 2 4 3 5 4 3 5 2 6 1 7 8 8 15 9 9 10 13 11 10 12 11 13
REMARK SMILES IDX 14 14 12 16
REMARK H PARENT 14 15 12 17
REMARK Flexibility Score: inf
ROOT
ATOM      1  C   UNL     1      -9.781 -20.147  20.611  1.00  0.00     0.094 C 
ATOM      2  C   UNL     1      -9.820 -21.196  19.776  1.00  0.00     0.016 C 
ENDROOT
BRANCH   1   3
ATOM      3  C   UNL     1      -9.970 -20.301  22.062  1.00  0.00     0.330 C 
ATOM      4  O   UNL     1     -11.125 -20.154  22.547  1.00  0.00    -0.247 OA
BRANCH   3   5
ATOM      5  O   UNL     1      -8.885 -20.611  22.891  1.00  0.00    -0.463 OA
BRANCH   5   6
ATOM      6  C   UNL     1      -8.448 -21.945  23.148  1.00  0.00     0.230 C 
ATOM      7  C   UNL     1      -9.522 -22.729  23.892  1.00  0.00     0.049 C 
ENDBRANCH   5   6
ENDBRANCH   3   5
ENDBRANCH   1   3
BRANCH   2   8
ATOM      8  C   UNL     1      -9.645 -21.086  18.307  1.00  0.00    -0.021 A 
ATOM      9  C   UNL     1      -8.531 -21.700  17.715  1.00  0.00     0.058 A 
ATOM     10  C   UNL     1     -10.533 -20.362  17.491  1.00  0.00     0.012 A 
ATOM     11  C   UNL     1      -8.308 -21.623  16.334  1.00  0.00     0.157 A 
ATOM     12  C   UNL     1     -10.319 -20.280  16.114  1.00  0.00     0.051 A 
ATOM     13  C   UNL     1      -9.217 -20.905  15.522  1.00  0.00     0.157 A 
BRANCH  11  14
ATOM     14  O   UNL     1      -7.182 -22.267  15.818  1.00  0.00    -0.504 OA
ATOM     15  H   UNL     1      -6.261 -22.208  16.228  1.00  0.00     0.293 HD
ENDBRANCH  11  14
BRANCH  13  16
ATOM     16  O   UNL     1      -9.063 -20.787  14.139  1.00  0.00    -0.504 OA
ATOM     17  H   UNL     1      -9.286 -21.519  13.481  1.00  0.00     0.293 HD
ENDBRANCH  13  16
ENDBRANCH   2   8
TORSDOF 6
ENDMDL
MODEL 5
REMARK VINA RESULT:    -3.370      1.915      2.179
REMARK INTER + INTRA:          -4.621
REMARK INTER:                  -4.335
REMARK INTRA:                  -0.287
REMARK UNBOUND:                -0.267
REMARK SMILES CCOC(=O)C=Cc1ccc(O)c(O)c1
REMARK SMILES IDX 6 1 7 2 4 3 5 4 3 5 2 6 1 7 8 8 15 9 9 10 13 11 10 12 11 13
REMARK SMILES IDX 14 14 12 16
REMARK H PARENT 14 15 12 17
REMARK Flexibility Score: inf
ROOT
ATOM      1  C   UNL     1      -9.086 -21.539  17.852  1.00  0.00     0.094 C 
ATOM      2  C   UNL     1     -10.144 -21.163  18.584  1.00  0.00     0.016 C 
ENDROOT
BRANCH   1   3
ATOM      3  C   UNL     1      -9.005 -21.272  16.407  1.00  0.00     0.330 C 
ATOM      4  O   UNL     1      -9.969 -20.690  15.839  1.00  0.00    -0.247 OA
BRANCH   3   5
ATOM      5  O   UNL     1      -7.873 -21.653  15.676  1.00  0.00    -0.463 OA
BRANCH   5   6
ATOM      6  C   UNL     1      -6.994 -22.702  16.078  1.00  0.00     0.230 C 
ATOM      7  C   UNL     1      -5.636 -22.141  16.484  1.00  0.00     0.049 C 
ENDBRANCH   5   6
ENDBRANCH   3   5
ENDBRANCH   1   3
BRANCH   2   8
ATOM      8  C   UNL     1     -10.273 -21.421  20.040  1.00  0.00    -0.021 A 
ATOM      9  C   UNL     1      -9.687 -20.516  20.938  1.00  0.00     0.058 A 
ATOM     10  C   UNL     1     -10.928 -22.556  20.552  1.00  0.00     0.012 A 
ATOM     11  C   UNL     1      -9.767 -20.713  22.322  1.00  0.00     0.157 A 
ATOM     12  C   UNL     1     -11.013 -22.760  21.930  1.00  0.00     0.051 A 
ATOM     13  C   UNL     1     -10.442 -21.848  22.825  1.00  0.00     0.157 A 
BRANCH  11  14
ATOM     14  O   UNL     1      -9.166 -19.763  23.151  1.00  0.00    -0.504 OA
ATOM     15  H   UNL     1      -9.298 -19.723  24.152  1.00  0.00     0.293 HD
ENDBRANCH  11  14
BRANCH  13  16
ATOM     16  O   UNL     1     -10.566 -22.109  24.191  1.00  0.00    -0.504 OA
ATOM     17  H   UNL     1     -10.074 -21.601  24.911  1.00  0.00     0.293 HD
ENDBRANCH  13  16
ENDBRANCH   2   8
TORSDOF 6
ENDMDL
MODEL 6
REMARK VINA RESULT:    -2.773      3.105      6.397
REMARK INTER + INTRA:          -3.851
REMARK INTER:                  -3.607
REMARK INTRA:                  -0.243
REMARK UNBOUND:                -0.267
REMARK SMILES CCOC(=O)C=Cc1ccc(O)c(O)c1
REMARK SMILES IDX 6 1 7 2 4 3 5 4 3 5 2 6 1 7 8 8 15 9 9 10 13 11 10 12 11 13
REMARK SMILES IDX 14 14 12 16
REMARK H PARENT 14 15 12 17
REMARK Flexibility Score: inf
ROOT
ATOM      1  C   UNL     1      -9.491 -21.059  20.747  1.00  0.00     0.094 C 
ATOM      2  C   UNL     1      -9.629 -21.794  19.635  1.00  0.00     0.016 C 
ENDROOT
BRANCH   1   3
ATOM      3  C   UNL     1     -10.619 -20.807  21.658  1.00  0.00     0.330 C 
ATOM      4  O   UNL     1     -11.125 -19.653  21.701  1.00  0.00    -0.247 OA
BRANCH   3   5
ATOM      5  O   UNL     1     -11.125 -21.836  22.462  1.00  0.00    -0.463 OA
BRANCH   5   6
ATOM      6  C   UNL     1     -10.724 -22.046  23.815  1.00  0.00     0.230 C 
ATOM      7  C   UNL     1      -9.345 -22.693  23.874  1.00  0.00     0.049 C 
ENDBRANCH   5   6
ENDBRANCH   3   5
ENDBRANCH   1   3
BRANCH   2   8
ATOM      8  C   UNL     1      -8.524 -22.065  18.682  1.00  0.00    -0.021 A 
ATOM      9  C   UNL     1      -8.665 -21.642  17.351  1.00  0.00     0.058 A 
ATOM     10  C   UNL     1      -7.358 -22.759  19.053  1.00  0.00     0.012 A 
ATOM     11  C   UNL     1      -7.660 -21.878  16.405  1.00  0.00     0.157 A 
ATOM     12  C   UNL     1      -6.351 -22.998  18.116  1.00  0.00     0.051 A 
ATOM     13  C   UNL     1      -6.486 -22.563  16.793  1.00  0.00     0.157 A 
BRANCH  11  14
ATOM     14  O   UNL     1      -7.870 -21.419  15.103  1.00  0.00    -0.504 OA
ATOM     15  H   UNL     1      -8.354 -20.562  14.878  1.00  0.00     0.293 HD
ENDBRANCH  11  14
BRANCH  13  16
ATOM     16  O   UNL     1      -5.440 -22.831  15.908  1.00  0.00    -0.504 OA
ATOM     17  H   UNL     1      -5.117 -22.185  15.202  1.00  0.00     0.293 HD
ENDBRANCH  13  16
ENDBRANCH   2   8
TORSDOF 6
ENDMDL
MODEL 7
REMARK VINA RESULT:    -2.721     17.280     19.050
REMARK INTER + INTRA:          -3.783
REMARK INTER:                  -3.693
REMARK INTRA:                  -0.090
REMARK UNBOUND:                -0.267
REMARK SMILES CCOC(=O)C=Cc1ccc(O)c(O)c1
REMARK SMILES IDX 6 1 7 2 4 3 5 4 3 5 2 6 1 7 8 8 15 9 9 10 13 11 10 12 11 13
REMARK SMILES IDX 14 14 12 16
REMARK H PARENT 14 15 12 17
REMARK Flexibility Score: inf
ROOT
ATOM      1  C   UNL     1       7.001 -22.318  10.920  1.00  0.00     0.094 C 
ATOM      2  C   UNL     1       8.020 -22.438  11.784  1.00  0.00     0.016 C 
ENDROOT
BRANCH   1   3
ATOM      3  C   UNL     1       7.212 -22.322   9.464  1.00  0.00     0.330 C 
ATOM      4  O   UNL     1       6.496 -23.070   8.744  1.00  0.00    -0.247 OA
BRANCH   3   5
ATOM      5  O   UNL     1       8.189 -21.503   8.885  1.00  0.00    -0.463 OA
BRANCH   5   6
ATOM      6  C   UNL     1       8.248 -20.091   9.081  1.00  0.00     0.230 C 
ATOM      7  C   UNL     1       6.849 -19.515   9.271  1.00  0.00     0.049 C 
ENDBRANCH   5   6
ENDBRANCH   3   5
ENDBRANCH   1   3
BRANCH   2   8
ATOM      8  C   UNL     1       7.856 -22.428  13.258  1.00  0.00    -0.021 A 
ATOM      9  C   UNL     1       6.590 -22.708  13.796  1.00  0.00     0.058 A 
ATOM     10  C   UNL     1       8.910 -22.114  14.135  1.00  0.00     0.012 A 
ATOM     11  C   UNL     1       6.373 -22.704  15.180  1.00  0.00     0.157 A 
ATOM     12  C   UNL     1       8.702 -22.107  15.515  1.00  0.00     0.051 A 
ATOM     13  C   UNL     1       7.444 -22.402  16.051  1.00  0.00     0.157 A 
BRANCH  11  14
ATOM     14  O   UNL     1       5.088 -23.002  15.638  1.00  0.00    -0.504 OA
ATOM     15  H   UNL     1       4.241 -22.649  15.215  1.00  0.00     0.293 HD
ENDBRANCH  11  14
BRANCH  13  16
ATOM     16  O   UNL     1       7.305 -22.382  17.441  1.00  0.00    -0.504 OA
ATOM     17  H   UNL     1       8.050 -22.150  18.080  1.00  0.00     0.293 HD
ENDBRANCH  13  16
ENDBRANCH   2   8
TORSDOF 6
ENDMDL
MODEL 8
REMARK VINA RESULT:    -2.607      3.661      4.198
REMARK INTER + INTRA:          -3.636
REMARK INTER:                  -3.430
REMARK INTRA:                  -0.206
REMARK UNBOUND:                -0.267
REMARK SMILES CCOC(=O)C=Cc1ccc(O)c(O)c1
REMARK SMILES IDX 6 1 7 2 4 3 5 4 3 5 2 6 1 7 8 8 15 9 9 10 13 11 10 12 11 13
REMARK SMILES IDX 14 14 12 16
REMARK H PARENT 14 15 12 17
REMARK Flexibility Score: inf
ROOT
ATOM      1  C   UNL     1      -7.440 -22.000  17.610  1.00  0.00     0.094 C 
ATOM      2  C   UNL     1      -8.197 -22.646  18.508  1.00  0.00     0.016 C 
ENDROOT
BRANCH   1   3
ATOM      3  C   UNL     1      -6.751 -22.709  16.519  1.00  0.00     0.330 C 
ATOM      4  O   UNL     1      -7.375 -22.933  15.446  1.00  0.00    -0.247 OA
BRANCH   3   5
ATOM      5  O   UNL     1      -5.422 -23.123  16.670  1.00  0.00    -0.463 OA
BRANCH   5   6
ATOM      6  C   UNL     1      -4.301 -22.274  16.429  1.00  0.00     0.230 C 
ATOM      7  C   UNL     1      -3.017 -23.091  16.341  1.00  0.00     0.049 C 
ENDBRANCH   5   6
ENDBRANCH   3   5
ENDBRANCH   1   3
BRANCH   2   8
ATOM      8  C   UNL     1      -8.900 -21.975  19.629  1.00  0.00    -0.021 A 
ATOM      9  C   UNL     1      -9.323 -20.647  19.458  1.00  0.00     0.058 A 
ATOM     10  C   UNL     1      -9.126 -22.604  20.866  1.00  0.00     0.012 A 
ATOM     11  C   UNL     1      -9.983 -19.959  20.485  1.00  0.00     0.157 A 
ATOM     12  C   UNL     1      -9.783 -21.926  21.894  1.00  0.00     0.051 A 
ATOM     13  C   UNL     1     -10.218 -20.608  21.718  1.00  0.00     0.157 A 
BRANCH  11  14
ATOM     14  O   UNL     1     -10.380 -18.644  20.236  1.00  0.00    -0.504 OA
ATOM     15  H   UNL     1     -10.002 -17.839  20.716  1.00  0.00     0.293 HD
ENDBRANCH  11  14
BRANCH  13  16
ATOM     16  O   UNL     1     -10.872 -19.988  22.785  1.00  0.00    -0.504 OA
ATOM     17  H   UNL     1     -11.817 -20.200  23.069  1.00  0.00     0.293 HD
ENDBRANCH  13  16
ENDBRANCH   2   8
TORSDOF 6
ENDMDL
MODEL 9
REMARK VINA RESULT:    -2.397     14.002     15.401
REMARK INTER + INTRA:          -3.364
REMARK INTER:                  -3.141
REMARK INTRA:                  -0.223
REMARK UNBOUND:                -0.267
REMARK SMILES CCOC(=O)C=Cc1ccc(O)c(O)c1
REMARK SMILES IDX 6 1 7 2 4 3 5 4 3 5 2 6 1 7 8 8 15 9 9 10 13 11 10 12 11 13
REMARK SMILES IDX 14 14 12 16
REMARK H PARENT 14 15 12 17
REMARK Flexibility Score: inf
ROOT
ATOM      1  C   UNL     1       2.455 -22.196  15.919  1.00  0.00     0.094 C 
ATOM      2  C   UNL     1       3.516 -22.964  15.635  1.00  0.00     0.016 C 
ENDROOT
BRANCH   1   3
ATOM      3  C   UNL     1       1.089 -22.579  15.527  1.00  0.00     0.330 C 
ATOM      4  O   UNL     1       0.906 -23.125  14.405  1.00  0.00    -0.247 OA
BRANCH   3   5
ATOM      5  O   UNL     1       0.011 -22.345  16.389  1.00  0.00    -0.463 OA
BRANCH   5   6
ATOM      6  C   UNL     1      -1.194 -23.109  16.366  1.00  0.00     0.230 C 
ATOM      7  C   UNL     1      -2.369 -22.246  15.920  1.00  0.00     0.049 C 
ENDBRANCH   5   6
ENDBRANCH   3   5
ENDBRANCH   1   3
BRANCH   2   8
ATOM      8  C   UNL     1       4.910 -22.613  16.000  1.00  0.00    -0.021 A 
ATOM      9  C   UNL     1       5.942 -22.939  15.106  1.00  0.00     0.058 A 
ATOM     10  C   UNL     1       5.241 -21.999  17.221  1.00  0.00     0.012 A 
ATOM     11  C   UNL     1       7.278 -22.641  15.400  1.00  0.00     0.157 A 
ATOM     12  C   UNL     1       6.571 -21.699  17.524  1.00  0.00     0.051 A 
ATOM     13  C   UNL     1       7.597 -22.010  16.625  1.00  0.00     0.157 A 
BRANCH  11  14
ATOM     14  O   UNL     1       8.247 -22.989  14.457  1.00  0.00    -0.504 OA
ATOM     15  H   UNL     1       9.189 -22.624  14.453  1.00  0.00     0.293 HD
ENDBRANCH  11  14
BRANCH  13  16
ATOM     16  O   UNL     1       8.904 -21.679  16.986  1.00  0.00    -0.504 OA
ATOM     17  H   UNL     1       9.510 -21.087  16.438  1.00  0.00     0.293 HD
ENDBRANCH  13  16
ENDBRANCH   2   8
TORSDOF 6
ENDMDL
