MODEL 1
REMARK VINA RESULT:    -6.257      0.000      0.000
REMARK INTER + INTRA:          -9.835
REMARK INTER:                  -8.269
REMARK INTRA:                  -1.565
REMARK UNBOUND:                -1.565
REMARK SMILES CC[C@@H](C=C[C@H](C)[C@@H]1CC[C@@H]2[C@H]3CC=C4C[C@H](O)CC[C@]4(C)[C@H]3CC[C@@]21C)C(C)C
REMARK SMILES IDX 6 1 7 2 5 3 4 4 3 5 2 6 1 7 28 8 29 9 30 10 8 11 9 12 26 13
REMARK SMILES IDX 10 14 11 15 25 16 27 17 12 18 24 19 23 20 13 21 21 22 14 23
REMARK SMILES IDX 15 24 20 25 22 26 16 27 19 28 17 29 18 30
REMARK H PARENT 18 31
REMARK Flexibility Score: inf
ROOT
ATOM      1  C   UNL     1       6.199 -20.972 -37.376  1.00  0.00     0.012 C 
ATOM      2  C   UNL     1       4.790 -21.585 -37.477  1.00  0.00     0.012 C 
ENDROOT
BRANCH   1   3
ATOM      3  C   UNL     1       6.294 -19.755 -36.440  1.00  0.00    -0.028 C 
ATOM      4  C   UNL     1       6.737 -18.483 -36.627  1.00  0.00    -0.027 C 
BRANCH   4   5
ATOM      5  C   UNL     1       7.242 -17.793 -37.891  1.00  0.00     0.014 C 
BRANCH   5   6
ATOM      6  C   UNL     1       8.785 -17.994 -37.962  1.00  0.00     0.004 C 
ATOM      7  C   UNL     1       9.392 -17.668 -39.335  1.00  0.00     0.004 C 
ENDBRANCH   5   6
BRANCH   5   8
ATOM      8  C   UNL     1       6.845 -16.271 -37.860  1.00  0.00    -0.011 C 
ATOM      9  C   UNL     1       5.648 -15.971 -38.784  1.00  0.00     0.008 C 
ATOM     10  C   UNL     1       6.506 -15.801 -36.434  1.00  0.00     0.008 C 
ENDBRANCH   5   8
ENDBRANCH   4   5
ENDBRANCH   1   3
BRANCH   1  11
ATOM     11  C   UNL     1       7.224 -22.130 -37.000  1.00  0.00     0.002 C 
ATOM     12  C   UNL     1       8.164 -21.889 -35.819  1.00  0.00     0.005 C 
ATOM     13  C   UNL     1       8.171 -22.635 -38.133  1.00  0.00    -0.026 C 
ATOM     14  C   UNL     1       9.188 -23.012 -35.892  1.00  0.00     0.005 C 
ATOM     15  C   UNL     1       9.176 -23.548 -37.347  1.00  0.00    -0.001 C 
ATOM     16  C   UNL     1       8.881 -21.441 -38.837  1.00  0.00     0.007 C 
ATOM     17  C   UNL     1       7.336 -23.444 -39.161  1.00  0.00     0.012 C 
ATOM     18  C   UNL     1      10.627 -23.697 -37.926  1.00  0.00     0.000 C 
ATOM     19  C   UNL     1      10.223 -21.788 -39.476  1.00  0.00     0.005 C 
ATOM     20  C   UNL     1      11.204 -22.358 -38.424  1.00  0.00     0.003 C 
ATOM     21  C   UNL     1      10.736 -24.804 -38.996  1.00  0.00     0.031 C 
ATOM     22  C   UNL     1      12.690 -22.507 -38.929  1.00  0.00    -0.008 C 
ATOM     23  C   UNL     1      12.013 -24.765 -39.804  1.00  0.00    -0.027 C 
ATOM     24  C   UNL     1      12.852 -23.714 -39.854  1.00  0.00    -0.065 C 
ATOM     25  C   UNL     1      13.674 -22.752 -37.733  1.00  0.00     0.014 C 
ATOM     26  C   UNL     1      13.114 -21.184 -39.640  1.00  0.00     0.016 C 
ATOM     27  C   UNL     1      14.235 -23.930 -40.425  1.00  0.00     0.063 C 
ATOM     28  C   UNL     1      15.129 -23.073 -38.173  1.00  0.00     0.033 C 
ATOM     29  C   UNL     1      15.211 -24.186 -39.260  1.00  0.00     0.118 C 
BRANCH  29  30
ATOM     30  O   UNL     1      14.934 -25.443 -38.684  1.00  0.00    -0.393 OA
ATOM     31  H   UNL     1      15.812 -25.858 -38.482  1.00  0.00     0.210 HD
ENDBRANCH  29  30
ENDBRANCH   1  11
TORSDOF 6
ENDMDL
MODEL 2
REMARK VINA RESULT:    -6.163      2.064      3.850
REMARK INTER + INTRA:          -9.710
REMARK INTER:                  -8.799
REMARK INTRA:                  -0.911
REMARK UNBOUND:                -1.565
REMARK SMILES CC[C@@H](C=C[C@H](C)[C@@H]1CC[C@@H]2[C@H]3CC=C4C[C@H](O)CC[C@]4(C)[C@H]3CC[C@@]21C)C(C)C
REMARK SMILES IDX 6 1 7 2 5 3 4 4 3 5 2 6 1 7 28 8 29 9 30 10 8 11 9 12 26 13
REMARK SMILES IDX 10 14 11 15 25 16 27 17 12 18 24 19 23 20 13 21 21 22 14 23
REMARK SMILES IDX 15 24 20 25 22 26 16 27 19 28 17 29 18 30
REMARK H PARENT 18 31
REMARK Flexibility Score: inf
ROOT
ATOM      1  C   UNL     1       7.037 -17.661 -37.492  1.00  0.00     0.012 C 
ATOM      2  C   UNL     1       6.229 -16.694 -38.377  1.00  0.00     0.012 C 
ENDROOT
BRANCH   1   3
ATOM      3  C   UNL     1       6.275 -18.180 -36.260  1.00  0.00    -0.028 C 
ATOM      4  C   UNL     1       5.652 -17.547 -35.230  1.00  0.00    -0.027 C 
BRANCH   4   5
ATOM      5  C   UNL     1       5.432 -16.058 -34.980  1.00  0.00     0.014 C 
BRANCH   5   6
ATOM      6  C   UNL     1       5.318 -15.843 -33.440  1.00  0.00     0.004 C 
ATOM      7  C   UNL     1       4.971 -17.119 -32.659  1.00  0.00     0.004 C 
ENDBRANCH   5   6
BRANCH   5   8
ATOM      8  C   UNL     1       4.143 -15.576 -35.740  1.00  0.00    -0.011 C 
ATOM      9  C   UNL     1       3.152 -16.733 -35.980  1.00  0.00     0.008 C 
ATOM     10  C   UNL     1       3.421 -14.451 -34.977  1.00  0.00     0.008 C 
ENDBRANCH   5   8
ENDBRANCH   4   5
ENDBRANCH   1   3
BRANCH   1  11
ATOM     11  C   UNL     1       7.602 -18.830 -38.414  1.00  0.00     0.002 C 
ATOM     12  C   UNL     1       7.566 -20.253 -37.857  1.00  0.00     0.005 C 
ATOM     13  C   UNL     1       9.063 -18.674 -38.942  1.00  0.00    -0.026 C 
ATOM     14  C   UNL     1       8.417 -21.075 -38.813  1.00  0.00     0.005 C 
ATOM     15  C   UNL     1       9.347 -20.085 -39.563  1.00  0.00    -0.001 C 
ATOM     16  C   UNL     1      10.040 -18.330 -37.778  1.00  0.00     0.007 C 
ATOM     17  C   UNL     1       9.091 -17.553 -40.014  1.00  0.00     0.012 C 
ATOM     18  C   UNL     1      10.834 -20.585 -39.583  1.00  0.00     0.000 C 
ATOM     19  C   UNL     1      11.486 -18.759 -38.017  1.00  0.00     0.005 C 
ATOM     20  C   UNL     1      11.575 -20.283 -38.267  1.00  0.00     0.003 C 
ATOM     21  C   UNL     1      11.619 -20.083 -40.814  1.00  0.00     0.031 C 
ATOM     22  C   UNL     1      13.043 -20.861 -38.270  1.00  0.00    -0.008 C 
ATOM     23  C   UNL     1      13.117 -20.261 -40.711  1.00  0.00    -0.027 C 
ATOM     24  C   UNL     1      13.777 -20.521 -39.568  1.00  0.00    -0.065 C 
ATOM     25  C   UNL     1      13.038 -22.425 -38.179  1.00  0.00     0.014 C 
ATOM     26  C   UNL     1      13.803 -20.307 -37.025  1.00  0.00     0.016 C 
ATOM     27  C   UNL     1      15.209 -20.999 -39.663  1.00  0.00     0.063 C 
ATOM     28  C   UNL     1      14.442 -23.068 -38.345  1.00  0.00     0.033 C 
ATOM     29  C   UNL     1      15.218 -22.538 -39.588  1.00  0.00     0.118 C 
BRANCH  29  30
ATOM     30  O   UNL     1      14.655 -23.068 -40.769  1.00  0.00    -0.393 OA
ATOM     31  H   UNL     1      13.741 -23.368 -40.532  1.00  0.00     0.210 HD
ENDBRANCH  29  30
ENDBRANCH   1  11
TORSDOF 6
ENDMDL
MODEL 3
REMARK VINA RESULT:    -6.146      1.656      2.451
REMARK INTER + INTRA:          -9.687
REMARK INTER:                  -8.527
REMARK INTRA:                  -1.161
REMARK UNBOUND:                -1.565
REMARK SMILES CC[C@@H](C=C[C@H](C)[C@@H]1CC[C@@H]2[C@H]3CC=C4C[C@H](O)CC[C@]4(C)[C@H]3CC[C@@]21C)C(C)C
REMARK SMILES IDX 6 1 7 2 5 3 4 4 3 5 2 6 1 7 28 8 29 9 30 10 8 11 9 12 26 13
REMARK SMILES IDX 10 14 11 15 25 16 27 17 12 18 24 19 23 20 13 21 21 22 14 23
REMARK SMILES IDX 15 24 20 25 22 26 16 27 19 28 17 29 18 30
REMARK H PARENT 18 31
REMARK Flexibility Score: inf
ROOT
ATOM      1  C   UNL     1       6.407 -19.363 -36.995  1.00  0.00     0.012 C 
ATOM      2  C   UNL     1       5.033 -19.788 -37.543  1.00  0.00     0.012 C 
ENDROOT
BRANCH   1   3
ATOM      3  C   UNL     1       6.352 -18.647 -35.634  1.00  0.00    -0.028 C 
ATOM      4  C   UNL     1       5.834 -17.452 -35.244  1.00  0.00    -0.027 C 
BRANCH   4   5
ATOM      5  C   UNL     1       5.045 -16.415 -36.038  1.00  0.00     0.014 C 
BRANCH   5   6
ATOM      6  C   UNL     1       6.058 -15.593 -36.892  1.00  0.00     0.004 C 
ATOM      7  C   UNL     1       6.055 -15.961 -38.383  1.00  0.00     0.004 C 
ENDBRANCH   5   6
BRANCH   5   8
ATOM      8  C   UNL     1       4.226 -15.502 -35.053  1.00  0.00    -0.011 C 
ATOM      9  C   UNL     1       4.937 -15.340 -33.695  1.00  0.00     0.008 C 
ATOM     10  C   UNL     1       3.969 -14.108 -35.652  1.00  0.00     0.008 C 
ENDBRANCH   5   8
ENDBRANCH   4   5
ENDBRANCH   1   3
BRANCH   1  11
ATOM     11  C   UNL     1       7.362 -20.636 -36.992  1.00  0.00     0.002 C 
ATOM     12  C   UNL     1       8.196 -20.895 -35.737  1.00  0.00     0.005 C 
ATOM     13  C   UNL     1       8.395 -20.752 -38.156  1.00  0.00    -0.026 C 
ATOM     14  C   UNL     1       9.192 -21.972 -36.138  1.00  0.00     0.005 C 
ATOM     15  C   UNL     1       9.299 -21.944 -37.685  1.00  0.00    -0.001 C 
ATOM     16  C   UNL     1       9.198 -19.427 -38.319  1.00  0.00     0.007 C 
ATOM     17  C   UNL     1       7.636 -21.084 -39.468  1.00  0.00     0.012 C 
ATOM     18  C   UNL     1      10.793 -21.958 -38.166  1.00  0.00     0.000 C 
ATOM     19  C   UNL     1      10.584 -19.597 -38.936  1.00  0.00     0.005 C 
ATOM     20  C   UNL     1      11.448 -20.566 -38.095  1.00  0.00     0.003 C 
ATOM     21  C   UNL     1      10.969 -22.608 -39.556  1.00  0.00     0.031 C 
ATOM     22  C   UNL     1      12.970 -20.609 -38.505  1.00  0.00    -0.008 C 
ATOM     23  C   UNL     1      12.316 -22.353 -40.194  1.00  0.00    -0.027 C 
ATOM     24  C   UNL     1      13.183 -21.406 -39.793  1.00  0.00    -0.065 C 
ATOM     25  C   UNL     1      13.833 -21.327 -37.411  1.00  0.00     0.014 C 
ATOM     26  C   UNL     1      13.493 -19.146 -38.649  1.00  0.00     0.016 C 
ATOM     27  C   UNL     1      14.607 -21.482 -40.297  1.00  0.00     0.063 C 
ATOM     28  C   UNL     1      15.313 -21.552 -37.826  1.00  0.00     0.033 C 
ATOM     29  C   UNL     1      15.464 -22.199 -39.236  1.00  0.00     0.118 C 
BRANCH  29  30
ATOM     30  O   UNL     1      15.102 -23.561 -39.182  1.00  0.00    -0.393 OA
ATOM     31  H   UNL     1      14.421 -23.696 -39.890  1.00  0.00     0.210 HD
ENDBRANCH  29  30
ENDBRANCH   1  11
TORSDOF 6
ENDMDL
MODEL 4
REMARK VINA RESULT:    -6.128      2.303      4.007
REMARK INTER + INTRA:          -9.664
REMARK INTER:                  -8.628
REMARK INTRA:                  -1.036
REMARK UNBOUND:                -1.565
REMARK SMILES CC[C@@H](C=C[C@H](C)[C@@H]1CC[C@@H]2[C@H]3CC=C4C[C@H](O)CC[C@]4(C)[C@H]3CC[C@@]21C)C(C)C
REMARK SMILES IDX 6 1 7 2 5 3 4 4 3 5 2 6 1 7 28 8 29 9 30 10 8 11 9 12 26 13
REMARK SMILES IDX 10 14 11 15 25 16 27 17 12 18 24 19 23 20 13 21 21 22 14 23
REMARK SMILES IDX 15 24 20 25 22 26 16 27 19 28 17 29 18 30
REMARK H PARENT 18 31
REMARK Flexibility Score: inf
ROOT
ATOM      1  C   UNL     1       5.317 -17.334 -37.563  1.00  0.00     0.012 C 
ATOM      2  C   UNL     1       3.810 -17.518 -37.309  1.00  0.00     0.012 C 
ENDROOT
BRANCH   1   3
ATOM      3  C   UNL     1       5.939 -16.130 -36.835  1.00  0.00    -0.028 C 
ATOM      4  C   UNL     1       5.602 -15.469 -35.696  1.00  0.00    -0.027 C 
BRANCH   4   5
ATOM      5  C   UNL     1       4.495 -15.753 -34.685  1.00  0.00     0.014 C 
BRANCH   5   6
ATOM      6  C   UNL     1       3.488 -14.565 -34.731  1.00  0.00     0.004 C 
ATOM      7  C   UNL     1       3.505 -13.787 -36.055  1.00  0.00     0.004 C 
ENDBRANCH   5   6
BRANCH   5   8
ATOM      8  C   UNL     1       5.118 -15.943 -33.253  1.00  0.00    -0.011 C 
ATOM      9  C   UNL     1       4.506 -14.969 -32.227  1.00  0.00     0.008 C 
ATOM     10  C   UNL     1       4.940 -17.384 -32.743  1.00  0.00     0.008 C 
ENDBRANCH   5   8
ENDBRANCH   4   5
ENDBRANCH   1   3
BRANCH   1  11
ATOM     11  C   UNL     1       6.052 -18.708 -37.238  1.00  0.00     0.002 C 
ATOM     12  C   UNL     1       6.787 -18.820 -35.902  1.00  0.00     0.005 C 
ATOM     13  C   UNL     1       7.095 -19.219 -38.281  1.00  0.00    -0.026 C 
ATOM     14  C   UNL     1       7.610 -20.096 -36.008  1.00  0.00     0.005 C 
ATOM     15  C   UNL     1       7.776 -20.409 -37.518  1.00  0.00    -0.001 C 
ATOM     16  C   UNL     1       8.108 -18.095 -38.651  1.00  0.00     0.007 C 
ATOM     17  C   UNL     1       6.341 -19.700 -39.549  1.00  0.00     0.012 C 
ATOM     18  C   UNL     1       9.264 -20.749 -37.882  1.00  0.00     0.000 C 
ATOM     19  C   UNL     1       9.469 -18.598 -39.124  1.00  0.00     0.005 C 
ATOM     20  C   UNL     1      10.134 -19.488 -38.048  1.00  0.00     0.003 C 
ATOM     21  C   UNL     1       9.383 -21.694 -39.097  1.00  0.00     0.031 C 
ATOM     22  C   UNL     1      11.643 -19.845 -38.335  1.00  0.00    -0.008 C 
ATOM     23  C   UNL     1      10.776 -21.785 -39.679  1.00  0.00    -0.027 C 
ATOM     24  C   UNL     1      11.770 -20.917 -39.418  1.00  0.00    -0.065 C 
ATOM     25  C   UNL     1      12.337 -20.439 -37.061  1.00  0.00     0.014 C 
ATOM     26  C   UNL     1      12.400 -18.540 -38.734  1.00  0.00     0.016 C 
ATOM     27  C   UNL     1      13.180 -21.311 -39.796  1.00  0.00     0.063 C 
ATOM     28  C   UNL     1      13.775 -20.967 -37.320  1.00  0.00     0.033 C 
ATOM     29  C   UNL     1      13.871 -21.910 -38.556  1.00  0.00     0.118 C 
BRANCH  29  30
ATOM     30  O   UNL     1      13.291 -23.160 -38.255  1.00  0.00    -0.393 OA
ATOM     31  H   UNL     1      12.627 -22.994 -37.537  1.00  0.00     0.210 HD
ENDBRANCH  29  30
ENDBRANCH   1  11
TORSDOF 6
ENDMDL
MODEL 5
REMARK VINA RESULT:    -6.081      3.539      8.765
REMARK INTER + INTRA:          -9.601
REMARK INTER:                  -8.220
REMARK INTRA:                  -1.381
REMARK UNBOUND:                -1.565
REMARK SMILES CC[C@@H](C=C[C@H](C)[C@@H]1CC[C@@H]2[C@H]3CC=C4C[C@H](O)CC[C@]4(C)[C@H]3CC[C@@]21C)C(C)C
REMARK SMILES IDX 6 1 7 2 5 3 4 4 3 5 2 6 1 7 28 8 29 9 30 10 8 11 9 12 26 13
REMARK SMILES IDX 10 14 11 15 25 16 27 17 12 18 24 19 23 20 13 21 21 22 14 23
REMARK SMILES IDX 15 24 20 25 22 26 16 27 19 28 17 29 18 30
REMARK H PARENT 18 31
REMARK Flexibility Score: inf
ROOT
ATOM      1  C   UNL     1      10.074 -21.279 -37.563  1.00  0.00     0.012 C 
ATOM      2  C   UNL     1      10.109 -22.472 -38.536  1.00  0.00     0.012 C 
ENDROOT
BRANCH   1   3
ATOM      3  C   UNL     1      11.442 -20.909 -36.964  1.00  0.00    -0.028 C 
ATOM      4  C   UNL     1      12.699 -20.894 -37.483  1.00  0.00    -0.027 C 
BRANCH   4   5
ATOM      5  C   UNL     1      13.181 -21.181 -38.902  1.00  0.00     0.014 C 
BRANCH   5   6
ATOM      6  C   UNL     1      14.501 -22.004 -38.801  1.00  0.00     0.004 C 
ATOM      7  C   UNL     1      15.102 -22.045 -37.389  1.00  0.00     0.004 C 
ENDBRANCH   5   6
BRANCH   5   8
ATOM      8  C   UNL     1      13.386 -19.828 -39.678  1.00  0.00    -0.011 C 
ATOM      9  C   UNL     1      12.254 -19.572 -40.693  1.00  0.00     0.008 C 
ATOM     10  C   UNL     1      13.476 -18.630 -38.716  1.00  0.00     0.008 C 
ENDBRANCH   5   8
ENDBRANCH   4   5
ENDBRANCH   1   3
BRANCH   1  11
ATOM     11  C   UNL     1       9.362 -20.057 -38.293  1.00  0.00     0.002 C 
ATOM     12  C   UNL     1       9.968 -18.666 -38.104  1.00  0.00     0.005 C 
ATOM     13  C   UNL     1       7.843 -19.843 -38.002  1.00  0.00    -0.026 C 
ATOM     14  C   UNL     1       8.930 -17.703 -38.659  1.00  0.00     0.005 C 
ATOM     15  C   UNL     1       7.569 -18.446 -38.660  1.00  0.00    -0.001 C 
ATOM     16  C   UNL     1       7.566 -19.842 -36.469  1.00  0.00     0.007 C 
ATOM     17  C   UNL     1       7.037 -20.976 -38.692  1.00  0.00     0.012 C 
ATOM     18  C   UNL     1       6.424 -17.566 -38.046  1.00  0.00     0.000 C 
ATOM     19  C   UNL     1       6.328 -19.054 -36.049  1.00  0.00     0.005 C 
ATOM     20  C   UNL     1       6.431 -17.579 -36.505  1.00  0.00     0.003 C 
ATOM     21  C   UNL     1       5.032 -17.908 -38.618  1.00  0.00     0.031 C 
ATOM     22  C   UNL     1       5.327 -16.629 -35.902  1.00  0.00    -0.008 C 
ATOM     23  C   UNL     1       3.877 -17.327 -37.834  1.00  0.00    -0.027 C 
ATOM     24  C   UNL     1       3.975 -16.833 -36.586  1.00  0.00    -0.065 C 
ATOM     25  C   UNL     1       5.694 -15.121 -36.121  1.00  0.00     0.014 C 
ATOM     26  C   UNL     1       5.230 -16.884 -34.365  1.00  0.00     0.016 C 
ATOM     27  C   UNL     1       2.833 -15.993 -36.060  1.00  0.00     0.063 C 
ATOM     28  C   UNL     1       4.571 -14.134 -35.699  1.00  0.00     0.033 C 
ATOM     29  C   UNL     1       3.175 -14.507 -36.282  1.00  0.00     0.118 C 
BRANCH  29  30
ATOM     30  O   UNL     1       3.135 -14.218 -37.662  1.00  0.00    -0.393 OA
ATOM     31  H   UNL     1       3.366 -15.062 -38.130  1.00  0.00     0.210 HD
ENDBRANCH  29  30
ENDBRANCH   1  11
TORSDOF 6
ENDMDL
MODEL 6
REMARK VINA RESULT:    -6.022      3.001      7.938
REMARK INTER + INTRA:          -9.524
REMARK INTER:                  -7.491
REMARK INTRA:                  -2.033
REMARK UNBOUND:                -1.565
REMARK SMILES CC[C@@H](C=C[C@H](C)[C@@H]1CC[C@@H]2[C@H]3CC=C4C[C@H](O)CC[C@]4(C)[C@H]3CC[C@@]21C)C(C)C
REMARK SMILES IDX 6 1 7 2 5 3 4 4 3 5 2 6 1 7 28 8 29 9 30 10 8 11 9 12 26 13
REMARK SMILES IDX 10 14 11 15 25 16 27 17 12 18 24 19 23 20 13 21 21 22 14 23
REMARK SMILES IDX 15 24 20 25 22 26 16 27 19 28 17 29 18 30
REMARK H PARENT 18 31
REMARK Flexibility Score: inf
ROOT
ATOM      1  C   UNL     1      11.824 -22.331 -39.151  1.00  0.00     0.012 C 
ATOM      2  C   UNL     1      13.077 -22.287 -40.045  1.00  0.00     0.012 C 
ENDROOT
BRANCH   1   3
ATOM      3  C   UNL     1      11.851 -23.432 -38.076  1.00  0.00    -0.028 C 
ATOM      4  C   UNL     1      10.891 -23.947 -37.262  1.00  0.00    -0.027 C 
BRANCH   4   5
ATOM      5  C   UNL     1       9.398 -23.642 -37.188  1.00  0.00     0.014 C 
BRANCH   5   6
ATOM      6  C   UNL     1       9.015 -23.487 -35.685  1.00  0.00     0.004 C 
ATOM      7  C   UNL     1       8.440 -22.109 -35.329  1.00  0.00     0.004 C 
ENDBRANCH   5   6
BRANCH   5   8
ATOM      8  C   UNL     1       8.585 -24.793 -37.888  1.00  0.00    -0.011 C 
ATOM      9  C   UNL     1       8.226 -24.436 -39.345  1.00  0.00     0.008 C 
ATOM     10  C   UNL     1       9.359 -26.123 -37.876  1.00  0.00     0.008 C 
ENDBRANCH   5   8
ENDBRANCH   4   5
ENDBRANCH   1   3
BRANCH   1  11
ATOM     11  C   UNL     1      11.587 -20.877 -38.548  1.00  0.00     0.002 C 
ATOM     12  C   UNL     1      11.450 -20.751 -37.031  1.00  0.00     0.005 C 
ATOM     13  C   UNL     1      10.369 -20.070 -39.100  1.00  0.00    -0.026 C 
ATOM     14  C   UNL     1      10.951 -19.334 -36.794  1.00  0.00     0.005 C 
ATOM     15  C   UNL     1      10.304 -18.849 -38.118  1.00  0.00    -0.001 C 
ATOM     16  C   UNL     1       9.071 -20.931 -39.064  1.00  0.00     0.007 C 
ATOM     17  C   UNL     1      10.680 -19.628 -40.554  1.00  0.00     0.012 C 
ATOM     18  C   UNL     1       8.902 -18.187 -37.873  1.00  0.00     0.000 C 
ATOM     19  C   UNL     1       7.778 -20.124 -38.967  1.00  0.00     0.005 C 
ATOM     20  C   UNL     1       7.779 -19.229 -37.706  1.00  0.00     0.003 C 
ATOM     21  C   UNL     1       8.547 -17.124 -38.934  1.00  0.00     0.031 C 
ATOM     22  C   UNL     1       6.392 -18.554 -37.382  1.00  0.00    -0.008 C 
ATOM     23  C   UNL     1       7.095 -16.703 -38.931  1.00  0.00    -0.027 C 
ATOM     24  C   UNL     1       6.107 -17.378 -38.317  1.00  0.00    -0.065 C 
ATOM     25  C   UNL     1       6.374 -17.960 -35.931  1.00  0.00     0.014 C 
ATOM     26  C   UNL     1       5.272 -19.637 -37.474  1.00  0.00     0.016 C 
ATOM     27  C   UNL     1       4.782 -16.678 -38.115  1.00  0.00     0.063 C 
ATOM     28  C   UNL     1       5.098 -17.135 -35.606  1.00  0.00     0.033 C 
ATOM     29  C   UNL     1       4.756 -16.076 -36.697  1.00  0.00     0.118 C 
BRANCH  29  30
ATOM     30  O   UNL     1       5.667 -15.002 -36.627  1.00  0.00    -0.393 OA
ATOM     31  H   UNL     1       6.454 -15.335 -36.123  1.00  0.00     0.210 HD
ENDBRANCH  29  30
ENDBRANCH   1  11
TORSDOF 6
ENDMDL
MODEL 7
REMARK VINA RESULT:    -6.022      3.043      7.945
REMARK INTER + INTRA:          -9.524
REMARK INTER:                  -7.871
REMARK INTRA:                  -1.652
REMARK UNBOUND:                -1.565
REMARK SMILES CC[C@@H](C=C[C@H](C)[C@@H]1CC[C@@H]2[C@H]3CC=C4C[C@H](O)CC[C@]4(C)[C@H]3CC[C@@]21C)C(C)C
REMARK SMILES IDX 6 1 7 2 5 3 4 4 3 5 2 6 1 7 28 8 29 9 30 10 8 11 9 12 26 13
REMARK SMILES IDX 10 14 11 15 25 16 27 17 12 18 24 19 23 20 13 21 21 22 14 23
REMARK SMILES IDX 15 24 20 25 22 26 16 27 19 28 17 29 18 30
REMARK H PARENT 18 31
REMARK Flexibility Score: inf
ROOT
ATOM      1  C   UNL     1      10.584 -22.897 -37.484  1.00  0.00     0.012 C 
ATOM      2  C   UNL     1      10.929 -24.254 -36.844  1.00  0.00     0.012 C 
ENDROOT
BRANCH   1   3
ATOM      3  C   UNL     1      10.869 -22.818 -38.994  1.00  0.00    -0.028 C 
ATOM      4  C   UNL     1      11.878 -22.257 -39.711  1.00  0.00    -0.027 C 
BRANCH   4   5
ATOM      5  C   UNL     1      13.148 -21.554 -39.240  1.00  0.00     0.014 C 
BRANCH   5   6
ATOM      6  C   UNL     1      13.949 -22.555 -38.354  1.00  0.00     0.004 C 
ATOM      7  C   UNL     1      14.471 -23.781 -39.117  1.00  0.00     0.004 C 
ENDBRANCH   5   6
BRANCH   5   8
ATOM      8  C   UNL     1      12.770 -20.244 -38.456  1.00  0.00    -0.011 C 
ATOM      9  C   UNL     1      13.511 -20.148 -37.107  1.00  0.00     0.008 C 
ATOM     10  C   UNL     1      13.071 -18.981 -39.282  1.00  0.00     0.008 C 
ENDBRANCH   5   8
ENDBRANCH   4   5
ENDBRANCH   1   3
BRANCH   1  11
ATOM     11  C   UNL     1       9.079 -22.536 -37.113  1.00  0.00     0.002 C 
ATOM     12  C   UNL     1       8.003 -22.816 -38.162  1.00  0.00     0.005 C 
ATOM     13  C   UNL     1       8.790 -21.069 -36.665  1.00  0.00    -0.026 C 
ATOM     14  C   UNL     1       6.755 -22.114 -37.648  1.00  0.00     0.005 C 
ATOM     15  C   UNL     1       7.222 -21.028 -36.644  1.00  0.00    -0.001 C 
ATOM     16  C   UNL     1       9.397 -20.051 -37.676  1.00  0.00     0.007 C 
ATOM     17  C   UNL     1       9.394 -20.848 -35.253  1.00  0.00     0.012 C 
ATOM     18  C   UNL     1       6.528 -19.647 -36.915  1.00  0.00     0.000 C 
ATOM     19  C   UNL     1       8.689 -18.698 -37.715  1.00  0.00     0.005 C 
ATOM     20  C   UNL     1       7.192 -18.868 -38.067  1.00  0.00     0.003 C 
ATOM     21  C   UNL     1       6.389 -18.785 -35.642  1.00  0.00     0.031 C 
ATOM     22  C   UNL     1       6.437 -17.520 -38.381  1.00  0.00    -0.008 C 
ATOM     23  C   UNL     1       6.033 -17.339 -35.906  1.00  0.00    -0.027 C 
ATOM     24  C   UNL     1       6.133 -16.736 -37.104  1.00  0.00    -0.065 C 
ATOM     25  C   UNL     1       5.049 -17.792 -39.057  1.00  0.00     0.014 C 
ATOM     26  C   UNL     1       7.301 -16.680 -39.373  1.00  0.00     0.016 C 
ATOM     27  C   UNL     1       5.439 -15.406 -37.294  1.00  0.00     0.063 C 
ATOM     28  C   UNL     1       4.181 -16.517 -39.241  1.00  0.00     0.033 C 
ATOM     29  C   UNL     1       4.065 -15.659 -37.946  1.00  0.00     0.118 C 
BRANCH  29  30
ATOM     30  O   UNL     1       3.217 -16.300 -37.018  1.00  0.00    -0.393 OA
ATOM     31  H   UNL     1       2.290 -16.057 -37.272  1.00  0.00     0.210 HD
ENDBRANCH  29  30
ENDBRANCH   1  11
TORSDOF 6
ENDMDL
MODEL 8
REMARK VINA RESULT:    -5.954      1.738      4.454
REMARK INTER + INTRA:          -9.433
REMARK INTER:                  -7.498
REMARK INTRA:                  -1.935
REMARK UNBOUND:                -1.565
REMARK SMILES CC[C@@H](C=C[C@H](C)[C@@H]1CC[C@@H]2[C@H]3CC=C4C[C@H](O)CC[C@]4(C)[C@H]3CC[C@@]21C)C(C)C
REMARK SMILES IDX 6 1 7 2 5 3 4 4 3 5 2 6 1 7 28 8 29 9 30 10 8 11 9 12 26 13
REMARK SMILES IDX 10 14 11 15 25 16 27 17 12 18 24 19 23 20 13 21 21 22 14 23
REMARK SMILES IDX 15 24 20 25 22 26 16 27 19 28 17 29 18 30
REMARK H PARENT 18 31
REMARK Flexibility Score: inf
ROOT
ATOM      1  C   UNL     1       6.976 -19.474 -38.002  1.00  0.00     0.012 C 
ATOM      2  C   UNL     1       6.045 -18.276 -38.265  1.00  0.00     0.012 C 
ENDROOT
BRANCH   1   3
ATOM      3  C   UNL     1       6.242 -20.792 -37.702  1.00  0.00    -0.028 C 
ATOM      4  C   UNL     1       6.678 -22.017 -37.304  1.00  0.00    -0.027 C 
BRANCH   4   5
ATOM      5  C   UNL     1       8.082 -22.492 -36.941  1.00  0.00     0.014 C 
BRANCH   5   6
ATOM      6  C   UNL     1       8.280 -23.912 -37.553  1.00  0.00     0.004 C 
ATOM      7  C   UNL     1       9.428 -23.996 -38.569  1.00  0.00     0.004 C 
ENDBRANCH   5   6
BRANCH   5   8
ATOM      8  C   UNL     1       8.255 -22.493 -35.378  1.00  0.00    -0.011 C 
ATOM      9  C   UNL     1       9.530 -23.244 -34.943  1.00  0.00     0.008 C 
ATOM     10  C   UNL     1       8.299 -21.064 -34.810  1.00  0.00     0.008 C 
ENDBRANCH   5   8
ENDBRANCH   4   5
ENDBRANCH   1   3
BRANCH   1  11
ATOM     11  C   UNL     1       7.997 -19.591 -39.217  1.00  0.00     0.002 C 
ATOM     12  C   UNL     1       8.007 -20.896 -40.013  1.00  0.00     0.005 C 
ATOM     13  C   UNL     1       9.505 -19.335 -38.905  1.00  0.00    -0.026 C 
ATOM     14  C   UNL     1       9.250 -20.819 -40.887  1.00  0.00     0.005 C 
ATOM     15  C   UNL     1      10.204 -19.785 -40.234  1.00  0.00    -0.001 C 
ATOM     16  C   UNL     1       9.968 -20.174 -37.677  1.00  0.00     0.007 C 
ATOM     17  C   UNL     1       9.709 -17.821 -38.627  1.00  0.00     0.012 C 
ATOM     18  C   UNL     1      11.673 -20.330 -40.135  1.00  0.00     0.000 C 
ATOM     19  C   UNL     1      11.459 -20.501 -37.657  1.00  0.00     0.005 C 
ATOM     20  C   UNL     1      11.872 -21.273 -38.933  1.00  0.00     0.003 C 
ATOM     21  C   UNL     1      12.733 -19.208 -40.168  1.00  0.00     0.031 C 
ATOM     22  C   UNL     1      13.328 -21.876 -38.890  1.00  0.00    -0.008 C 
ATOM     23  C   UNL     1      14.118 -19.649 -39.751  1.00  0.00    -0.027 C 
ATOM     24  C   UNL     1      14.390 -20.795 -39.102  1.00  0.00    -0.065 C 
ATOM     25  C   UNL     1      13.545 -22.918 -40.041  1.00  0.00     0.014 C 
ATOM     26  C   UNL     1      13.528 -22.611 -37.528  1.00  0.00     0.016 C 
ATOM     27  C   UNL     1      15.827 -21.259 -39.045  1.00  0.00     0.063 C 
ATOM     28  C   UNL     1      15.009 -23.427 -40.159  1.00  0.00     0.033 C 
ATOM     29  C   UNL     1      16.059 -22.276 -40.180  1.00  0.00     0.118 C 
BRANCH  29  30
ATOM     30  O   UNL     1      16.018 -21.608 -41.422  1.00  0.00    -0.393 OA
ATOM     31  H   UNL     1      16.959 -21.418 -41.669  1.00  0.00     0.210 HD
ENDBRANCH  29  30
ENDBRANCH   1  11
TORSDOF 6
ENDMDL
MODEL 9
REMARK VINA RESULT:    -5.934      3.465      8.708
REMARK INTER + INTRA:          -9.407
REMARK INTER:                  -7.714
REMARK INTRA:                  -1.693
REMARK UNBOUND:                -1.565
REMARK SMILES CC[C@@H](C=C[C@H](C)[C@@H]1CC[C@@H]2[C@H]3CC=C4C[C@H](O)CC[C@]4(C)[C@H]3CC[C@@]21C)C(C)C
REMARK SMILES IDX 6 1 7 2 5 3 4 4 3 5 2 6 1 7 28 8 29 9 30 10 8 11 9 12 26 13
REMARK SMILES IDX 10 14 11 15 25 16 27 17 12 18 24 19 23 20 13 21 21 22 14 23
REMARK SMILES IDX 15 24 20 25 22 26 16 27 19 28 17 29 18 30
REMARK H PARENT 18 31
REMARK Flexibility Score: inf
ROOT
ATOM      1  C   UNL     1      10.217 -20.648 -39.444  1.00  0.00     0.012 C 
ATOM      2  C   UNL     1      10.821 -21.163 -40.763  1.00  0.00     0.012 C 
ENDROOT
BRANCH   1   3
ATOM      3  C   UNL     1      11.223 -20.546 -38.284  1.00  0.00    -0.028 C 
ATOM      4  C   UNL     1      11.439 -21.314 -37.183  1.00  0.00    -0.027 C 
BRANCH   4   5
ATOM      5  C   UNL     1      10.779 -22.620 -36.750  1.00  0.00     0.014 C 
BRANCH   5   6
ATOM      6  C   UNL     1      10.957 -23.652 -37.904  1.00  0.00     0.004 C 
ATOM      7  C   UNL     1      12.420 -23.887 -38.308  1.00  0.00     0.004 C 
ENDBRANCH   5   6
BRANCH   5   8
ATOM      8  C   UNL     1       9.264 -22.364 -36.415  1.00  0.00    -0.011 C 
ATOM      9  C   UNL     1       8.338 -23.347 -37.160  1.00  0.00     0.008 C 
ATOM     10  C   UNL     1       8.991 -22.469 -34.904  1.00  0.00     0.008 C 
ENDBRANCH   5   8
ENDBRANCH   4   5
ENDBRANCH   1   3
BRANCH   1  11
ATOM     11  C   UNL     1       9.463 -19.278 -39.738  1.00  0.00     0.002 C 
ATOM     12  C   UNL     1      10.085 -17.993 -39.190  1.00  0.00     0.005 C 
ATOM     13  C   UNL     1       7.966 -19.182 -39.302  1.00  0.00    -0.026 C 
ATOM     14  C   UNL     1       9.016 -16.926 -39.373  1.00  0.00     0.005 C 
ATOM     15  C   UNL     1       7.655 -17.659 -39.504  1.00  0.00    -0.001 C 
ATOM     16  C   UNL     1       7.790 -19.633 -37.822  1.00  0.00     0.007 C 
ATOM     17  C   UNL     1       7.114 -20.077 -40.241  1.00  0.00     0.012 C 
ATOM     18  C   UNL     1       6.555 -17.014 -38.589  1.00  0.00     0.000 C 
ATOM     19  C   UNL     1       6.585 -19.022 -37.112  1.00  0.00     0.005 C 
ATOM     20  C   UNL     1       6.663 -17.477 -37.123  1.00  0.00     0.003 C 
ATOM     21  C   UNL     1       5.128 -17.197 -39.147  1.00  0.00     0.031 C 
ATOM     22  C   UNL     1       5.603 -16.761 -36.200  1.00  0.00    -0.008 C 
ATOM     23  C   UNL     1       4.029 -16.888 -38.156  1.00  0.00    -0.027 C 
ATOM     24  C   UNL     1       4.209 -16.778 -36.827  1.00  0.00    -0.065 C 
ATOM     25  C   UNL     1       5.961 -15.249 -35.992  1.00  0.00     0.014 C 
ATOM     26  C   UNL     1       5.606 -17.455 -34.802  1.00  0.00     0.016 C 
ATOM     27  C   UNL     1       3.107 -16.147 -36.007  1.00  0.00     0.063 C 
ATOM     28  C   UNL     1       4.871 -14.446 -35.230  1.00  0.00     0.033 C 
ATOM     29  C   UNL     1       3.438 -14.655 -35.806  1.00  0.00     0.118 C 
BRANCH  29  30
ATOM     30  O   UNL     1       3.310 -13.977 -37.037  1.00  0.00    -0.393 OA
ATOM     31  H   UNL     1       3.414 -14.663 -37.745  1.00  0.00     0.210 HD
ENDBRANCH  29  30
ENDBRANCH   1  11
TORSDOF 6
ENDMDL
