MODEL 1
REMARK VINA RESULT:    -6.322      0.000      0.000
REMARK INTER + INTRA:         -20.299
REMARK INTER:                 -16.671
REMARK INTRA:                  -3.627
REMARK UNBOUND:                -3.627
REMARK SMILES CCCCCCCCCCCCCCCCCCCCCCCCCCCCCC(=O)[O-]
REMARK SMILES IDX 16 1 17 2 18 3 19 4 20 5 21 6 22 7 23 8 24 9 25 10 26 11
REMARK SMILES IDX 27 12 28 13 29 14 30 15 31 16 32 17 15 18 14 19 13 20 12 21
REMARK SMILES IDX 11 22 10 23 9 24 8 25 7 26 6 27 5 28 4 29 3 30 2 31 1 32
REMARK H PARENT
REMARK Flexibility Score: inf
ROOT
ATOM      1  C   UNL     1      18.412   0.768  18.172  1.00  0.00     0.000 C 
ENDROOT
BRANCH   1   2
ATOM      2  C   UNL     1      18.419   0.701  16.630  1.00  0.00     0.000 C 
BRANCH   2   3
ATOM      3  C   UNL     1      19.832   0.474  16.067  1.00  0.00     0.000 C 
BRANCH   3   4
ATOM      4  C   UNL     1      20.088  -0.994  15.686  1.00  0.00     0.000 C 
BRANCH   4   5
ATOM      5  C   UNL     1      18.993  -1.565  14.770  1.00  0.00     0.000 C 
BRANCH   5   6
ATOM      6  C   UNL     1      18.861  -0.736  13.484  1.00  0.00     0.000 C 
BRANCH   6   7
ATOM      7  C   UNL     1      17.420  -0.260  13.228  1.00  0.00     0.000 C 
BRANCH   7   8
ATOM      8  C   UNL     1      17.257   0.733  12.059  1.00  0.00     0.000 C 
BRANCH   8   9
ATOM      9  C   UNL     1      17.382   0.111  10.658  1.00  0.00     0.000 C 
BRANCH   9  10
ATOM     10  C   UNL     1      18.093   1.037   9.657  1.00  0.00     0.000 C 
BRANCH  10  11
ATOM     11  C   UNL     1      18.316   0.377   8.285  1.00  0.00     0.000 C 
BRANCH  11  12
ATOM     12  C   UNL     1      19.441   1.000   7.437  1.00  0.00     0.000 C 
BRANCH  12  13
ATOM     13  C   UNL     1      20.095   0.057   6.409  1.00  0.00     0.006 C 
BRANCH  13  14
ATOM     14  C   UNL     1      21.552  -0.314   6.740  1.00  0.00     0.053 C 
BRANCH  14  15
ATOM     15  C   UNL     1      22.028  -1.507   5.967  1.00  0.00     0.041 C 
ATOM     16  O   UNL     1      22.811  -1.361   4.992  1.00  0.00    -0.550 OA
ATOM     17  O   UNL     1      21.631  -2.785   6.343  1.00  0.00    -0.550 OA
ENDBRANCH  14  15
ENDBRANCH  13  14
ENDBRANCH  12  13
ENDBRANCH  11  12
ENDBRANCH  10  11
ENDBRANCH   9  10
ENDBRANCH   8   9
ENDBRANCH   7   8
ENDBRANCH   6   7
ENDBRANCH   5   6
ENDBRANCH   4   5
ENDBRANCH   3   4
ENDBRANCH   2   3
ENDBRANCH   1   2
BRANCH   1  18
ATOM     18  C   UNL     1      17.455  -0.238  18.833  1.00  0.00     0.000 C 
BRANCH  18  19
ATOM     19  C   UNL     1      17.620  -1.663  18.283  1.00  0.00     0.000 C 
BRANCH  19  20
ATOM     20  C   UNL     1      16.347  -2.191  17.592  1.00  0.00     0.000 C 
BRANCH  20  21
ATOM     21  C   UNL     1      15.164  -1.201  17.546  1.00  0.00     0.000 C 
BRANCH  21  22
ATOM     22  C   UNL     1      14.011  -1.509  18.523  1.00  0.00     0.000 C 
BRANCH  22  23
ATOM     23  C   UNL     1      13.454  -0.283  19.267  1.00  0.00     0.000 C 
BRANCH  23  24
ATOM     24  C   UNL     1      14.317   0.117  20.476  1.00  0.00    -0.000 C 
BRANCH  24  25
ATOM     25  C   UNL     1      14.781   1.582  20.411  1.00  0.00    -0.000 C 
BRANCH  25  26
ATOM     26  C   UNL     1      14.798   2.192  18.995  1.00  0.00    -0.000 C 
BRANCH  26  27
ATOM     27  C   UNL     1      13.964   3.479  18.827  1.00  0.00    -0.000 C 
BRANCH  27  28
ATOM     28  C   UNL     1      13.227   3.604  17.481  1.00  0.00    -0.000 C 
BRANCH  28  29
ATOM     29  C   UNL     1      13.235   2.300  16.669  1.00  0.00    -0.000 C 
BRANCH  29  30
ATOM     30  C   UNL     1      13.137   2.589  15.163  1.00  0.00    -0.000 C 
BRANCH  30  31
ATOM     31  C   UNL     1      14.509   2.594  14.473  1.00  0.00    -0.003 C 
ATOM     32  C   UNL     1      15.633   2.108  15.387  1.00  0.00     0.004 C 
ENDBRANCH  30  31
ENDBRANCH  29  30
ENDBRANCH  28  29
ENDBRANCH  27  28
ENDBRANCH  26  27
ENDBRANCH  25  26
ENDBRANCH  24  25
ENDBRANCH  23  24
ENDBRANCH  22  23
ENDBRANCH  21  22
ENDBRANCH  20  21
ENDBRANCH  19  20
ENDBRANCH  18  19
ENDBRANCH   1  18
TORSDOF 28
ENDMDL
MODEL 2
REMARK VINA RESULT:    -6.216      2.442      5.593
REMARK INTER + INTRA:         -20.017
REMARK INTER:                 -17.387
REMARK INTRA:                  -2.630
REMARK UNBOUND:                -3.627
REMARK SMILES CCCCCCCCCCCCCCCCCCCCCCCCCCCCCC(=O)[O-]
REMARK SMILES IDX 16 1 17 2 18 3 19 4 20 5 21 6 22 7 23 8 24 9 25 10 26 11
REMARK SMILES IDX 27 12 28 13 29 14 30 15 31 16 32 17 15 18 14 19 13 20 12 21
REMARK SMILES IDX 11 22 10 23 9 24 8 25 7 26 6 27 5 28 4 29 3 30 2 31 1 32
REMARK H PARENT
REMARK Flexibility Score: inf
ROOT
ATOM      1  C   UNL     1      15.889   2.009  11.800  1.00  0.00     0.000 C 
ENDROOT
BRANCH   1   2
ATOM      2  C   UNL     1      16.706   0.773  12.234  1.00  0.00     0.000 C 
BRANCH   2   3
ATOM      3  C   UNL     1      17.418   0.105  11.045  1.00  0.00     0.000 C 
BRANCH   3   4
ATOM      4  C   UNL     1      17.774   1.104   9.931  1.00  0.00     0.000 C 
BRANCH   4   5
ATOM      5  C   UNL     1      18.245   0.409   8.644  1.00  0.00     0.000 C 
BRANCH   5   6
ATOM      6  C   UNL     1      18.906   1.410   7.686  1.00  0.00     0.000 C 
BRANCH   6   7
ATOM      7  C   UNL     1      19.599   0.725   6.494  1.00  0.00     0.000 C 
BRANCH   7   8
ATOM      8  C   UNL     1      21.132   0.603   6.611  1.00  0.00     0.000 C 
BRANCH   8   9
ATOM      9  C   UNL     1      21.663  -0.838   6.699  1.00  0.00     0.000 C 
BRANCH   9  10
ATOM     10  C   UNL     1      21.893  -1.473   5.318  1.00  0.00     0.000 C 
BRANCH  10  11
ATOM     11  C   UNL     1      23.305  -2.066   5.158  1.00  0.00     0.000 C 
BRANCH  11  12
ATOM     12  C   UNL     1      24.458  -1.087   5.446  1.00  0.00     0.000 C 
BRANCH  12  13
ATOM     13  C   UNL     1      25.657  -1.683   6.211  1.00  0.00     0.006 C 
BRANCH  13  14
ATOM     14  C   UNL     1      26.938  -0.834   6.122  1.00  0.00     0.053 C 
BRANCH  14  15
ATOM     15  C   UNL     1      28.180  -1.674   6.097  1.00  0.00     0.041 C 
ATOM     16  O   UNL     1      28.333  -2.554   5.209  1.00  0.00    -0.550 OA
ATOM     17  O   UNL     1      29.182  -1.464   7.036  1.00  0.00    -0.550 OA
ENDBRANCH  14  15
ENDBRANCH  13  14
ENDBRANCH  12  13
ENDBRANCH  11  12
ENDBRANCH  10  11
ENDBRANCH   9  10
ENDBRANCH   8   9
ENDBRANCH   7   8
ENDBRANCH   6   7
ENDBRANCH   5   6
ENDBRANCH   4   5
ENDBRANCH   3   4
ENDBRANCH   2   3
ENDBRANCH   1   2
BRANCH   1  18
ATOM     18  C   UNL     1      15.424   2.889  12.973  1.00  0.00     0.000 C 
BRANCH  18  19
ATOM     19  C   UNL     1      14.657   2.096  14.043  1.00  0.00     0.000 C 
BRANCH  19  20
ATOM     20  C   UNL     1      14.960   2.574  15.476  1.00  0.00     0.000 C 
BRANCH  20  21
ATOM     21  C   UNL     1      13.726   2.988  16.307  1.00  0.00     0.000 C 
BRANCH  21  22
ATOM     22  C   UNL     1      13.902   2.894  17.836  1.00  0.00     0.000 C 
BRANCH  22  23
ATOM     23  C   UNL     1      14.514   1.573  18.332  1.00  0.00     0.000 C 
BRANCH  23  24
ATOM     24  C   UNL     1      14.701   1.543  19.859  1.00  0.00    -0.000 C 
BRANCH  24  25
ATOM     25  C   UNL     1      15.628   0.405  20.319  1.00  0.00    -0.000 C 
BRANCH  25  26
ATOM     26  C   UNL     1      16.712   0.004  19.300  1.00  0.00    -0.000 C 
BRANCH  26  27
ATOM     27  C   UNL     1      16.916  -1.515  19.125  1.00  0.00    -0.000 C 
BRANCH  27  28
ATOM     28  C   UNL     1      16.997  -1.996  17.666  1.00  0.00    -0.000 C 
BRANCH  28  29
ATOM     29  C   UNL     1      15.941  -1.346  16.760  1.00  0.00    -0.000 C 
BRANCH  29  30
ATOM     30  C   UNL     1      16.573  -0.833  15.456  1.00  0.00    -0.000 C 
BRANCH  30  31
ATOM     31  C   UNL     1      17.818   0.030  15.704  1.00  0.00    -0.003 C 
ATOM     32  C   UNL     1      19.031  -0.440  14.903  1.00  0.00     0.004 C 
ENDBRANCH  30  31
ENDBRANCH  29  30
ENDBRANCH  28  29
ENDBRANCH  27  28
ENDBRANCH  26  27
ENDBRANCH  25  26
ENDBRANCH  24  25
ENDBRANCH  23  24
ENDBRANCH  22  23
ENDBRANCH  21  22
ENDBRANCH  20  21
ENDBRANCH  19  20
ENDBRANCH  18  19
ENDBRANCH   1  18
TORSDOF 28
ENDMDL
MODEL 3
REMARK VINA RESULT:    -6.208      2.500      9.581
REMARK INTER + INTRA:         -19.998
REMARK INTER:                 -17.010
REMARK INTRA:                  -2.988
REMARK UNBOUND:                -3.627
REMARK SMILES CCCCCCCCCCCCCCCCCCCCCCCCCCCCCC(=O)[O-]
REMARK SMILES IDX 16 1 17 2 18 3 19 4 20 5 21 6 22 7 23 8 24 9 25 10 26 11
REMARK SMILES IDX 27 12 28 13 29 14 30 15 31 16 32 17 15 18 14 19 13 20 12 21
REMARK SMILES IDX 11 22 10 23 9 24 8 25 7 26 6 27 5 28 4 29 3 30 2 31 1 32
REMARK H PARENT
REMARK Flexibility Score: inf
ROOT
ATOM      1  C   UNL     1      12.915   2.767  16.477  1.00  0.00     0.000 C 
ENDROOT
BRANCH   1   2
ATOM      2  C   UNL     1      13.176   3.984  17.391  1.00  0.00     0.000 C 
BRANCH   2   3
ATOM      3  C   UNL     1      13.993   3.606  18.638  1.00  0.00     0.000 C 
BRANCH   3   4
ATOM      4  C   UNL     1      14.160   2.085  18.796  1.00  0.00     0.000 C 
BRANCH   4   5
ATOM      5  C   UNL     1      14.705   1.693  20.179  1.00  0.00     0.000 C 
BRANCH   5   6
ATOM      6  C   UNL     1      14.830   0.168  20.311  1.00  0.00     0.000 C 
BRANCH   6   7
ATOM      7  C   UNL     1      13.663  -0.584  19.647  1.00  0.00     0.000 C 
BRANCH   7   8
ATOM      8  C   UNL     1      14.065  -1.532  18.498  1.00  0.00     0.000 C 
BRANCH   8   9
ATOM      9  C   UNL     1      15.224  -1.031  17.620  1.00  0.00     0.000 C 
BRANCH   9  10
ATOM     10  C   UNL     1      16.508  -1.857  17.800  1.00  0.00     0.000 C 
BRANCH  10  11
ATOM     11  C   UNL     1      17.649  -1.057  18.452  1.00  0.00     0.000 C 
BRANCH  11  12
ATOM     12  C   UNL     1      17.710   0.430  18.057  1.00  0.00     0.000 C 
BRANCH  12  13
ATOM     13  C   UNL     1      18.313   0.722  16.669  1.00  0.00     0.006 C 
BRANCH  13  14
ATOM     14  C   UNL     1      19.467  -0.219  16.279  1.00  0.00     0.053 C 
BRANCH  14  15
ATOM     15  C   UNL     1      19.112  -1.111  15.127  1.00  0.00     0.041 C 
ATOM     16  O   UNL     1      18.088  -0.876  14.434  1.00  0.00    -0.550 OA
ATOM     17  O   UNL     1      19.932  -2.186  14.800  1.00  0.00    -0.550 OA
ENDBRANCH  14  15
ENDBRANCH  13  14
ENDBRANCH  12  13
ENDBRANCH  11  12
ENDBRANCH  10  11
ENDBRANCH   9  10
ENDBRANCH   8   9
ENDBRANCH   7   8
ENDBRANCH   6   7
ENDBRANCH   5   6
ENDBRANCH   4   5
ENDBRANCH   3   4
ENDBRANCH   2   3
ENDBRANCH   1   2
BRANCH   1  18
ATOM     18  C   UNL     1      13.709   2.797  15.160  1.00  0.00     0.000 C 
BRANCH  18  19
ATOM     19  C   UNL     1      15.169   2.354  15.337  1.00  0.00     0.000 C 
BRANCH  19  20
ATOM     20  C   UNL     1      15.760   1.712  14.067  1.00  0.00     0.000 C 
BRANCH  20  21
ATOM     21  C   UNL     1      15.328   2.364  12.736  1.00  0.00     0.000 C 
BRANCH  21  22
ATOM     22  C   UNL     1      15.909   1.712  11.465  1.00  0.00     0.000 C 
BRANCH  22  23
ATOM     23  C   UNL     1      17.322   1.127  11.632  1.00  0.00     0.000 C 
BRANCH  23  24
ATOM     24  C   UNL     1      18.149   1.199  10.337  1.00  0.00    -0.000 C 
BRANCH  24  25
ATOM     25  C   UNL     1      17.534   0.373   9.195  1.00  0.00    -0.000 C 
BRANCH  25  26
ATOM     26  C   UNL     1      18.476   0.119   8.002  1.00  0.00    -0.000 C 
BRANCH  26  27
ATOM     27  C   UNL     1      19.245   1.359   7.500  1.00  0.00    -0.000 C 
BRANCH  27  28
ATOM     28  C   UNL     1      20.622   1.062   6.880  1.00  0.00    -0.000 C 
BRANCH  28  29
ATOM     29  C   UNL     1      20.650  -0.248   6.079  1.00  0.00    -0.000 C 
BRANCH  29  30
ATOM     30  C   UNL     1      21.828  -1.135   6.512  1.00  0.00    -0.000 C 
BRANCH  30  31
ATOM     31  C   UNL     1      22.658  -1.636   5.321  1.00  0.00    -0.003 C 
ATOM     32  C   UNL     1      24.130  -1.238   5.417  1.00  0.00     0.004 C 
ENDBRANCH  30  31
ENDBRANCH  29  30
ENDBRANCH  28  29
ENDBRANCH  27  28
ENDBRANCH  26  27
ENDBRANCH  25  26
ENDBRANCH  24  25
ENDBRANCH  23  24
ENDBRANCH  22  23
ENDBRANCH  21  22
ENDBRANCH  20  21
ENDBRANCH  19  20
ENDBRANCH  18  19
ENDBRANCH   1  18
TORSDOF 28
ENDMDL
MODEL 4
REMARK VINA RESULT:    -6.124      3.318     11.705
REMARK INTER + INTRA:         -19.776
REMARK INTER:                 -17.484
REMARK INTRA:                  -2.293
REMARK UNBOUND:                -3.627
REMARK SMILES CCCCCCCCCCCCCCCCCCCCCCCCCCCCCC(=O)[O-]
REMARK SMILES IDX 16 1 17 2 18 3 19 4 20 5 21 6 22 7 23 8 24 9 25 10 26 11
REMARK SMILES IDX 27 12 28 13 29 14 30 15 31 16 32 17 15 18 14 19 13 20 12 21
REMARK SMILES IDX 11 22 10 23 9 24 8 25 7 26 6 27 5 28 4 29 3 30 2 31 1 32
REMARK H PARENT
REMARK Flexibility Score: inf
ROOT
ATOM      1  C   UNL     1      15.971   2.091  11.733  1.00  0.00     0.000 C 
ENDROOT
BRANCH   1   2
ATOM      2  C   UNL     1      15.487   2.948  12.922  1.00  0.00     0.000 C 
BRANCH   2   3
ATOM      3  C   UNL     1      14.817   2.096  14.014  1.00  0.00     0.000 C 
BRANCH   3   4
ATOM      4  C   UNL     1      14.953   2.716  15.414  1.00  0.00     0.000 C 
BRANCH   4   5
ATOM      5  C   UNL     1      13.653   2.622  16.230  1.00  0.00     0.000 C 
BRANCH   5   6
ATOM      6  C   UNL     1      13.596   3.717  17.305  1.00  0.00     0.000 C 
BRANCH   6   7
ATOM      7  C   UNL     1      13.941   3.190  18.710  1.00  0.00     0.000 C 
BRANCH   7   8
ATOM      8  C   UNL     1      14.135   1.662  18.806  1.00  0.00     0.000 C 
BRANCH   8   9
ATOM      9  C   UNL     1      15.450   1.217  19.467  1.00  0.00     0.000 C 
BRANCH   9  10
ATOM     10  C   UNL     1      15.766  -0.268  19.223  1.00  0.00     0.000 C 
BRANCH  10  11
ATOM     11  C   UNL     1      15.034  -0.843  17.997  1.00  0.00     0.000 C 
BRANCH  11  12
ATOM     12  C   UNL     1      15.886  -0.944  16.718  1.00  0.00     0.000 C 
BRANCH  12  13
ATOM     13  C   UNL     1      17.383  -0.620  16.893  1.00  0.00     0.006 C 
BRANCH  13  14
ATOM     14  C   UNL     1      18.056  -0.074  15.621  1.00  0.00     0.053 C 
BRANCH  14  15
ATOM     15  C   UNL     1      19.540  -0.287  15.622  1.00  0.00     0.041 C 
ATOM     16  O   UNL     1      20.020  -1.411  15.316  1.00  0.00    -0.550 OA
ATOM     17  O   UNL     1      20.395   0.764  15.931  1.00  0.00    -0.550 OA
ENDBRANCH  14  15
ENDBRANCH  13  14
ENDBRANCH  12  13
ENDBRANCH  11  12
ENDBRANCH  10  11
ENDBRANCH   9  10
ENDBRANCH   8   9
ENDBRANCH   7   8
ENDBRANCH   6   7
ENDBRANCH   5   6
ENDBRANCH   4   5
ENDBRANCH   3   4
ENDBRANCH   2   3
ENDBRANCH   1   2
BRANCH   1  18
ATOM     18  C   UNL     1      16.709   0.808  12.151  1.00  0.00     0.000 C 
BRANCH  18  19
ATOM     19  C   UNL     1      17.395   0.105  10.970  1.00  0.00     0.000 C 
BRANCH  19  20
ATOM     20  C   UNL     1      17.986   1.092   9.945  1.00  0.00     0.000 C 
BRANCH  20  21
ATOM     21  C   UNL     1      18.233   0.511   8.536  1.00  0.00     0.000 C 
BRANCH  21  22
ATOM     22  C   UNL     1      18.714   1.527   7.481  1.00  0.00     0.000 C 
BRANCH  22  23
ATOM     23  C   UNL     1      19.612   0.934   6.381  1.00  0.00     0.000 C 
BRANCH  23  24
ATOM     24  C   UNL     1      20.576  -0.138   6.918  1.00  0.00    -0.000 C 
BRANCH  24  25
ATOM     25  C   UNL     1      21.838  -0.285   6.051  1.00  0.00    -0.000 C 
BRANCH  25  26
ATOM     26  C   UNL     1      22.207  -1.737   5.689  1.00  0.00    -0.000 C 
BRANCH  26  27
ATOM     27  C   UNL     1      23.598  -1.920   5.049  1.00  0.00    -0.000 C 
BRANCH  27  28
ATOM     28  C   UNL     1      24.706  -1.029   5.639  1.00  0.00    -0.000 C 
BRANCH  28  29
ATOM     29  C   UNL     1      25.930  -1.829   6.111  1.00  0.00    -0.000 C 
BRANCH  29  30
ATOM     30  C   UNL     1      27.051  -0.891   6.587  1.00  0.00    -0.000 C 
BRANCH  30  31
ATOM     31  C   UNL     1      28.449  -1.404   6.210  1.00  0.00    -0.003 C 
ATOM     32  C   UNL     1      28.412  -2.764   5.516  1.00  0.00     0.004 C 
ENDBRANCH  30  31
ENDBRANCH  29  30
ENDBRANCH  28  29
ENDBRANCH  27  28
ENDBRANCH  26  27
ENDBRANCH  25  26
ENDBRANCH  24  25
ENDBRANCH  23  24
ENDBRANCH  22  23
ENDBRANCH  21  22
ENDBRANCH  20  21
ENDBRANCH  19  20
ENDBRANCH  18  19
ENDBRANCH   1  18
TORSDOF 28
ENDMDL
MODEL 5
REMARK VINA RESULT:    -6.107      1.146      2.121
REMARK INTER + INTRA:         -19.731
REMARK INTER:                 -16.211
REMARK INTRA:                  -3.520
REMARK UNBOUND:                -3.627
REMARK SMILES CCCCCCCCCCCCCCCCCCCCCCCCCCCCCC(=O)[O-]
REMARK SMILES IDX 16 1 17 2 18 3 19 4 20 5 21 6 22 7 23 8 24 9 25 10 26 11
REMARK SMILES IDX 27 12 28 13 29 14 30 15 31 16 32 17 15 18 14 19 13 20 12 21
REMARK SMILES IDX 11 22 10 23 9 24 8 25 7 26 6 27 5 28 4 29 3 30 2 31 1 32
REMARK H PARENT
REMARK Flexibility Score: inf
ROOT
ATOM      1  C   UNL     1      18.130  -2.696  16.978  1.00  0.00     0.000 C 
ENDROOT
BRANCH   1   2
ATOM      2  C   UNL     1      19.222  -2.243  15.985  1.00  0.00     0.000 C 
BRANCH   2   3
ATOM      3  C   UNL     1      19.508  -0.735  16.089  1.00  0.00     0.000 C 
BRANCH   3   4
ATOM      4  C   UNL     1      19.383  -0.016  14.735  1.00  0.00     0.000 C 
BRANCH   4   5
ATOM      5  C   UNL     1      18.880  -0.944  13.618  1.00  0.00     0.000 C 
BRANCH   5   6
ATOM      6  C   UNL     1      17.547  -0.442  13.042  1.00  0.00     0.000 C 
BRANCH   6   7
ATOM      7  C   UNL     1      17.734   0.671  11.995  1.00  0.00     0.000 C 
BRANCH   7   8
ATOM      8  C   UNL     1      17.419   0.263  10.541  1.00  0.00     0.000 C 
BRANCH   8   9
ATOM      9  C   UNL     1      18.112   1.114   9.464  1.00  0.00     0.000 C 
BRANCH   9  10
ATOM     10  C   UNL     1      18.499   0.299   8.219  1.00  0.00     0.000 C 
BRANCH  10  11
ATOM     11  C   UNL     1      18.824   1.183   7.001  1.00  0.00     0.000 C 
BRANCH  11  12
ATOM     12  C   UNL     1      20.323   1.455   6.776  1.00  0.00     0.000 C 
BRANCH  12  13
ATOM     13  C   UNL     1      21.245   0.226   6.898  1.00  0.00     0.006 C 
BRANCH  13  14
ATOM     14  C   UNL     1      21.134  -0.757   5.719  1.00  0.00     0.053 C 
BRANCH  14  15
ATOM     15  C   UNL     1      22.198  -1.813   5.752  1.00  0.00     0.041 C 
ATOM     16  O   UNL     1      21.916  -2.987   6.108  1.00  0.00    -0.550 OA
ATOM     17  O   UNL     1      23.496  -1.506   5.360  1.00  0.00    -0.550 OA
ENDBRANCH  14  15
ENDBRANCH  13  14
ENDBRANCH  12  13
ENDBRANCH  11  12
ENDBRANCH  10  11
ENDBRANCH   9  10
ENDBRANCH   8   9
ENDBRANCH   7   8
ENDBRANCH   6   7
ENDBRANCH   5   6
ENDBRANCH   4   5
ENDBRANCH   3   4
ENDBRANCH   2   3
ENDBRANCH   1   2
BRANCH   1  18
ATOM     18  C   UNL     1      16.706  -2.288  16.563  1.00  0.00     0.000 C 
BRANCH  18  19
ATOM     19  C   UNL     1      15.909  -1.661  17.718  1.00  0.00     0.000 C 
BRANCH  19  20
ATOM     20  C   UNL     1      16.681  -1.661  19.051  1.00  0.00     0.000 C 
BRANCH  20  21
ATOM     21  C   UNL     1      17.317  -0.311  19.445  1.00  0.00     0.000 C 
BRANCH  21  22
ATOM     22  C   UNL     1      16.316   0.823  19.747  1.00  0.00     0.000 C 
BRANCH  22  23
ATOM     23  C   UNL     1      15.130   0.413  20.638  1.00  0.00     0.000 C 
BRANCH  23  24
ATOM     24  C   UNL     1      13.769   0.725  19.992  1.00  0.00    -0.000 C 
BRANCH  24  25
ATOM     25  C   UNL     1      13.879   0.989  18.481  1.00  0.00    -0.000 C 
BRANCH  25  26
ATOM     26  C   UNL     1      13.536   2.430  18.051  1.00  0.00    -0.000 C 
BRANCH  26  27
ATOM     27  C   UNL     1      14.525   3.069  17.055  1.00  0.00    -0.000 C 
BRANCH  27  28
ATOM     28  C   UNL     1      15.907   2.394  16.989  1.00  0.00    -0.000 C 
BRANCH  28  29
ATOM     29  C   UNL     1      16.089   1.520  15.739  1.00  0.00    -0.000 C 
BRANCH  29  30
ATOM     30  C   UNL     1      14.741   1.265  15.045  1.00  0.00    -0.000 C 
BRANCH  30  31
ATOM     31  C   UNL     1      14.779   1.594  13.545  1.00  0.00    -0.003 C 
ATOM     32  C   UNL     1      15.196   3.037  13.268  1.00  0.00     0.004 C 
ENDBRANCH  30  31
ENDBRANCH  29  30
ENDBRANCH  28  29
ENDBRANCH  27  28
ENDBRANCH  26  27
ENDBRANCH  25  26
ENDBRANCH  24  25
ENDBRANCH  23  24
ENDBRANCH  22  23
ENDBRANCH  21  22
ENDBRANCH  20  21
ENDBRANCH  19  20
ENDBRANCH  18  19
ENDBRANCH   1  18
TORSDOF 28
ENDMDL
MODEL 6
REMARK VINA RESULT:    -6.071      1.092      3.436
REMARK INTER + INTRA:         -19.635
REMARK INTER:                 -16.905
REMARK INTRA:                  -2.730
REMARK UNBOUND:                -3.627
REMARK SMILES CCCCCCCCCCCCCCCCCCCCCCCCCCCCCC(=O)[O-]
REMARK SMILES IDX 16 1 17 2 18 3 19 4 20 5 21 6 22 7 23 8 24 9 25 10 26 11
REMARK SMILES IDX 27 12 28 13 29 14 30 15 31 16 32 17 15 18 14 19 13 20 12 21
REMARK SMILES IDX 11 22 10 23 9 24 8 25 7 26 6 27 5 28 4 29 3 30 2 31 1 32
REMARK H PARENT
REMARK Flexibility Score: inf
ROOT
ATOM      1  C   UNL     1      16.220   1.165  15.994  1.00  0.00     0.000 C 
ENDROOT
BRANCH   1   2
ATOM      2  C   UNL     1      15.507   2.408  15.419  1.00  0.00     0.000 C 
BRANCH   2   3
ATOM      3  C   UNL     1      14.783   2.100  14.098  1.00  0.00     0.000 C 
BRANCH   3   4
ATOM      4  C   UNL     1      15.140   3.097  12.982  1.00  0.00     0.000 C 
BRANCH   4   5
ATOM      5  C   UNL     1      15.894   2.433  11.818  1.00  0.00     0.000 C 
BRANCH   5   6
ATOM      6  C   UNL     1      16.137   0.942  12.095  1.00  0.00     0.000 C 
BRANCH   6   7
ATOM      7  C   UNL     1      17.609   0.534  11.911  1.00  0.00     0.000 C 
BRANCH   7   8
ATOM      8  C   UNL     1      18.281   1.071  10.630  1.00  0.00     0.000 C 
BRANCH   8   9
ATOM      9  C   UNL     1      17.557   0.714   9.320  1.00  0.00     0.000 C 
BRANCH   9  10
ATOM     10  C   UNL     1      18.521   0.259   8.212  1.00  0.00     0.000 C 
BRANCH  10  11
ATOM     11  C   UNL     1      18.919   1.399   7.258  1.00  0.00     0.000 C 
BRANCH  11  12
ATOM     12  C   UNL     1      20.417   1.464   6.909  1.00  0.00     0.000 C 
BRANCH  12  13
ATOM     13  C   UNL     1      20.952   0.290   6.065  1.00  0.00     0.006 C 
BRANCH  13  14
ATOM     14  C   UNL     1      21.097  -1.027   6.848  1.00  0.00     0.053 C 
BRANCH  14  15
ATOM     15  C   UNL     1      21.931  -2.038   6.120  1.00  0.00     0.041 C 
ATOM     16  O   UNL     1      21.760  -3.268   6.325  1.00  0.00    -0.550 OA
ATOM     17  O   UNL     1      22.878  -1.620   5.192  1.00  0.00    -0.550 OA
ENDBRANCH  14  15
ENDBRANCH  13  14
ENDBRANCH  12  13
ENDBRANCH  11  12
ENDBRANCH  10  11
ENDBRANCH   9  10
ENDBRANCH   8   9
ENDBRANCH   7   8
ENDBRANCH   6   7
ENDBRANCH   5   6
ENDBRANCH   4   5
ENDBRANCH   3   4
ENDBRANCH   2   3
ENDBRANCH   1   2
BRANCH   1  18
ATOM     18  C   UNL     1      17.359   1.499  16.973  1.00  0.00     0.000 C 
BRANCH  18  19
ATOM     19  C   UNL     1      18.627   0.672  16.711  1.00  0.00     0.000 C 
BRANCH  19  20
ATOM     20  C   UNL     1      18.504  -0.244  15.478  1.00  0.00     0.000 C 
BRANCH  20  21
ATOM     21  C   UNL     1      18.706  -1.749  15.752  1.00  0.00     0.000 C 
BRANCH  21  22
ATOM     22  C   UNL     1      17.944  -2.303  16.974  1.00  0.00     0.000 C 
BRANCH  22  23
ATOM     23  C   UNL     1      16.412  -2.301  16.831  1.00  0.00     0.000 C 
BRANCH  23  24
ATOM     24  C   UNL     1      15.698  -1.860  18.120  1.00  0.00    -0.000 C 
BRANCH  24  25
ATOM     25  C   UNL     1      16.682  -1.485  19.242  1.00  0.00    -0.000 C 
BRANCH  25  26
ATOM     26  C   UNL     1      16.639  -0.004  19.669  1.00  0.00    -0.000 C 
BRANCH  26  27
ATOM     27  C   UNL     1      15.363   0.423  20.423  1.00  0.00    -0.000 C 
BRANCH  27  28
ATOM     28  C   UNL     1      14.044   0.112  19.695  1.00  0.00    -0.000 C 
BRANCH  28  29
ATOM     29  C   UNL     1      13.622   1.219  18.717  1.00  0.00    -0.000 C 
BRANCH  29  30
ATOM     30  C   UNL     1      14.386   2.522  18.999  1.00  0.00    -0.000 C 
BRANCH  30  31
ATOM     31  C   UNL     1      13.619   3.768  18.533  1.00  0.00    -0.003 C 
ATOM     32  C   UNL     1      12.902   3.557  17.201  1.00  0.00     0.004 C 
ENDBRANCH  30  31
ENDBRANCH  29  30
ENDBRANCH  28  29
ENDBRANCH  27  28
ENDBRANCH  26  27
ENDBRANCH  25  26
ENDBRANCH  24  25
ENDBRANCH  23  24
ENDBRANCH  22  23
ENDBRANCH  21  22
ENDBRANCH  20  21
ENDBRANCH  19  20
ENDBRANCH  18  19
ENDBRANCH   1  18
TORSDOF 28
ENDMDL
MODEL 7
REMARK VINA RESULT:    -5.999      3.933     12.452
REMARK INTER + INTRA:         -19.447
REMARK INTER:                 -17.408
REMARK INTRA:                  -2.039
REMARK UNBOUND:                -3.627
REMARK SMILES CCCCCCCCCCCCCCCCCCCCCCCCCCCCCC(=O)[O-]
REMARK SMILES IDX 16 1 17 2 18 3 19 4 20 5 21 6 22 7 23 8 24 9 25 10 26 11
REMARK SMILES IDX 27 12 28 13 29 14 30 15 31 16 32 17 15 18 14 19 13 20 12 21
REMARK SMILES IDX 11 22 10 23 9 24 8 25 7 26 6 27 5 28 4 29 3 30 2 31 1 32
REMARK H PARENT
REMARK Flexibility Score: inf
ROOT
ATOM      1  C   UNL     1      17.370   1.885  11.232  1.00  0.00     0.000 C 
ENDROOT
BRANCH   1   2
ATOM      2  C   UNL     1      15.853   2.149  11.352  1.00  0.00     0.000 C 
BRANCH   2   3
ATOM      3  C   UNL     1      15.466   2.667  12.747  1.00  0.00     0.000 C 
BRANCH   3   4
ATOM      4  C   UNL     1      14.777   1.593  13.606  1.00  0.00     0.000 C 
BRANCH   4   5
ATOM      5  C   UNL     1      15.450   1.412  14.976  1.00  0.00     0.000 C 
BRANCH   5   6
ATOM      6  C   UNL     1      15.143   2.598  15.903  1.00  0.00     0.000 C 
BRANCH   6   7
ATOM      7  C   UNL     1      13.922   2.347  16.805  1.00  0.00     0.000 C 
BRANCH   7   8
ATOM      8  C   UNL     1      14.209   2.382  18.320  1.00  0.00     0.000 C 
BRANCH   8   9
ATOM      9  C   UNL     1      13.802   1.112  19.087  1.00  0.00     0.000 C 
BRANCH   9  10
ATOM     10  C   UNL     1      14.860  -0.001  18.998  1.00  0.00     0.000 C 
BRANCH  10  11
ATOM     11  C   UNL     1      16.036   0.212  19.968  1.00  0.00     0.000 C 
BRANCH  11  12
ATOM     12  C   UNL     1      17.430   0.193  19.314  1.00  0.00     0.000 C 
BRANCH  12  13
ATOM     13  C   UNL     1      17.497   0.753  17.880  1.00  0.00     0.006 C 
BRANCH  13  14
ATOM     14  C   UNL     1      18.569   0.087  16.999  1.00  0.00     0.053 C 
BRANCH  14  15
ATOM     15  C   UNL     1      18.071  -1.163  16.338  1.00  0.00     0.041 C 
ATOM     16  O   UNL     1      18.868  -1.912  15.714  1.00  0.00    -0.550 OA
ATOM     17  O   UNL     1      16.730  -1.516  16.436  1.00  0.00    -0.550 OA
ENDBRANCH  14  15
ENDBRANCH  13  14
ENDBRANCH  12  13
ENDBRANCH  11  12
ENDBRANCH  10  11
ENDBRANCH   9  10
ENDBRANCH   8   9
ENDBRANCH   7   8
ENDBRANCH   6   7
ENDBRANCH   5   6
ENDBRANCH   4   5
ENDBRANCH   3   4
ENDBRANCH   2   3
ENDBRANCH   1   2
BRANCH   1  18
ATOM     18  C   UNL     1      17.728   0.405  11.010  1.00  0.00     0.000 C 
BRANCH  18  19
ATOM     19  C   UNL     1      17.430  -0.070   9.580  1.00  0.00     0.000 C 
BRANCH  19  20
ATOM     20  C   UNL     1      18.145   0.773   8.506  1.00  0.00     0.000 C 
BRANCH  20  21
ATOM     21  C   UNL     1      19.256   0.041   7.725  1.00  0.00     0.000 C 
BRANCH  21  22
ATOM     22  C   UNL     1      20.041   0.914   6.725  1.00  0.00     0.000 C 
BRANCH  22  23
ATOM     23  C   UNL     1      21.458   0.407   6.403  1.00  0.00     0.000 C 
BRANCH  23  24
ATOM     24  C   UNL     1      21.548  -1.129   6.392  1.00  0.00    -0.000 C 
BRANCH  24  25
ATOM     25  C   UNL     1      22.555  -1.654   5.355  1.00  0.00    -0.000 C 
BRANCH  25  26
ATOM     26  C   UNL     1      23.921  -0.939   5.362  1.00  0.00    -0.000 C 
BRANCH  26  27
ATOM     27  C   UNL     1      25.135  -1.848   5.644  1.00  0.00    -0.000 C 
BRANCH  27  28
ATOM     28  C   UNL     1      26.350  -1.134   6.263  1.00  0.00    -0.000 C 
BRANCH  28  29
ATOM     29  C   UNL     1      27.437  -2.108   6.743  1.00  0.00    -0.000 C 
BRANCH  29  30
ATOM     30  C   UNL     1      28.264  -2.637   5.560  1.00  0.00    -0.000 C 
BRANCH  30  31
ATOM     31  C   UNL     1      29.761  -2.327   5.701  1.00  0.00    -0.003 C 
ATOM     32  C   UNL     1      30.433  -3.144   6.803  1.00  0.00     0.004 C 
ENDBRANCH  30  31
ENDBRANCH  29  30
ENDBRANCH  28  29
ENDBRANCH  27  28
ENDBRANCH  26  27
ENDBRANCH  25  26
ENDBRANCH  24  25
ENDBRANCH  23  24
ENDBRANCH  22  23
ENDBRANCH  21  22
ENDBRANCH  20  21
ENDBRANCH  19  20
ENDBRANCH  18  19
ENDBRANCH   1  18
TORSDOF 28
ENDMDL
MODEL 8
REMARK VINA RESULT:    -5.949      4.468     13.164
REMARK INTER + INTRA:         -19.315
REMARK INTER:                 -17.582
REMARK INTRA:                  -1.733
REMARK UNBOUND:                -3.627
REMARK SMILES CCCCCCCCCCCCCCCCCCCCCCCCCCCCCC(=O)[O-]
REMARK SMILES IDX 16 1 17 2 18 3 19 4 20 5 21 6 22 7 23 8 24 9 25 10 26 11
REMARK SMILES IDX 27 12 28 13 29 14 30 15 31 16 32 17 15 18 14 19 13 20 12 21
REMARK SMILES IDX 11 22 10 23 9 24 8 25 7 26 6 27 5 28 4 29 3 30 2 31 1 32
REMARK H PARENT
REMARK Flexibility Score: inf
ROOT
ATOM      1  C   UNL     1      17.441   0.257  10.561  1.00  0.00     0.000 C 
ENDROOT
BRANCH   1   2
ATOM      2  C   UNL     1      17.442   1.743  10.980  1.00  0.00     0.000 C 
BRANCH   2   3
ATOM      3  C   UNL     1      16.045   2.225  11.404  1.00  0.00     0.000 C 
BRANCH   3   4
ATOM      4  C   UNL     1      15.658   1.751  12.815  1.00  0.00     0.000 C 
BRANCH   4   5
ATOM      5  C   UNL     1      15.141   2.896  13.701  1.00  0.00     0.000 C 
BRANCH   5   6
ATOM      6  C   UNL     1      14.689   2.372  15.072  1.00  0.00     0.000 C 
BRANCH   6   7
ATOM      7  C   UNL     1      13.198   2.641  15.350  1.00  0.00     0.000 C 
BRANCH   7   8
ATOM      8  C   UNL     1      12.906   3.425  16.646  1.00  0.00     0.000 C 
BRANCH   8   9
ATOM      9  C   UNL     1      14.135   3.703  17.527  1.00  0.00     0.000 C 
BRANCH   9  10
ATOM     10  C   UNL     1      14.045   3.028  18.905  1.00  0.00     0.000 C 
BRANCH  10  11
ATOM     11  C   UNL     1      14.397   1.530  18.864  1.00  0.00     0.000 C 
BRANCH  11  12
ATOM     12  C   UNL     1      15.904   1.215  18.878  1.00  0.00     0.000 C 
BRANCH  12  13
ATOM     13  C   UNL     1      16.445   0.515  17.616  1.00  0.00     0.006 C 
BRANCH  13  14
ATOM     14  C   UNL     1      17.980   0.537  17.500  1.00  0.00     0.053 C 
BRANCH  14  15
ATOM     15  C   UNL     1      18.456   0.148  16.132  1.00  0.00     0.041 C 
ATOM     16  O   UNL     1      17.630  -0.199  15.247  1.00  0.00    -0.550 OA
ATOM     17  O   UNL     1      19.811   0.197  15.826  1.00  0.00    -0.550 OA
ENDBRANCH  14  15
ENDBRANCH  13  14
ENDBRANCH  12  13
ENDBRANCH  11  12
ENDBRANCH  10  11
ENDBRANCH   9  10
ENDBRANCH   8   9
ENDBRANCH   7   8
ENDBRANCH   6   7
ENDBRANCH   5   6
ENDBRANCH   4   5
ENDBRANCH   3   4
ENDBRANCH   2   3
ENDBRANCH   1   2
BRANCH   1  18
ATOM     18  C   UNL     1      17.662   0.036   9.055  1.00  0.00     0.000 C 
BRANCH  18  19
ATOM     19  C   UNL     1      18.564   1.108   8.424  1.00  0.00     0.000 C 
BRANCH  19  20
ATOM     20  C   UNL     1      19.211   0.648   7.103  1.00  0.00     0.000 C 
BRANCH  20  21
ATOM     21  C   UNL     1      20.587  -0.035   7.246  1.00  0.00     0.000 C 
BRANCH  21  22
ATOM     22  C   UNL     1      21.476   0.007   5.986  1.00  0.00     0.000 C 
BRANCH  22  23
ATOM     23  C   UNL     1      22.398  -1.212   5.809  1.00  0.00     0.000 C 
BRANCH  23  24
ATOM     24  C   UNL     1      23.818  -0.820   5.368  1.00  0.00    -0.000 C 
BRANCH  24  25
ATOM     25  C   UNL     1      24.863  -1.892   5.722  1.00  0.00    -0.000 C 
BRANCH  25  26
ATOM     26  C   UNL     1      26.263  -1.342   6.061  1.00  0.00    -0.000 C 
BRANCH  26  27
ATOM     27  C   UNL     1      27.297  -2.402   6.491  1.00  0.00    -0.000 C 
BRANCH  27  28
ATOM     28  C   UNL     1      28.376  -2.721   5.440  1.00  0.00    -0.000 C 
BRANCH  28  29
ATOM     29  C   UNL     1      29.697  -1.980   5.692  1.00  0.00    -0.000 C 
BRANCH  29  30
ATOM     30  C   UNL     1      30.781  -2.944   6.200  1.00  0.00    -0.000 C 
BRANCH  30  31
ATOM     31  C   UNL     1      31.294  -2.571   7.598  1.00  0.00    -0.003 C 
ATOM     32  C   UNL     1      30.785  -1.211   8.072  1.00  0.00     0.004 C 
ENDBRANCH  30  31
ENDBRANCH  29  30
ENDBRANCH  28  29
ENDBRANCH  27  28
ENDBRANCH  26  27
ENDBRANCH  25  26
ENDBRANCH  24  25
ENDBRANCH  23  24
ENDBRANCH  22  23
ENDBRANCH  21  22
ENDBRANCH  20  21
ENDBRANCH  19  20
ENDBRANCH  18  19
ENDBRANCH   1  18
TORSDOF 28
ENDMDL
MODEL 9
REMARK VINA RESULT:    -5.927      6.037     14.488
REMARK INTER + INTRA:         -19.257
REMARK INTER:                 -17.249
REMARK INTRA:                  -2.008
REMARK UNBOUND:                -3.627
REMARK SMILES CCCCCCCCCCCCCCCCCCCCCCCCCCCCCC(=O)[O-]
REMARK SMILES IDX 16 1 17 2 18 3 19 4 20 5 21 6 22 7 23 8 24 9 25 10 26 11
REMARK SMILES IDX 27 12 28 13 29 14 30 15 31 16 32 17 15 18 14 19 13 20 12 21
REMARK SMILES IDX 11 22 10 23 9 24 8 25 7 26 6 27 5 28 4 29 3 30 2 31 1 32
REMARK H PARENT
REMARK Flexibility Score: inf
ROOT
ATOM      1  C   UNL     1      21.896  -0.476   6.108  1.00  0.00     0.000 C 
ENDROOT
BRANCH   1   2
ATOM      2  C   UNL     1      20.542  -0.457   6.850  1.00  0.00     0.000 C 
BRANCH   2   3
ATOM      3  C   UNL     1      20.102   0.970   7.214  1.00  0.00     0.000 C 
BRANCH   3   4
ATOM      4  C   UNL     1      18.587   1.078   7.457  1.00  0.00     0.000 C 
BRANCH   4   5
ATOM      5  C   UNL     1      18.137   0.328   8.721  1.00  0.00     0.000 C 
BRANCH   5   6
ATOM      6  C   UNL     1      17.986   1.289   9.909  1.00  0.00     0.000 C 
BRANCH   6   7
ATOM      7  C   UNL     1      17.084   0.723  11.021  1.00  0.00     0.000 C 
BRANCH   7   8
ATOM      8  C   UNL     1      15.803   1.536  11.302  1.00  0.00     0.000 C 
BRANCH   8   9
ATOM      9  C   UNL     1      15.809   2.318  12.626  1.00  0.00     0.000 C 
BRANCH   9  10
ATOM     10  C   UNL     1      14.817   1.751  13.656  1.00  0.00     0.000 C 
BRANCH  10  11
ATOM     11  C   UNL     1      14.860   2.497  15.002  1.00  0.00     0.000 C 
BRANCH  11  12
ATOM     12  C   UNL     1      13.491   2.707  15.675  1.00  0.00     0.000 C 
BRANCH  12  13
ATOM     13  C   UNL     1      13.488   2.619  17.213  1.00  0.00     0.006 C 
BRANCH  13  14
ATOM     14  C   UNL     1      13.658   1.189  17.757  1.00  0.00     0.053 C 
BRANCH  14  15
ATOM     15  C   UNL     1      15.095   0.761  17.801  1.00  0.00     0.041 C 
ATOM     16  O   UNL     1      15.934   1.422  18.467  1.00  0.00    -0.550 OA
ATOM     17  O   UNL     1      15.500  -0.387  17.130  1.00  0.00    -0.550 OA
ENDBRANCH  14  15
ENDBRANCH  13  14
ENDBRANCH  12  13
ENDBRANCH  11  12
ENDBRANCH  10  11
ENDBRANCH   9  10
ENDBRANCH   8   9
ENDBRANCH   7   8
ENDBRANCH   6   7
ENDBRANCH   5   6
ENDBRANCH   4   5
ENDBRANCH   3   4
ENDBRANCH   2   3
ENDBRANCH   1   2
BRANCH   1  18
ATOM     18  C   UNL     1      22.256  -1.844   5.505  1.00  0.00     0.000 C 
BRANCH  18  19
ATOM     19  C   UNL     1      23.771  -2.050   5.361  1.00  0.00     0.000 C 
BRANCH  19  20
ATOM     20  C   UNL     1      24.563  -0.728   5.398  1.00  0.00     0.000 C 
BRANCH  20  21
ATOM     21  C   UNL     1      26.080  -0.875   5.644  1.00  0.00     0.000 C 
BRANCH  21  22
ATOM     22  C   UNL     1      26.476  -1.932   6.695  1.00  0.00     0.000 C 
BRANCH  22  23
ATOM     23  C   UNL     1      27.742  -2.736   6.351  1.00  0.00     0.000 C 
BRANCH  23  24
ATOM     24  C   UNL     1      28.682  -1.980   5.397  1.00  0.00    -0.000 C 
BRANCH  24  25
ATOM     25  C   UNL     1      30.166  -2.172   5.754  1.00  0.00    -0.000 C 
BRANCH  25  26
ATOM     26  C   UNL     1      30.429  -3.158   6.910  1.00  0.00    -0.000 C 
BRANCH  26  27
ATOM     27  C   UNL     1      31.688  -2.860   7.750  1.00  0.00    -0.000 C 
BRANCH  27  28
ATOM     28  C   UNL     1      32.115  -1.382   7.780  1.00  0.00    -0.000 C 
BRANCH  28  29
ATOM     29  C   UNL     1      31.761  -0.682   9.101  1.00  0.00    -0.000 C 
BRANCH  29  30
ATOM     30  C   UNL     1      30.937   0.590   8.847  1.00  0.00    -0.000 C 
BRANCH  30  31
ATOM     31  C   UNL     1      29.592   0.297   8.166  1.00  0.00    -0.003 C 
ATOM     32  C   UNL     1      28.479  -0.012   9.166  1.00  0.00     0.004 C 
ENDBRANCH  30  31
ENDBRANCH  29  30
ENDBRANCH  28  29
ENDBRANCH  27  28
ENDBRANCH  26  27
ENDBRANCH  25  26
ENDBRANCH  24  25
ENDBRANCH  23  24
ENDBRANCH  22  23
ENDBRANCH  21  22
ENDBRANCH  20  21
ENDBRANCH  19  20
ENDBRANCH  18  19
ENDBRANCH   1  18
TORSDOF 28
ENDMDL
