MODEL 1
REMARK VINA RESULT:    -3.556      0.000      0.000
REMARK INTER + INTRA:         -12.380
REMARK INTER:                  -8.130
REMARK INTRA:                  -4.250
REMARK UNBOUND:                -4.250
REMARK SMILES CCCCCCCCCCCCCCCCCCCCCCCC(=O)[O-]
REMARK SMILES IDX 13 1 14 2 15 3 16 4 17 5 18 6 19 7 20 8 21 9 22 10 23 11
REMARK SMILES IDX 24 12 25 13 26 14 12 15 11 16 10 17 9 18 8 19 7 20 6 21 5 22
REMARK SMILES IDX 4 23 3 24 2 25 1 26
REMARK H PARENT
REMARK Flexibility Score: inf
ROOT
ATOM      1  C   UNL     1      -1.483 -10.760  40.906  1.00  0.00     0.000 C 
ENDROOT
BRANCH   1   2
ATOM      2  C   UNL     1      -1.971  -9.337  41.231  1.00  0.00     0.000 C 
BRANCH   2   3
ATOM      3  C   UNL     1      -1.349  -8.221  40.371  1.00  0.00     0.000 C 
BRANCH   3   4
ATOM      4  C   UNL     1      -0.712  -8.752  39.076  1.00  0.00     0.000 C 
BRANCH   4   5
ATOM      5  C   UNL     1      -1.107  -7.933  37.831  1.00  0.00     0.000 C 
BRANCH   5   6
ATOM      6  C   UNL     1      -2.431  -7.154  37.950  1.00  0.00     0.000 C 
BRANCH   6   7
ATOM      7  C   UNL     1      -2.967  -6.668  36.595  1.00  0.00     0.000 C 
BRANCH   7   8
ATOM      8  C   UNL     1      -4.490  -6.474  36.645  1.00  0.00     0.000 C 
BRANCH   8   9
ATOM      9  C   UNL     1      -4.919  -5.022  36.368  1.00  0.00     0.000 C 
BRANCH   9  10
ATOM     10  C   UNL     1      -5.676  -4.807  35.042  1.00  0.00     0.006 C 
BRANCH  10  11
ATOM     11  C   UNL     1      -4.790  -4.367  33.867  1.00  0.00     0.053 C 
BRANCH  11  12
ATOM     12  C   UNL     1      -4.365  -5.526  33.018  1.00  0.00     0.041 C 
ATOM     13  O   UNL     1      -5.027  -6.597  33.032  1.00  0.00    -0.550 OA
ATOM     14  O   UNL     1      -3.218  -5.435  32.239  1.00  0.00    -0.550 OA
ENDBRANCH  11  12
ENDBRANCH  10  11
ENDBRANCH   9  10
ENDBRANCH   8   9
ENDBRANCH   7   8
ENDBRANCH   6   7
ENDBRANCH   5   6
ENDBRANCH   4   5
ENDBRANCH   3   4
ENDBRANCH   2   3
ENDBRANCH   1   2
BRANCH   1  15
ATOM     15  C   UNL     1      -1.980 -11.809  41.911  1.00  0.00     0.000 C 
BRANCH  15  16
ATOM     16  C   UNL     1      -3.009 -12.747  41.262  1.00  0.00     0.000 C 
BRANCH  16  17
ATOM     17  C   UNL     1      -4.452 -12.422  41.678  1.00  0.00     0.000 C 
BRANCH  17  18
ATOM     18  C   UNL     1      -4.524 -11.549  42.941  1.00  0.00    -0.000 C 
BRANCH  18  19
ATOM     19  C   UNL     1      -5.760 -10.638  42.910  1.00  0.00    -0.000 C 
BRANCH  19  20
ATOM     20  C   UNL     1      -5.451  -9.235  42.362  1.00  0.00    -0.000 C 
BRANCH  20  21
ATOM     21  C   UNL     1      -6.214  -8.927  41.062  1.00  0.00    -0.000 C 
BRANCH  21  22
ATOM     22  C   UNL     1      -5.281  -8.501  39.916  1.00  0.00    -0.000 C 
BRANCH  22  23
ATOM     23  C   UNL     1      -5.418  -9.400  38.674  1.00  0.00    -0.000 C 
BRANCH  23  24
ATOM     24  C   UNL     1      -4.343 -10.498  38.622  1.00  0.00    -0.000 C 
BRANCH  24  25
ATOM     25  C   UNL     1      -3.628 -10.562  37.263  1.00  0.00    -0.003 C 
ATOM     26  C   UNL     1      -2.441 -11.520  37.315  1.00  0.00     0.004 C 
ENDBRANCH  24  25
ENDBRANCH  23  24
ENDBRANCH  22  23
ENDBRANCH  21  22
ENDBRANCH  20  21
ENDBRANCH  19  20
ENDBRANCH  18  19
ENDBRANCH  17  18
ENDBRANCH  16  17
ENDBRANCH  15  16
ENDBRANCH   1  15
TORSDOF 22
ENDMDL
MODEL 2
REMARK VINA RESULT:    -3.412      1.264      4.191
REMARK INTER + INTRA:         -12.049
REMARK INTER:                  -7.109
REMARK INTRA:                  -4.940
REMARK UNBOUND:                -4.250
REMARK SMILES CCCCCCCCCCCCCCCCCCCCCCCC(=O)[O-]
REMARK SMILES IDX 13 1 14 2 15 3 16 4 17 5 18 6 19 7 20 8 21 9 22 10 23 11
REMARK SMILES IDX 24 12 25 13 26 14 12 15 11 16 10 17 9 18 8 19 7 20 6 21 5 22
REMARK SMILES IDX 4 23 3 24 2 25 1 26
REMARK H PARENT
REMARK Flexibility Score: inf
ROOT
ATOM      1  C   UNL     1      -4.571  -8.193  38.248  1.00  0.00     0.000 C 
ENDROOT
BRANCH   1   2
ATOM      2  C   UNL     1      -4.828  -9.625  37.746  1.00  0.00     0.000 C 
BRANCH   2   3
ATOM      3  C   UNL     1      -4.272 -10.743  38.647  1.00  0.00     0.000 C 
BRANCH   3   4
ATOM      4  C   UNL     1      -3.363 -11.725  37.887  1.00  0.00     0.000 C 
BRANCH   4   5
ATOM      5  C   UNL     1      -2.758 -11.118  36.607  1.00  0.00     0.000 C 
BRANCH   5   6
ATOM      6  C   UNL     1      -1.301 -10.637  36.734  1.00  0.00     0.000 C 
BRANCH   6   7
ATOM      7  C   UNL     1      -0.963  -9.481  35.779  1.00  0.00     0.000 C 
BRANCH   7   8
ATOM      8  C   UNL     1      -2.243  -8.803  35.265  1.00  0.00     0.000 C 
BRANCH   8   9
ATOM      9  C   UNL     1      -2.183  -7.267  35.352  1.00  0.00     0.000 C 
BRANCH   9  10
ATOM     10  C   UNL     1      -3.511  -6.545  35.042  1.00  0.00     0.006 C 
BRANCH  10  11
ATOM     11  C   UNL     1      -3.382  -5.368  34.064  1.00  0.00     0.053 C 
BRANCH  11  12
ATOM     12  C   UNL     1      -3.812  -5.739  32.678  1.00  0.00     0.041 C 
ATOM     13  O   UNL     1      -2.957  -5.867  31.763  1.00  0.00    -0.550 OA
ATOM     14  O   UNL     1      -5.160  -5.911  32.390  1.00  0.00    -0.550 OA
ENDBRANCH  11  12
ENDBRANCH  10  11
ENDBRANCH   9  10
ENDBRANCH   8   9
ENDBRANCH   7   8
ENDBRANCH   6   7
ENDBRANCH   5   6
ENDBRANCH   4   5
ENDBRANCH   3   4
ENDBRANCH   2   3
ENDBRANCH   1   2
BRANCH   1  15
ATOM     15  C   UNL     1      -3.549  -8.134  39.394  1.00  0.00     0.000 C 
BRANCH  15  16
ATOM     16  C   UNL     1      -2.161  -7.734  38.871  1.00  0.00     0.000 C 
BRANCH  16  17
ATOM     17  C   UNL     1      -1.019  -8.415  39.642  1.00  0.00     0.000 C 
BRANCH  17  18
ATOM     18  C   UNL     1      -1.524  -9.309  40.785  1.00  0.00    -0.000 C 
BRANCH  18  19
ATOM     19  C   UNL     1      -1.058 -10.760  40.594  1.00  0.00    -0.000 C 
BRANCH  19  20
ATOM     20  C   UNL     1      -1.770 -11.742  41.540  1.00  0.00    -0.000 C 
BRANCH  20  21
ATOM     21  C   UNL     1      -2.928 -11.085  42.311  1.00  0.00    -0.000 C 
BRANCH  21  22
ATOM     22  C   UNL     1      -4.227 -11.906  42.240  1.00  0.00    -0.000 C 
BRANCH  22  23
ATOM     23  C   UNL     1      -5.481 -11.055  42.504  1.00  0.00    -0.000 C 
BRANCH  23  24
ATOM     24  C   UNL     1      -5.201  -9.547  42.404  1.00  0.00    -0.000 C 
BRANCH  24  25
ATOM     25  C   UNL     1      -6.328  -8.781  41.694  1.00  0.00    -0.003 C 
ATOM     26  C   UNL     1      -7.142  -9.710  40.798  1.00  0.00     0.004 C 
ENDBRANCH  24  25
ENDBRANCH  23  24
ENDBRANCH  22  23
ENDBRANCH  21  22
ENDBRANCH  20  21
ENDBRANCH  19  20
ENDBRANCH  18  19
ENDBRANCH  17  18
ENDBRANCH  16  17
ENDBRANCH  15  16
ENDBRANCH   1  15
TORSDOF 22
ENDMDL
MODEL 3
REMARK VINA RESULT:    -3.399      3.450      7.325
REMARK INTER + INTRA:         -12.020
REMARK INTER:                  -7.787
REMARK INTRA:                  -4.233
REMARK UNBOUND:                -4.250
REMARK SMILES CCCCCCCCCCCCCCCCCCCCCCCC(=O)[O-]
REMARK SMILES IDX 13 1 14 2 15 3 16 4 17 5 18 6 19 7 20 8 21 9 22 10 23 11
REMARK SMILES IDX 24 12 25 13 26 14 12 15 11 16 10 17 9 18 8 19 7 20 6 21 5 22
REMARK SMILES IDX 4 23 3 24 2 25 1 26
REMARK H PARENT
REMARK Flexibility Score: inf
ROOT
ATOM      1  C   UNL     1      -2.903 -11.562  38.469  1.00  0.00     0.000 C 
ENDROOT
BRANCH   1   2
ATOM      2  C   UNL     1      -3.627 -10.512  37.607  1.00  0.00     0.000 C 
BRANCH   2   3
ATOM      3  C   UNL     1      -4.987 -10.042  38.156  1.00  0.00     0.000 C 
BRANCH   3   4
ATOM      4  C   UNL     1      -4.997  -8.548  38.525  1.00  0.00     0.000 C 
BRANCH   4   5
ATOM      5  C   UNL     1      -5.673  -8.267  39.880  1.00  0.00     0.000 C 
BRANCH   5   6
ATOM      6  C   UNL     1      -6.859  -9.187  40.226  1.00  0.00     0.000 C 
BRANCH   6   7
ATOM      7  C   UNL     1      -6.882  -9.609  41.703  1.00  0.00     0.000 C 
BRANCH   7   8
ATOM      8  C   UNL     1      -5.526  -9.341  42.372  1.00  0.00     0.000 C 
BRANCH   8   9
ATOM      9  C   UNL     1      -4.964 -10.574  43.103  1.00  0.00     0.000 C 
BRANCH   9  10
ATOM     10  C   UNL     1      -6.026 -11.566  43.620  1.00  0.00     0.006 C 
BRANCH  10  11
ATOM     11  C   UNL     1      -5.529 -13.012  43.764  1.00  0.00     0.053 C 
BRANCH  11  12
ATOM     12  C   UNL     1      -4.826 -13.491  42.530  1.00  0.00     0.041 C 
ATOM     13  O   UNL     1      -5.474 -13.688  41.469  1.00  0.00    -0.550 OA
ATOM     14  O   UNL     1      -3.462 -13.751  42.563  1.00  0.00    -0.550 OA
ENDBRANCH  11  12
ENDBRANCH  10  11
ENDBRANCH   9  10
ENDBRANCH   8   9
ENDBRANCH   7   8
ENDBRANCH   6   7
ENDBRANCH   5   6
ENDBRANCH   4   5
ENDBRANCH   3   4
ENDBRANCH   2   3
ENDBRANCH   1   2
BRANCH   1  15
ATOM     15  C   UNL     1      -3.100 -11.339  39.976  1.00  0.00     0.000 C 
BRANCH  15  16
ATOM     16  C   UNL     1      -1.883 -10.631  40.589  1.00  0.00     0.000 C 
BRANCH  16  17
ATOM     17  C   UNL     1      -2.159  -9.155  40.919  1.00  0.00     0.000 C 
BRANCH  17  18
ATOM     18  C   UNL     1      -1.552  -8.193  39.886  1.00  0.00    -0.000 C 
BRANCH  18  19
ATOM     19  C   UNL     1      -0.352  -8.836  39.175  1.00  0.00    -0.000 C 
BRANCH  19  20
ATOM     20  C   UNL     1      -0.408  -8.673  37.647  1.00  0.00    -0.000 C 
BRANCH  20  21
ATOM     21  C   UNL     1      -1.379  -7.563  37.207  1.00  0.00    -0.000 C 
BRANCH  21  22
ATOM     22  C   UNL     1      -1.940  -7.795  35.794  1.00  0.00    -0.000 C 
BRANCH  22  23
ATOM     23  C   UNL     1      -3.036  -6.782  35.419  1.00  0.00    -0.000 C 
BRANCH  23  24
ATOM     24  C   UNL     1      -3.573  -6.016  36.638  1.00  0.00    -0.000 C 
BRANCH  24  25
ATOM     25  C   UNL     1      -4.704  -5.041  36.276  1.00  0.00    -0.003 C 
ATOM     26  C   UNL     1      -4.382  -4.281  34.992  1.00  0.00     0.004 C 
ENDBRANCH  24  25
ENDBRANCH  23  24
ENDBRANCH  22  23
ENDBRANCH  21  22
ENDBRANCH  20  21
ENDBRANCH  19  20
ENDBRANCH  18  19
ENDBRANCH  17  18
ENDBRANCH  16  17
ENDBRANCH  15  16
ENDBRANCH   1  15
TORSDOF 22
ENDMDL
MODEL 4
REMARK VINA RESULT:    -3.382      1.614      4.155
REMARK INTER + INTRA:         -11.982
REMARK INTER:                  -7.851
REMARK INTRA:                  -4.131
REMARK UNBOUND:                -4.250
REMARK SMILES CCCCCCCCCCCCCCCCCCCCCCCC(=O)[O-]
REMARK SMILES IDX 13 1 14 2 15 3 16 4 17 5 18 6 19 7 20 8 21 9 22 10 23 11
REMARK SMILES IDX 24 12 25 13 26 14 12 15 11 16 10 17 9 18 8 19 7 20 6 21 5 22
REMARK SMILES IDX 4 23 3 24 2 25 1 26
REMARK H PARENT
REMARK Flexibility Score: inf
ROOT
ATOM      1  C   UNL     1      -1.762  -9.566  36.036  1.00  0.00     0.000 C 
ENDROOT
BRANCH   1   2
ATOM      2  C   UNL     1      -1.314  -8.105  35.842  1.00  0.00     0.000 C 
BRANCH   2   3
ATOM      3  C   UNL     1      -2.309  -7.045  36.350  1.00  0.00     0.000 C 
BRANCH   3   4
ATOM      4  C   UNL     1      -3.767  -7.536  36.325  1.00  0.00     0.000 C 
BRANCH   4   5
ATOM      5  C   UNL     1      -4.744  -6.554  36.999  1.00  0.00     0.000 C 
BRANCH   5   6
ATOM      6  C   UNL     1      -4.707  -5.113  36.455  1.00  0.00     0.000 C 
BRANCH   6   7
ATOM      7  C   UNL     1      -5.051  -5.024  34.961  1.00  0.00     0.000 C 
BRANCH   7   8
ATOM      8  C   UNL     1      -4.018  -4.172  34.209  1.00  0.00     0.000 C 
BRANCH   8   9
ATOM      9  C   UNL     1      -3.017  -5.018  33.401  1.00  0.00     0.000 C 
BRANCH   9  10
ATOM     10  C   UNL     1      -3.553  -6.383  32.924  1.00  0.00     0.006 C 
BRANCH  10  11
ATOM     11  C   UNL     1      -3.582  -6.558  31.399  1.00  0.00     0.053 C 
BRANCH  11  12
ATOM     12  C   UNL     1      -4.936  -6.266  30.826  1.00  0.00     0.041 C 
ATOM     13  O   UNL     1      -5.099  -6.223  29.579  1.00  0.00    -0.550 OA
ATOM     14  O   UNL     1      -6.008  -6.007  31.671  1.00  0.00    -0.550 OA
ENDBRANCH  11  12
ENDBRANCH  10  11
ENDBRANCH   9  10
ENDBRANCH   8   9
ENDBRANCH   7   8
ENDBRANCH   6   7
ENDBRANCH   5   6
ENDBRANCH   4   5
ENDBRANCH   3   4
ENDBRANCH   2   3
ENDBRANCH   1   2
BRANCH   1  15
ATOM     15  C   UNL     1      -0.657 -10.459  36.619  1.00  0.00     0.000 C 
BRANCH  15  16
ATOM     16  C   UNL     1      -1.020 -10.927  38.035  1.00  0.00     0.000 C 
BRANCH  16  17
ATOM     17  C   UNL     1      -0.091 -10.342  39.110  1.00  0.00     0.000 C 
BRANCH  17  18
ATOM     18  C   UNL     1      -0.264  -8.824  39.281  1.00  0.00    -0.000 C 
BRANCH  18  19
ATOM     19  C   UNL     1      -1.351  -8.508  40.319  1.00  0.00    -0.000 C 
BRANCH  19  20
ATOM     20  C   UNL     1      -2.704  -8.162  39.676  1.00  0.00    -0.000 C 
BRANCH  20  21
ATOM     21  C   UNL     1      -3.872  -8.945  40.301  1.00  0.00    -0.000 C 
BRANCH  21  22
ATOM     22  C   UNL     1      -4.348 -10.107  39.413  1.00  0.00    -0.000 C 
BRANCH  22  23
ATOM     23  C   UNL     1      -4.049 -11.485  40.029  1.00  0.00    -0.000 C 
BRANCH  23  24
ATOM     24  C   UNL     1      -3.483 -11.382  41.454  1.00  0.00    -0.000 C 
BRANCH  24  25
ATOM     25  C   UNL     1      -2.218 -12.231  41.653  1.00  0.00    -0.003 C 
ATOM     26  C   UNL     1      -1.193 -11.495  42.511  1.00  0.00     0.004 C 
ENDBRANCH  24  25
ENDBRANCH  23  24
ENDBRANCH  22  23
ENDBRANCH  21  22
ENDBRANCH  20  21
ENDBRANCH  19  20
ENDBRANCH  18  19
ENDBRANCH  17  18
ENDBRANCH  16  17
ENDBRANCH  15  16
ENDBRANCH   1  15
TORSDOF 22
ENDMDL
MODEL 5
REMARK VINA RESULT:    -3.381      3.822      7.652
REMARK INTER + INTRA:         -11.980
REMARK INTER:                  -7.695
REMARK INTRA:                  -4.284
REMARK UNBOUND:                -4.250
REMARK SMILES CCCCCCCCCCCCCCCCCCCCCCCC(=O)[O-]
REMARK SMILES IDX 13 1 14 2 15 3 16 4 17 5 18 6 19 7 20 8 21 9 22 10 23 11
REMARK SMILES IDX 24 12 25 13 26 14 12 15 11 16 10 17 9 18 8 19 7 20 6 21 5 22
REMARK SMILES IDX 4 23 3 24 2 25 1 26
REMARK H PARENT
REMARK Flexibility Score: inf
ROOT
ATOM      1  C   UNL     1      -3.761 -10.665  37.382  1.00  0.00     0.000 C 
ENDROOT
BRANCH   1   2
ATOM      2  C   UNL     1      -2.548 -11.457  37.905  1.00  0.00     0.000 C 
BRANCH   2   3
ATOM      3  C   UNL     1      -1.262 -11.307  37.072  1.00  0.00     0.000 C 
BRANCH   3   4
ATOM      4  C   UNL     1      -0.463 -10.043  37.432  1.00  0.00     0.000 C 
BRANCH   4   5
ATOM      5  C   UNL     1      -0.348  -9.815  38.951  1.00  0.00     0.000 C 
BRANCH   5   6
ATOM      6  C   UNL     1      -0.725  -8.401  39.433  1.00  0.00     0.000 C 
BRANCH   6   7
ATOM      7  C   UNL     1      -1.614  -8.409  40.687  1.00  0.00     0.000 C 
BRANCH   7   8
ATOM      8  C   UNL     1      -1.888  -9.847  41.155  1.00  0.00     0.000 C 
BRANCH   8   9
ATOM      9  C   UNL     1      -3.325 -10.046  41.669  1.00  0.00     0.000 C 
BRANCH   9  10
ATOM     10  C   UNL     1      -3.640 -11.461  42.193  1.00  0.00     0.006 C 
BRANCH  10  11
ATOM     11  C   UNL     1      -2.660 -12.547  41.725  1.00  0.00     0.053 C 
BRANCH  11  12
ATOM     12  C   UNL     1      -2.842 -13.831  42.476  1.00  0.00     0.041 C 
ATOM     13  O   UNL     1      -1.847 -14.422  42.970  1.00  0.00    -0.550 OA
ATOM     14  O   UNL     1      -4.108 -14.391  42.600  1.00  0.00    -0.550 OA
ENDBRANCH  11  12
ENDBRANCH  10  11
ENDBRANCH   9  10
ENDBRANCH   8   9
ENDBRANCH   7   8
ENDBRANCH   6   7
ENDBRANCH   5   6
ENDBRANCH   4   5
ENDBRANCH   3   4
ENDBRANCH   2   3
ENDBRANCH   1   2
BRANCH   1  15
ATOM     15  C   UNL     1      -4.819 -10.404  38.464  1.00  0.00     0.000 C 
BRANCH  15  16
ATOM     16  C   UNL     1      -5.091  -8.900  38.615  1.00  0.00     0.000 C 
BRANCH  16  17
ATOM     17  C   UNL     1      -4.574  -8.082  37.420  1.00  0.00     0.000 C 
BRANCH  17  18
ATOM     18  C   UNL     1      -3.547  -7.016  37.832  1.00  0.00    -0.000 C 
BRANCH  18  19
ATOM     19  C   UNL     1      -2.462  -6.854  36.756  1.00  0.00    -0.000 C 
BRANCH  19  20
ATOM     20  C   UNL     1      -2.675  -7.787  35.552  1.00  0.00    -0.000 C 
BRANCH  20  21
ATOM     21  C   UNL     1      -1.673  -7.521  34.415  1.00  0.00    -0.000 C 
BRANCH  21  22
ATOM     22  C   UNL     1      -2.156  -6.429  33.446  1.00  0.00    -0.000 C 
BRANCH  22  23
ATOM     23  C   UNL     1      -3.690  -6.316  33.396  1.00  0.00    -0.000 C 
BRANCH  23  24
ATOM     24  C   UNL     1      -4.170  -4.860  33.289  1.00  0.00    -0.000 C 
BRANCH  24  25
ATOM     25  C   UNL     1      -4.009  -4.085  34.606  1.00  0.00    -0.003 C 
ATOM     26  C   UNL     1      -5.092  -4.476  35.608  1.00  0.00     0.004 C 
ENDBRANCH  24  25
ENDBRANCH  23  24
ENDBRANCH  22  23
ENDBRANCH  21  22
ENDBRANCH  20  21
ENDBRANCH  19  20
ENDBRANCH  18  19
ENDBRANCH  17  18
ENDBRANCH  16  17
ENDBRANCH  15  16
ENDBRANCH   1  15
TORSDOF 22
ENDMDL
MODEL 6
REMARK VINA RESULT:    -3.367      3.563      7.847
REMARK INTER + INTRA:         -11.947
REMARK INTER:                  -8.177
REMARK INTRA:                  -3.770
REMARK UNBOUND:                -4.250
REMARK SMILES CCCCCCCCCCCCCCCCCCCCCCCC(=O)[O-]
REMARK SMILES IDX 13 1 14 2 15 3 16 4 17 5 18 6 19 7 20 8 21 9 22 10 23 11
REMARK SMILES IDX 24 12 25 13 26 14 12 15 11 16 10 17 9 18 8 19 7 20 6 21 5 22
REMARK SMILES IDX 4 23 3 24 2 25 1 26
REMARK H PARENT
REMARK Flexibility Score: inf
ROOT
ATOM      1  C   UNL     1      -2.229  -9.098  34.091  1.00  0.00     0.000 C 
ENDROOT
BRANCH   1   2
ATOM      2  C   UNL     1      -2.042  -9.257  35.611  1.00  0.00     0.000 C 
BRANCH   2   3
ATOM      3  C   UNL     1      -0.694  -8.755  36.160  1.00  0.00     0.000 C 
BRANCH   3   4
ATOM      4  C   UNL     1      -0.856  -7.671  37.239  1.00  0.00     0.000 C 
BRANCH   4   5
ATOM      5  C   UNL     1      -0.980  -8.250  38.661  1.00  0.00     0.000 C 
BRANCH   5   6
ATOM      6  C   UNL     1      -2.331  -8.000  39.356  1.00  0.00     0.000 C 
BRANCH   6   7
ATOM      7  C   UNL     1      -3.310  -9.175  39.212  1.00  0.00     0.000 C 
BRANCH   7   8
ATOM      8  C   UNL     1      -4.554  -8.964  40.087  1.00  0.00     0.000 C 
BRANCH   8   9
ATOM      9  C   UNL     1      -4.748 -10.078  41.132  1.00  0.00     0.000 C 
BRANCH   9  10
ATOM     10  C   UNL     1      -3.570 -10.270  42.108  1.00  0.00     0.006 C 
BRANCH  10  11
ATOM     11  C   UNL     1      -2.901 -11.650  42.036  1.00  0.00     0.053 C 
BRANCH  11  12
ATOM     12  C   UNL     1      -1.412 -11.547  41.903  1.00  0.00     0.041 C 
ATOM     13  O   UNL     1      -0.903 -11.047  40.866  1.00  0.00    -0.550 OA
ATOM     14  O   UNL     1      -0.587 -12.035  42.909  1.00  0.00    -0.550 OA
ENDBRANCH  11  12
ENDBRANCH  10  11
ENDBRANCH   9  10
ENDBRANCH   8   9
ENDBRANCH   7   8
ENDBRANCH   6   7
ENDBRANCH   5   6
ENDBRANCH   4   5
ENDBRANCH   3   4
ENDBRANCH   2   3
ENDBRANCH   1   2
BRANCH   1  15
ATOM     15  C   UNL     1      -3.049  -7.856  33.714  1.00  0.00     0.000 C 
BRANCH  15  16
ATOM     16  C   UNL     1      -2.129  -6.675  33.371  1.00  0.00     0.000 C 
BRANCH  16  17
ATOM     17  C   UNL     1      -2.899  -5.356  33.192  1.00  0.00     0.000 C 
BRANCH  17  18
ATOM     18  C   UNL     1      -4.334  -5.571  32.687  1.00  0.00    -0.000 C 
BRANCH  18  19
ATOM     19  C   UNL     1      -5.332  -4.720  33.487  1.00  0.00    -0.000 C 
BRANCH  19  20
ATOM     20  C   UNL     1      -4.673  -3.984  34.666  1.00  0.00    -0.000 C 
BRANCH  20  21
ATOM     21  C   UNL     1      -5.144  -4.517  36.031  1.00  0.00    -0.000 C 
BRANCH  21  22
ATOM     22  C   UNL     1      -4.140  -5.498  36.660  1.00  0.00    -0.000 C 
BRANCH  22  23
ATOM     23  C   UNL     1      -4.700  -6.926  36.776  1.00  0.00    -0.000 C 
BRANCH  23  24
ATOM     24  C   UNL     1      -6.129  -7.044  36.223  1.00  0.00    -0.000 C 
BRANCH  24  25
ATOM     25  C   UNL     1      -6.300  -8.237  35.270  1.00  0.00    -0.003 C 
ATOM     26  C   UNL     1      -7.737  -8.334  34.766  1.00  0.00     0.004 C 
ENDBRANCH  24  25
ENDBRANCH  23  24
ENDBRANCH  22  23
ENDBRANCH  21  22
ENDBRANCH  20  21
ENDBRANCH  19  20
ENDBRANCH  18  19
ENDBRANCH  17  18
ENDBRANCH  16  17
ENDBRANCH  15  16
ENDBRANCH   1  15
TORSDOF 22
ENDMDL
MODEL 7
REMARK VINA RESULT:    -3.358      1.271      2.965
REMARK INTER + INTRA:         -11.927
REMARK INTER:                  -7.928
REMARK INTRA:                  -3.998
REMARK UNBOUND:                -4.250
REMARK SMILES CCCCCCCCCCCCCCCCCCCCCCCC(=O)[O-]
REMARK SMILES IDX 13 1 14 2 15 3 16 4 17 5 18 6 19 7 20 8 21 9 22 10 23 11
REMARK SMILES IDX 24 12 25 13 26 14 12 15 11 16 10 17 9 18 8 19 7 20 6 21 5 22
REMARK SMILES IDX 4 23 3 24 2 25 1 26
REMARK H PARENT
REMARK Flexibility Score: inf
ROOT
ATOM      1  C   UNL     1      -1.978  -7.886  39.206  1.00  0.00     0.000 C 
ENDROOT
BRANCH   1   2
ATOM      2  C   UNL     1      -1.472  -8.003  37.756  1.00  0.00     0.000 C 
BRANCH   2   3
ATOM      3  C   UNL     1      -2.241  -7.155  36.726  1.00  0.00     0.000 C 
BRANCH   3   4
ATOM      4  C   UNL     1      -3.259  -6.204  37.379  1.00  0.00     0.000 C 
BRANCH   4   5
ATOM      5  C   UNL     1      -4.649  -6.263  36.717  1.00  0.00     0.000 C 
BRANCH   5   6
ATOM      6  C   UNL     1      -5.257  -4.898  36.343  1.00  0.00     0.000 C 
BRANCH   6   7
ATOM      7  C   UNL     1      -5.276  -4.642  34.828  1.00  0.00     0.000 C 
BRANCH   7   8
ATOM      8  C   UNL     1      -3.942  -4.043  34.356  1.00  0.00     0.000 C 
BRANCH   8   9
ATOM      9  C   UNL     1      -3.183  -4.964  33.383  1.00  0.00     0.000 C 
BRANCH   9  10
ATOM     10  C   UNL     1      -3.627  -6.441  33.402  1.00  0.00     0.006 C 
BRANCH  10  11
ATOM     11  C   UNL     1      -3.485  -7.165  32.055  1.00  0.00     0.053 C 
BRANCH  11  12
ATOM     12  C   UNL     1      -4.115  -6.395  30.934  1.00  0.00     0.041 C 
ATOM     13  O   UNL     1      -5.363  -6.234  30.900  1.00  0.00    -0.550 OA
ATOM     14  O   UNL     1      -3.326  -5.886  29.910  1.00  0.00    -0.550 OA
ENDBRANCH  11  12
ENDBRANCH  10  11
ENDBRANCH   9  10
ENDBRANCH   8   9
ENDBRANCH   7   8
ENDBRANCH   6   7
ENDBRANCH   5   6
ENDBRANCH   4   5
ENDBRANCH   3   4
ENDBRANCH   2   3
ENDBRANCH   1   2
BRANCH   1  15
ATOM     15  C   UNL     1      -1.061  -8.588  40.219  1.00  0.00     0.000 C 
BRANCH  15  16
ATOM     16  C   UNL     1      -0.730 -10.016  39.761  1.00  0.00     0.000 C 
BRANCH  16  17
ATOM     17  C   UNL     1      -1.399 -11.090  40.635  1.00  0.00     0.000 C 
BRANCH  17  18
ATOM     18  C   UNL     1      -2.077 -10.501  41.882  1.00  0.00    -0.000 C 
BRANCH  18  19
ATOM     19  C   UNL     1      -3.573 -10.846  41.909  1.00  0.00    -0.000 C 
BRANCH  19  20
ATOM     20  C   UNL     1      -4.470  -9.599  41.978  1.00  0.00    -0.000 C 
BRANCH  20  21
ATOM     21  C   UNL     1      -4.946  -9.137  40.590  1.00  0.00    -0.000 C 
BRANCH  21  22
ATOM     22  C   UNL     1      -4.972 -10.282  39.562  1.00  0.00    -0.000 C 
BRANCH  22  23
ATOM     23  C   UNL     1      -5.344  -9.802  38.149  1.00  0.00    -0.000 C 
BRANCH  23  24
ATOM     24  C   UNL     1      -4.301 -10.207  37.096  1.00  0.00    -0.000 C 
BRANCH  24  25
ATOM     25  C   UNL     1      -3.420 -11.380  37.553  1.00  0.00    -0.003 C 
ATOM     26  C   UNL     1      -2.176 -11.504  36.680  1.00  0.00     0.004 C 
ENDBRANCH  24  25
ENDBRANCH  23  24
ENDBRANCH  22  23
ENDBRANCH  21  22
ENDBRANCH  20  21
ENDBRANCH  19  20
ENDBRANCH  18  19
ENDBRANCH  17  18
ENDBRANCH  16  17
ENDBRANCH  15  16
ENDBRANCH   1  15
TORSDOF 22
ENDMDL
MODEL 8
REMARK VINA RESULT:    -3.335      1.382      3.803
REMARK INTER + INTRA:         -11.873
REMARK INTER:                  -7.898
REMARK INTRA:                  -3.976
REMARK UNBOUND:                -4.250
REMARK SMILES CCCCCCCCCCCCCCCCCCCCCCCC(=O)[O-]
REMARK SMILES IDX 13 1 14 2 15 3 16 4 17 5 18 6 19 7 20 8 21 9 22 10 23 11
REMARK SMILES IDX 24 12 25 13 26 14 12 15 11 16 10 17 9 18 8 19 7 20 6 21 5 22
REMARK SMILES IDX 4 23 3 24 2 25 1 26
REMARK H PARENT
REMARK Flexibility Score: inf
ROOT
ATOM      1  C   UNL     1      -3.652  -9.957  41.682  1.00  0.00     0.000 C 
ENDROOT
BRANCH   1   2
ATOM      2  C   UNL     1      -4.562  -9.249  40.661  1.00  0.00     0.000 C 
BRANCH   2   3
ATOM      3  C   UNL     1      -4.728  -9.983  39.317  1.00  0.00     0.000 C 
BRANCH   3   4
ATOM      4  C   UNL     1      -5.661  -9.241  38.344  1.00  0.00     0.000 C 
BRANCH   4   5
ATOM      5  C   UNL     1      -5.662  -7.715  38.555  1.00  0.00     0.000 C 
BRANCH   5   6
ATOM      6  C   UNL     1      -5.338  -6.878  37.303  1.00  0.00     0.000 C 
BRANCH   6   7
ATOM      7  C   UNL     1      -6.507  -5.989  36.854  1.00  0.00     0.000 C 
BRANCH   7   8
ATOM      8  C   UNL     1      -5.997  -4.658  36.282  1.00  0.00     0.000 C 
BRANCH   8   9
ATOM      9  C   UNL     1      -4.515  -4.713  35.867  1.00  0.00     0.000 C 
BRANCH   9  10
ATOM     10  C   UNL     1      -4.186  -4.019  34.530  1.00  0.00     0.006 C 
BRANCH  10  11
ATOM     11  C   UNL     1      -3.176  -4.774  33.653  1.00  0.00     0.053 C 
BRANCH  11  12
ATOM     12  C   UNL     1      -3.853  -5.612  32.611  1.00  0.00     0.041 C 
ATOM     13  O   UNL     1      -3.283  -5.836  31.511  1.00  0.00    -0.550 OA
ATOM     14  O   UNL     1      -5.127  -6.116  32.842  1.00  0.00    -0.550 OA
ENDBRANCH  11  12
ENDBRANCH  10  11
ENDBRANCH   9  10
ENDBRANCH   8   9
ENDBRANCH   7   8
ENDBRANCH   6   7
ENDBRANCH   5   6
ENDBRANCH   4   5
ENDBRANCH   3   4
ENDBRANCH   2   3
ENDBRANCH   1   2
BRANCH   1  15
ATOM     15  C   UNL     1      -2.887 -11.145  41.081  1.00  0.00     0.000 C 
BRANCH  15  16
ATOM     16  C   UNL     1      -1.384 -10.843  40.995  1.00  0.00     0.000 C 
BRANCH  16  17
ATOM     17  C   UNL     1      -0.882 -10.739  39.546  1.00  0.00     0.000 C 
BRANCH  17  18
ATOM     18  C   UNL     1      -0.202  -9.393  39.250  1.00  0.00    -0.000 C 
BRANCH  18  19
ATOM     19  C   UNL     1      -1.113  -8.219  39.641  1.00  0.00    -0.000 C 
BRANCH  19  20
ATOM     20  C   UNL     1      -1.929  -7.679  38.455  1.00  0.00    -0.000 C 
BRANCH  20  21
ATOM     21  C   UNL     1      -1.070  -7.463  37.196  1.00  0.00    -0.000 C 
BRANCH  21  22
ATOM     22  C   UNL     1      -1.917  -7.258  35.930  1.00  0.00    -0.000 C 
BRANCH  22  23
ATOM     23  C   UNL     1      -1.897  -8.482  34.998  1.00  0.00    -0.000 C 
BRANCH  23  24
ATOM     24  C   UNL     1      -3.306  -9.010  34.689  1.00  0.00    -0.000 C 
BRANCH  24  25
ATOM     25  C   UNL     1      -3.751 -10.116  35.658  1.00  0.00    -0.003 C 
ATOM     26  C   UNL     1      -2.551 -10.893  36.191  1.00  0.00     0.004 C 
ENDBRANCH  24  25
ENDBRANCH  23  24
ENDBRANCH  22  23
ENDBRANCH  21  22
ENDBRANCH  20  21
ENDBRANCH  19  20
ENDBRANCH  18  19
ENDBRANCH  17  18
ENDBRANCH  16  17
ENDBRANCH  15  16
ENDBRANCH   1  15
TORSDOF 22
ENDMDL
MODEL 9
REMARK VINA RESULT:    -3.264      1.152      2.663
REMARK INTER + INTRA:         -11.711
REMARK INTER:                  -7.164
REMARK INTRA:                  -4.547
REMARK UNBOUND:                -4.250
REMARK SMILES CCCCCCCCCCCCCCCCCCCCCCCC(=O)[O-]
REMARK SMILES IDX 13 1 14 2 15 3 16 4 17 5 18 6 19 7 20 8 21 9 22 10 23 11
REMARK SMILES IDX 24 12 25 13 26 14 12 15 11 16 10 17 9 18 8 19 7 20 6 21 5 22
REMARK SMILES IDX 4 23 3 24 2 25 1 26
REMARK H PARENT
REMARK Flexibility Score: inf
ROOT
ATOM      1  C   UNL     1      -3.268 -13.179  41.066  1.00  0.00     0.000 C 
ENDROOT
BRANCH   1   2
ATOM      2  C   UNL     1      -2.297 -12.928  42.235  1.00  0.00     0.000 C 
BRANCH   2   3
ATOM      3  C   UNL     1      -1.585 -11.563  42.211  1.00  0.00     0.000 C 
BRANCH   3   4
ATOM      4  C   UNL     1      -1.434 -10.995  40.789  1.00  0.00     0.000 C 
BRANCH   4   5
ATOM      5  C   UNL     1      -1.478  -9.456  40.747  1.00  0.00     0.000 C 
BRANCH   5   6
ATOM      6  C   UNL     1      -1.124  -8.825  39.388  1.00  0.00     0.000 C 
BRANCH   6   7
ATOM      7  C   UNL     1      -2.136  -7.762  38.934  1.00  0.00     0.000 C 
BRANCH   7   8
ATOM      8  C   UNL     1      -1.934  -7.408  37.453  1.00  0.00     0.000 C 
BRANCH   8   9
ATOM      9  C   UNL     1      -3.089  -7.892  36.558  1.00  0.00     0.000 C 
BRANCH   9  10
ATOM     10  C   UNL     1      -4.342  -6.993  36.567  1.00  0.00     0.006 C 
BRANCH  10  11
ATOM     11  C   UNL     1      -4.047  -5.489  36.470  1.00  0.00     0.053 C 
BRANCH  11  12
ATOM     12  C   UNL     1      -4.392  -4.934  35.121  1.00  0.00     0.041 C 
ATOM     13  O   UNL     1      -4.019  -3.775  34.800  1.00  0.00    -0.550 OA
ATOM     14  O   UNL     1      -5.154  -5.684  34.234  1.00  0.00    -0.550 OA
ENDBRANCH  11  12
ENDBRANCH  10  11
ENDBRANCH   9  10
ENDBRANCH   8   9
ENDBRANCH   7   8
ENDBRANCH   6   7
ENDBRANCH   5   6
ENDBRANCH   4   5
ENDBRANCH   3   4
ENDBRANCH   2   3
ENDBRANCH   1   2
BRANCH   1  15
ATOM     15  C   UNL     1      -4.740 -13.188  41.502  1.00  0.00     0.000 C 
BRANCH  15  16
ATOM     16  C   UNL     1      -4.863 -13.032  43.024  1.00  0.00     0.000 C 
BRANCH  16  17
ATOM     17  C   UNL     1      -5.572 -11.730  43.432  1.00  0.00     0.000 C 
BRANCH  17  18
ATOM     18  C   UNL     1      -5.968 -10.867  42.223  1.00  0.00    -0.000 C 
BRANCH  18  19
ATOM     19  C   UNL     1      -5.177  -9.550  42.205  1.00  0.00    -0.000 C 
BRANCH  19  20
ATOM     20  C   UNL     1      -5.052  -8.951  40.795  1.00  0.00    -0.000 C 
BRANCH  20  21
ATOM     21  C   UNL     1      -5.636  -9.871  39.708  1.00  0.00    -0.000 C 
BRANCH  21  22
ATOM     22  C   UNL     1      -4.548 -10.607  38.909  1.00  0.00    -0.000 C 
BRANCH  22  23
ATOM     23  C   UNL     1      -4.982 -10.921  37.467  1.00  0.00    -0.000 C 
BRANCH  23  24
ATOM     24  C   UNL     1      -3.840 -11.510  36.624  1.00  0.00    -0.000 C 
BRANCH  24  25
ATOM     25  C   UNL     1      -2.511 -11.581  37.391  1.00  0.00    -0.003 C 
ATOM     26  C   UNL     1      -1.341 -11.182  36.498  1.00  0.00     0.004 C 
ENDBRANCH  24  25
ENDBRANCH  23  24
ENDBRANCH  22  23
ENDBRANCH  21  22
ENDBRANCH  20  21
ENDBRANCH  19  20
ENDBRANCH  18  19
ENDBRANCH  17  18
ENDBRANCH  16  17
ENDBRANCH  15  16
ENDBRANCH   1  15
TORSDOF 22
ENDMDL
