MODEL 1
REMARK VINA RESULT:    -0.297      0.000      0.000
REMARK INTER + INTRA:          -2.061
REMARK INTER:                  -0.680
REMARK INTRA:                  -1.381
REMARK UNBOUND:                -1.381
REMARK SMILES CCCCCCCCCCCCCCCCCCCCCCCC(=O)[O-]
REMARK SMILES IDX 13 1 14 2 15 3 16 4 17 5 18 6 19 7 20 8 21 9 22 10 23 11
REMARK SMILES IDX 24 12 25 13 26 14 12 15 11 16 10 17 9 18 8 19 7 20 6 21 5 22
REMARK SMILES IDX 4 23 3 24 2 25 1 26
REMARK H PARENT
REMARK Flexibility Score: inf
ROOT
ATOM      1  C   UNL     1     -29.607 -20.676 -34.011  1.00  0.00     0.000 C 
ENDROOT
BRANCH   1   2
ATOM      2  C   UNL     1     -29.488 -19.219 -33.517  1.00  0.00     0.000 C 
BRANCH   2   3
ATOM      3  C   UNL     1     -28.509 -19.003 -32.345  1.00  0.00     0.000 C 
BRANCH   3   4
ATOM      4  C   UNL     1     -29.167 -18.934 -30.952  1.00  0.00     0.000 C 
BRANCH   4   5
ATOM      5  C   UNL     1     -30.705 -18.875 -30.960  1.00  0.00     0.000 C 
BRANCH   5   6
ATOM      6  C   UNL     1     -31.353 -20.178 -30.462  1.00  0.00     0.000 C 
BRANCH   6   7
ATOM      7  C   UNL     1     -30.901 -21.408 -31.266  1.00  0.00     0.000 C 
BRANCH   7   8
ATOM      8  C   UNL     1     -31.324 -22.732 -30.606  1.00  0.00     0.000 C 
BRANCH   8   9
ATOM      9  C   UNL     1     -30.431 -23.109 -29.413  1.00  0.00     0.000 C 
BRANCH   9  10
ATOM     10  C   UNL     1     -29.749 -21.889 -28.774  1.00  0.00     0.006 C 
BRANCH  10  11
ATOM     11  C   UNL     1     -29.197 -22.233 -27.388  1.00  0.00     0.053 C 
BRANCH  11  12
ATOM     12  C   UNL     1     -28.131 -21.259 -26.991  1.00  0.00     0.041 C 
ATOM     13  O   UNL     1     -27.422 -20.703 -27.871  1.00  0.00    -0.550 OA
ATOM     14  O   UNL     1     -27.951 -20.932 -25.653  1.00  0.00    -0.550 OA
ENDBRANCH  11  12
ENDBRANCH  10  11
ENDBRANCH   9  10
ENDBRANCH   8   9
ENDBRANCH   7   8
ENDBRANCH   6   7
ENDBRANCH   5   6
ENDBRANCH   4   5
ENDBRANCH   3   4
ENDBRANCH   2   3
ENDBRANCH   1   2
BRANCH   1  15
ATOM     15  C   UNL     1     -30.774 -20.944 -34.979  1.00  0.00     0.000 C 
BRANCH  15  16
ATOM     16  C   UNL     1     -31.414 -22.327 -34.776  1.00  0.00     0.000 C 
BRANCH  16  17
ATOM     17  C   UNL     1     -32.949 -22.279 -34.836  1.00  0.00     0.000 C 
BRANCH  17  18
ATOM     18  C   UNL     1     -33.473 -21.215 -35.817  1.00  0.00    -0.000 C 
BRANCH  18  19
ATOM     19  C   UNL     1     -33.980 -21.823 -37.134  1.00  0.00    -0.000 C 
BRANCH  19  20
ATOM     20  C   UNL     1     -33.345 -21.162 -38.370  1.00  0.00    -0.000 C 
BRANCH  20  21
ATOM     21  C   UNL     1     -32.113 -21.924 -38.889  1.00  0.00    -0.000 C 
BRANCH  21  22
ATOM     22  C   UNL     1     -32.322 -23.436 -39.109  1.00  0.00    -0.000 C 
BRANCH  22  23
ATOM     23  C   UNL     1     -31.740 -24.347 -38.010  1.00  0.00    -0.000 C 
BRANCH  23  24
ATOM     24  C   UNL     1     -32.459 -25.698 -37.838  1.00  0.00    -0.000 C 
BRANCH  24  25
ATOM     25  C   UNL     1     -32.463 -26.538 -39.123  1.00  0.00    -0.003 C 
ATOM     26  C   UNL     1     -33.213 -27.851 -38.917  1.00  0.00     0.004 C 
ENDBRANCH  24  25
ENDBRANCH  23  24
ENDBRANCH  22  23
ENDBRANCH  21  22
ENDBRANCH  20  21
ENDBRANCH  19  20
ENDBRANCH  18  19
ENDBRANCH  17  18
ENDBRANCH  16  17
ENDBRANCH  15  16
ENDBRANCH   1  15
TORSDOF 22
ENDMDL
MODEL 2
REMARK VINA RESULT:     0.583      4.403      9.459
REMARK INTER + INTRA:          -0.049
REMARK INTER:                  -0.250
REMARK INTRA:                   0.201
REMARK UNBOUND:                -1.381
REMARK SMILES CCCCCCCCCCCCCCCCCCCCCCCC(=O)[O-]
REMARK SMILES IDX 13 1 14 2 15 3 16 4 17 5 18 6 19 7 20 8 21 9 22 10 23 11
REMARK SMILES IDX 24 12 25 13 26 14 12 15 11 16 10 17 9 18 8 19 7 20 6 21 5 22
REMARK SMILES IDX 4 23 3 24 2 25 1 26
REMARK H PARENT
REMARK Flexibility Score: inf
ROOT
ATOM      1  C   UNL     1     -31.267 -21.399 -32.865  1.00  0.00     0.000 C 
ENDROOT
BRANCH   1   2
ATOM      2  C   UNL     1     -31.543 -22.049 -34.237  1.00  0.00     0.000 C 
BRANCH   2   3
ATOM      3  C   UNL     1     -33.007 -21.977 -34.713  1.00  0.00     0.000 C 
BRANCH   3   4
ATOM      4  C   UNL     1     -33.389 -20.681 -35.456  1.00  0.00     0.000 C 
BRANCH   4   5
ATOM      5  C   UNL     1     -34.125 -20.889 -36.792  1.00  0.00     0.000 C 
BRANCH   5   6
ATOM      6  C   UNL     1     -33.296 -20.434 -38.005  1.00  0.00     0.000 C 
BRANCH   6   7
ATOM      7  C   UNL     1     -33.220 -21.506 -39.105  1.00  0.00     0.000 C 
BRANCH   7   8
ATOM      8  C   UNL     1     -32.333 -22.698 -38.705  1.00  0.00     0.000 C 
BRANCH   8   9
ATOM      9  C   UNL     1     -32.943 -24.050 -39.106  1.00  0.00     0.000 C 
BRANCH   9  10
ATOM     10  C   UNL     1     -32.791 -25.118 -38.011  1.00  0.00     0.006 C 
BRANCH  10  11
ATOM     11  C   UNL     1     -31.930 -26.286 -38.501  1.00  0.00     0.053 C 
BRANCH  11  12
ATOM     12  C   UNL     1     -32.783 -27.482 -38.787  1.00  0.00     0.041 C 
ATOM     13  O   UNL     1     -34.014 -27.343 -39.017  1.00  0.00    -0.550 OA
ATOM     14  O   UNL     1     -32.211 -28.747 -38.843  1.00  0.00    -0.550 OA
ENDBRANCH  11  12
ENDBRANCH  10  11
ENDBRANCH   9  10
ENDBRANCH   8   9
ENDBRANCH   7   8
ENDBRANCH   6   7
ENDBRANCH   5   6
ENDBRANCH   4   5
ENDBRANCH   3   4
ENDBRANCH   2   3
ENDBRANCH   1   2
BRANCH   1  15
ATOM     15  C   UNL     1     -31.962 -20.045 -32.632  1.00  0.00     0.000 C 
BRANCH  15  16
ATOM     16  C   UNL     1     -30.970 -18.876 -32.512  1.00  0.00     0.000 C 
BRANCH  16  17
ATOM     17  C   UNL     1     -29.803 -18.992 -33.506  1.00  0.00     0.000 C 
BRANCH  17  18
ATOM     18  C   UNL     1     -28.839 -20.141 -33.161  1.00  0.00    -0.000 C 
BRANCH  18  19
ATOM     19  C   UNL     1     -28.252 -20.015 -31.746  1.00  0.00    -0.000 C 
BRANCH  19  20
ATOM     20  C   UNL     1     -28.899 -18.875 -30.940  1.00  0.00    -0.000 C 
BRANCH  20  21
ATOM     21  C   UNL     1     -28.984 -19.180 -29.434  1.00  0.00    -0.000 C 
BRANCH  21  22
ATOM     22  C   UNL     1     -29.283 -20.651 -29.079  1.00  0.00    -0.000 C 
BRANCH  22  23
ATOM     23  C   UNL     1     -30.744 -21.095 -29.296  1.00  0.00    -0.000 C 
BRANCH  23  24
ATOM     24  C   UNL     1     -31.800 -20.204 -28.617  1.00  0.00    -0.000 C 
BRANCH  24  25
ATOM     25  C   UNL     1     -32.544 -19.301 -29.610  1.00  0.00    -0.003 C 
ATOM     26  C   UNL     1     -33.900 -18.875 -29.054  1.00  0.00     0.004 C 
ENDBRANCH  24  25
ENDBRANCH  23  24
ENDBRANCH  22  23
ENDBRANCH  21  22
ENDBRANCH  20  21
ENDBRANCH  19  20
ENDBRANCH  18  19
ENDBRANCH  17  18
ENDBRANCH  16  17
ENDBRANCH  15  16
ENDBRANCH   1  15
TORSDOF 22
ENDMDL
MODEL 3
REMARK VINA RESULT:     0.645      4.075      9.376
REMARK INTER + INTRA:           0.093
REMARK INTER:                   0.661
REMARK INTRA:                  -0.568
REMARK UNBOUND:                -1.381
REMARK SMILES CCCCCCCCCCCCCCCCCCCCCCCC(=O)[O-]
REMARK SMILES IDX 13 1 14 2 15 3 16 4 17 5 18 6 19 7 20 8 21 9 22 10 23 11
REMARK SMILES IDX 24 12 25 13 26 14 12 15 11 16 10 17 9 18 8 19 7 20 6 21 5 22
REMARK SMILES IDX 4 23 3 24 2 25 1 26
REMARK H PARENT
REMARK Flexibility Score: inf
ROOT
ATOM      1  C   UNL     1     -33.025 -18.881 -33.077  1.00  0.00     0.000 C 
ENDROOT
BRANCH   1   2
ATOM      2  C   UNL     1     -33.454 -18.910 -34.558  1.00  0.00     0.000 C 
BRANCH   2   3
ATOM      3  C   UNL     1     -34.076 -20.239 -35.034  1.00  0.00     0.000 C 
BRANCH   3   4
ATOM      4  C   UNL     1     -33.144 -21.128 -35.881  1.00  0.00     0.000 C 
BRANCH   4   5
ATOM      5  C   UNL     1     -33.725 -21.576 -37.234  1.00  0.00     0.000 C 
BRANCH   5   6
ATOM      6  C   UNL     1     -32.672 -21.604 -38.355  1.00  0.00     0.000 C 
BRANCH   6   7
ATOM      7  C   UNL     1     -31.270 -21.969 -37.840  1.00  0.00     0.000 C 
BRANCH   7   8
ATOM      8  C   UNL     1     -30.951 -23.464 -38.011  1.00  0.00     0.000 C 
BRANCH   8   9
ATOM      9  C   UNL     1     -32.173 -24.362 -37.763  1.00  0.00     0.000 C 
BRANCH   9  10
ATOM     10  C   UNL     1     -32.699 -25.016 -39.050  1.00  0.00     0.006 C 
BRANCH  10  11
ATOM     11  C   UNL     1     -32.285 -26.489 -39.125  1.00  0.00     0.053 C 
BRANCH  11  12
ATOM     12  C   UNL     1     -33.237 -27.342 -38.345  1.00  0.00     0.041 C 
ATOM     13  O   UNL     1     -33.692 -26.937 -37.243  1.00  0.00    -0.550 OA
ATOM     14  O   UNL     1     -33.656 -28.564 -38.857  1.00  0.00    -0.550 OA
ENDBRANCH  11  12
ENDBRANCH  10  11
ENDBRANCH   9  10
ENDBRANCH   8   9
ENDBRANCH   7   8
ENDBRANCH   6   7
ENDBRANCH   5   6
ENDBRANCH   4   5
ENDBRANCH   3   4
ENDBRANCH   2   3
ENDBRANCH   1   2
BRANCH   1  15
ATOM     15  C   UNL     1     -31.518 -19.077 -32.829  1.00  0.00     0.000 C 
BRANCH  15  16
ATOM     16  C   UNL     1     -31.067 -20.536 -33.004  1.00  0.00     0.000 C 
BRANCH  16  17
ATOM     17  C   UNL     1     -29.547 -20.663 -33.195  1.00  0.00     0.000 C 
BRANCH  17  18
ATOM     18  C   UNL     1     -28.765 -20.452 -31.887  1.00  0.00    -0.000 C 
BRANCH  18  19
ATOM     19  C   UNL     1     -28.835 -19.002 -31.382  1.00  0.00    -0.000 C 
BRANCH  19  20
ATOM     20  C   UNL     1     -29.401 -18.904 -29.954  1.00  0.00    -0.000 C 
BRANCH  20  21
ATOM     21  C   UNL     1     -30.940 -18.883 -29.922  1.00  0.00    -0.000 C 
BRANCH  21  22
ATOM     22  C   UNL     1     -31.592 -19.984 -29.062  1.00  0.00    -0.000 C 
BRANCH  22  23
ATOM     23  C   UNL     1     -31.361 -21.427 -29.557  1.00  0.00    -0.000 C 
BRANCH  23  24
ATOM     24  C   UNL     1     -30.026 -22.057 -29.118  1.00  0.00    -0.000 C 
BRANCH  24  25
ATOM     25  C   UNL     1     -29.859 -22.096 -27.593  1.00  0.00    -0.003 C 
ATOM     26  C   UNL     1     -28.389 -22.228 -27.206  1.00  0.00     0.004 C 
ENDBRANCH  24  25
ENDBRANCH  23  24
ENDBRANCH  22  23
ENDBRANCH  21  22
ENDBRANCH  20  21
ENDBRANCH  19  20
ENDBRANCH  18  19
ENDBRANCH  17  18
ENDBRANCH  16  17
ENDBRANCH  15  16
ENDBRANCH   1  15
TORSDOF 22
ENDMDL
MODEL 4
REMARK VINA RESULT:     0.955      1.850      2.682
REMARK INTER + INTRA:           0.804
REMARK INTER:                   0.883
REMARK INTRA:                  -0.080
REMARK UNBOUND:                -1.381
REMARK SMILES CCCCCCCCCCCCCCCCCCCCCCCC(=O)[O-]
REMARK SMILES IDX 13 1 14 2 15 3 16 4 17 5 18 6 19 7 20 8 21 9 22 10 23 11
REMARK SMILES IDX 24 12 25 13 26 14 12 15 11 16 10 17 9 18 8 19 7 20 6 21 5 22
REMARK SMILES IDX 4 23 3 24 2 25 1 26
REMARK H PARENT
REMARK Flexibility Score: inf
ROOT
ATOM      1  C   UNL     1     -31.264 -20.734 -34.257  1.00  0.00     0.000 C 
ENDROOT
BRANCH   1   2
ATOM      2  C   UNL     1     -29.821 -21.100 -33.850  1.00  0.00     0.000 C 
BRANCH   2   3
ATOM      3  C   UNL     1     -29.118 -20.074 -32.938  1.00  0.00     0.000 C 
BRANCH   3   4
ATOM      4  C   UNL     1     -29.993 -18.882 -32.502  1.00  0.00     0.000 C 
BRANCH   4   5
ATOM      5  C   UNL     1     -30.389 -18.876 -31.015  1.00  0.00     0.000 C 
BRANCH   5   6
ATOM      6  C   UNL     1     -31.902 -19.054 -30.802  1.00  0.00     0.000 C 
BRANCH   6   7
ATOM      7  C   UNL     1     -32.275 -19.218 -29.319  1.00  0.00     0.000 C 
BRANCH   7   8
ATOM      8  C   UNL     1     -32.407 -20.695 -28.905  1.00  0.00     0.000 C 
BRANCH   8   9
ATOM      9  C   UNL     1     -31.077 -21.458 -29.006  1.00  0.00     0.000 C 
BRANCH   9  10
ATOM     10  C   UNL     1     -30.662 -21.738 -30.458  1.00  0.00     0.006 C 
BRANCH  10  11
ATOM     11  C   UNL     1     -31.237 -23.071 -30.946  1.00  0.00     0.053 C 
BRANCH  11  12
ATOM     12  C   UNL     1     -31.080 -24.126 -29.895  1.00  0.00     0.041 C 
ATOM     13  O   UNL     1     -31.834 -25.135 -29.892  1.00  0.00    -0.550 OA
ATOM     14  O   UNL     1     -30.071 -24.017 -28.945  1.00  0.00    -0.550 OA
ENDBRANCH  11  12
ENDBRANCH  10  11
ENDBRANCH   9  10
ENDBRANCH   8   9
ENDBRANCH   7   8
ENDBRANCH   6   7
ENDBRANCH   5   6
ENDBRANCH   4   5
ENDBRANCH   3   4
ENDBRANCH   2   3
ENDBRANCH   1   2
BRANCH   1  15
ATOM     15  C   UNL     1     -31.966 -21.759 -35.166  1.00  0.00     0.000 C 
BRANCH  15  16
ATOM     16  C   UNL     1     -33.491 -21.570 -35.215  1.00  0.00     0.000 C 
BRANCH  16  17
ATOM     17  C   UNL     1     -33.910 -20.405 -36.126  1.00  0.00     0.000 C 
BRANCH  17  18
ATOM     18  C   UNL     1     -34.032 -20.820 -37.603  1.00  0.00    -0.000 C 
BRANCH  18  19
ATOM     19  C   UNL     1     -32.796 -20.434 -38.431  1.00  0.00    -0.000 C 
BRANCH  19  20
ATOM     20  C   UNL     1     -31.957 -21.658 -38.840  1.00  0.00    -0.000 C 
BRANCH  20  21
ATOM     21  C   UNL     1     -32.816 -22.903 -39.124  1.00  0.00    -0.000 C 
BRANCH  21  22
ATOM     22  C   UNL     1     -32.098 -24.253 -38.928  1.00  0.00    -0.000 C 
BRANCH  22  23
ATOM     23  C   UNL     1     -32.999 -25.500 -39.040  1.00  0.00    -0.000 C 
BRANCH  23  24
ATOM     24  C   UNL     1     -32.457 -26.758 -38.339  1.00  0.00    -0.000 C 
BRANCH  24  25
ATOM     25  C   UNL     1     -33.531 -27.835 -38.133  1.00  0.00    -0.003 C 
ATOM     26  C   UNL     1     -33.318 -29.010 -39.084  1.00  0.00     0.004 C 
ENDBRANCH  24  25
ENDBRANCH  23  24
ENDBRANCH  22  23
ENDBRANCH  21  22
ENDBRANCH  20  21
ENDBRANCH  19  20
ENDBRANCH  18  19
ENDBRANCH  17  18
ENDBRANCH  16  17
ENDBRANCH  15  16
ENDBRANCH   1  15
TORSDOF 22
ENDMDL
MODEL 5
REMARK VINA RESULT:     1.057      3.688      8.921
REMARK INTER + INTRA:           1.035
REMARK INTER:                   2.080
REMARK INTRA:                  -1.045
REMARK UNBOUND:                -1.381
REMARK SMILES CCCCCCCCCCCCCCCCCCCCCCCC(=O)[O-]
REMARK SMILES IDX 13 1 14 2 15 3 16 4 17 5 18 6 19 7 20 8 21 9 22 10 23 11
REMARK SMILES IDX 24 12 25 13 26 14 12 15 11 16 10 17 9 18 8 19 7 20 6 21 5 22
REMARK SMILES IDX 4 23 3 24 2 25 1 26
REMARK H PARENT
REMARK Flexibility Score: inf
ROOT
ATOM      1  C   UNL     1     -29.750 -20.604 -34.110  1.00  0.00     0.000 C 
ENDROOT
BRANCH   1   2
ATOM      2  C   UNL     1     -31.247 -20.926 -33.925  1.00  0.00     0.000 C 
BRANCH   2   3
ATOM      3  C   UNL     1     -32.188 -19.705 -33.946  1.00  0.00     0.000 C 
BRANCH   3   4
ATOM      4  C   UNL     1     -33.664 -20.024 -34.257  1.00  0.00     0.000 C 
BRANCH   4   5
ATOM      5  C   UNL     1     -33.987 -20.221 -35.749  1.00  0.00     0.000 C 
BRANCH   5   6
ATOM      6  C   UNL     1     -34.125 -21.703 -36.137  1.00  0.00     0.000 C 
BRANCH   6   7
ATOM      7  C   UNL     1     -33.920 -21.941 -37.642  1.00  0.00     0.000 C 
BRANCH   7   8
ATOM      8  C   UNL     1     -32.573 -21.396 -38.147  1.00  0.00     0.000 C 
BRANCH   8   9
ATOM      9  C   UNL     1     -31.378 -21.939 -37.346  1.00  0.00     0.000 C 
BRANCH   9  10
ATOM     10  C   UNL     1     -31.345 -23.474 -37.299  1.00  0.00     0.006 C 
BRANCH  10  11
ATOM     11  C   UNL     1     -32.046 -24.076 -38.520  1.00  0.00     0.053 C 
BRANCH  11  12
ATOM     12  C   UNL     1     -32.556 -25.448 -38.209  1.00  0.00     0.041 C 
ATOM     13  O   UNL     1     -33.206 -25.657 -37.150  1.00  0.00    -0.550 OA
ATOM     14  O   UNL     1     -32.354 -26.486 -39.110  1.00  0.00    -0.550 OA
ENDBRANCH  11  12
ENDBRANCH  10  11
ENDBRANCH   9  10
ENDBRANCH   8   9
ENDBRANCH   7   8
ENDBRANCH   6   7
ENDBRANCH   5   6
ENDBRANCH   4   5
ENDBRANCH   3   4
ENDBRANCH   2   3
ENDBRANCH   1   2
BRANCH   1  15
ATOM     15  C   UNL     1     -29.358 -19.139 -33.839  1.00  0.00     0.000 C 
BRANCH  15  16
ATOM     16  C   UNL     1     -27.946 -18.997 -33.247  1.00  0.00     0.000 C 
BRANCH  16  17
ATOM     17  C   UNL     1     -27.958 -18.919 -31.711  1.00  0.00     0.000 C 
BRANCH  17  18
ATOM     18  C   UNL     1     -29.382 -18.875 -31.129  1.00  0.00    -0.000 C 
BRANCH  18  19
ATOM     19  C   UNL     1     -29.446 -19.387 -29.681  1.00  0.00    -0.000 C 
BRANCH  19  20
ATOM     20  C   UNL     1     -30.783 -20.078 -29.361  1.00  0.00    -0.000 C 
BRANCH  20  21
ATOM     21  C   UNL     1     -31.343 -20.877 -30.550  1.00  0.00    -0.000 C 
BRANCH  21  22
ATOM     22  C   UNL     1     -31.284 -22.410 -30.396  1.00  0.00    -0.000 C 
BRANCH  22  23
ATOM     23  C   UNL     1     -30.166 -22.935 -29.472  1.00  0.00    -0.000 C 
BRANCH  23  24
ATOM     24  C   UNL     1     -30.223 -22.415 -28.024  1.00  0.00    -0.000 C 
BRANCH  24  25
ATOM     25  C   UNL     1     -28.899 -22.601 -27.272  1.00  0.00    -0.003 C 
ATOM     26  C   UNL     1     -28.185 -21.265 -27.081  1.00  0.00     0.004 C 
ENDBRANCH  24  25
ENDBRANCH  23  24
ENDBRANCH  22  23
ENDBRANCH  21  22
ENDBRANCH  20  21
ENDBRANCH  19  20
ENDBRANCH  18  19
ENDBRANCH  17  18
ENDBRANCH  16  17
ENDBRANCH  15  16
ENDBRANCH   1  15
TORSDOF 22
ENDMDL
MODEL 6
REMARK VINA RESULT:     1.258      2.115      3.001
REMARK INTER + INTRA:           1.494
REMARK INTER:                   0.349
REMARK INTRA:                   1.145
REMARK UNBOUND:                -1.381
REMARK SMILES CCCCCCCCCCCCCCCCCCCCCCCC(=O)[O-]
REMARK SMILES IDX 13 1 14 2 15 3 16 4 17 5 18 6 19 7 20 8 21 9 22 10 23 11
REMARK SMILES IDX 24 12 25 13 26 14 12 15 11 16 10 17 9 18 8 19 7 20 6 21 5 22
REMARK SMILES IDX 4 23 3 24 2 25 1 26
REMARK H PARENT
REMARK Flexibility Score: inf
ROOT
ATOM      1  C   UNL     1     -32.022 -19.814 -32.822  1.00  0.00     0.000 C 
ENDROOT
BRANCH   1   2
ATOM      2  C   UNL     1     -30.768 -18.934 -32.644  1.00  0.00     0.000 C 
BRANCH   2   3
ATOM      3  C   UNL     1     -29.540 -19.369 -33.469  1.00  0.00     0.000 C 
BRANCH   3   4
ATOM      4  C   UNL     1     -28.280 -19.693 -32.642  1.00  0.00     0.000 C 
BRANCH   4   5
ATOM      5  C   UNL     1     -28.124 -18.877 -31.346  1.00  0.00     0.000 C 
BRANCH   5   6
ATOM      6  C   UNL     1     -28.837 -19.524 -30.146  1.00  0.00     0.000 C 
BRANCH   6   7
ATOM      7  C   UNL     1     -27.923 -19.658 -28.918  1.00  0.00     0.000 C 
BRANCH   7   8
ATOM      8  C   UNL     1     -28.002 -21.054 -28.274  1.00  0.00     0.000 C 
BRANCH   8   9
ATOM      9  C   UNL     1     -29.443 -21.464 -27.928  1.00  0.00     0.000 C 
BRANCH   9  10
ATOM     10  C   UNL     1     -30.358 -21.512 -29.161  1.00  0.00     0.006 C 
BRANCH  10  11
ATOM     11  C   UNL     1     -31.803 -21.172 -28.785  1.00  0.00     0.053 C 
BRANCH  11  12
ATOM     12  C   UNL     1     -32.073 -19.716 -29.003  1.00  0.00     0.041 C 
ATOM     13  O   UNL     1     -33.007 -19.145 -28.381  1.00  0.00    -0.550 OA
ATOM     14  O   UNL     1     -31.264 -18.980 -29.860  1.00  0.00    -0.550 OA
ENDBRANCH  11  12
ENDBRANCH  10  11
ENDBRANCH   9  10
ENDBRANCH   8   9
ENDBRANCH   7   8
ENDBRANCH   6   7
ENDBRANCH   5   6
ENDBRANCH   4   5
ENDBRANCH   3   4
ENDBRANCH   2   3
ENDBRANCH   1   2
BRANCH   1  15
ATOM     15  C   UNL     1     -33.343 -19.042 -32.999  1.00  0.00     0.000 C 
BRANCH  15  16
ATOM     16  C   UNL     1     -33.745 -18.875 -34.474  1.00  0.00     0.000 C 
BRANCH  16  17
ATOM     17  C   UNL     1     -33.495 -20.148 -35.298  1.00  0.00     0.000 C 
BRANCH  17  18
ATOM     18  C   UNL     1     -34.120 -20.079 -36.703  1.00  0.00    -0.000 C 
BRANCH  18  19
ATOM     19  C   UNL     1     -33.531 -21.123 -37.665  1.00  0.00    -0.000 C 
BRANCH  19  20
ATOM     20  C   UNL     1     -32.501 -22.039 -36.980  1.00  0.00    -0.000 C 
BRANCH  20  21
ATOM     21  C   UNL     1     -33.024 -23.470 -36.765  1.00  0.00    -0.000 C 
BRANCH  21  22
ATOM     22  C   UNL     1     -32.017 -24.591 -37.095  1.00  0.00    -0.000 C 
BRANCH  22  23
ATOM     23  C   UNL     1     -31.923 -24.972 -38.587  1.00  0.00    -0.000 C 
BRANCH  23  24
ATOM     24  C   UNL     1     -32.222 -26.449 -38.900  1.00  0.00    -0.000 C 
BRANCH  24  25
ATOM     25  C   UNL     1     -33.641 -26.868 -38.493  1.00  0.00    -0.003 C 
ATOM     26  C   UNL     1     -33.932 -28.305 -38.920  1.00  0.00     0.004 C 
ENDBRANCH  24  25
ENDBRANCH  23  24
ENDBRANCH  22  23
ENDBRANCH  21  22
ENDBRANCH  20  21
ENDBRANCH  19  20
ENDBRANCH  18  19
ENDBRANCH  17  18
ENDBRANCH  16  17
ENDBRANCH  15  16
ENDBRANCH   1  15
TORSDOF 22
ENDMDL
MODEL 7
REMARK VINA RESULT:     1.711      3.997      8.396
REMARK INTER + INTRA:           2.531
REMARK INTER:                   4.001
REMARK INTRA:                  -1.471
REMARK UNBOUND:                -1.381
REMARK SMILES CCCCCCCCCCCCCCCCCCCCCCCC(=O)[O-]
REMARK SMILES IDX 13 1 14 2 15 3 16 4 17 5 18 6 19 7 20 8 21 9 22 10 23 11
REMARK SMILES IDX 24 12 25 13 26 14 12 15 11 16 10 17 9 18 8 19 7 20 6 21 5 22
REMARK SMILES IDX 4 23 3 24 2 25 1 26
REMARK H PARENT
REMARK Flexibility Score: inf
ROOT
ATOM      1  C   UNL     1     -29.737 -20.640 -34.211  1.00  0.00     0.000 C 
ENDROOT
BRANCH   1   2
ATOM      2  C   UNL     1     -31.195 -21.124 -34.071  1.00  0.00     0.000 C 
BRANCH   2   3
ATOM      3  C   UNL     1     -32.268 -20.034 -34.261  1.00  0.00     0.000 C 
BRANCH   3   4
ATOM      4  C   UNL     1     -33.661 -20.553 -34.674  1.00  0.00     0.000 C 
BRANCH   4   5
ATOM      5  C   UNL     1     -34.034 -20.314 -36.147  1.00  0.00     0.000 C 
BRANCH   5   6
ATOM      6  C   UNL     1     -34.125 -21.619 -36.957  1.00  0.00     0.000 C 
BRANCH   6   7
ATOM      7  C   UNL     1     -33.803 -21.413 -38.447  1.00  0.00     0.000 C 
BRANCH   7   8
ATOM      8  C   UNL     1     -32.415 -21.958 -38.830  1.00  0.00     0.000 C 
BRANCH   8   9
ATOM      9  C   UNL     1     -31.648 -22.522 -37.623  1.00  0.00     0.000 C 
BRANCH   9  10
ATOM     10  C   UNL     1     -32.091 -23.946 -37.252  1.00  0.00     0.006 C 
BRANCH  10  11
ATOM     11  C   UNL     1     -31.743 -24.936 -38.368  1.00  0.00     0.053 C 
BRANCH  11  12
ATOM     12  C   UNL     1     -32.517 -26.207 -38.201  1.00  0.00     0.041 C 
ATOM     13  O   UNL     1     -33.626 -26.200 -37.605  1.00  0.00    -0.550 OA
ATOM     14  O   UNL     1     -32.034 -27.392 -38.745  1.00  0.00    -0.550 OA
ENDBRANCH  11  12
ENDBRANCH  10  11
ENDBRANCH   9  10
ENDBRANCH   8   9
ENDBRANCH   7   8
ENDBRANCH   6   7
ENDBRANCH   5   6
ENDBRANCH   4   5
ENDBRANCH   3   4
ENDBRANCH   2   3
ENDBRANCH   1   2
BRANCH   1  15
ATOM     15  C   UNL     1     -29.495 -19.171 -33.818  1.00  0.00     0.000 C 
BRANCH  15  16
ATOM     16  C   UNL     1     -28.068 -18.915 -33.308  1.00  0.00     0.000 C 
BRANCH  16  17
ATOM     17  C   UNL     1     -27.987 -18.893 -31.773  1.00  0.00     0.000 C 
BRANCH  17  18
ATOM     18  C   UNL     1     -29.373 -18.875 -31.105  1.00  0.00    -0.000 C 
BRANCH  18  19
ATOM     19  C   UNL     1     -29.423 -19.724 -29.824  1.00  0.00    -0.000 C 
BRANCH  19  20
ATOM     20  C   UNL     1     -30.781 -20.421 -29.634  1.00  0.00    -0.000 C 
BRANCH  20  21
ATOM     21  C   UNL     1     -31.306 -21.068 -30.928  1.00  0.00    -0.000 C 
BRANCH  21  22
ATOM     22  C   UNL     1     -30.862 -22.527 -31.158  1.00  0.00    -0.000 C 
BRANCH  22  23
ATOM     23  C   UNL     1     -31.375 -23.543 -30.117  1.00  0.00    -0.000 C 
BRANCH  23  24
ATOM     24  C   UNL     1     -31.276 -25.018 -30.546  1.00  0.00    -0.000 C 
BRANCH  24  25
ATOM     25  C   UNL     1     -31.912 -25.977 -29.530  1.00  0.00    -0.003 C 
ATOM     26  C   UNL     1     -32.510 -27.195 -30.228  1.00  0.00     0.004 C 
ENDBRANCH  24  25
ENDBRANCH  23  24
ENDBRANCH  22  23
ENDBRANCH  21  22
ENDBRANCH  20  21
ENDBRANCH  19  20
ENDBRANCH  18  19
ENDBRANCH  17  18
ENDBRANCH  16  17
ENDBRANCH  15  16
ENDBRANCH   1  15
TORSDOF 22
ENDMDL
MODEL 8
REMARK VINA RESULT:     1.844      3.597      9.062
REMARK INTER + INTRA:           2.834
REMARK INTER:                  -0.051
REMARK INTRA:                   2.886
REMARK UNBOUND:                -1.381
REMARK SMILES CCCCCCCCCCCCCCCCCCCCCCCC(=O)[O-]
REMARK SMILES IDX 13 1 14 2 15 3 16 4 17 5 18 6 19 7 20 8 21 9 22 10 23 11
REMARK SMILES IDX 24 12 25 13 26 14 12 15 11 16 10 17 9 18 8 19 7 20 6 21 5 22
REMARK SMILES IDX 4 23 3 24 2 25 1 26
REMARK H PARENT
REMARK Flexibility Score: inf
ROOT
ATOM      1  C   UNL     1     -30.591 -20.017 -32.029  1.00  0.00     0.000 C 
ENDROOT
BRANCH   1   2
ATOM      2  C   UNL     1     -31.619 -18.877 -32.187  1.00  0.00     0.000 C 
BRANCH   2   3
ATOM      3  C   UNL     1     -32.436 -18.909 -33.495  1.00  0.00     0.000 C 
BRANCH   3   4
ATOM      4  C   UNL     1     -32.879 -20.313 -33.953  1.00  0.00     0.000 C 
BRANCH   4   5
ATOM      5  C   UNL     1     -32.562 -20.650 -35.421  1.00  0.00     0.000 C 
BRANCH   5   6
ATOM      6  C   UNL     1     -33.823 -20.944 -36.250  1.00  0.00     0.000 C 
BRANCH   6   7
ATOM      7  C   UNL     1     -34.058 -19.905 -37.359  1.00  0.00     0.000 C 
BRANCH   7   8
ATOM      8  C   UNL     1     -33.330 -20.264 -38.666  1.00  0.00     0.000 C 
BRANCH   8   9
ATOM      9  C   UNL     1     -33.599 -21.710 -39.114  1.00  0.00     0.000 C 
BRANCH   9  10
ATOM     10  C   UNL     1     -32.328 -22.573 -39.125  1.00  0.00     0.006 C 
BRANCH  10  11
ATOM     11  C   UNL     1     -31.768 -22.742 -37.709  1.00  0.00     0.053 C 
BRANCH  11  12
ATOM     12  C   UNL     1     -32.181 -24.061 -37.135  1.00  0.00     0.041 C 
ATOM     13  O   UNL     1     -33.062 -24.113 -36.237  1.00  0.00    -0.550 OA
ATOM     14  O   UNL     1     -31.626 -25.237 -37.625  1.00  0.00    -0.550 OA
ENDBRANCH  11  12
ENDBRANCH  10  11
ENDBRANCH   9  10
ENDBRANCH   8   9
ENDBRANCH   7   8
ENDBRANCH   6   7
ENDBRANCH   5   6
ENDBRANCH   4   5
ENDBRANCH   3   4
ENDBRANCH   2   3
ENDBRANCH   1   2
BRANCH   1  15
ATOM     15  C   UNL     1     -29.642 -20.212 -33.225  1.00  0.00     0.000 C 
BRANCH  15  16
ATOM     16  C   UNL     1     -28.520 -19.161 -33.276  1.00  0.00     0.000 C 
BRANCH  16  17
ATOM     17  C   UNL     1     -27.855 -18.946 -31.908  1.00  0.00     0.000 C 
BRANCH  17  18
ATOM     18  C   UNL     1     -28.854 -19.031 -30.741  1.00  0.00    -0.000 C 
BRANCH  18  19
ATOM     19  C   UNL     1     -28.165 -18.993 -29.367  1.00  0.00    -0.000 C 
BRANCH  19  20
ATOM     20  C   UNL     1     -27.907 -20.400 -28.800  1.00  0.00    -0.000 C 
BRANCH  20  21
ATOM     21  C   UNL     1     -29.199 -21.118 -28.372  1.00  0.00    -0.000 C 
BRANCH  21  22
ATOM     22  C   UNL     1     -30.372 -21.005 -29.368  1.00  0.00    -0.000 C 
BRANCH  22  23
ATOM     23  C   UNL     1     -31.700 -20.503 -28.764  1.00  0.00    -0.000 C 
BRANCH  23  24
ATOM     24  C   UNL     1     -32.353 -19.331 -29.519  1.00  0.00    -0.000 C 
BRANCH  24  25
ATOM     25  C   UNL     1     -33.854 -19.197 -29.225  1.00  0.00    -0.003 C 
ATOM     26  C   UNL     1     -34.097 -18.876 -27.753  1.00  0.00     0.004 C 
ENDBRANCH  24  25
ENDBRANCH  23  24
ENDBRANCH  22  23
ENDBRANCH  21  22
ENDBRANCH  20  21
ENDBRANCH  19  20
ENDBRANCH  18  19
ENDBRANCH  17  18
ENDBRANCH  16  17
ENDBRANCH  15  16
ENDBRANCH   1  15
TORSDOF 22
ENDMDL
