MODEL 1
REMARK VINA RESULT:    44.657      0.000      0.000
REMARK INTER + INTRA:          62.301
REMARK INTER:                  61.626
REMARK INTRA:                   0.675
REMARK UNBOUND:                 0.675
REMARK SMILES CC[C@@H](CC[C@@H](C)[C@@H]1CC[C@H]2[C@H]3CC=C4C[C@H](O)CC[C@]4(C)[C@H]3CC[C@]21C)C(C)C
REMARK SMILES IDX 5 1 4 2 3 3 2 4 1 5 28 6 29 7 30 8 6 9 7 10 8 11 9 12 26 13
REMARK SMILES IDX 10 14 11 15 25 16 27 17 12 18 24 19 23 20 13 21 21 22 14 23
REMARK SMILES IDX 15 24 20 25 22 26 16 27 19 28 17 29 18 30
REMARK H PARENT 18 31
REMARK Flexibility Score: inf
ROOT
ATOM      1  C   UNL     1     -16.729  -5.805 -21.951  1.00  0.00     0.004 C 
ENDROOT
BRANCH   1   2
ATOM      2  C   UNL     1     -16.742  -5.477 -23.463  1.00  0.00     0.004 C 
BRANCH   2   3
ATOM      3  C   UNL     1     -17.538  -6.494 -24.343  1.00  0.00    -0.009 C 
BRANCH   3   4
ATOM      4  C   UNL     1     -17.951  -7.728 -23.492  1.00  0.00     0.000 C 
ATOM      5  C   UNL     1     -18.734  -7.382 -22.221  1.00  0.00     0.004 C 
ENDBRANCH   3   4
BRANCH   3   6
ATOM      6  C   UNL     1     -16.783  -6.870 -25.664  1.00  0.00    -0.014 C 
ATOM      7  C   UNL     1     -15.375  -7.433 -25.386  1.00  0.00     0.007 C 
ATOM      8  C   UNL     1     -17.567  -7.905 -26.491  1.00  0.00     0.007 C 
ENDBRANCH   3   6
ENDBRANCH   2   3
ENDBRANCH   1   2
BRANCH   1   9
ATOM      9  C   UNL     1     -15.995  -4.784 -21.024  1.00  0.00    -0.011 C 
ATOM     10  C   UNL     1     -16.654  -3.393 -21.165  1.00  0.00     0.008 C 
BRANCH   9  11
ATOM     11  C   UNL     1     -15.972  -5.340 -19.532  1.00  0.00    -0.002 C 
ATOM     12  C   UNL     1     -17.022  -4.700 -18.602  1.00  0.00     0.005 C 
ATOM     13  C   UNL     1     -14.642  -5.079 -18.730  1.00  0.00    -0.026 C 
ATOM     14  C   UNL     1     -16.364  -3.460 -18.007  1.00  0.00     0.005 C 
ATOM     15  C   UNL     1     -14.845  -3.629 -18.213  1.00  0.00    -0.001 C 
ATOM     16  C   UNL     1     -14.504  -6.118 -17.546  1.00  0.00     0.007 C 
ATOM     17  C   UNL     1     -13.343  -5.171 -19.574  1.00  0.00     0.012 C 
ATOM     18  C   UNL     1     -13.945  -3.252 -16.997  1.00  0.00     0.000 C 
ATOM     19  C   UNL     1     -14.771  -5.554 -16.143  1.00  0.00     0.005 C 
ATOM     20  C   UNL     1     -13.876  -4.330 -15.851  1.00  0.00     0.003 C 
ATOM     21  C   UNL     1     -14.212  -1.814 -16.503  1.00  0.00     0.031 C 
ATOM     22  C   UNL     1     -14.023  -3.761 -14.380  1.00  0.00    -0.008 C 
ATOM     23  C   UNL     1     -13.388  -1.521 -15.288  1.00  0.00    -0.027 C 
ATOM     24  C   UNL     1     -13.298  -2.414 -14.285  1.00  0.00    -0.065 C 
ATOM     25  C   UNL     1     -13.356  -4.748 -13.372  1.00  0.00     0.014 C 
ATOM     26  C   UNL     1     -15.509  -3.567 -13.976  1.00  0.00     0.016 C 
ATOM     27  C   UNL     1     -12.361  -2.135 -13.129  1.00  0.00     0.063 C 
ATOM     28  C   UNL     1     -13.274  -4.211 -11.928  1.00  0.00     0.033 C 
ATOM     29  C   UNL     1     -12.933  -2.705 -11.823  1.00  0.00     0.118 C 
BRANCH  29  30
ATOM     30  O   UNL     1     -12.014  -2.510 -10.778  1.00  0.00    -0.393 OA
ATOM     31  H   UNL     1     -11.929  -1.530 -10.646  1.00  0.00     0.210 HD
ENDBRANCH  29  30
ENDBRANCH   9  11
ENDBRANCH   1   9
TORSDOF 7
ENDMDL
MODEL 2
REMARK VINA RESULT:    45.632     12.217     14.813
REMARK INTER + INTRA:          63.647
REMARK INTER:                  63.017
REMARK INTRA:                   0.630
REMARK UNBOUND:                 0.675
REMARK SMILES CC[C@@H](CC[C@@H](C)[C@@H]1CC[C@H]2[C@H]3CC=C4C[C@H](O)CC[C@]4(C)[C@H]3CC[C@]21C)C(C)C
REMARK SMILES IDX 5 1 4 2 3 3 2 4 1 5 28 6 29 7 30 8 6 9 7 10 8 11 9 12 26 13
REMARK SMILES IDX 10 14 11 15 25 16 27 17 12 18 24 19 23 20 13 21 21 22 14 23
REMARK SMILES IDX 15 24 20 25 22 26 16 27 19 28 17 29 18 30
REMARK H PARENT 18 31
REMARK Flexibility Score: inf
ROOT
ATOM      1  C   UNL     1     -27.101  -2.836 -27.731  1.00  0.00     0.004 C 
ENDROOT
BRANCH   1   2
ATOM      2  C   UNL     1     -28.265  -1.988 -27.168  1.00  0.00     0.004 C 
BRANCH   2   3
ATOM      3  C   UNL     1     -29.681  -2.625 -27.348  1.00  0.00    -0.009 C 
BRANCH   3   4
ATOM      4  C   UNL     1     -29.961  -2.887 -28.855  1.00  0.00     0.000 C 
ATOM      5  C   UNL     1     -31.065  -3.917 -29.120  1.00  0.00     0.004 C 
ENDBRANCH   3   4
BRANCH   3   6
ATOM      6  C   UNL     1     -30.809  -1.800 -26.637  1.00  0.00    -0.014 C 
ATOM      7  C   UNL     1     -31.393  -0.708 -27.555  1.00  0.00     0.007 C 
ATOM      8  C   UNL     1     -31.961  -2.706 -26.164  1.00  0.00     0.007 C 
ENDBRANCH   3   6
ENDBRANCH   2   3
ENDBRANCH   1   2
BRANCH   1   9
ATOM      9  C   UNL     1     -25.884  -3.068 -26.779  1.00  0.00    -0.011 C 
ATOM     10  C   UNL     1     -25.780  -4.570 -26.433  1.00  0.00     0.008 C 
BRANCH   9  11
ATOM     11  C   UNL     1     -24.568  -2.463 -27.439  1.00  0.00    -0.002 C 
ATOM     12  C   UNL     1     -23.303  -2.600 -26.568  1.00  0.00     0.005 C 
ATOM     13  C   UNL     1     -24.595  -0.912 -27.712  1.00  0.00    -0.026 C 
ATOM     14  C   UNL     1     -23.263  -1.362 -25.679  1.00  0.00     0.005 C 
ATOM     15  C   UNL     1     -24.202  -0.325 -26.329  1.00  0.00    -0.001 C 
ATOM     16  C   UNL     1     -23.549  -0.536 -28.836  1.00  0.00     0.007 C 
ATOM     17  C   UNL     1     -25.970  -0.353 -28.161  1.00  0.00     0.012 C 
ATOM     18  C   UNL     1     -23.667   1.139 -26.385  1.00  0.00     0.000 C 
ATOM     19  C   UNL     1     -22.276   0.165 -28.341  1.00  0.00     0.005 C 
ATOM     20  C   UNL     1     -22.614   1.428 -27.520  1.00  0.00     0.003 C 
ATOM     21  C   UNL     1     -23.260   1.659 -24.990  1.00  0.00     0.031 C 
ATOM     22  C   UNL     1     -21.345   2.260 -27.065  1.00  0.00    -0.008 C 
ATOM     23  C   UNL     1     -22.678   3.035 -25.099  1.00  0.00    -0.027 C 
ATOM     24  C   UNL     1     -21.777   3.328 -26.054  1.00  0.00    -0.065 C 
ATOM     25  C   UNL     1     -20.727   2.981 -28.303  1.00  0.00     0.014 C 
ATOM     26  C   UNL     1     -20.259   1.360 -26.420  1.00  0.00     0.016 C 
ATOM     27  C   UNL     1     -21.303   4.758 -26.209  1.00  0.00     0.063 C 
ATOM     28  C   UNL     1     -19.595   3.970 -27.954  1.00  0.00     0.033 C 
ATOM     29  C   UNL     1     -19.837   4.792 -26.666  1.00  0.00     0.118 C 
BRANCH  29  30
ATOM     30  O   UNL     1     -19.440   6.122 -26.883  1.00  0.00    -0.393 OA
ATOM     31  H   UNL     1     -18.990   6.149 -27.768  1.00  0.00     0.210 HD
ENDBRANCH  29  30
ENDBRANCH   9  11
ENDBRANCH   1   9
TORSDOF 7
ENDMDL
MODEL 3
REMARK VINA RESULT:    47.249      0.924      1.927
REMARK INTER + INTRA:          65.878
REMARK INTER:                  64.323
REMARK INTRA:                   1.555
REMARK UNBOUND:                 0.675
REMARK SMILES CC[C@@H](CC[C@@H](C)[C@@H]1CC[C@H]2[C@H]3CC=C4C[C@H](O)CC[C@]4(C)[C@H]3CC[C@]21C)C(C)C
REMARK SMILES IDX 5 1 4 2 3 3 2 4 1 5 28 6 29 7 30 8 6 9 7 10 8 11 9 12 26 13
REMARK SMILES IDX 10 14 11 15 25 16 27 17 12 18 24 19 23 20 13 21 21 22 14 23
REMARK SMILES IDX 15 24 20 25 22 26 16 27 19 28 17 29 18 30
REMARK H PARENT 18 31
REMARK Flexibility Score: inf
ROOT
ATOM      1  C   UNL     1     -16.490  -4.364 -20.878  1.00  0.00     0.004 C 
ENDROOT
BRANCH   1   2
ATOM      2  C   UNL     1     -16.798  -4.459 -22.391  1.00  0.00     0.004 C 
BRANCH   2   3
ATOM      3  C   UNL     1     -16.889  -5.917 -22.946  1.00  0.00    -0.009 C 
BRANCH   3   4
ATOM      4  C   UNL     1     -17.411  -5.898 -24.411  1.00  0.00     0.000 C 
ATOM      5  C   UNL     1     -16.640  -6.817 -25.365  1.00  0.00     0.004 C 
ENDBRANCH   3   4
BRANCH   3   6
ATOM      6  C   UNL     1     -17.700  -6.872 -22.006  1.00  0.00    -0.014 C 
ATOM      7  C   UNL     1     -18.492  -6.095 -20.935  1.00  0.00     0.007 C 
ATOM      8  C   UNL     1     -18.686  -7.749 -22.800  1.00  0.00     0.007 C 
ENDBRANCH   3   6
ENDBRANCH   2   3
ENDBRANCH   1   2
BRANCH   1   9
ATOM      9  C   UNL     1     -15.252  -5.167 -20.367  1.00  0.00    -0.011 C 
ATOM     10  C   UNL     1     -13.963  -4.363 -20.651  1.00  0.00     0.008 C 
BRANCH   9  11
ATOM     11  C   UNL     1     -15.455  -5.542 -18.833  1.00  0.00    -0.002 C 
ATOM     12  C   UNL     1     -16.521  -4.694 -18.111  1.00  0.00     0.005 C 
ATOM     13  C   UNL     1     -14.200  -5.322 -17.907  1.00  0.00    -0.026 C 
ATOM     14  C   UNL     1     -15.796  -3.464 -17.575  1.00  0.00     0.005 C 
ATOM     15  C   UNL     1     -14.293  -3.807 -17.575  1.00  0.00    -0.001 C 
ATOM     16  C   UNL     1     -14.311  -6.221 -16.612  1.00  0.00     0.007 C 
ATOM     17  C   UNL     1     -12.835  -5.643 -18.572  1.00  0.00     0.012 C 
ATOM     18  C   UNL     1     -13.495  -3.381 -16.305  1.00  0.00     0.000 C 
ATOM     19  C   UNL     1     -14.665  -5.471 -15.319  1.00  0.00     0.005 C 
ATOM     20  C   UNL     1     -13.674  -4.317 -15.052  1.00  0.00     0.003 C 
ATOM     21  C   UNL     1     -13.649  -1.876 -16.004  1.00  0.00     0.031 C 
ATOM     22  C   UNL     1     -13.917  -3.566 -13.679  1.00  0.00    -0.008 C 
ATOM     23  C   UNL     1     -12.936  -1.524 -14.735  1.00  0.00    -0.027 C 
ATOM     24  C   UNL     1     -13.058  -2.296 -13.640  1.00  0.00    -0.065 C 
ATOM     25  C   UNL     1     -13.480  -4.488 -12.498  1.00  0.00     0.014 C 
ATOM     26  C   UNL     1     -15.406  -3.178 -13.482  1.00  0.00     0.016 C 
ATOM     27  C   UNL     1     -12.228  -1.978 -12.414  1.00  0.00     0.063 C 
ATOM     28  C   UNL     1     -13.496  -3.795 -11.120  1.00  0.00     0.033 C 
ATOM     29  C   UNL     1     -13.001  -2.329 -11.135  1.00  0.00     0.118 C 
BRANCH  29  30
ATOM     30  O   UNL     1     -12.186  -2.104 -10.012  1.00  0.00    -0.393 OA
ATOM     31  H   UNL     1     -11.902  -1.153 -10.045  1.00  0.00     0.210 HD
ENDBRANCH  29  30
ENDBRANCH   9  11
ENDBRANCH   1   9
TORSDOF 7
ENDMDL
