MODEL 1
REMARK VINA RESULT:    -7.376      0.000      0.000
REMARK INTER + INTRA:         -13.972
REMARK INTER:                 -12.119
REMARK INTRA:                  -1.853
REMARK UNBOUND:                -1.853
REMARK SMILES C[C@H]1O[C@@H](OC[C@@H]2O[C@H](Oc3c(-c4ccc(O)c(O)c4)oc4cc(O)cc(O)c4c3=O)[C@H](O)[C@@H](O)[C@@H]2O)[C@H](O)[C@@H](O)[C@@H]1O
REMARK SMILES IDX 7 1 36 2 34 3 32 4 9 5 8 6 6 7 5 8 4 9 1 10 2 11 42 12 3 13
REMARK SMILES IDX 40 14 38 15 43 16 41 18 39 20 37 22 35 24 10 26 11 27 12 28
REMARK SMILES IDX 30 29 21 30 29 31 31 32 22 33 27 34 23 35 26 36 24 37 13 38
REMARK SMILES IDX 20 39 14 40 18 41 15 42 16 43 19 44 17 46 28 48 25 50 33 52
REMARK H PARENT 43 17 41 19 39 21 37 23 35 25 19 45 17 47 28 49 25 51 33 53
REMARK Flexibility Score: inf
ROOT
ATOM      1  C   UNL     1      -1.793  -2.088  10.027  1.00  0.00     0.180 C 
ATOM      2  C   UNL     1      -0.897  -1.370  11.086  1.00  0.00     0.177 C 
ATOM      3  C   UNL     1       0.004  -2.397  11.788  1.00  0.00     0.180 C 
ATOM      4  C   UNL     1      -0.839  -3.537  12.419  1.00  0.00     0.214 C 
ATOM      5  C   UNL     1      -2.223  -3.703  11.736  1.00  0.00     0.339 C 
ATOM      6  O   UNL     1      -2.188  -3.419  10.351  1.00  0.00    -0.332 OA
ENDROOT
BRANCH   1   7
ATOM      7  C   UNL     1      -2.983  -1.273   9.475  1.00  0.00     0.198 C 
BRANCH   7   8
ATOM      8  O   UNL     1      -2.649  -0.575   8.284  1.00  0.00    -0.347 OA
BRANCH   8   9
ATOM      9  C   UNL     1      -2.014   0.655   8.590  1.00  0.00     0.281 C 
ATOM     10  C   UNL     1      -2.411   2.769  11.557  1.00  0.00     0.041 C 
ATOM     11  C   UNL     1      -1.877   2.350  10.185  1.00  0.00     0.150 C 
ATOM     12  C   UNL     1      -2.046   3.490   9.154  1.00  0.00     0.174 C 
ATOM     13  O   UNL     1      -2.593   1.202   9.768  1.00  0.00    -0.344 OA
ATOM     14  C   UNL     1      -1.585   3.004   7.768  1.00  0.00     0.179 C 
ATOM     15  C   UNL     1      -2.229   1.637   7.423  1.00  0.00     0.202 C 
BRANCH  12  16
ATOM     16  O   UNL     1      -1.266   4.593   9.534  1.00  0.00    -0.388 OA
ATOM     17  H   UNL     1      -0.501   4.255  10.070  1.00  0.00     0.211 HD
ENDBRANCH  12  16
BRANCH  14  18
ATOM     18  O   UNL     1      -1.869   3.964   6.776  1.00  0.00    -0.387 OA
ATOM     19  H   UNL     1      -1.375   4.795   7.005  1.00  0.00     0.211 HD
ENDBRANCH  14  18
BRANCH  15  20
ATOM     20  O   UNL     1      -1.712   1.124   6.217  1.00  0.00    -0.385 OA
ATOM     21  H   UNL     1      -2.186   1.576   5.474  1.00  0.00     0.211 HD
ENDBRANCH  15  20
ENDBRANCH   8   9
ENDBRANCH   7   8
ENDBRANCH   1   7
BRANCH   2  22
ATOM     22  O   UNL     1      -1.670  -0.699  12.047  1.00  0.00    -0.387 OA
ATOM     23  H   UNL     1      -2.172  -1.394  12.556  1.00  0.00     0.211 HD
ENDBRANCH   2  22
BRANCH   3  24
ATOM     24  O   UNL     1       0.966  -2.901  10.895  1.00  0.00    -0.387 OA
ATOM     25  H   UNL     1       1.198  -3.826  11.176  1.00  0.00     0.211 HD
ENDBRANCH   3  24
BRANCH   5  26
ATOM     26  O   UNL     1      -3.224  -2.920  12.393  1.00  0.00    -0.454 OA
BRANCH  26  27
ATOM     27  C   UNL     1      -4.322  -3.454  13.094  1.00  0.00     0.214 A 
ATOM     28  C   UNL     1      -5.546  -2.763  13.064  1.00  0.00     0.180 A 
ATOM     29  C   UNL     1      -4.232  -4.630  13.865  1.00  0.00     0.239 A 
ATOM     30  O   UNL     1      -6.571  -3.180  13.800  1.00  0.00    -0.452 OA
ATOM     31  C   UNL     1      -5.340  -5.039  14.640  1.00  0.00     0.111 A 
ATOM     32  O   UNL     1      -3.176  -5.318  13.849  1.00  0.00    -0.285 OA
ATOM     33  C   UNL     1      -6.517  -4.254  14.576  1.00  0.00     0.146 A 
ATOM     34  C   UNL     1      -5.314  -6.178  15.481  1.00  0.00     0.134 A 
ATOM     35  C   UNL     1      -7.639  -4.609  15.331  1.00  0.00     0.094 A 
ATOM     36  C   UNL     1      -6.449  -6.509  16.237  1.00  0.00     0.093 A 
ATOM     37  C   UNL     1      -7.606  -5.730  16.167  1.00  0.00     0.123 A 
BRANCH  28  38
ATOM     38  C   UNL     1      -5.703  -1.529  12.268  1.00  0.00     0.025 A 
ATOM     39  C   UNL     1      -6.002  -1.585  10.894  1.00  0.00     0.062 A 
ATOM     40  C   UNL     1      -5.548  -0.276  12.891  1.00  0.00     0.016 A 
ATOM     41  C   UNL     1      -6.115  -0.406  10.140  1.00  0.00     0.158 A 
ATOM     42  C   UNL     1      -5.664   0.901  12.141  1.00  0.00     0.051 A 
ATOM     43  C   UNL     1      -5.943   0.844  10.771  1.00  0.00     0.157 A 
BRANCH  41  44
ATOM     44  O   UNL     1      -6.394  -0.471   8.771  1.00  0.00    -0.504 OA
ATOM     45  H   UNL     1      -7.039  -1.148   8.394  1.00  0.00     0.293 HD
ENDBRANCH  41  44
BRANCH  43  46
ATOM     46  O   UNL     1      -6.037   2.033  10.049  1.00  0.00    -0.504 OA
ATOM     47  H   UNL     1      -5.286   2.719  10.037  1.00  0.00     0.293 HD
ENDBRANCH  43  46
ENDBRANCH  28  38
BRANCH  34  48
ATOM     48  O   UNL     1      -4.170  -6.971  15.581  1.00  0.00    -0.507 OA
ATOM     49  H   UNL     1      -3.843  -7.534  14.801  1.00  0.00     0.293 HD
ENDBRANCH  34  48
BRANCH  37  50
ATOM     50  O   UNL     1      -8.716  -6.079  16.936  1.00  0.00    -0.508 OA
ATOM     51  H   UNL     1      -9.462  -5.417  17.119  1.00  0.00     0.293 HD
ENDBRANCH  37  50
ENDBRANCH  26  27
ENDBRANCH   5  26
BRANCH   4  52
ATOM     52  O   UNL     1      -1.026  -3.297  13.793  1.00  0.00    -0.384 OA
ATOM     53  H   UNL     1      -0.490  -2.497  14.021  1.00  0.00     0.211 HD
ENDBRANCH   4  52
TORSDOF 16
ENDMDL
MODEL 2
REMARK VINA RESULT:    -7.162      2.217      3.944
REMARK INTER + INTRA:         -13.620
REMARK INTER:                 -11.833
REMARK INTRA:                  -1.787
REMARK UNBOUND:                -1.853
REMARK SMILES C[C@H]1O[C@@H](OC[C@@H]2O[C@H](Oc3c(-c4ccc(O)c(O)c4)oc4cc(O)cc(O)c4c3=O)[C@H](O)[C@@H](O)[C@@H]2O)[C@H](O)[C@@H](O)[C@@H]1O
REMARK SMILES IDX 7 1 36 2 34 3 32 4 9 5 8 6 6 7 5 8 4 9 1 10 2 11 42 12 3 13
REMARK SMILES IDX 40 14 38 15 43 16 41 18 39 20 37 22 35 24 10 26 11 27 12 28
REMARK SMILES IDX 30 29 21 30 29 31 31 32 22 33 27 34 23 35 26 36 24 37 13 38
REMARK SMILES IDX 20 39 14 40 18 41 15 42 16 43 19 44 17 46 28 48 25 50 33 52
REMARK H PARENT 43 17 41 19 39 21 37 23 35 25 19 45 17 47 28 49 25 51 33 53
REMARK Flexibility Score: inf
ROOT
ATOM      1  C   UNL     1      -5.450  -0.268   9.362  1.00  0.00     0.180 C 
ATOM      2  C   UNL     1      -4.833  -1.454   8.554  1.00  0.00     0.177 C 
ATOM      3  C   UNL     1      -5.950  -2.393   8.073  1.00  0.00     0.180 C 
ATOM      4  C   UNL     1      -6.812  -2.888   9.264  1.00  0.00     0.214 C 
ATOM      5  C   UNL     1      -6.749  -1.931  10.484  1.00  0.00     0.339 C 
ATOM      6  O   UNL     1      -6.625  -0.573  10.110  1.00  0.00    -0.332 OA
ENDROOT
BRANCH   1   7
ATOM      7  C   UNL     1      -4.462   0.575  10.198  1.00  0.00     0.198 C 
BRANCH   7   8
ATOM      8  O   UNL     1      -4.002   1.718   9.492  1.00  0.00    -0.347 OA
BRANCH   8   9
ATOM      9  C   UNL     1      -2.958   1.365   8.600  1.00  0.00     0.281 C 
ATOM     10  C   UNL     1      -0.478  -1.314   8.913  1.00  0.00     0.041 C 
ATOM     11  C   UNL     1      -1.183  -0.113   8.280  1.00  0.00     0.150 C 
ATOM     12  C   UNL     1      -0.170   1.001   7.926  1.00  0.00     0.174 C 
ATOM     13  O   UNL     1      -2.141   0.371   9.204  1.00  0.00    -0.344 OA
ATOM     14  C   UNL     1      -0.923   2.226   7.377  1.00  0.00     0.179 C 
ATOM     15  C   UNL     1      -2.100   2.611   8.309  1.00  0.00     0.202 C 
BRANCH  12  16
ATOM     16  O   UNL     1       0.722   0.536   6.947  1.00  0.00    -0.388 OA
ATOM     17  H   UNL     1       0.413   0.877   6.066  1.00  0.00     0.211 HD
ENDBRANCH  12  16
BRANCH  14  18
ATOM     18  O   UNL     1      -0.047   3.314   7.190  1.00  0.00    -0.387 OA
ATOM     19  H   UNL     1      -0.013   3.515   6.217  1.00  0.00     0.211 HD
ENDBRANCH  14  18
BRANCH  15  20
ATOM     20  O   UNL     1      -2.871   3.648   7.749  1.00  0.00    -0.385 OA
ATOM     21  H   UNL     1      -3.384   4.068   8.484  1.00  0.00     0.211 HD
ENDBRANCH  15  20
ENDBRANCH   8   9
ENDBRANCH   7   8
ENDBRANCH   1   7
BRANCH   2  22
ATOM     22  O   UNL     1      -3.917  -2.185   9.327  1.00  0.00    -0.387 OA
ATOM     23  H   UNL     1      -3.138  -1.587   9.500  1.00  0.00     0.211 HD
ENDBRANCH   2  22
BRANCH   3  24
ATOM     24  O   UNL     1      -6.737  -1.760   7.094  1.00  0.00    -0.387 OA
ATOM     25  H   UNL     1      -6.245  -0.959   6.769  1.00  0.00     0.211 HD
ENDBRANCH   3  24
BRANCH   5  26
ATOM     26  O   UNL     1      -5.707  -2.309  11.388  1.00  0.00    -0.454 OA
BRANCH  26  27
ATOM     27  C   UNL     1      -5.918  -2.777  12.698  1.00  0.00     0.214 A 
ATOM     28  C   UNL     1      -5.167  -2.218  13.747  1.00  0.00     0.180 A 
ATOM     29  C   UNL     1      -6.820  -3.818  12.998  1.00  0.00     0.239 A 
ATOM     30  O   UNL     1      -5.263  -2.710  14.978  1.00  0.00    -0.452 OA
ATOM     31  C   UNL     1      -6.890  -4.319  14.316  1.00  0.00     0.111 A 
ATOM     32  O   UNL     1      -7.568  -4.285  12.097  1.00  0.00    -0.285 OA
ATOM     33  C   UNL     1      -6.063  -3.719  15.297  1.00  0.00     0.146 A 
ATOM     34  C   UNL     1      -7.730  -5.396  14.688  1.00  0.00     0.134 A 
ATOM     35  C   UNL     1      -6.085  -4.183  16.615  1.00  0.00     0.094 A 
ATOM     36  C   UNL     1      -7.729  -5.853  16.015  1.00  0.00     0.093 A 
ATOM     37  C   UNL     1      -6.911  -5.254  16.975  1.00  0.00     0.123 A 
BRANCH  28  38
ATOM     38  C   UNL     1      -4.211  -1.121  13.497  1.00  0.00     0.025 A 
ATOM     39  C   UNL     1      -4.610   0.226  13.598  1.00  0.00     0.062 A 
ATOM     40  C   UNL     1      -2.881  -1.423  13.149  1.00  0.00     0.016 A 
ATOM     41  C   UNL     1      -3.703   1.261  13.323  1.00  0.00     0.158 A 
ATOM     42  C   UNL     1      -1.974  -0.391  12.878  1.00  0.00     0.051 A 
ATOM     43  C   UNL     1      -2.376   0.947  12.961  1.00  0.00     0.157 A 
BRANCH  41  44
ATOM     44  O   UNL     1      -4.112   2.595  13.408  1.00  0.00    -0.504 OA
ATOM     45  H   UNL     1      -4.201   3.175  12.588  1.00  0.00     0.293 HD
ENDBRANCH  41  44
BRANCH  43  46
ATOM     46  O   UNL     1      -1.452   1.951  12.670  1.00  0.00    -0.504 OA
ATOM     47  H   UNL     1      -0.466   1.752  12.524  1.00  0.00     0.293 HD
ENDBRANCH  43  46
ENDBRANCH  28  38
BRANCH  34  48
ATOM     48  O   UNL     1      -8.552  -6.023  13.750  1.00  0.00    -0.507 OA
ATOM     49  H   UNL     1      -9.101  -6.844  13.988  1.00  0.00     0.293 HD
ENDBRANCH  34  48
BRANCH  37  50
ATOM     50  O   UNL     1      -6.926  -5.733  18.285  1.00  0.00    -0.508 OA
ATOM     51  H   UNL     1      -7.532  -6.498  18.562  1.00  0.00     0.293 HD
ENDBRANCH  37  50
ENDBRANCH  26  27
ENDBRANCH   5  26
BRANCH   4  52
ATOM     52  O   UNL     1      -6.396  -4.173   9.661  1.00  0.00    -0.384 OA
ATOM     53  H   UNL     1      -5.414  -4.209   9.535  1.00  0.00     0.211 HD
ENDBRANCH   4  52
TORSDOF 16
ENDMDL
MODEL 3
REMARK VINA RESULT:    -7.033      1.965      4.175
REMARK INTER + INTRA:         -13.409
REMARK INTER:                 -11.563
REMARK INTRA:                  -1.846
REMARK UNBOUND:                -1.853
REMARK SMILES C[C@H]1O[C@@H](OC[C@@H]2O[C@H](Oc3c(-c4ccc(O)c(O)c4)oc4cc(O)cc(O)c4c3=O)[C@H](O)[C@@H](O)[C@@H]2O)[C@H](O)[C@@H](O)[C@@H]1O
REMARK SMILES IDX 7 1 36 2 34 3 32 4 9 5 8 6 6 7 5 8 4 9 1 10 2 11 42 12 3 13
REMARK SMILES IDX 40 14 38 15 43 16 41 18 39 20 37 22 35 24 10 26 11 27 12 28
REMARK SMILES IDX 30 29 21 30 29 31 31 32 22 33 27 34 23 35 26 36 24 37 13 38
REMARK SMILES IDX 20 39 14 40 18 41 15 42 16 43 19 44 17 46 28 48 25 50 33 52
REMARK H PARENT 43 17 41 19 39 21 37 23 35 25 19 45 17 47 28 49 25 51 33 53
REMARK Flexibility Score: inf
ROOT
ATOM      1  C   UNL     1      -3.029   1.126  12.366  1.00  0.00     0.180 C 
ATOM      2  C   UNL     1      -4.427   1.718  12.001  1.00  0.00     0.177 C 
ATOM      3  C   UNL     1      -5.101   2.277  13.263  1.00  0.00     0.180 C 
ATOM      4  C   UNL     1      -5.200   1.192  14.368  1.00  0.00     0.214 C 
ATOM      5  C   UNL     1      -4.142   0.070  14.198  1.00  0.00     0.339 C 
ATOM      6  O   UNL     1      -2.922   0.543  13.662  1.00  0.00    -0.332 OA
ENDROOT
BRANCH   1   7
ATOM      7  C   UNL     1      -2.367   0.229  11.297  1.00  0.00     0.198 C 
BRANCH   7   8
ATOM      8  O   UNL     1      -1.478   0.956  10.462  1.00  0.00    -0.347 OA
BRANCH   8   9
ATOM      9  C   UNL     1      -2.184   1.566   9.394  1.00  0.00     0.281 C 
ATOM     10  C   UNL     1      -5.282   0.476   7.770  1.00  0.00     0.041 C 
ATOM     11  C   UNL     1      -4.057   1.357   8.021  1.00  0.00     0.150 C 
ATOM     12  C   UNL     1      -3.266   1.592   6.714  1.00  0.00     0.174 C 
ATOM     13  O   UNL     1      -3.240   0.710   8.980  1.00  0.00    -0.344 OA
ATOM     14  C   UNL     1      -1.994   2.404   7.020  1.00  0.00     0.179 C 
ATOM     15  C   UNL     1      -1.222   1.786   8.212  1.00  0.00     0.202 C 
BRANCH  12  16
ATOM     16  O   UNL     1      -4.057   2.308   5.803  1.00  0.00    -0.388 OA
ATOM     17  H   UNL     1      -5.004   2.229   6.093  1.00  0.00     0.211 HD
ENDBRANCH  12  16
BRANCH  14  18
ATOM     18  O   UNL     1      -1.173   2.503   5.879  1.00  0.00    -0.387 OA
ATOM     19  H   UNL     1      -1.268   3.422   5.513  1.00  0.00     0.211 HD
ENDBRANCH  14  18
BRANCH  15  20
ATOM     20  O   UNL     1      -0.129   2.594   8.581  1.00  0.00    -0.385 OA
ATOM     21  H   UNL     1       0.692   2.159   8.240  1.00  0.00     0.211 HD
ENDBRANCH  15  20
ENDBRANCH   8   9
ENDBRANCH   7   8
ENDBRANCH   1   7
BRANCH   2  22
ATOM     22  O   UNL     1      -5.263   0.749  11.422  1.00  0.00    -0.387 OA
ATOM     23  H   UNL     1      -6.174   1.149  11.359  1.00  0.00     0.211 HD
ENDBRANCH   2  22
BRANCH   3  24
ATOM     24  O   UNL     1      -4.419   3.419  13.721  1.00  0.00    -0.387 OA
ATOM     25  H   UNL     1      -5.063   4.175  13.749  1.00  0.00     0.211 HD
ENDBRANCH   3  24
BRANCH   5  26
ATOM     26  O   UNL     1      -4.655  -1.015  13.418  1.00  0.00    -0.454 OA
BRANCH  26  27
ATOM     27  C   UNL     1      -4.902  -2.308  13.915  1.00  0.00     0.214 A 
ATOM     28  C   UNL     1      -4.469  -3.416  13.166  1.00  0.00     0.180 A 
ATOM     29  C   UNL     1      -5.608  -2.541  15.113  1.00  0.00     0.239 A 
ATOM     30  O   UNL     1      -4.779  -4.650  13.551  1.00  0.00    -0.452 OA
ATOM     31  C   UNL     1      -5.925  -3.865  15.486  1.00  0.00     0.111 A 
ATOM     32  O   UNL     1      -5.939  -1.573  15.849  1.00  0.00    -0.285 OA
ATOM     33  C   UNL     1      -5.481  -4.914  14.645  1.00  0.00     0.146 A 
ATOM     34  C   UNL     1      -6.676  -4.180  16.645  1.00  0.00     0.134 A 
ATOM     35  C   UNL     1      -5.776  -6.243  14.963  1.00  0.00     0.094 A 
ATOM     36  C   UNL     1      -6.969  -5.521  16.940  1.00  0.00     0.093 A 
ATOM     37  C   UNL     1      -6.526  -6.549  16.104  1.00  0.00     0.123 A 
BRANCH  28  38
ATOM     38  C   UNL     1      -3.718  -3.236  11.907  1.00  0.00     0.025 A 
ATOM     39  C   UNL     1      -2.314  -3.130  11.908  1.00  0.00     0.062 A 
ATOM     40  C   UNL     1      -4.415  -3.165  10.686  1.00  0.00     0.016 A 
ATOM     41  C   UNL     1      -1.614  -2.924  10.710  1.00  0.00     0.158 A 
ATOM     42  C   UNL     1      -3.718  -2.963   9.489  1.00  0.00     0.051 A 
ATOM     43  C   UNL     1      -2.323  -2.840   9.493  1.00  0.00     0.157 A 
BRANCH  41  44
ATOM     44  O   UNL     1      -0.221  -2.802  10.721  1.00  0.00    -0.504 OA
ATOM     45  H   UNL     1       0.264  -2.203  10.072  1.00  0.00     0.293 HD
ENDBRANCH  41  44
BRANCH  43  46
ATOM     46  O   UNL     1      -1.660  -2.624   8.286  1.00  0.00    -0.504 OA
ATOM     47  H   UNL     1      -0.921  -1.931   8.192  1.00  0.00     0.293 HD
ENDBRANCH  43  46
ENDBRANCH  28  38
BRANCH  34  48
ATOM     48  O   UNL     1      -7.142  -3.176  17.495  1.00  0.00    -0.507 OA
ATOM     49  H   UNL     1      -6.911  -2.199  17.340  1.00  0.00     0.293 HD
ENDBRANCH  34  48
BRANCH  37  50
ATOM     50  O   UNL     1      -6.838  -7.871  16.418  1.00  0.00    -0.508 OA
ATOM     51  H   UNL     1      -7.796  -8.205  16.410  1.00  0.00     0.293 HD
ENDBRANCH  37  50
ENDBRANCH  26  27
ENDBRANCH   5  26
BRANCH   4  52
ATOM     52  O   UNL     1      -6.487   0.620  14.371  1.00  0.00    -0.384 OA
ATOM     53  H   UNL     1      -7.132   1.367  14.453  1.00  0.00     0.211 HD
ENDBRANCH   4  52
TORSDOF 16
ENDMDL
MODEL 4
REMARK VINA RESULT:    -6.983      2.839      7.346
REMARK INTER + INTRA:         -13.327
REMARK INTER:                 -12.197
REMARK INTRA:                  -1.130
REMARK UNBOUND:                -1.853
REMARK SMILES C[C@H]1O[C@@H](OC[C@@H]2O[C@H](Oc3c(-c4ccc(O)c(O)c4)oc4cc(O)cc(O)c4c3=O)[C@H](O)[C@@H](O)[C@@H]2O)[C@H](O)[C@@H](O)[C@@H]1O
REMARK SMILES IDX 7 1 36 2 34 3 32 4 9 5 8 6 6 7 5 8 4 9 1 10 2 11 42 12 3 13
REMARK SMILES IDX 40 14 38 15 43 16 41 18 39 20 37 22 35 24 10 26 11 27 12 28
REMARK SMILES IDX 30 29 21 30 29 31 31 32 22 33 27 34 23 35 26 36 24 37 13 38
REMARK SMILES IDX 20 39 14 40 18 41 15 42 16 43 19 44 17 46 28 48 25 50 33 52
REMARK H PARENT 43 17 41 19 39 21 37 23 35 25 19 45 17 47 28 49 25 51 33 53
REMARK Flexibility Score: inf
ROOT
ATOM      1  C   UNL     1      -2.231  -3.304  12.842  1.00  0.00     0.180 C 
ATOM      2  C   UNL     1      -0.728  -2.912  12.681  1.00  0.00     0.177 C 
ATOM      3  C   UNL     1      -0.427  -1.653  13.509  1.00  0.00     0.180 C 
ATOM      4  C   UNL     1      -1.377  -0.490  13.117  1.00  0.00     0.214 C 
ATOM      5  C   UNL     1      -2.700  -0.989  12.479  1.00  0.00     0.339 C 
ATOM      6  O   UNL     1      -3.139  -2.220  13.019  1.00  0.00    -0.332 OA
ENDROOT
BRANCH   1   7
ATOM      7  C   UNL     1      -2.782  -4.330  11.826  1.00  0.00     0.198 C 
BRANCH   7   8
ATOM      8  O   UNL     1      -4.201  -4.339  11.791  1.00  0.00    -0.347 OA
BRANCH   8   9
ATOM      9  C   UNL     1      -4.669  -4.023  10.490  1.00  0.00     0.281 C 
ATOM     10  C   UNL     1      -2.811  -2.623   7.659  1.00  0.00     0.041 C 
ATOM     11  C   UNL     1      -4.024  -3.159   8.423  1.00  0.00     0.150 C 
ATOM     12  C   UNL     1      -5.212  -2.173   8.337  1.00  0.00     0.174 C 
ATOM     13  O   UNL     1      -3.643  -3.350   9.773  1.00  0.00    -0.344 OA
ATOM     14  C   UNL     1      -6.381  -2.699   9.189  1.00  0.00     0.179 C 
ATOM     15  C   UNL     1      -5.893  -3.095  10.606  1.00  0.00     0.202 C 
BRANCH  12  16
ATOM     16  O   UNL     1      -5.635  -2.056   7.004  1.00  0.00    -0.388 OA
ATOM     17  H   UNL     1      -5.261  -1.212   6.637  1.00  0.00     0.211 HD
ENDBRANCH  12  16
BRANCH  14  18
ATOM     18  O   UNL     1      -7.422  -1.751   9.258  1.00  0.00    -0.387 OA
ATOM     19  H   UNL     1      -8.279  -2.228   9.102  1.00  0.00     0.211 HD
ENDBRANCH  14  18
BRANCH  15  20
ATOM     20  O   UNL     1      -6.928  -3.697  11.348  1.00  0.00    -0.385 OA
ATOM     21  H   UNL     1      -6.507  -4.298  12.012  1.00  0.00     0.211 HD
ENDBRANCH  15  20
ENDBRANCH   8   9
ENDBRANCH   7   8
ENDBRANCH   1   7
BRANCH   2  22
ATOM     22  O   UNL     1      -0.399  -2.670  11.337  1.00  0.00    -0.387 OA
ATOM     23  H   UNL     1      -0.978  -3.263  10.783  1.00  0.00     0.211 HD
ENDBRANCH   2  22
BRANCH   3  24
ATOM     24  O   UNL     1      -0.501  -1.939  14.884  1.00  0.00    -0.387 OA
ATOM     25  H   UNL     1      -0.958  -1.180  15.335  1.00  0.00     0.211 HD
ENDBRANCH   3  24
BRANCH   5  26
ATOM     26  O   UNL     1      -2.593  -1.066  11.054  1.00  0.00    -0.454 OA
BRANCH  26  27
ATOM     27  C   UNL     1      -2.340   0.033  10.212  1.00  0.00     0.214 A 
ATOM     28  C   UNL     1      -3.250   1.105  10.203  1.00  0.00     0.180 A 
ATOM     29  C   UNL     1      -1.233   0.083   9.340  1.00  0.00     0.239 A 
ATOM     30  O   UNL     1      -3.099   2.107   9.344  1.00  0.00    -0.452 OA
ATOM     31  C   UNL     1      -1.110   1.161   8.436  1.00  0.00     0.111 A 
ATOM     32  O   UNL     1      -0.356  -0.820   9.380  1.00  0.00    -0.285 OA
ATOM     33  C   UNL     1      -2.100   2.173   8.474  1.00  0.00     0.146 A 
ATOM     34  C   UNL     1      -0.058   1.259   7.493  1.00  0.00     0.134 A 
ATOM     35  C   UNL     1      -2.031   3.256   7.594  1.00  0.00     0.094 A 
ATOM     36  C   UNL     1      -0.014   2.351   6.612  1.00  0.00     0.093 A 
ATOM     37  C   UNL     1      -0.994   3.344   6.658  1.00  0.00     0.123 A 
BRANCH  28  38
ATOM     38  C   UNL     1      -4.424   1.112  11.099  1.00  0.00     0.025 A 
ATOM     39  C   UNL     1      -4.320   1.570  12.427  1.00  0.00     0.062 A 
ATOM     40  C   UNL     1      -5.666   0.651  10.622  1.00  0.00     0.016 A 
ATOM     41  C   UNL     1      -5.434   1.540  13.280  1.00  0.00     0.158 A 
ATOM     42  C   UNL     1      -6.778   0.624  11.471  1.00  0.00     0.051 A 
ATOM     43  C   UNL     1      -6.671   1.063  12.796  1.00  0.00     0.157 A 
BRANCH  41  44
ATOM     44  O   UNL     1      -5.319   1.980  14.602  1.00  0.00    -0.504 OA
ATOM     45  H   UNL     1      -6.055   2.501  15.053  1.00  0.00     0.293 HD
ENDBRANCH  41  44
BRANCH  43  46
ATOM     46  O   UNL     1      -7.794   1.008  13.620  1.00  0.00    -0.504 OA
ATOM     47  H   UNL     1      -8.571   1.657  13.519  1.00  0.00     0.293 HD
ENDBRANCH  43  46
ENDBRANCH  28  38
BRANCH  34  48
ATOM     48  O   UNL     1       0.931   0.277   7.415  1.00  0.00    -0.507 OA
ATOM     49  H   UNL     1       1.759   0.401   6.840  1.00  0.00     0.293 HD
ENDBRANCH  34  48
BRANCH  37  50
ATOM     50  O   UNL     1      -0.929   4.414   5.765  1.00  0.00    -0.508 OA
ATOM     51  H   UNL     1      -1.709   4.647   5.160  1.00  0.00     0.293 HD
ENDBRANCH  37  50
ENDBRANCH  26  27
ENDBRANCH   5  26
BRANCH   4  52
ATOM     52  O   UNL     1      -0.730   0.383  12.222  1.00  0.00    -0.384 OA
ATOM     53  H   UNL     1      -0.811  -0.020  11.321  1.00  0.00     0.211 HD
ENDBRANCH   4  52
TORSDOF 16
ENDMDL
MODEL 5
REMARK VINA RESULT:    -6.981      2.705      6.317
REMARK INTER + INTRA:         -13.324
REMARK INTER:                 -12.533
REMARK INTRA:                  -0.791
REMARK UNBOUND:                -1.853
REMARK SMILES C[C@H]1O[C@@H](OC[C@@H]2O[C@H](Oc3c(-c4ccc(O)c(O)c4)oc4cc(O)cc(O)c4c3=O)[C@H](O)[C@@H](O)[C@@H]2O)[C@H](O)[C@@H](O)[C@@H]1O
REMARK SMILES IDX 7 1 36 2 34 3 32 4 9 5 8 6 6 7 5 8 4 9 1 10 2 11 42 12 3 13
REMARK SMILES IDX 40 14 38 15 43 16 41 18 39 20 37 22 35 24 10 26 11 27 12 28
REMARK SMILES IDX 30 29 21 30 29 31 31 32 22 33 27 34 23 35 26 36 24 37 13 38
REMARK SMILES IDX 20 39 14 40 18 41 15 42 16 43 19 44 17 46 28 48 25 50 33 52
REMARK H PARENT 43 17 41 19 39 21 37 23 35 25 19 45 17 47 28 49 25 51 33 53
REMARK Flexibility Score: inf
ROOT
ATOM      1  C   UNL     1      -1.279   0.389   7.961  1.00  0.00     0.180 C 
ATOM      2  C   UNL     1      -1.384   1.398   6.773  1.00  0.00     0.177 C 
ATOM      3  C   UNL     1      -0.716   2.727   7.158  1.00  0.00     0.180 C 
ATOM      4  C   UNL     1      -1.329   3.300   8.462  1.00  0.00     0.214 C 
ATOM      5  C   UNL     1      -1.988   2.206   9.343  1.00  0.00     0.339 C 
ATOM      6  O   UNL     1      -1.318   0.963   9.265  1.00  0.00    -0.332 OA
ENDROOT
BRANCH   1   7
ATOM      7  C   UNL     1      -2.183  -0.861   7.876  1.00  0.00     0.198 C 
BRANCH   7   8
ATOM      8  O   UNL     1      -1.592  -1.993   8.497  1.00  0.00    -0.347 OA
BRANCH   8   9
ATOM      9  C   UNL     1      -1.902  -2.020   9.881  1.00  0.00     0.281 C 
ATOM     10  C   UNL     1       0.288  -1.341  12.739  1.00  0.00     0.041 C 
ATOM     11  C   UNL     1      -1.003  -1.722  12.011  1.00  0.00     0.150 C 
ATOM     12  C   UNL     1      -1.581  -3.045  12.564  1.00  0.00     0.174 C 
ATOM     13  O   UNL     1      -0.708  -1.854  10.633  1.00  0.00    -0.344 OA
ATOM     14  C   UNL     1      -2.825  -3.444  11.750  1.00  0.00     0.179 C 
ATOM     15  C   UNL     1      -2.530  -3.382  10.230  1.00  0.00     0.202 C 
BRANCH  12  16
ATOM     16  O   UNL     1      -1.948  -2.877  13.908  1.00  0.00    -0.388 OA
ATOM     17  H   UNL     1      -1.493  -3.583  14.440  1.00  0.00     0.211 HD
ENDBRANCH  12  16
BRANCH  14  18
ATOM     18  O   UNL     1      -3.285  -4.722  12.126  1.00  0.00    -0.387 OA
ATOM     19  H   UNL     1      -4.099  -4.923  11.592  1.00  0.00     0.211 HD
ENDBRANCH  14  18
BRANCH  15  20
ATOM     20  O   UNL     1      -3.698  -3.619   9.478  1.00  0.00    -0.385 OA
ATOM     21  H   UNL     1      -4.186  -2.761   9.409  1.00  0.00     0.211 HD
ENDBRANCH  15  20
ENDBRANCH   8   9
ENDBRANCH   7   8
ENDBRANCH   1   7
BRANCH   2  22
ATOM     22  O   UNL     1      -2.720   1.639   6.416  1.00  0.00    -0.387 OA
ATOM     23  H   UNL     1      -2.716   2.386   5.756  1.00  0.00     0.211 HD
ENDBRANCH   2  22
BRANCH   3  24
ATOM     24  O   UNL     1       0.677   2.562   7.271  1.00  0.00    -0.387 OA
ATOM     25  H   UNL     1       1.110   3.430   7.055  1.00  0.00     0.211 HD
ENDBRANCH   3  24
BRANCH   5  26
ATOM     26  O   UNL     1      -3.377   2.057   9.035  1.00  0.00    -0.454 OA
BRANCH  26  27
ATOM     27  C   UNL     1      -4.207   1.049   9.561  1.00  0.00     0.214 A 
ATOM     28  C   UNL     1      -4.213   0.831  10.950  1.00  0.00     0.180 A 
ATOM     29  C   UNL     1      -5.000   0.216   8.747  1.00  0.00     0.239 A 
ATOM     30  O   UNL     1      -4.901  -0.181  11.469  1.00  0.00    -0.452 OA
ATOM     31  C   UNL     1      -5.713  -0.854   9.333  1.00  0.00     0.111 A 
ATOM     32  O   UNL     1      -5.082   0.435   7.509  1.00  0.00    -0.285 OA
ATOM     33  C   UNL     1      -5.623  -1.018  10.737  1.00  0.00     0.146 A 
ATOM     34  C   UNL     1      -6.489  -1.767   8.579  1.00  0.00     0.134 A 
ATOM     35  C   UNL     1      -6.301  -2.066  11.366  1.00  0.00     0.094 A 
ATOM     36  C   UNL     1      -7.154  -2.818   9.231  1.00  0.00     0.093 A 
ATOM     37  C   UNL     1      -7.060  -2.971  10.616  1.00  0.00     0.123 A 
BRANCH  28  38
ATOM     38  C   UNL     1      -3.408   1.676  11.855  1.00  0.00     0.025 A 
ATOM     39  C   UNL     1      -3.953   2.833  12.444  1.00  0.00     0.062 A 
ATOM     40  C   UNL     1      -2.073   1.324  12.133  1.00  0.00     0.016 A 
ATOM     41  C   UNL     1      -3.169   3.648  13.275  1.00  0.00     0.158 A 
ATOM     42  C   UNL     1      -1.291   2.134  12.964  1.00  0.00     0.051 A 
ATOM     43  C   UNL     1      -1.828   3.294  13.534  1.00  0.00     0.157 A 
BRANCH  41  44
ATOM     44  O   UNL     1      -3.713   4.806  13.840  1.00  0.00    -0.504 OA
ATOM     45  H   UNL     1      -4.177   4.790  14.735  1.00  0.00     0.293 HD
ENDBRANCH  41  44
BRANCH  43  46
ATOM     46  O   UNL     1      -1.018   4.087  14.345  1.00  0.00    -0.504 OA
ATOM     47  H   UNL     1      -1.094   5.101  14.358  1.00  0.00     0.293 HD
ENDBRANCH  43  46
ENDBRANCH  28  38
BRANCH  34  48
ATOM     48  O   UNL     1      -6.595  -1.647   7.193  1.00  0.00    -0.507 OA
ATOM     49  H   UNL     1      -6.663  -2.463   6.592  1.00  0.00     0.293 HD
ENDBRANCH  34  48
BRANCH  37  50
ATOM     50  O   UNL     1      -7.724  -4.029  11.236  1.00  0.00    -0.508 OA
ATOM     51  H   UNL     1      -8.391  -4.604  10.731  1.00  0.00     0.293 HD
ENDBRANCH  37  50
ENDBRANCH  26  27
ENDBRANCH   5  26
BRANCH   4  52
ATOM     52  O   UNL     1      -2.286   4.286   8.154  1.00  0.00    -0.384 OA
ATOM     53  H   UNL     1      -3.066   4.122   8.743  1.00  0.00     0.211 HD
ENDBRANCH   4  52
TORSDOF 16
ENDMDL
MODEL 6
REMARK VINA RESULT:    -6.966      1.733      9.414
REMARK INTER + INTRA:         -13.298
REMARK INTER:                 -13.125
REMARK INTRA:                  -0.174
REMARK UNBOUND:                -1.853
REMARK SMILES C[C@H]1O[C@@H](OC[C@@H]2O[C@H](Oc3c(-c4ccc(O)c(O)c4)oc4cc(O)cc(O)c4c3=O)[C@H](O)[C@@H](O)[C@@H]2O)[C@H](O)[C@@H](O)[C@@H]1O
REMARK SMILES IDX 7 1 36 2 34 3 32 4 9 5 8 6 6 7 5 8 4 9 1 10 2 11 42 12 3 13
REMARK SMILES IDX 40 14 38 15 43 16 41 18 39 20 37 22 35 24 10 26 11 27 12 28
REMARK SMILES IDX 30 29 21 30 29 31 31 32 22 33 27 34 23 35 26 36 24 37 13 38
REMARK SMILES IDX 20 39 14 40 18 41 15 42 16 43 19 44 17 46 28 48 25 50 33 52
REMARK H PARENT 43 17 41 19 39 21 37 23 35 25 19 45 17 47 28 49 25 51 33 53
REMARK Flexibility Score: inf
ROOT
ATOM      1  C   UNL     1      -6.364  -1.577  12.597  1.00  0.00     0.180 C 
ATOM      2  C   UNL     1      -5.846  -0.284  13.303  1.00  0.00     0.177 C 
ATOM      3  C   UNL     1      -6.485   0.954  12.655  1.00  0.00     0.180 C 
ATOM      4  C   UNL     1      -6.221   0.982  11.127  1.00  0.00     0.214 C 
ATOM      5  C   UNL     1      -5.930  -0.428  10.547  1.00  0.00     0.339 C 
ATOM      6  O   UNL     1      -6.649  -1.451  11.206  1.00  0.00    -0.332 OA
ENDROOT
BRANCH   1   7
ATOM      7  C   UNL     1      -5.578  -2.875  12.888  1.00  0.00     0.198 C 
BRANCH   7   8
ATOM      8  O   UNL     1      -5.538  -3.177  14.275  1.00  0.00    -0.347 OA
BRANCH   8   9
ATOM      9  C   UNL     1      -6.139  -4.436  14.527  1.00  0.00     0.281 C 
ATOM     10  C   UNL     1      -9.173  -5.190  16.440  1.00  0.00     0.041 C 
ATOM     11  C   UNL     1      -7.924  -5.481  15.604  1.00  0.00     0.150 C 
ATOM     12  C   UNL     1      -7.036  -6.546  16.288  1.00  0.00     0.174 C 
ATOM     13  O   UNL     1      -7.207  -4.270  15.451  1.00  0.00    -0.344 OA
ATOM     14  C   UNL     1      -5.748  -6.747  15.469  1.00  0.00     0.179 C 
ATOM     15  C   UNL     1      -5.090  -5.383  15.139  1.00  0.00     0.202 C 
BRANCH  12  16
ATOM     16  O   UNL     1      -7.727  -7.766  16.358  1.00  0.00    -0.388 OA
ATOM     17  H   UNL     1      -8.113  -7.846  17.271  1.00  0.00     0.211 HD
ENDBRANCH  12  16
BRANCH  14  18
ATOM     18  O   UNL     1      -4.848  -7.595  16.143  1.00  0.00    -0.387 OA
ATOM     19  H   UNL     1      -4.018  -7.079  16.323  1.00  0.00     0.211 HD
ENDBRANCH  14  18
BRANCH  15  20
ATOM     20  O   UNL     1      -3.984  -5.550  14.281  1.00  0.00    -0.385 OA
ATOM     21  H   UNL     1      -4.256  -6.176  13.564  1.00  0.00     0.211 HD
ENDBRANCH  15  20
ENDBRANCH   8   9
ENDBRANCH   7   8
ENDBRANCH   1   7
BRANCH   2  22
ATOM     22  O   UNL     1      -4.448  -0.177  13.224  1.00  0.00    -0.387 OA
ATOM     23  H   UNL     1      -4.243   0.748  12.911  1.00  0.00     0.211 HD
ENDBRANCH   2  22
BRANCH   3  24
ATOM     24  O   UNL     1      -7.861   1.004  12.942  1.00  0.00    -0.387 OA
ATOM     25  H   UNL     1      -8.088   1.933  13.214  1.00  0.00     0.211 HD
ENDBRANCH   3  24
BRANCH   5  26
ATOM     26  O   UNL     1      -4.527  -0.710  10.545  1.00  0.00    -0.454 OA
BRANCH  26  27
ATOM     27  C   UNL     1      -3.576  -0.022   9.769  1.00  0.00     0.214 A 
ATOM     28  C   UNL     1      -2.254   0.067  10.238  1.00  0.00     0.180 A 
ATOM     29  C   UNL     1      -3.904   0.624   8.560  1.00  0.00     0.239 A 
ATOM     30  O   UNL     1      -1.357   0.799   9.586  1.00  0.00    -0.452 OA
ATOM     31  C   UNL     1      -2.927   1.399   7.898  1.00  0.00     0.111 A 
ATOM     32  O   UNL     1      -5.058   0.497   8.069  1.00  0.00    -0.285 OA
ATOM     33  C   UNL     1      -1.633   1.461   8.471  1.00  0.00     0.146 A 
ATOM     34  C   UNL     1      -3.190   2.120   6.708  1.00  0.00     0.134 A 
ATOM     35  C   UNL     1      -0.631   2.221   7.861  1.00  0.00     0.094 A 
ATOM     36  C   UNL     1      -2.171   2.885   6.119  1.00  0.00     0.093 A 
ATOM     37  C   UNL     1      -0.899   2.940   6.691  1.00  0.00     0.123 A 
BRANCH  28  38
ATOM     38  C   UNL     1      -1.848  -0.595  11.495  1.00  0.00     0.025 A 
ATOM     39  C   UNL     1      -2.042  -1.977  11.682  1.00  0.00     0.062 A 
ATOM     40  C   UNL     1      -1.260   0.166  12.523  1.00  0.00     0.016 A 
ATOM     41  C   UNL     1      -1.684  -2.589  12.894  1.00  0.00     0.158 A 
ATOM     42  C   UNL     1      -0.900  -0.444  13.730  1.00  0.00     0.051 A 
ATOM     43  C   UNL     1      -1.110  -1.814  13.924  1.00  0.00     0.157 A 
BRANCH  41  44
ATOM     44  O   UNL     1      -1.897  -3.959  13.079  1.00  0.00    -0.504 OA
ATOM     45  H   UNL     1      -2.821  -4.359  13.050  1.00  0.00     0.293 HD
ENDBRANCH  41  44
BRANCH  43  46
ATOM     46  O   UNL     1      -0.754  -2.389  15.143  1.00  0.00    -0.504 OA
ATOM     47  H   UNL     1      -1.449  -2.727  15.804  1.00  0.00     0.293 HD
ENDBRANCH  43  46
ENDBRANCH  28  38
BRANCH  34  48
ATOM     48  O   UNL     1      -4.455   2.095   6.117  1.00  0.00    -0.507 OA
ATOM     49  H   UNL     1      -4.815   2.889   5.598  1.00  0.00     0.293 HD
ENDBRANCH  34  48
BRANCH  37  50
ATOM     50  O   UNL     1       0.092   3.714   6.087  1.00  0.00    -0.508 OA
ATOM     51  H   UNL     1       0.571   3.401   5.249  1.00  0.00     0.293 HD
ENDBRANCH  37  50
ENDBRANCH  26  27
ENDBRANCH   5  26
BRANCH   4  52
ATOM     52  O   UNL     1      -5.139   1.835  10.838  1.00  0.00    -0.384 OA
ATOM     53  H   UNL     1      -4.744   1.519   9.986  1.00  0.00     0.211 HD
ENDBRANCH   4  52
TORSDOF 16
ENDMDL
MODEL 7
REMARK VINA RESULT:    -6.952      1.791      4.234
REMARK INTER + INTRA:         -13.275
REMARK INTER:                 -11.565
REMARK INTRA:                  -1.710
REMARK UNBOUND:                -1.853
REMARK SMILES C[C@H]1O[C@@H](OC[C@@H]2O[C@H](Oc3c(-c4ccc(O)c(O)c4)oc4cc(O)cc(O)c4c3=O)[C@H](O)[C@@H](O)[C@@H]2O)[C@H](O)[C@@H](O)[C@@H]1O
REMARK SMILES IDX 7 1 36 2 34 3 32 4 9 5 8 6 6 7 5 8 4 9 1 10 2 11 42 12 3 13
REMARK SMILES IDX 40 14 38 15 43 16 41 18 39 20 37 22 35 24 10 26 11 27 12 28
REMARK SMILES IDX 30 29 21 30 29 31 31 32 22 33 27 34 23 35 26 36 24 37 13 38
REMARK SMILES IDX 20 39 14 40 18 41 15 42 16 43 19 44 17 46 28 48 25 50 33 52
REMARK H PARENT 43 17 41 19 39 21 37 23 35 25 19 45 17 47 28 49 25 51 33 53
REMARK Flexibility Score: inf
ROOT
ATOM      1  C   UNL     1      -5.350  -0.342   9.510  1.00  0.00     0.180 C 
ATOM      2  C   UNL     1      -4.767  -1.449   8.575  1.00  0.00     0.177 C 
ATOM      3  C   UNL     1      -5.900  -2.365   8.084  1.00  0.00     0.180 C 
ATOM      4  C   UNL     1      -6.685  -2.968   9.278  1.00  0.00     0.214 C 
ATOM      5  C   UNL     1      -6.562  -2.111  10.566  1.00  0.00     0.339 C 
ATOM      6  O   UNL     1      -6.476  -0.725  10.297  1.00  0.00    -0.332 OA
ENDROOT
BRANCH   1   7
ATOM      7  C   UNL     1      -4.325   0.447  10.354  1.00  0.00     0.198 C 
BRANCH   7   8
ATOM      8  O   UNL     1      -3.885   1.627   9.697  1.00  0.00    -0.347 OA
BRANCH   8   9
ATOM      9  C   UNL     1      -2.887   1.320   8.738  1.00  0.00     0.281 C 
ATOM     10  C   UNL     1      -0.332  -1.305   8.841  1.00  0.00     0.041 C 
ATOM     11  C   UNL     1      -1.101  -0.107   8.279  1.00  0.00     0.150 C 
ATOM     12  C   UNL     1      -0.136   1.039   7.895  1.00  0.00     0.174 C 
ATOM     13  O   UNL     1      -2.014   0.332   9.269  1.00  0.00    -0.344 OA
ATOM     14  C   UNL     1      -0.948   2.259   7.421  1.00  0.00     0.179 C 
ATOM     15  C   UNL     1      -2.076   2.593   8.429  1.00  0.00     0.202 C 
BRANCH  12  16
ATOM     16  O   UNL     1       0.708   0.620   6.855  1.00  0.00    -0.388 OA
ATOM     17  H   UNL     1       1.613   0.473   7.237  1.00  0.00     0.211 HD
ENDBRANCH  12  16
BRANCH  14  18
ATOM     18  O   UNL     1      -0.109   3.372   7.210  1.00  0.00    -0.387 OA
ATOM     19  H   UNL     1       0.694   3.261   7.785  1.00  0.00     0.211 HD
ENDBRANCH  14  18
BRANCH  15  20
ATOM     20  O   UNL     1      -2.903   3.624   7.940  1.00  0.00    -0.385 OA
ATOM     21  H   UNL     1      -2.615   3.821   7.013  1.00  0.00     0.211 HD
ENDBRANCH  15  20
ENDBRANCH   8   9
ENDBRANCH   7   8
ENDBRANCH   1   7
BRANCH   2  22
ATOM     22  O   UNL     1      -3.799  -2.225   9.233  1.00  0.00    -0.387 OA
ATOM     23  H   UNL     1      -2.947  -2.120   8.727  1.00  0.00     0.211 HD
ENDBRANCH   2  22
BRANCH   3  24
ATOM     24  O   UNL     1      -6.750  -1.668   7.206  1.00  0.00    -0.387 OA
ATOM     25  H   UNL     1      -6.188  -1.096   6.619  1.00  0.00     0.211 HD
ENDBRANCH   3  24
BRANCH   5  26
ATOM     26  O   UNL     1      -5.465  -2.543  11.376  1.00  0.00    -0.454 OA
BRANCH  26  27
ATOM     27  C   UNL     1      -5.595  -3.270  12.574  1.00  0.00     0.214 A 
ATOM     28  C   UNL     1      -4.480  -3.382  13.423  1.00  0.00     0.180 A 
ATOM     29  C   UNL     1      -6.785  -3.932  12.936  1.00  0.00     0.239 A 
ATOM     30  O   UNL     1      -4.536  -4.150  14.507  1.00  0.00    -0.452 OA
ATOM     31  C   UNL     1      -6.804  -4.745  14.091  1.00  0.00     0.111 A 
ATOM     32  O   UNL     1      -7.826  -3.786  12.241  1.00  0.00    -0.285 OA
ATOM     33  C   UNL     1      -5.619  -4.828  14.862  1.00  0.00     0.146 A 
ATOM     34  C   UNL     1      -7.943  -5.483  14.495  1.00  0.00     0.134 A 
ATOM     35  C   UNL     1      -5.581  -5.625  16.008  1.00  0.00     0.094 A 
ATOM     36  C   UNL     1      -7.879  -6.286  15.645  1.00  0.00     0.093 A 
ATOM     37  C   UNL     1      -6.706  -6.361  16.398  1.00  0.00     0.123 A 
BRANCH  28  38
ATOM     38  C   UNL     1      -3.208  -2.706  13.100  1.00  0.00     0.025 A 
ATOM     39  C   UNL     1      -2.171  -3.389  12.437  1.00  0.00     0.062 A 
ATOM     40  C   UNL     1      -3.025  -1.358  13.464  1.00  0.00     0.016 A 
ATOM     41  C   UNL     1      -0.953  -2.746  12.165  1.00  0.00     0.158 A 
ATOM     42  C   UNL     1      -1.812  -0.714  13.191  1.00  0.00     0.051 A 
ATOM     43  C   UNL     1      -0.775  -1.399  12.547  1.00  0.00     0.157 A 
BRANCH  41  44
ATOM     44  O   UNL     1       0.079  -3.437  11.522  1.00  0.00    -0.504 OA
ATOM     45  H   UNL     1       0.058  -4.439  11.415  1.00  0.00     0.293 HD
ENDBRANCH  41  44
BRANCH  43  46
ATOM     46  O   UNL     1       0.427  -0.735  12.304  1.00  0.00    -0.504 OA
ATOM     47  H   UNL     1       1.326  -1.129  12.570  1.00  0.00     0.293 HD
ENDBRANCH  43  46
ENDBRANCH  28  38
BRANCH  34  48
ATOM     48  O   UNL     1      -9.128  -5.438  13.758  1.00  0.00    -0.507 OA
ATOM     49  H   UNL     1      -9.895  -6.076  13.945  1.00  0.00     0.293 HD
ENDBRANCH  34  48
BRANCH  37  50
ATOM     50  O   UNL     1      -6.669  -7.172  17.532  1.00  0.00    -0.508 OA
ATOM     51  H   UNL     1      -7.361  -7.083  18.269  1.00  0.00     0.293 HD
ENDBRANCH  37  50
ENDBRANCH  26  27
ENDBRANCH   5  26
BRANCH   4  52
ATOM     52  O   UNL     1      -6.232  -4.274   9.546  1.00  0.00    -0.384 OA
ATOM     53  H   UNL     1      -6.076  -4.708   8.670  1.00  0.00     0.211 HD
ENDBRANCH   4  52
TORSDOF 16
ENDMDL
MODEL 8
REMARK VINA RESULT:    -6.802      2.054      3.239
REMARK INTER + INTRA:         -13.029
REMARK INTER:                 -10.831
REMARK INTRA:                  -2.198
REMARK UNBOUND:                -1.853
REMARK SMILES C[C@H]1O[C@@H](OC[C@@H]2O[C@H](Oc3c(-c4ccc(O)c(O)c4)oc4cc(O)cc(O)c4c3=O)[C@H](O)[C@@H](O)[C@@H]2O)[C@H](O)[C@@H](O)[C@@H]1O
REMARK SMILES IDX 7 1 36 2 34 3 32 4 9 5 8 6 6 7 5 8 4 9 1 10 2 11 42 12 3 13
REMARK SMILES IDX 40 14 38 15 43 16 41 18 39 20 37 22 35 24 10 26 11 27 12 28
REMARK SMILES IDX 30 29 21 30 29 31 31 32 22 33 27 34 23 35 26 36 24 37 13 38
REMARK SMILES IDX 20 39 14 40 18 41 15 42 16 43 19 44 17 46 28 48 25 50 33 52
REMARK H PARENT 43 17 41 19 39 21 37 23 35 25 19 45 17 47 28 49 25 51 33 53
REMARK Flexibility Score: inf
ROOT
ATOM      1  C   UNL     1      -1.040  -2.390  10.878  1.00  0.00     0.180 C 
ATOM      2  C   UNL     1      -1.236  -0.912  11.344  1.00  0.00     0.177 C 
ATOM      3  C   UNL     1      -0.647  -0.727  12.751  1.00  0.00     0.180 C 
ATOM      4  C   UNL     1      -1.267  -1.738  13.751  1.00  0.00     0.214 C 
ATOM      5  C   UNL     1      -1.834  -3.000  13.049  1.00  0.00     0.339 C 
ATOM      6  O   UNL     1      -1.087  -3.375  11.908  1.00  0.00    -0.332 OA
ENDROOT
BRANCH   1   7
ATOM      7  C   UNL     1      -1.863  -2.832   9.648  1.00  0.00     0.198 C 
BRANCH   7   8
ATOM      8  O   UNL     1      -3.261  -2.784   9.894  1.00  0.00    -0.347 OA
BRANCH   8   9
ATOM      9  C   UNL     1      -3.932  -2.131   8.829  1.00  0.00     0.281 C 
ATOM     10  C   UNL     1      -4.397   1.459   8.266  1.00  0.00     0.041 C 
ATOM     11  C   UNL     1      -4.533  -0.040   7.992  1.00  0.00     0.150 C 
ATOM     12  C   UNL     1      -6.012  -0.429   7.764  1.00  0.00     0.174 C 
ATOM     13  O   UNL     1      -4.007  -0.739   9.105  1.00  0.00    -0.344 OA
ATOM     14  C   UNL     1      -6.121  -1.954   7.583  1.00  0.00     0.179 C 
ATOM     15  C   UNL     1      -5.360  -2.698   8.709  1.00  0.00     0.202 C 
BRANCH  12  16
ATOM     16  O   UNL     1      -6.497   0.204   6.610  1.00  0.00    -0.388 OA
ATOM     17  H   UNL     1      -6.933  -0.486   6.043  1.00  0.00     0.211 HD
ENDBRANCH  12  16
BRANCH  14  18
ATOM     18  O   UNL     1      -7.469  -2.360   7.528  1.00  0.00    -0.387 OA
ATOM     19  H   UNL     1      -8.035  -1.543   7.531  1.00  0.00     0.211 HD
ENDBRANCH  14  18
BRANCH  15  20
ATOM     20  O   UNL     1      -5.345  -4.087   8.479  1.00  0.00    -0.385 OA
ATOM     21  H   UNL     1      -6.284  -4.379   8.359  1.00  0.00     0.211 HD
ENDBRANCH  15  20
ENDBRANCH   8   9
ENDBRANCH   7   8
ENDBRANCH   1   7
BRANCH   2  22
ATOM     22  O   UNL     1      -2.593  -0.551  11.361  1.00  0.00    -0.387 OA
ATOM     23  H   UNL     1      -2.858  -0.363  10.419  1.00  0.00     0.211 HD
ENDBRANCH   2  22
BRANCH   3  24
ATOM     24  O   UNL     1       0.756  -0.832  12.715  1.00  0.00    -0.387 OA
ATOM     25  H   UNL     1       1.071  -0.475  11.842  1.00  0.00     0.211 HD
ENDBRANCH   3  24
BRANCH   5  26
ATOM     26  O   UNL     1      -3.217  -2.837  12.722  1.00  0.00    -0.454 OA
BRANCH  26  27
ATOM     27  C   UNL     1      -4.282  -3.386  13.461  1.00  0.00     0.214 A 
ATOM     28  C   UNL     1      -5.424  -2.598  13.692  1.00  0.00     0.180 A 
ATOM     29  C   UNL     1      -4.232  -4.678  14.020  1.00  0.00     0.239 A 
ATOM     30  O   UNL     1      -6.400  -3.045  14.475  1.00  0.00    -0.452 OA
ATOM     31  C   UNL     1      -5.286  -5.116  14.853  1.00  0.00     0.111 A 
ATOM     32  O   UNL     1      -3.262  -5.440  13.765  1.00  0.00    -0.285 OA
ATOM     33  C   UNL     1      -6.375  -4.235  15.060  1.00  0.00     0.146 A 
ATOM     34  C   UNL     1      -5.288  -6.379  15.494  1.00  0.00     0.134 A 
ATOM     35  C   UNL     1      -7.439  -4.615  15.882  1.00  0.00     0.094 A 
ATOM     36  C   UNL     1      -6.363  -6.735  16.324  1.00  0.00     0.093 A 
ATOM     37  C   UNL     1      -7.432  -5.860  16.521  1.00  0.00     0.123 A 
BRANCH  28  38
ATOM     38  C   UNL     1      -5.536  -1.239  13.127  1.00  0.00     0.025 A 
ATOM     39  C   UNL     1      -5.013  -0.124  13.808  1.00  0.00     0.062 A 
ATOM     40  C   UNL     1      -6.179  -1.052  11.888  1.00  0.00     0.016 A 
ATOM     41  C   UNL     1      -5.156   1.168  13.278  1.00  0.00     0.158 A 
ATOM     42  C   UNL     1      -6.320   0.235  11.357  1.00  0.00     0.051 A 
ATOM     43  C   UNL     1      -5.815   1.346  12.044  1.00  0.00     0.157 A 
BRANCH  41  44
ATOM     44  O   UNL     1      -4.649   2.272  13.971  1.00  0.00    -0.504 OA
ATOM     45  H   UNL     1      -4.896   3.215  13.716  1.00  0.00     0.293 HD
ENDBRANCH  41  44
BRANCH  43  46
ATOM     46  O   UNL     1      -5.985   2.616  11.495  1.00  0.00    -0.504 OA
ATOM     47  H   UNL     1      -6.457   2.762  10.606  1.00  0.00     0.293 HD
ENDBRANCH  43  46
ENDBRANCH  28  38
BRANCH  34  48
ATOM     48  O   UNL     1      -4.229  -7.272  15.325  1.00  0.00    -0.507 OA
ATOM     49  H   UNL     1      -3.318  -6.962  14.999  1.00  0.00     0.293 HD
ENDBRANCH  34  48
BRANCH  37  50
ATOM     50  O   UNL     1      -8.483  -6.238  17.357  1.00  0.00    -0.508 OA
ATOM     51  H   UNL     1      -9.433  -5.923  17.189  1.00  0.00     0.293 HD
ENDBRANCH  37  50
ENDBRANCH  26  27
ENDBRANCH   5  26
BRANCH   4  52
ATOM     52  O   UNL     1      -2.292  -1.120  14.492  1.00  0.00    -0.384 OA
ATOM     53  H   UNL     1      -2.521  -0.280  14.019  1.00  0.00     0.211 HD
ENDBRANCH   4  52
TORSDOF 16
ENDMDL
MODEL 9
REMARK VINA RESULT:    -6.724      1.970      9.168
REMARK INTER + INTRA:         -12.900
REMARK INTER:                 -11.435
REMARK INTRA:                  -1.465
REMARK UNBOUND:                -1.853
REMARK SMILES C[C@H]1O[C@@H](OC[C@@H]2O[C@H](Oc3c(-c4ccc(O)c(O)c4)oc4cc(O)cc(O)c4c3=O)[C@H](O)[C@@H](O)[C@@H]2O)[C@H](O)[C@@H](O)[C@@H]1O
REMARK SMILES IDX 7 1 36 2 34 3 32 4 9 5 8 6 6 7 5 8 4 9 1 10 2 11 42 12 3 13
REMARK SMILES IDX 40 14 38 15 43 16 41 18 39 20 37 22 35 24 10 26 11 27 12 28
REMARK SMILES IDX 30 29 21 30 29 31 31 32 22 33 27 34 23 35 26 36 24 37 13 38
REMARK SMILES IDX 20 39 14 40 18 41 15 42 16 43 19 44 17 46 28 48 25 50 33 52
REMARK H PARENT 43 17 41 19 39 21 37 23 35 25 19 45 17 47 28 49 25 51 33 53
REMARK Flexibility Score: inf
ROOT
ATOM      1  C   UNL     1      -5.942  -2.767  12.101  1.00  0.00     0.180 C 
ATOM      2  C   UNL     1      -7.156  -2.435  11.176  1.00  0.00     0.177 C 
ATOM      3  C   UNL     1      -7.048  -3.233   9.868  1.00  0.00     0.180 C 
ATOM      4  C   UNL     1      -5.692  -2.964   9.164  1.00  0.00     0.214 C 
ATOM      5  C   UNL     1      -4.594  -2.480  10.148  1.00  0.00     0.339 C 
ATOM      6  O   UNL     1      -4.717  -3.058  11.433  1.00  0.00    -0.332 OA
ENDROOT
BRANCH   1   7
ATOM      7  C   UNL     1      -5.712  -1.814  13.294  1.00  0.00     0.198 C 
BRANCH   7   8
ATOM      8  O   UNL     1      -5.279  -2.505  14.457  1.00  0.00    -0.347 OA
BRANCH   8   9
ATOM      9  C   UNL     1      -5.863  -3.795  14.515  1.00  0.00     0.281 C 
ATOM     10  C   UNL     1      -8.692  -4.946  16.540  1.00  0.00     0.041 C 
ATOM     11  C   UNL     1      -7.538  -5.052  15.541  1.00  0.00     0.150 C 
ATOM     12  C   UNL     1      -6.594  -6.221  15.907  1.00  0.00     0.174 C 
ATOM     13  O   UNL     1      -6.829  -3.826  15.558  1.00  0.00    -0.344 OA
ATOM     14  C   UNL     1      -5.399  -6.242  14.936  1.00  0.00     0.179 C 
ATOM     15  C   UNL     1      -4.765  -4.833  14.817  1.00  0.00     0.202 C 
BRANCH  12  16
ATOM     16  O   UNL     1      -7.286  -7.438  15.804  1.00  0.00    -0.388 OA
ATOM     17  H   UNL     1      -7.816  -7.418  14.964  1.00  0.00     0.211 HD
ENDBRANCH  12  16
BRANCH  14  18
ATOM     18  O   UNL     1      -4.443  -7.197  15.335  1.00  0.00    -0.387 OA
ATOM     19  H   UNL     1      -3.984  -6.850  16.145  1.00  0.00     0.211 HD
ENDBRANCH  14  18
BRANCH  15  20
ATOM     20  O   UNL     1      -3.755  -4.814  13.835  1.00  0.00    -0.385 OA
ATOM     21  H   UNL     1      -4.042  -5.414  13.102  1.00  0.00     0.211 HD
ENDBRANCH  15  20
ENDBRANCH   8   9
ENDBRANCH   7   8
ENDBRANCH   1   7
BRANCH   2  22
ATOM     22  O   UNL     1      -7.219  -1.064  10.877  1.00  0.00    -0.387 OA
ATOM     23  H   UNL     1      -7.515  -0.597  11.707  1.00  0.00     0.211 HD
ENDBRANCH   2  22
BRANCH   3  24
ATOM     24  O   UNL     1      -7.241  -4.605  10.111  1.00  0.00    -0.387 OA
ATOM     25  H   UNL     1      -8.219  -4.775  10.170  1.00  0.00     0.211 HD
ENDBRANCH   3  24
BRANCH   5  26
ATOM     26  O   UNL     1      -4.563  -1.052  10.231  1.00  0.00    -0.454 OA
BRANCH  26  27
ATOM     27  C   UNL     1      -3.649  -0.232   9.543  1.00  0.00     0.214 A 
ATOM     28  C   UNL     1      -2.396   0.024  10.127  1.00  0.00     0.180 A 
ATOM     29  C   UNL     1      -3.956   0.382   8.312  1.00  0.00     0.239 A 
ATOM     30  O   UNL     1      -1.552   0.879   9.558  1.00  0.00    -0.452 OA
ATOM     31  C   UNL     1      -3.037   1.290   7.741  1.00  0.00     0.111 A 
ATOM     32  O   UNL     1      -5.035   0.110   7.722  1.00  0.00    -0.285 OA
ATOM     33  C   UNL     1      -1.818   1.515   8.425  1.00  0.00     0.146 A 
ATOM     34  C   UNL     1      -3.292   1.987   6.535  1.00  0.00     0.134 A 
ATOM     35  C   UNL     1      -0.878   2.411   7.908  1.00  0.00     0.094 A 
ATOM     36  C   UNL     1      -2.337   2.890   6.040  1.00  0.00     0.093 A 
ATOM     37  C   UNL     1      -1.138   3.105   6.721  1.00  0.00     0.123 A 
BRANCH  28  38
ATOM     38  C   UNL     1      -2.015  -0.596  11.412  1.00  0.00     0.025 A 
ATOM     39  C   UNL     1      -2.706  -0.287  12.600  1.00  0.00     0.062 A 
ATOM     40  C   UNL     1      -0.944  -1.509  11.453  1.00  0.00     0.016 A 
ATOM     41  C   UNL     1      -2.313  -0.856  13.821  1.00  0.00     0.158 A 
ATOM     42  C   UNL     1      -0.554  -2.080  12.670  1.00  0.00     0.051 A 
ATOM     43  C   UNL     1      -1.228  -1.758  13.854  1.00  0.00     0.157 A 
BRANCH  41  44
ATOM     44  O   UNL     1      -2.992  -0.529  14.999  1.00  0.00    -0.504 OA
ATOM     45  H   UNL     1      -3.836  -1.007  15.274  1.00  0.00     0.293 HD
ENDBRANCH  41  44
BRANCH  43  46
ATOM     46  O   UNL     1      -0.805  -2.332  15.052  1.00  0.00    -0.504 OA
ATOM     47  H   UNL     1      -0.127  -1.878  15.659  1.00  0.00     0.293 HD
ENDBRANCH  43  46
ENDBRANCH  28  38
BRANCH  34  48
ATOM     48  O   UNL     1      -4.486   1.802   5.836  1.00  0.00    -0.507 OA
ATOM     49  H   UNL     1      -5.186   2.535   5.776  1.00  0.00     0.293 HD
ENDBRANCH  34  48
BRANCH  37  50
ATOM     50  O   UNL     1      -0.211   4.013   6.209  1.00  0.00    -0.508 OA
ATOM     51  H   UNL     1       0.188   4.745   6.787  1.00  0.00     0.293 HD
ENDBRANCH  37  50
ENDBRANCH  26  27
ENDBRANCH   5  26
BRANCH   4  52
ATOM     52  O   UNL     1      -5.856  -2.007   8.145  1.00  0.00    -0.384 OA
ATOM     53  H   UNL     1      -6.814  -1.755   8.139  1.00  0.00     0.211 HD
ENDBRANCH   4  52
TORSDOF 16
ENDMDL
