MODEL 1
REMARK VINA RESULT:    26.106      0.000      0.000
REMARK INTER + INTRA:          67.644
REMARK INTER:                  65.786
REMARK INTRA:                   1.858
REMARK UNBOUND:                 1.858
REMARK SMILES CCCCCCCCCCCCCCCCCCCCCCCCCCCC(=O)[O-]
REMARK SMILES IDX 15 1 16 2 17 3 18 4 19 5 20 6 21 7 22 8 23 9 24 10 25 11
REMARK SMILES IDX 26 12 27 13 28 14 29 15 30 16 14 17 13 18 12 19 11 20 10 21
REMARK SMILES IDX 9 22 8 23 7 24 6 25 5 26 4 27 3 28 2 29 1 30
REMARK H PARENT
REMARK Flexibility Score: inf
ROOT
ATOM      1  C   UNL     1      55.543  49.097  17.663  1.00  0.00     0.000 C 
ENDROOT
BRANCH   1   2
ATOM      2  C   UNL     1      56.879  48.369  17.915  1.00  0.00     0.000 C 
BRANCH   2   3
ATOM      3  C   UNL     1      56.935  47.529  19.206  1.00  0.00     0.000 C 
BRANCH   3   4
ATOM      4  C   UNL     1      55.908  47.981  20.255  1.00  0.00     0.000 C 
BRANCH   4   5
ATOM      5  C   UNL     1      56.526  48.002  21.662  1.00  0.00     0.000 C 
BRANCH   5   6
ATOM      6  C   UNL     1      57.343  46.738  21.974  1.00  0.00     0.000 C 
BRANCH   6   7
ATOM      7  C   UNL     1      56.621  45.442  21.559  1.00  0.00     0.000 C 
BRANCH   7   8
ATOM      8  C   UNL     1      55.651  45.656  20.386  1.00  0.00     0.000 C 
BRANCH   8   9
ATOM      9  C   UNL     1      54.918  44.366  19.983  1.00  0.00     0.000 C 
BRANCH   9  10
ATOM     10  C   UNL     1      55.693  43.097  20.378  1.00  0.00     0.000 C 
BRANCH  10  11
ATOM     11  C   UNL     1      54.815  41.866  20.680  1.00  0.00     0.000 C 
BRANCH  11  12
ATOM     12  C   UNL     1      55.515  40.744  21.466  1.00  0.00     0.006 C 
BRANCH  12  13
ATOM     13  C   UNL     1      55.742  39.477  20.630  1.00  0.00     0.053 C 
BRANCH  13  14
ATOM     14  C   UNL     1      56.964  38.745  21.095  1.00  0.00     0.041 C 
ATOM     15  O   UNL     1      56.871  37.843  21.970  1.00  0.00    -0.550 OA
ATOM     16  O   UNL     1      58.205  39.049  20.550  1.00  0.00    -0.550 OA
ENDBRANCH  13  14
ENDBRANCH  12  13
ENDBRANCH  11  12
ENDBRANCH  10  11
ENDBRANCH   9  10
ENDBRANCH   8   9
ENDBRANCH   7   8
ENDBRANCH   6   7
ENDBRANCH   5   6
ENDBRANCH   4   5
ENDBRANCH   3   4
ENDBRANCH   2   3
ENDBRANCH   1   2
BRANCH   1  17
ATOM     17  C   UNL     1      55.189  49.339  16.183  1.00  0.00     0.000 C 
BRANCH  17  18
ATOM     18  C   UNL     1      55.600  50.729  15.653  1.00  0.00     0.000 C 
BRANCH  18  19
ATOM     19  C   UNL     1      56.014  51.703  16.772  1.00  0.00     0.000 C 
BRANCH  19  20
ATOM     20  C   UNL     1      54.859  52.027  17.738  1.00  0.00     0.000 C 
BRANCH  20  21
ATOM     21  C   UNL     1      55.199  53.171  18.710  1.00  0.00     0.000 C 
BRANCH  21  22
ATOM     22  C   UNL     1      55.778  52.663  20.045  1.00  0.00    -0.000 C 
BRANCH  22  23
ATOM     23  C   UNL     1      54.731  52.441  21.152  1.00  0.00    -0.000 C 
BRANCH  23  24
ATOM     24  C   UNL     1      53.667  53.552  21.194  1.00  0.00    -0.000 C 
BRANCH  24  25
ATOM     25  C   UNL     1      53.375  54.039  22.622  1.00  0.00    -0.000 C 
BRANCH  25  26
ATOM     26  C   UNL     1      54.426  55.036  23.133  1.00  0.00    -0.000 C 
BRANCH  26  27
ATOM     27  C   UNL     1      53.954  55.713  24.429  1.00  0.00    -0.000 C 
BRANCH  27  28
ATOM     28  C   UNL     1      54.985  56.705  24.993  1.00  0.00    -0.000 C 
BRANCH  28  29
ATOM     29  C   UNL     1      56.425  56.350  24.594  1.00  0.00    -0.003 C 
ATOM     30  C   UNL     1      57.260  55.973  25.816  1.00  0.00     0.004 C 
ENDBRANCH  28  29
ENDBRANCH  27  28
ENDBRANCH  26  27
ENDBRANCH  25  26
ENDBRANCH  24  25
ENDBRANCH  23  24
ENDBRANCH  22  23
ENDBRANCH  21  22
ENDBRANCH  20  21
ENDBRANCH  19  20
ENDBRANCH  18  19
ENDBRANCH  17  18
ENDBRANCH   1  17
TORSDOF 26
ENDMDL
MODEL 2
REMARK VINA RESULT:    27.778      4.831     11.332
REMARK INTER + INTRA:          71.857
REMARK INTER:                  71.855
REMARK INTRA:                   0.003
REMARK UNBOUND:                 1.858
REMARK SMILES CCCCCCCCCCCCCCCCCCCCCCCCCCCC(=O)[O-]
REMARK SMILES IDX 15 1 16 2 17 3 18 4 19 5 20 6 21 7 22 8 23 9 24 10 25 11
REMARK SMILES IDX 26 12 27 13 28 14 29 15 30 16 14 17 13 18 12 19 11 20 10 21
REMARK SMILES IDX 9 22 8 23 7 24 6 25 5 26 4 27 3 28 2 29 1 30
REMARK H PARENT
REMARK Flexibility Score: inf
ROOT
ATOM      1  C   UNL     1      54.487  49.556  15.808  1.00  0.00     0.000 C 
ENDROOT
BRANCH   1   2
ATOM      2  C   UNL     1      55.160  50.935  15.667  1.00  0.00     0.000 C 
BRANCH   2   3
ATOM      3  C   UNL     1      54.872  51.927  16.811  1.00  0.00     0.000 C 
BRANCH   3   4
ATOM      4  C   UNL     1      56.148  52.408  17.516  1.00  0.00     0.000 C 
BRANCH   4   5
ATOM      5  C   UNL     1      55.814  53.315  18.711  1.00  0.00     0.000 C 
BRANCH   5   6
ATOM      6  C   UNL     1      54.832  52.662  19.699  1.00  0.00     0.000 C 
BRANCH   6   7
ATOM      7  C   UNL     1      54.939  53.246  21.120  1.00  0.00     0.000 C 
BRANCH   7   8
ATOM      8  C   UNL     1      53.692  52.958  21.972  1.00  0.00     0.000 C 
BRANCH   8   9
ATOM      9  C   UNL     1      53.247  54.177  22.798  1.00  0.00     0.000 C 
BRANCH   9  10
ATOM     10  C   UNL     1      54.163  55.396  22.595  1.00  0.00     0.000 C 
BRANCH  10  11
ATOM     11  C   UNL     1      54.184  56.396  23.768  1.00  0.00     0.000 C 
BRANCH  11  12
ATOM     12  C   UNL     1      54.105  55.761  25.168  1.00  0.00     0.006 C 
BRANCH  12  13
ATOM     13  C   UNL     1      55.481  55.390  25.738  1.00  0.00     0.053 C 
BRANCH  13  14
ATOM     14  C   UNL     1      56.527  56.356  25.272  1.00  0.00     0.041 C 
ATOM     15  O   UNL     1      57.302  56.904  26.102  1.00  0.00    -0.550 OA
ATOM     16  O   UNL     1      56.658  56.640  23.918  1.00  0.00    -0.550 OA
ENDBRANCH  13  14
ENDBRANCH  12  13
ENDBRANCH  11  12
ENDBRANCH  10  11
ENDBRANCH   9  10
ENDBRANCH   8   9
ENDBRANCH   7   8
ENDBRANCH   6   7
ENDBRANCH   5   6
ENDBRANCH   4   5
ENDBRANCH   3   4
ENDBRANCH   2   3
ENDBRANCH   1   2
BRANCH   1  17
ATOM     17  C   UNL     1      55.070  48.642  16.904  1.00  0.00     0.000 C 
BRANCH  17  18
ATOM     18  C   UNL     1      56.608  48.687  17.012  1.00  0.00     0.000 C 
BRANCH  18  19
ATOM     19  C   UNL     1      57.138  48.100  18.333  1.00  0.00     0.000 C 
BRANCH  19  20
ATOM     20  C   UNL     1      56.017  47.806  19.347  1.00  0.00     0.000 C 
BRANCH  20  21
ATOM     21  C   UNL     1      56.208  48.552  20.679  1.00  0.00     0.000 C 
BRANCH  21  22
ATOM     22  C   UNL     1      57.231  47.863  21.603  1.00  0.00    -0.000 C 
BRANCH  22  23
ATOM     23  C   UNL     1      56.742  46.542  22.225  1.00  0.00    -0.000 C 
BRANCH  23  24
ATOM     24  C   UNL     1      55.914  45.695  21.243  1.00  0.00    -0.000 C 
BRANCH  24  25
ATOM     25  C   UNL     1      56.621  44.390  20.845  1.00  0.00    -0.000 C 
BRANCH  25  26
ATOM     26  C   UNL     1      55.654  43.344  20.270  1.00  0.00    -0.000 C 
BRANCH  26  27
ATOM     27  C   UNL     1      56.059  41.926  20.702  1.00  0.00    -0.000 C 
BRANCH  27  28
ATOM     28  C   UNL     1      54.850  41.026  21.004  1.00  0.00    -0.000 C 
BRANCH  28  29
ATOM     29  C   UNL     1      55.258  39.668  21.593  1.00  0.00    -0.003 C 
ATOM     30  C   UNL     1      56.440  39.069  20.835  1.00  0.00     0.004 C 
ENDBRANCH  28  29
ENDBRANCH  27  28
ENDBRANCH  26  27
ENDBRANCH  25  26
ENDBRANCH  24  25
ENDBRANCH  23  24
ENDBRANCH  22  23
ENDBRANCH  21  22
ENDBRANCH  20  21
ENDBRANCH  19  20
ENDBRANCH  18  19
ENDBRANCH  17  18
ENDBRANCH   1  17
TORSDOF 26
ENDMDL
MODEL 3
REMARK VINA RESULT:    28.048      5.110     10.422
REMARK INTER + INTRA:          72.537
REMARK INTER:                  72.347
REMARK INTRA:                   0.190
REMARK UNBOUND:                 1.858
REMARK SMILES CCCCCCCCCCCCCCCCCCCCCCCCCCCC(=O)[O-]
REMARK SMILES IDX 15 1 16 2 17 3 18 4 19 5 20 6 21 7 22 8 23 9 24 10 25 11
REMARK SMILES IDX 26 12 27 13 28 14 29 15 30 16 14 17 13 18 12 19 11 20 10 21
REMARK SMILES IDX 9 22 8 23 7 24 6 25 5 26 4 27 3 28 2 29 1 30
REMARK H PARENT
REMARK Flexibility Score: inf
ROOT
ATOM      1  C   UNL     1      55.506  52.917  19.852  1.00  0.00     0.000 C 
ENDROOT
BRANCH   1   2
ATOM      2  C   UNL     1      54.189  52.783  20.641  1.00  0.00     0.000 C 
BRANCH   2   3
ATOM      3  C   UNL     1      54.215  53.364  22.068  1.00  0.00     0.000 C 
BRANCH   3   4
ATOM      4  C   UNL     1      53.137  54.433  22.296  1.00  0.00     0.000 C 
BRANCH   4   5
ATOM      5  C   UNL     1      53.291  55.091  23.676  1.00  0.00     0.000 C 
BRANCH   5   6
ATOM      6  C   UNL     1      54.162  56.358  23.640  1.00  0.00     0.000 C 
BRANCH   6   7
ATOM      7  C   UNL     1      55.669  56.044  23.609  1.00  0.00     0.000 C 
BRANCH   7   8
ATOM      8  C   UNL     1      56.281  55.946  25.016  1.00  0.00     0.000 C 
BRANCH   8   9
ATOM      9  C   UNL     1      55.471  56.724  26.068  1.00  0.00     0.000 C 
BRANCH   9  10
ATOM     10  C   UNL     1      53.977  56.357  26.053  1.00  0.00     0.000 C 
BRANCH  10  11
ATOM     11  C   UNL     1      53.466  55.659  27.330  1.00  0.00     0.000 C 
BRANCH  11  12
ATOM     12  C   UNL     1      52.930  54.232  27.122  1.00  0.00     0.006 C 
BRANCH  12  13
ATOM     13  C   UNL     1      52.804  53.442  28.432  1.00  0.00     0.053 C 
BRANCH  13  14
ATOM     14  C   UNL     1      51.400  52.961  28.630  1.00  0.00     0.041 C 
ATOM     15  O   UNL     1      51.149  51.726  28.666  1.00  0.00    -0.550 OA
ATOM     16  O   UNL     1      50.368  53.877  28.791  1.00  0.00    -0.550 OA
ENDBRANCH  13  14
ENDBRANCH  12  13
ENDBRANCH  11  12
ENDBRANCH  10  11
ENDBRANCH   9  10
ENDBRANCH   8   9
ENDBRANCH   7   8
ENDBRANCH   6   7
ENDBRANCH   5   6
ENDBRANCH   4   5
ENDBRANCH   3   4
ENDBRANCH   2   3
ENDBRANCH   1   2
BRANCH   1  17
ATOM     17  C   UNL     1      55.387  52.745  18.325  1.00  0.00     0.000 C 
BRANCH  17  18
ATOM     18  C   UNL     1      54.852  51.366  17.885  1.00  0.00     0.000 C 
BRANCH  18  19
ATOM     19  C   UNL     1      54.284  51.368  16.454  1.00  0.00     0.000 C 
BRANCH  19  20
ATOM     20  C   UNL     1      54.882  50.255  15.573  1.00  0.00     0.000 C 
BRANCH  20  21
ATOM     21  C   UNL     1      56.336  49.917  15.946  1.00  0.00     0.000 C 
BRANCH  21  22
ATOM     22  C   UNL     1      56.523  48.433  16.316  1.00  0.00    -0.000 C 
BRANCH  22  23
ATOM     23  C   UNL     1      57.674  48.159  17.302  1.00  0.00    -0.000 C 
BRANCH  23  24
ATOM     24  C   UNL     1      57.192  47.507  18.609  1.00  0.00    -0.000 C 
BRANCH  24  25
ATOM     25  C   UNL     1      55.906  48.151  19.153  1.00  0.00    -0.000 C 
BRANCH  25  26
ATOM     26  C   UNL     1      55.836  48.127  20.687  1.00  0.00    -0.000 C 
BRANCH  26  27
ATOM     27  C   UNL     1      56.442  46.828  21.244  1.00  0.00    -0.000 C 
BRANCH  27  28
ATOM     28  C   UNL     1      57.208  47.044  22.559  1.00  0.00    -0.000 C 
BRANCH  28  29
ATOM     29  C   UNL     1      58.261  48.157  22.454  1.00  0.00    -0.003 C 
ATOM     30  C   UNL     1      59.658  47.578  22.244  1.00  0.00     0.004 C 
ENDBRANCH  28  29
ENDBRANCH  27  28
ENDBRANCH  26  27
ENDBRANCH  25  26
ENDBRANCH  24  25
ENDBRANCH  23  24
ENDBRANCH  22  23
ENDBRANCH  21  22
ENDBRANCH  20  21
ENDBRANCH  19  20
ENDBRANCH  18  19
ENDBRANCH  17  18
ENDBRANCH   1  17
TORSDOF 26
ENDMDL
MODEL 4
REMARK VINA RESULT:    28.272      4.761     11.965
REMARK INTER + INTRA:          73.102
REMARK INTER:                  74.065
REMARK INTRA:                  -0.963
REMARK UNBOUND:                 1.858
REMARK SMILES CCCCCCCCCCCCCCCCCCCCCCCCCCCC(=O)[O-]
REMARK SMILES IDX 15 1 16 2 17 3 18 4 19 5 20 6 21 7 22 8 23 9 24 10 25 11
REMARK SMILES IDX 26 12 27 13 28 14 29 15 30 16 14 17 13 18 12 19 11 20 10 21
REMARK SMILES IDX 9 22 8 23 7 24 6 25 5 26 4 27 3 28 2 29 1 30
REMARK H PARENT
REMARK Flexibility Score: inf
ROOT
ATOM      1  C   UNL     1      55.656  48.828  17.756  1.00  0.00     0.000 C 
ENDROOT
BRANCH   1   2
ATOM      2  C   UNL     1      56.287  49.236  16.411  1.00  0.00     0.000 C 
BRANCH   2   3
ATOM      3  C   UNL     1      55.354  50.004  15.454  1.00  0.00     0.000 C 
BRANCH   3   4
ATOM      4  C   UNL     1      54.497  51.055  16.174  1.00  0.00     0.000 C 
BRANCH   4   5
ATOM      5  C   UNL     1      55.362  51.959  17.066  1.00  0.00     0.000 C 
BRANCH   5   6
ATOM      6  C   UNL     1      54.638  52.400  18.349  1.00  0.00     0.000 C 
BRANCH   6   7
ATOM      7  C   UNL     1      55.558  53.159  19.323  1.00  0.00     0.000 C 
BRANCH   7   8
ATOM      8  C   UNL     1      55.348  52.736  20.786  1.00  0.00     0.000 C 
BRANCH   8   9
ATOM      9  C   UNL     1      54.112  53.397  21.421  1.00  0.00     0.000 C 
BRANCH   9  10
ATOM     10  C   UNL     1      54.472  54.305  22.609  1.00  0.00     0.000 C 
BRANCH  10  11
ATOM     11  C   UNL     1      53.284  54.699  23.510  1.00  0.00     0.000 C 
BRANCH  11  12
ATOM     12  C   UNL     1      53.523  55.929  24.403  1.00  0.00     0.006 C 
BRANCH  12  13
ATOM     13  C   UNL     1      54.696  56.798  23.928  1.00  0.00     0.053 C 
BRANCH  13  14
ATOM     14  C   UNL     1      55.919  56.536  24.750  1.00  0.00     0.041 C 
ATOM     15  O   UNL     1      55.975  56.921  25.949  1.00  0.00    -0.550 OA
ATOM     16  O   UNL     1      56.995  55.851  24.198  1.00  0.00    -0.550 OA
ENDBRANCH  13  14
ENDBRANCH  12  13
ENDBRANCH  11  12
ENDBRANCH  10  11
ENDBRANCH   9  10
ENDBRANCH   8   9
ENDBRANCH   7   8
ENDBRANCH   6   7
ENDBRANCH   5   6
ENDBRANCH   4   5
ENDBRANCH   3   4
ENDBRANCH   2   3
ENDBRANCH   1   2
BRANCH   1  17
ATOM     17  C   UNL     1      56.517  47.906  18.641  1.00  0.00     0.000 C 
BRANCH  17  18
ATOM     18  C   UNL     1      55.787  47.363  19.887  1.00  0.00     0.000 C 
BRANCH  18  19
ATOM     19  C   UNL     1      56.416  47.839  21.210  1.00  0.00     0.000 C 
BRANCH  19  20
ATOM     20  C   UNL     1      57.700  47.070  21.571  1.00  0.00     0.000 C 
BRANCH  20  21
ATOM     21  C   UNL     1      57.769  46.693  23.062  1.00  0.00     0.000 C 
BRANCH  21  22
ATOM     22  C   UNL     1      57.319  45.243  23.328  1.00  0.00    -0.000 C 
BRANCH  22  23
ATOM     23  C   UNL     1      56.925  44.454  22.065  1.00  0.00    -0.000 C 
BRANCH  23  24
ATOM     24  C   UNL     1      56.136  43.174  22.389  1.00  0.00    -0.000 C 
BRANCH  24  25
ATOM     25  C   UNL     1      56.111  42.181  21.216  1.00  0.00    -0.000 C 
BRANCH  25  26
ATOM     26  C   UNL     1      54.856  41.295  21.218  1.00  0.00    -0.000 C 
BRANCH  26  27
ATOM     27  C   UNL     1      55.078  40.029  20.374  1.00  0.00    -0.000 C 
BRANCH  27  28
ATOM     28  C   UNL     1      56.458  39.392  20.607  1.00  0.00    -0.000 C 
BRANCH  28  29
ATOM     29  C   UNL     1      56.384  38.119  21.463  1.00  0.00    -0.003 C 
ATOM     30  C   UNL     1      57.693  37.335  21.403  1.00  0.00     0.004 C 
ENDBRANCH  28  29
ENDBRANCH  27  28
ENDBRANCH  26  27
ENDBRANCH  25  26
ENDBRANCH  24  25
ENDBRANCH  23  24
ENDBRANCH  22  23
ENDBRANCH  21  22
ENDBRANCH  20  21
ENDBRANCH  19  20
ENDBRANCH  18  19
ENDBRANCH  17  18
ENDBRANCH   1  17
TORSDOF 26
ENDMDL
MODEL 5
REMARK VINA RESULT:    28.586      4.950     11.847
REMARK INTER + INTRA:          73.894
REMARK INTER:                  73.479
REMARK INTRA:                   0.415
REMARK UNBOUND:                 1.858
REMARK SMILES CCCCCCCCCCCCCCCCCCCCCCCCCCCC(=O)[O-]
REMARK SMILES IDX 15 1 16 2 17 3 18 4 19 5 20 6 21 7 22 8 23 9 24 10 25 11
REMARK SMILES IDX 26 12 27 13 28 14 29 15 30 16 14 17 13 18 12 19 11 20 10 21
REMARK SMILES IDX 9 22 8 23 7 24 6 25 5 26 4 27 3 28 2 29 1 30
REMARK H PARENT
REMARK Flexibility Score: inf
ROOT
ATOM      1  C   UNL     1      54.529  49.855  20.267  1.00  0.00     0.000 C 
ENDROOT
BRANCH   1   2
ATOM      2  C   UNL     1      54.872  51.329  20.557  1.00  0.00     0.000 C 
BRANCH   2   3
ATOM      3  C   UNL     1      53.984  52.014  21.615  1.00  0.00     0.000 C 
BRANCH   3   4
ATOM      4  C   UNL     1      54.360  53.486  21.843  1.00  0.00     0.000 C 
BRANCH   4   5
ATOM      5  C   UNL     1      53.239  54.236  22.580  1.00  0.00     0.000 C 
BRANCH   5   6
ATOM      6  C   UNL     1      53.764  55.398  23.440  1.00  0.00     0.000 C 
BRANCH   6   7
ATOM      7  C   UNL     1      55.290  55.577  23.334  1.00  0.00     0.000 C 
BRANCH   7   8
ATOM      8  C   UNL     1      55.948  55.855  24.695  1.00  0.00     0.000 C 
BRANCH   8   9
ATOM      9  C   UNL     1      55.017  56.613  25.658  1.00  0.00     0.000 C 
BRANCH   9  10
ATOM     10  C   UNL     1      53.570  56.094  25.612  1.00  0.00     0.000 C 
BRANCH  10  11
ATOM     11  C   UNL     1      53.133  55.278  26.845  1.00  0.00     0.000 C 
BRANCH  11  12
ATOM     12  C   UNL     1      53.767  53.881  26.962  1.00  0.00     0.006 C 
BRANCH  12  13
ATOM     13  C   UNL     1      52.758  52.796  27.361  1.00  0.00     0.053 C 
BRANCH  13  14
ATOM     14  C   UNL     1      51.959  53.225  28.553  1.00  0.00     0.041 C 
ATOM     15  O   UNL     1      52.409  54.102  29.339  1.00  0.00    -0.550 OA
ATOM     16  O   UNL     1      50.707  52.669  28.787  1.00  0.00    -0.550 OA
ENDBRANCH  13  14
ENDBRANCH  12  13
ENDBRANCH  11  12
ENDBRANCH  10  11
ENDBRANCH   9  10
ENDBRANCH   8   9
ENDBRANCH   7   8
ENDBRANCH   6   7
ENDBRANCH   5   6
ENDBRANCH   4   5
ENDBRANCH   3   4
ENDBRANCH   2   3
ENDBRANCH   1   2
BRANCH   1  17
ATOM     17  C   UNL     1      55.148  49.269  18.983  1.00  0.00     0.000 C 
BRANCH  17  18
ATOM     18  C   UNL     1      56.069  48.055  19.222  1.00  0.00     0.000 C 
BRANCH  18  19
ATOM     19  C   UNL     1      56.133  47.627  20.700  1.00  0.00     0.000 C 
BRANCH  19  20
ATOM     20  C   UNL     1      57.525  47.838  21.322  1.00  0.00     0.000 C 
BRANCH  20  21
ATOM     21  C   UNL     1      57.789  46.908  22.520  1.00  0.00     0.000 C 
BRANCH  21  22
ATOM     22  C   UNL     1      56.506  46.233  23.040  1.00  0.00    -0.000 C 
BRANCH  22  23
ATOM     23  C   UNL     1      56.623  44.712  23.248  1.00  0.00    -0.000 C 
BRANCH  23  24
ATOM     24  C   UNL     1      57.302  44.002  22.063  1.00  0.00    -0.000 C 
BRANCH  24  25
ATOM     25  C   UNL     1      56.493  44.117  20.761  1.00  0.00    -0.000 C 
BRANCH  25  26
ATOM     26  C   UNL     1      55.422  43.023  20.632  1.00  0.00    -0.000 C 
BRANCH  26  27
ATOM     27  C   UNL     1      55.844  41.751  21.384  1.00  0.00    -0.000 C 
BRANCH  27  28
ATOM     28  C   UNL     1      55.345  40.464  20.706  1.00  0.00    -0.000 C 
BRANCH  28  29
ATOM     29  C   UNL     1      55.801  39.195  21.441  1.00  0.00    -0.003 C 
ATOM     30  C   UNL     1      57.141  38.697  20.905  1.00  0.00     0.004 C 
ENDBRANCH  28  29
ENDBRANCH  27  28
ENDBRANCH  26  27
ENDBRANCH  25  26
ENDBRANCH  24  25
ENDBRANCH  23  24
ENDBRANCH  22  23
ENDBRANCH  21  22
ENDBRANCH  20  21
ENDBRANCH  19  20
ENDBRANCH  18  19
ENDBRANCH  17  18
ENDBRANCH   1  17
TORSDOF 26
ENDMDL
MODEL 6
REMARK VINA RESULT:    28.689      1.808      2.136
REMARK INTER + INTRA:          74.153
REMARK INTER:                  75.679
REMARK INTRA:                  -1.526
REMARK UNBOUND:                 1.858
REMARK SMILES CCCCCCCCCCCCCCCCCCCCCCCCCCCC(=O)[O-]
REMARK SMILES IDX 15 1 16 2 17 3 18 4 19 5 20 6 21 7 22 8 23 9 24 10 25 11
REMARK SMILES IDX 26 12 27 13 28 14 29 15 30 16 14 17 13 18 12 19 11 20 10 21
REMARK SMILES IDX 9 22 8 23 7 24 6 25 5 26 4 27 3 28 2 29 1 30
REMARK H PARENT
REMARK Flexibility Score: inf
ROOT
ATOM      1  C   UNL     1      57.534  48.023  17.153  1.00  0.00     0.000 C 
ENDROOT
BRANCH   1   2
ATOM      2  C   UNL     1      57.328  47.836  18.669  1.00  0.00     0.000 C 
BRANCH   2   3
ATOM      3  C   UNL     1      55.858  47.796  19.133  1.00  0.00     0.000 C 
BRANCH   3   4
ATOM      4  C   UNL     1      55.712  47.418  20.614  1.00  0.00     0.000 C 
BRANCH   4   5
ATOM      5  C   UNL     1      56.676  48.231  21.492  1.00  0.00     0.000 C 
BRANCH   5   6
ATOM      6  C   UNL     1      57.044  47.510  22.799  1.00  0.00     0.000 C 
BRANCH   6   7
ATOM      7  C   UNL     1      57.786  46.181  22.560  1.00  0.00     0.000 C 
BRANCH   7   8
ATOM      8  C   UNL     1      56.848  44.964  22.606  1.00  0.00     0.000 C 
BRANCH   8   9
ATOM      9  C   UNL     1      57.402  43.761  21.824  1.00  0.00     0.000 C 
BRANCH   9  10
ATOM     10  C   UNL     1      56.390  43.196  20.813  1.00  0.00     0.000 C 
BRANCH  10  11
ATOM     11  C   UNL     1      55.485  42.072  21.357  1.00  0.00     0.000 C 
BRANCH  11  12
ATOM     12  C   UNL     1      55.691  40.695  20.702  1.00  0.00     0.006 C 
BRANCH  12  13
ATOM     13  C   UNL     1      54.424  39.828  20.718  1.00  0.00     0.053 C 
BRANCH  13  14
ATOM     14  C   UNL     1      53.195  40.681  20.641  1.00  0.00     0.041 C 
ATOM     15  O   UNL     1      52.824  41.164  19.537  1.00  0.00    -0.550 OA
ATOM     16  O   UNL     1      52.449  40.930  21.786  1.00  0.00    -0.550 OA
ENDBRANCH  13  14
ENDBRANCH  12  13
ENDBRANCH  11  12
ENDBRANCH  10  11
ENDBRANCH   9  10
ENDBRANCH   8   9
ENDBRANCH   7   8
ENDBRANCH   6   7
ENDBRANCH   5   6
ENDBRANCH   4   5
ENDBRANCH   3   4
ENDBRANCH   2   3
ENDBRANCH   1   2
BRANCH   1  17
ATOM     17  C   UNL     1      56.412  48.784  16.420  1.00  0.00     0.000 C 
BRANCH  17  18
ATOM     18  C   UNL     1      56.752  50.254  16.096  1.00  0.00     0.000 C 
BRANCH  18  19
ATOM     19  C   UNL     1      55.506  51.149  15.973  1.00  0.00     0.000 C 
BRANCH  19  20
ATOM     20  C   UNL     1      54.784  51.354  17.318  1.00  0.00     0.000 C 
BRANCH  20  21
ATOM     21  C   UNL     1      55.408  52.476  18.165  1.00  0.00     0.000 C 
BRANCH  21  22
ATOM     22  C   UNL     1      54.590  52.787  19.433  1.00  0.00    -0.000 C 
BRANCH  22  23
ATOM     23  C   UNL     1      55.432  53.220  20.647  1.00  0.00    -0.000 C 
BRANCH  23  24
ATOM     24  C   UNL     1      54.665  53.096  21.975  1.00  0.00    -0.000 C 
BRANCH  24  25
ATOM     25  C   UNL     1      53.776  54.317  22.262  1.00  0.00    -0.000 C 
BRANCH  25  26
ATOM     26  C   UNL     1      54.536  55.449  22.969  1.00  0.00    -0.000 C 
BRANCH  26  27
ATOM     27  C   UNL     1      53.922  55.745  24.346  1.00  0.00    -0.000 C 
BRANCH  27  28
ATOM     28  C   UNL     1      54.982  55.961  25.438  1.00  0.00    -0.000 C 
BRANCH  28  29
ATOM     29  C   UNL     1      56.415  55.797  24.910  1.00  0.00    -0.003 C 
ATOM     30  C   UNL     1      57.356  56.824  25.534  1.00  0.00     0.004 C 
ENDBRANCH  28  29
ENDBRANCH  27  28
ENDBRANCH  26  27
ENDBRANCH  25  26
ENDBRANCH  24  25
ENDBRANCH  23  24
ENDBRANCH  22  23
ENDBRANCH  21  22
ENDBRANCH  20  21
ENDBRANCH  19  20
ENDBRANCH  18  19
ENDBRANCH  17  18
ENDBRANCH   1  17
TORSDOF 26
ENDMDL
MODEL 7
REMARK VINA RESULT:    28.874      2.229      3.783
REMARK INTER + INTRA:          74.620
REMARK INTER:                  75.678
REMARK INTRA:                  -1.058
REMARK UNBOUND:                 1.858
REMARK SMILES CCCCCCCCCCCCCCCCCCCCCCCCCCCC(=O)[O-]
REMARK SMILES IDX 15 1 16 2 17 3 18 4 19 5 20 6 21 7 22 8 23 9 24 10 25 11
REMARK SMILES IDX 26 12 27 13 28 14 29 15 30 16 14 17 13 18 12 19 11 20 10 21
REMARK SMILES IDX 9 22 8 23 7 24 6 25 5 26 4 27 3 28 2 29 1 30
REMARK H PARENT
REMARK Flexibility Score: inf
ROOT
ATOM      1  C   UNL     1      55.423  49.720  19.713  1.00  0.00     0.000 C 
ENDROOT
BRANCH   1   2
ATOM      2  C   UNL     1      55.147  48.218  19.926  1.00  0.00     0.000 C 
BRANCH   2   3
ATOM      3  C   UNL     1      56.386  47.362  20.254  1.00  0.00     0.000 C 
BRANCH   3   4
ATOM      4  C   UNL     1      57.458  48.142  21.029  1.00  0.00     0.000 C 
BRANCH   4   5
ATOM      5  C   UNL     1      57.895  47.379  22.290  1.00  0.00     0.000 C 
BRANCH   5   6
ATOM      6  C   UNL     1      56.715  47.015  23.206  1.00  0.00     0.000 C 
BRANCH   6   7
ATOM      7  C   UNL     1      56.717  45.532  23.621  1.00  0.00     0.000 C 
BRANCH   7   8
ATOM      8  C   UNL     1      57.131  44.598  22.473  1.00  0.00     0.000 C 
BRANCH   8   9
ATOM      9  C   UNL     1      56.119  44.602  21.314  1.00  0.00     0.000 C 
BRANCH   9  10
ATOM     10  C   UNL     1      56.322  43.423  20.348  1.00  0.00     0.000 C 
BRANCH  10  11
ATOM     11  C   UNL     1      55.228  42.338  20.407  1.00  0.00     0.000 C 
BRANCH  11  12
ATOM     12  C   UNL     1      55.535  41.152  21.337  1.00  0.00     0.006 C 
BRANCH  12  13
ATOM     13  C   UNL     1      55.690  39.823  20.585  1.00  0.00     0.053 C 
BRANCH  13  14
ATOM     14  C   UNL     1      56.481  38.843  21.395  1.00  0.00     0.041 C 
ATOM     15  O   UNL     1      57.460  38.236  20.881  1.00  0.00    -0.550 OA
ATOM     16  O   UNL     1      56.149  38.610  22.724  1.00  0.00    -0.550 OA
ENDBRANCH  13  14
ENDBRANCH  12  13
ENDBRANCH  11  12
ENDBRANCH  10  11
ENDBRANCH   9  10
ENDBRANCH   8   9
ENDBRANCH   7   8
ENDBRANCH   6   7
ENDBRANCH   5   6
ENDBRANCH   4   5
ENDBRANCH   3   4
ENDBRANCH   2   3
ENDBRANCH   1   2
BRANCH   1  17
ATOM     17  C   UNL     1      54.897  50.655  20.819  1.00  0.00     0.000 C 
BRANCH  17  18
ATOM     18  C   UNL     1      54.752  52.129  20.384  1.00  0.00     0.000 C 
BRANCH  18  19
ATOM     19  C   UNL     1      54.849  53.118  21.560  1.00  0.00     0.000 C 
BRANCH  19  20
ATOM     20  C   UNL     1      53.474  53.479  22.151  1.00  0.00     0.000 C 
BRANCH  20  21
ATOM     21  C   UNL     1      53.463  54.856  22.837  1.00  0.00     0.000 C 
BRANCH  21  22
ATOM     22  C   UNL     1      54.848  55.259  23.380  1.00  0.00    -0.000 C 
BRANCH  22  23
ATOM     23  C   UNL     1      54.816  55.971  24.745  1.00  0.00    -0.000 C 
BRANCH  23  24
ATOM     24  C   UNL     1      53.536  56.800  24.951  1.00  0.00    -0.000 C 
BRANCH  24  25
ATOM     25  C   UNL     1      52.531  56.115  25.891  1.00  0.00    -0.000 C 
BRANCH  25  26
ATOM     26  C   UNL     1      53.186  55.592  27.178  1.00  0.00    -0.000 C 
BRANCH  26  27
ATOM     27  C   UNL     1      53.361  54.066  27.122  1.00  0.00    -0.000 C 
BRANCH  27  28
ATOM     28  C   UNL     1      52.746  53.351  28.337  1.00  0.00    -0.000 C 
BRANCH  28  29
ATOM     29  C   UNL     1      51.224  53.182  28.214  1.00  0.00    -0.003 C 
ATOM     30  C   UNL     1      50.646  52.476  29.438  1.00  0.00     0.004 C 
ENDBRANCH  28  29
ENDBRANCH  27  28
ENDBRANCH  26  27
ENDBRANCH  25  26
ENDBRANCH  24  25
ENDBRANCH  23  24
ENDBRANCH  22  23
ENDBRANCH  21  22
ENDBRANCH  20  21
ENDBRANCH  19  20
ENDBRANCH  18  19
ENDBRANCH  17  18
ENDBRANCH   1  17
TORSDOF 26
ENDMDL
MODEL 8
REMARK VINA RESULT:    28.912      2.381      4.659
REMARK INTER + INTRA:          74.716
REMARK INTER:                  73.100
REMARK INTRA:                   1.616
REMARK UNBOUND:                 1.858
REMARK SMILES CCCCCCCCCCCCCCCCCCCCCCCCCCCC(=O)[O-]
REMARK SMILES IDX 15 1 16 2 17 3 18 4 19 5 20 6 21 7 22 8 23 9 24 10 25 11
REMARK SMILES IDX 26 12 27 13 28 14 29 15 30 16 14 17 13 18 12 19 11 20 10 21
REMARK SMILES IDX 9 22 8 23 7 24 6 25 5 26 4 27 3 28 2 29 1 30
REMARK H PARENT
REMARK Flexibility Score: inf
ROOT
ATOM      1  C   UNL     1      53.760  51.878  21.775  1.00  0.00     0.000 C 
ENDROOT
BRANCH   1   2
ATOM      2  C   UNL     1      54.477  51.312  20.533  1.00  0.00     0.000 C 
BRANCH   2   3
ATOM      3  C   UNL     1      55.456  50.154  20.811  1.00  0.00     0.000 C 
BRANCH   3   4
ATOM      4  C   UNL     1      55.270  48.974  19.845  1.00  0.00     0.000 C 
BRANCH   4   5
ATOM      5  C   UNL     1      56.456  48.000  19.924  1.00  0.00     0.000 C 
BRANCH   5   6
ATOM      6  C   UNL     1      56.239  46.877  20.952  1.00  0.00     0.000 C 
BRANCH   6   7
ATOM      7  C   UNL     1      55.484  45.669  20.366  1.00  0.00     0.000 C 
BRANCH   7   8
ATOM      8  C   UNL     1      56.408  44.471  20.096  1.00  0.00     0.000 C 
BRANCH   8   9
ATOM      9  C   UNL     1      56.346  43.414  21.211  1.00  0.00     0.000 C 
BRANCH   9  10
ATOM     10  C   UNL     1      56.050  42.003  20.673  1.00  0.00     0.000 C 
BRANCH  10  11
ATOM     11  C   UNL     1      54.917  41.253  21.402  1.00  0.00     0.000 C 
BRANCH  11  12
ATOM     12  C   UNL     1      54.509  39.912  20.767  1.00  0.00     0.006 C 
BRANCH  12  13
ATOM     13  C   UNL     1      55.701  39.128  20.202  1.00  0.00     0.053 C 
BRANCH  13  14
ATOM     14  C   UNL     1      56.660  38.759  21.291  1.00  0.00     0.041 C 
ATOM     15  O   UNL     1      56.293  38.784  22.497  1.00  0.00    -0.550 OA
ATOM     16  O   UNL     1      57.956  38.371  20.974  1.00  0.00    -0.550 OA
ENDBRANCH  13  14
ENDBRANCH  12  13
ENDBRANCH  11  12
ENDBRANCH  10  11
ENDBRANCH   9  10
ENDBRANCH   8   9
ENDBRANCH   7   8
ENDBRANCH   6   7
ENDBRANCH   5   6
ENDBRANCH   4   5
ENDBRANCH   3   4
ENDBRANCH   2   3
ENDBRANCH   1   2
BRANCH   1  17
ATOM     17  C   UNL     1      53.079  53.246  21.583  1.00  0.00     0.000 C 
BRANCH  17  18
ATOM     18  C   UNL     1      53.130  54.159  22.826  1.00  0.00     0.000 C 
BRANCH  18  19
ATOM     19  C   UNL     1      54.546  54.679  23.135  1.00  0.00     0.000 C 
BRANCH  19  20
ATOM     20  C   UNL     1      54.650  56.213  23.049  1.00  0.00     0.000 C 
BRANCH  20  21
ATOM     21  C   UNL     1      55.994  56.749  23.574  1.00  0.00     0.000 C 
BRANCH  21  22
ATOM     22  C   UNL     1      56.444  56.052  24.872  1.00  0.00    -0.000 C 
BRANCH  22  23
ATOM     23  C   UNL     1      55.409  56.095  26.012  1.00  0.00    -0.000 C 
BRANCH  23  24
ATOM     24  C   UNL     1      53.989  55.742  25.537  1.00  0.00    -0.000 C 
BRANCH  24  25
ATOM     25  C   UNL     1      52.897  56.450  26.356  1.00  0.00    -0.000 C 
BRANCH  25  26
ATOM     26  C   UNL     1      52.430  55.621  27.561  1.00  0.00    -0.000 C 
BRANCH  26  27
ATOM     27  C   UNL     1      53.050  54.215  27.533  1.00  0.00    -0.000 C 
BRANCH  27  28
ATOM     28  C   UNL     1      52.555  53.322  28.683  1.00  0.00    -0.000 C 
BRANCH  28  29
ATOM     29  C   UNL     1      51.064  52.975  28.560  1.00  0.00    -0.003 C 
ATOM     30  C   UNL     1      50.559  52.257  29.809  1.00  0.00     0.004 C 
ENDBRANCH  28  29
ENDBRANCH  27  28
ENDBRANCH  26  27
ENDBRANCH  25  26
ENDBRANCH  24  25
ENDBRANCH  23  24
ENDBRANCH  22  23
ENDBRANCH  21  22
ENDBRANCH  20  21
ENDBRANCH  19  20
ENDBRANCH  18  19
ENDBRANCH  17  18
ENDBRANCH   1  17
TORSDOF 26
ENDMDL
MODEL 9
REMARK VINA RESULT:    28.930      1.229      2.564
REMARK INTER + INTRA:          74.761
REMARK INTER:                  76.114
REMARK INTRA:                  -1.353
REMARK UNBOUND:                 1.858
REMARK SMILES CCCCCCCCCCCCCCCCCCCCCCCCCCCC(=O)[O-]
REMARK SMILES IDX 15 1 16 2 17 3 18 4 19 5 20 6 21 7 22 8 23 9 24 10 25 11
REMARK SMILES IDX 26 12 27 13 28 14 29 15 30 16 14 17 13 18 12 19 11 20 10 21
REMARK SMILES IDX 9 22 8 23 7 24 6 25 5 26 4 27 3 28 2 29 1 30
REMARK H PARENT
REMARK Flexibility Score: inf
ROOT
ATOM      1  C   UNL     1      54.941  51.191  15.413  1.00  0.00     0.000 C 
ENDROOT
BRANCH   1   2
ATOM      2  C   UNL     1      54.498  49.716  15.478  1.00  0.00     0.000 C 
BRANCH   2   3
ATOM      3  C   UNL     1      55.579  48.726  15.952  1.00  0.00     0.000 C 
BRANCH   3   4
ATOM      4  C   UNL     1      55.889  48.856  17.451  1.00  0.00     0.000 C 
BRANCH   4   5
ATOM      5  C   UNL     1      57.023  47.907  17.868  1.00  0.00     0.000 C 
BRANCH   5   6
ATOM      6  C   UNL     1      57.428  48.073  19.342  1.00  0.00     0.000 C 
BRANCH   6   7
ATOM      7  C   UNL     1      56.261  47.823  20.314  1.00  0.00     0.000 C 
BRANCH   7   8
ATOM      8  C   UNL     1      55.950  46.328  20.492  1.00  0.00     0.000 C 
BRANCH   8   9
ATOM      9  C   UNL     1      56.261  45.825  21.912  1.00  0.00     0.000 C 
BRANCH   9  10
ATOM     10  C   UNL     1      57.319  44.707  21.925  1.00  0.00     0.000 C 
BRANCH  10  11
ATOM     11  C   UNL     1      56.779  43.306  22.272  1.00  0.00     0.000 C 
BRANCH  11  12
ATOM     12  C   UNL     1      56.445  42.417  21.061  1.00  0.00     0.006 C 
BRANCH  12  13
ATOM     13  C   UNL     1      55.070  41.743  21.172  1.00  0.00     0.053 C 
BRANCH  13  14
ATOM     14  C   UNL     1      55.142  40.313  20.735  1.00  0.00     0.041 C 
ATOM     15  O   UNL     1      56.168  39.623  20.981  1.00  0.00    -0.550 OA
ATOM     16  O   UNL     1      54.068  39.735  20.068  1.00  0.00    -0.550 OA
ENDBRANCH  13  14
ENDBRANCH  12  13
ENDBRANCH  11  12
ENDBRANCH  10  11
ENDBRANCH   9  10
ENDBRANCH   8   9
ENDBRANCH   7   8
ENDBRANCH   6   7
ENDBRANCH   5   6
ENDBRANCH   4   5
ENDBRANCH   3   4
ENDBRANCH   2   3
ENDBRANCH   1   2
BRANCH   1  17
ATOM     17  C   UNL     1      56.396  51.467  15.840  1.00  0.00     0.000 C 
BRANCH  17  18
ATOM     18  C   UNL     1      56.529  52.323  17.116  1.00  0.00     0.000 C 
BRANCH  18  19
ATOM     19  C   UNL     1      55.252  52.326  17.977  1.00  0.00     0.000 C 
BRANCH  19  20
ATOM     20  C   UNL     1      55.317  53.335  19.139  1.00  0.00     0.000 C 
BRANCH  20  21
ATOM     21  C   UNL     1      54.978  52.701  20.499  1.00  0.00     0.000 C 
BRANCH  21  22
ATOM     22  C   UNL     1      54.956  53.731  21.644  1.00  0.00    -0.000 C 
BRANCH  22  23
ATOM     23  C   UNL     1      53.636  53.779  22.436  1.00  0.00    -0.000 C 
BRANCH  23  24
ATOM     24  C   UNL     1      53.781  54.501  23.787  1.00  0.00    -0.000 C 
BRANCH  24  25
ATOM     25  C   UNL     1      53.291  55.957  23.737  1.00  0.00    -0.000 C 
BRANCH  25  26
ATOM     26  C   UNL     1      54.444  56.971  23.783  1.00  0.00    -0.000 C 
BRANCH  26  27
ATOM     27  C   UNL     1      55.742  56.304  24.266  1.00  0.00    -0.000 C 
BRANCH  27  28
ATOM     28  C   UNL     1      56.469  57.125  25.344  1.00  0.00    -0.000 C 
BRANCH  28  29
ATOM     29  C   UNL     1      57.329  56.252  26.270  1.00  0.00    -0.003 C 
ATOM     30  C   UNL     1      58.263  55.349  25.469  1.00  0.00     0.004 C 
ENDBRANCH  28  29
ENDBRANCH  27  28
ENDBRANCH  26  27
ENDBRANCH  25  26
ENDBRANCH  24  25
ENDBRANCH  23  24
ENDBRANCH  22  23
ENDBRANCH  21  22
ENDBRANCH  20  21
ENDBRANCH  19  20
ENDBRANCH  18  19
ENDBRANCH  17  18
ENDBRANCH   1  17
TORSDOF 26
ENDMDL
