MODEL 1
REMARK VINA RESULT:    -5.851      0.000      0.000
REMARK INTER + INTRA:          -7.140
REMARK INTER:                  -6.877
REMARK INTRA:                  -0.263
REMARK UNBOUND:                -0.263
REMARK SMILES O=c1cc(-c2ccc(O)c(O)c2)oc2cc(O)cc(O)c12
REMARK SMILES IDX 4 1 3 2 2 3 1 4 21 5 19 6 18 7 16 8 15 9 14 10 13 11 5 12
REMARK SMILES IDX 6 13 7 14 8 15 12 16 10 17 9 18 11 20 20 22 17 24
REMARK H PARENT 9 19 11 21 20 23 17 25
REMARK Flexibility Score: inf
ROOT
ATOM      1  C   UNL     1      81.386  24.990  44.910  1.00  0.00     0.138 A 
ATOM      2  C   UNL     1      80.318  25.514  44.163  1.00  0.00     0.100 A 
ATOM      3  C   UNL     1      80.083  25.036  42.874  1.00  0.00     0.197 A 
ATOM      4  O   UNL     1      79.120  25.511  42.212  1.00  0.00    -0.289 OA
ATOM      5  C   UNL     1      80.917  24.034  42.339  1.00  0.00     0.107 A 
ATOM      6  C   UNL     1      80.749  23.497  41.041  1.00  0.00     0.134 A 
ATOM      7  C   UNL     1      81.621  22.496  40.586  1.00  0.00     0.093 A 
ATOM      8  C   UNL     1      82.654  22.025  41.403  1.00  0.00     0.123 A 
ATOM      9  C   UNL     1      82.824  22.553  42.685  1.00  0.00     0.094 A 
ATOM     10  C   UNL     1      81.967  23.551  43.156  1.00  0.00     0.146 A 
ATOM     11  O   UNL     1      82.150  24.038  44.380  1.00  0.00    -0.456 OA
ENDROOT
BRANCH   1  12
ATOM     12  C   UNL     1      81.683  25.459  46.287  1.00  0.00     0.021 A 
ATOM     13  C   UNL     1      82.868  26.176  46.533  1.00  0.00     0.016 A 
ATOM     14  C   UNL     1      83.167  26.635  47.818  1.00  0.00     0.051 A 
ATOM     15  C   UNL     1      82.283  26.395  48.877  1.00  0.00     0.157 A 
ATOM     16  C   UNL     1      80.793  25.232  47.356  1.00  0.00     0.062 A 
ATOM     17  C   UNL     1      81.093  25.695  48.645  1.00  0.00     0.158 A 
BRANCH  15  18
ATOM     18  O   UNL     1      82.579  26.849  50.161  1.00  0.00    -0.504 OA
ATOM     19  H   UNL     1      82.293  26.332  50.986  1.00  0.00     0.293 HD
ENDBRANCH  15  18
BRANCH  17  20
ATOM     20  O   UNL     1      80.211  25.467  49.699  1.00  0.00    -0.504 OA
ATOM     21  H   UNL     1      80.401  24.771  50.410  1.00  0.00     0.293 HD
ENDBRANCH  17  20
ENDBRANCH   1  12
BRANCH   6  22
ATOM     22  O   UNL     1      79.727  23.947  40.206  1.00  0.00    -0.507 OA
ATOM     23  H   UNL     1      78.934  24.467  40.566  1.00  0.00     0.293 HD
ENDBRANCH   6  22
BRANCH   8  24
ATOM     24  O   UNL     1      83.520  21.031  40.950  1.00  0.00    -0.508 OA
ATOM     25  H   UNL     1      84.277  21.239  40.310  1.00  0.00     0.293 HD
ENDBRANCH   8  24
TORSDOF 5
ENDMDL
MODEL 2
REMARK VINA RESULT:    -5.664      1.706      7.243
REMARK INTER + INTRA:          -6.920
REMARK INTER:                  -6.655
REMARK INTRA:                  -0.265
REMARK UNBOUND:                -0.263
REMARK SMILES O=c1cc(-c2ccc(O)c(O)c2)oc2cc(O)cc(O)c12
REMARK SMILES IDX 4 1 3 2 2 3 1 4 21 5 19 6 18 7 16 8 15 9 14 10 13 11 5 12
REMARK SMILES IDX 6 13 7 14 8 15 12 16 10 17 9 18 11 20 20 22 17 24
REMARK H PARENT 9 19 11 21 20 23 17 25
REMARK Flexibility Score: inf
ROOT
ATOM      1  C   UNL     1      80.535  25.139  44.910  1.00  0.00     0.138 A 
ATOM      2  C   UNL     1      81.602  25.891  45.429  1.00  0.00     0.100 A 
ATOM      3  C   UNL     1      81.732  26.036  46.810  1.00  0.00     0.197 A 
ATOM      4  O   UNL     1      82.694  26.712  47.266  1.00  0.00    -0.289 OA
ATOM      5  C   UNL     1      80.794  25.423  47.665  1.00  0.00     0.107 A 
ATOM      6  C   UNL     1      80.851  25.522  49.076  1.00  0.00     0.134 A 
ATOM      7  C   UNL     1      79.880  24.877  49.857  1.00  0.00     0.093 A 
ATOM      8  C   UNL     1      78.856  24.138  49.254  1.00  0.00     0.123 A 
ATOM      9  C   UNL     1      78.795  24.039  47.863  1.00  0.00     0.094 A 
ATOM     10  C   UNL     1      79.752  24.674  47.067  1.00  0.00     0.146 A 
ATOM     11  O   UNL     1      79.672  24.565  45.744  1.00  0.00    -0.456 OA
ENDROOT
BRANCH   1  12
ATOM     12  C   UNL     1      80.348  24.950  43.449  1.00  0.00     0.021 A 
ATOM     13  C   UNL     1      79.599  25.891  42.720  1.00  0.00     0.016 A 
ATOM     14  C   UNL     1      79.415  25.740  41.344  1.00  0.00     0.051 A 
ATOM     15  C   UNL     1      79.984  24.653  40.670  1.00  0.00     0.157 A 
ATOM     16  C   UNL     1      80.928  23.865  42.761  1.00  0.00     0.062 A 
ATOM     17  C   UNL     1      80.744  23.716  41.378  1.00  0.00     0.158 A 
BRANCH  15  18
ATOM     18  O   UNL     1      79.800  24.498  39.297  1.00  0.00    -0.504 OA
ATOM     19  H   UNL     1      80.452  24.892  38.627  1.00  0.00     0.293 HD
ENDBRANCH  15  18
BRANCH  17  20
ATOM     20  O   UNL     1      81.318  22.640  40.703  1.00  0.00    -0.504 OA
ATOM     21  H   UNL     1      81.322  22.590  39.692  1.00  0.00     0.293 HD
ENDBRANCH  17  20
ENDBRANCH   1  12
BRANCH   6  22
ATOM     22  O   UNL     1      81.861  26.251  49.703  1.00  0.00    -0.507 OA
ATOM     23  H   UNL     1      82.428  25.851  50.443  1.00  0.00     0.293 HD
ENDBRANCH   6  22
BRANCH   8  24
ATOM     24  O   UNL     1      77.892  23.498  50.031  1.00  0.00    -0.508 OA
ATOM     25  H   UNL     1      77.491  23.941  50.848  1.00  0.00     0.293 HD
ENDBRANCH   8  24
TORSDOF 5
ENDMDL
MODEL 3
REMARK VINA RESULT:    -5.648      2.307      3.642
REMARK INTER + INTRA:          -6.901
REMARK INTER:                  -6.637
REMARK INTRA:                  -0.264
REMARK UNBOUND:                -0.263
REMARK SMILES O=c1cc(-c2ccc(O)c(O)c2)oc2cc(O)cc(O)c12
REMARK SMILES IDX 4 1 3 2 2 3 1 4 21 5 19 6 18 7 16 8 15 9 14 10 13 11 5 12
REMARK SMILES IDX 6 13 7 14 8 15 12 16 10 17 9 18 11 20 20 22 17 24
REMARK H PARENT 9 19 11 21 20 23 17 25
REMARK Flexibility Score: inf
ROOT
ATOM      1  C   UNL     1      80.608  25.722  46.396  1.00  0.00     0.138 A 
ATOM      2  C   UNL     1      81.960  26.100  46.423  1.00  0.00     0.100 A 
ATOM      3  C   UNL     1      82.843  25.558  45.489  1.00  0.00     0.197 A 
ATOM      4  O   UNL     1      84.056  25.904  45.521  1.00  0.00    -0.289 OA
ATOM      5  C   UNL     1      82.366  24.643  44.529  1.00  0.00     0.107 A 
ATOM      6  C   UNL     1      83.194  24.046  43.549  1.00  0.00     0.134 A 
ATOM      7  C   UNL     1      82.638  23.148  42.625  1.00  0.00     0.093 A 
ATOM      8  C   UNL     1      81.274  22.837  42.664  1.00  0.00     0.123 A 
ATOM      9  C   UNL     1      80.454  23.423  43.630  1.00  0.00     0.094 A 
ATOM     10  C   UNL     1      80.988  24.319  44.560  1.00  0.00     0.146 A 
ATOM     11  O   UNL     1      80.186  24.863  45.471  1.00  0.00    -0.456 OA
ENDROOT
BRANCH   1  12
ATOM     12  C   UNL     1      79.623  26.268  47.364  1.00  0.00     0.021 A 
ATOM     13  C   UNL     1      78.681  27.218  46.931  1.00  0.00     0.016 A 
ATOM     14  C   UNL     1      77.740  27.741  47.821  1.00  0.00     0.051 A 
ATOM     15  C   UNL     1      77.715  27.316  49.155  1.00  0.00     0.157 A 
ATOM     16  C   UNL     1      79.584  25.836  48.705  1.00  0.00     0.062 A 
ATOM     17  C   UNL     1      78.637  26.360  49.597  1.00  0.00     0.158 A 
BRANCH  15  18
ATOM     18  O   UNL     1      76.778  27.838  50.045  1.00  0.00    -0.504 OA
ATOM     19  H   UNL     1      77.004  27.992  51.022  1.00  0.00     0.293 HD
ENDBRANCH  15  18
BRANCH  17  20
ATOM     20  O   UNL     1      78.604  25.932  50.922  1.00  0.00    -0.504 OA
ATOM     21  H   UNL     1      78.210  25.035  51.181  1.00  0.00     0.293 HD
ENDBRANCH  17  20
ENDBRANCH   1  12
BRANCH   6  22
ATOM     22  O   UNL     1      84.556  24.338  43.486  1.00  0.00    -0.507 OA
ATOM     23  H   UNL     1      85.180  24.138  44.260  1.00  0.00     0.293 HD
ENDBRANCH   6  22
BRANCH   8  24
ATOM     24  O   UNL     1      80.724  21.944  41.746  1.00  0.00    -0.508 OA
ATOM     25  H   UNL     1      80.135  21.176  42.042  1.00  0.00     0.293 HD
ENDBRANCH   8  24
TORSDOF 5
ENDMDL
MODEL 4
REMARK VINA RESULT:    -5.584     10.927     13.177
REMARK INTER + INTRA:          -6.827
REMARK INTER:                  -6.530
REMARK INTRA:                  -0.297
REMARK UNBOUND:                -0.263
REMARK SMILES O=c1cc(-c2ccc(O)c(O)c2)oc2cc(O)cc(O)c12
REMARK SMILES IDX 4 1 3 2 2 3 1 4 21 5 19 6 18 7 16 8 15 9 14 10 13 11 5 12
REMARK SMILES IDX 6 13 7 14 8 15 12 16 10 17 9 18 11 20 20 22 17 24
REMARK H PARENT 9 19 11 21 20 23 17 25
REMARK Flexibility Score: inf
ROOT
ATOM      1  C   UNL     1      76.186  16.024  48.910  1.00  0.00     0.138 A 
ATOM      2  C   UNL     1      76.252  17.217  49.648  1.00  0.00     0.100 A 
ATOM      3  C   UNL     1      76.422  17.160  51.031  1.00  0.00     0.197 A 
ATOM      4  O   UNL     1      76.482  18.237  51.685  1.00  0.00    -0.289 OA
ATOM      5  C   UNL     1      76.530  15.908  51.668  1.00  0.00     0.107 A 
ATOM      6  C   UNL     1      76.702  15.761  53.066  1.00  0.00     0.134 A 
ATOM      7  C   UNL     1      76.806  14.477  53.621  1.00  0.00     0.093 A 
ATOM      8  C   UNL     1      76.740  13.341  52.807  1.00  0.00     0.123 A 
ATOM      9  C   UNL     1      76.570  13.481  51.429  1.00  0.00     0.094 A 
ATOM     10  C   UNL     1      76.463  14.751  50.856  1.00  0.00     0.146 A 
ATOM     11  O   UNL     1      76.300  14.857  49.540  1.00  0.00    -0.456 OA
ENDROOT
BRANCH   1  12
ATOM     12  C   UNL     1      76.007  16.024  47.436  1.00  0.00     0.021 A 
ATOM     13  C   UNL     1      76.027  14.803  46.737  1.00  0.00     0.016 A 
ATOM     14  C   UNL     1      75.853  14.775  45.352  1.00  0.00     0.051 A 
ATOM     15  C   UNL     1      75.647  15.964  44.641  1.00  0.00     0.157 A 
ATOM     16  C   UNL     1      75.787  17.214  46.715  1.00  0.00     0.062 A 
ATOM     17  C   UNL     1      75.611  17.185  45.324  1.00  0.00     0.158 A 
BRANCH  15  18
ATOM     18  O   UNL     1      75.475  15.940  43.258  1.00  0.00    -0.504 OA
ATOM     19  H   UNL     1      75.197  16.769  42.744  1.00  0.00     0.293 HD
ENDBRANCH  15  18
BRANCH  17  20
ATOM     20  O   UNL     1      75.395  18.365  44.616  1.00  0.00    -0.504 OA
ATOM     21  H   UNL     1      75.294  18.369  43.608  1.00  0.00     0.293 HD
ENDBRANCH  17  20
ENDBRANCH   1  12
BRANCH   6  22
ATOM     22  O   UNL     1      76.771  16.876  53.900  1.00  0.00    -0.507 OA
ATOM     23  H   UNL     1      77.647  17.357  54.075  1.00  0.00     0.293 HD
ENDBRANCH   6  22
BRANCH   8  24
ATOM     24  O   UNL     1      76.843  12.065  53.360  1.00  0.00    -0.508 OA
ATOM     25  H   UNL     1      76.118  11.371  53.229  1.00  0.00     0.293 HD
ENDBRANCH   8  24
TORSDOF 5
ENDMDL
MODEL 5
REMARK VINA RESULT:    -5.544     11.448     12.260
REMARK INTER + INTRA:          -6.779
REMARK INTER:                  -6.470
REMARK INTRA:                  -0.309
REMARK UNBOUND:                -0.263
REMARK SMILES O=c1cc(-c2ccc(O)c(O)c2)oc2cc(O)cc(O)c12
REMARK SMILES IDX 4 1 3 2 2 3 1 4 21 5 19 6 18 7 16 8 15 9 14 10 13 11 5 12
REMARK SMILES IDX 6 13 7 14 8 15 12 16 10 17 9 18 11 20 20 22 17 24
REMARK H PARENT 9 19 11 21 20 23 17 25
REMARK Flexibility Score: inf
ROOT
ATOM      1  C   UNL     1      76.332  15.424  49.916  1.00  0.00     0.138 A 
ATOM      2  C   UNL     1      76.445  16.802  50.169  1.00  0.00     0.100 A 
ATOM      3  C   UNL     1      76.302  17.706  49.117  1.00  0.00     0.197 A 
ATOM      4  O   UNL     1      76.404  18.941  49.353  1.00  0.00    -0.289 OA
ATOM      5  C   UNL     1      76.042  17.227  47.817  1.00  0.00     0.107 A 
ATOM      6  C   UNL     1      75.885  18.076  46.695  1.00  0.00     0.134 A 
ATOM      7  C   UNL     1      75.622  17.518  45.435  1.00  0.00     0.093 A 
ATOM      8  C   UNL     1      75.515  16.132  45.277  1.00  0.00     0.123 A 
ATOM      9  C   UNL     1      75.669  15.291  46.380  1.00  0.00     0.094 A 
ATOM     10  C   UNL     1      75.933  15.826  47.644  1.00  0.00     0.146 A 
ATOM     11  O   UNL     1      76.077  15.004  48.679  1.00  0.00    -0.456 OA
ENDROOT
BRANCH   1  12
ATOM     12  C   UNL     1      76.474  14.416  50.997  1.00  0.00     0.021 A 
ATOM     13  C   UNL     1      76.186  14.780  52.324  1.00  0.00     0.016 A 
ATOM     14  C   UNL     1      76.304  13.848  53.358  1.00  0.00     0.051 A 
ATOM     15  C   UNL     1      76.703  12.534  53.083  1.00  0.00     0.157 A 
ATOM     16  C   UNL     1      76.863  13.089  50.726  1.00  0.00     0.062 A 
ATOM     17  C   UNL     1      76.980  12.153  51.765  1.00  0.00     0.158 A 
BRANCH  15  18
ATOM     18  O   UNL     1      76.825  11.602  54.112  1.00  0.00    -0.504 OA
ATOM     19  H   UNL     1      77.103  10.644  53.930  1.00  0.00     0.293 HD
ENDBRANCH  15  18
BRANCH  17  20
ATOM     20  O   UNL     1      77.366  10.843  51.493  1.00  0.00    -0.504 OA
ATOM     21  H   UNL     1      76.980  10.058  52.003  1.00  0.00     0.293 HD
ENDBRANCH  17  20
ENDBRANCH   1  12
BRANCH   6  22
ATOM     22  O   UNL     1      75.986  19.460  46.824  1.00  0.00    -0.507 OA
ATOM     23  H   UNL     1      76.874  19.941  46.729  1.00  0.00     0.293 HD
ENDBRANCH   6  22
BRANCH   8  24
ATOM     24  O   UNL     1      75.254  15.579  44.024  1.00  0.00    -0.508 OA
ATOM     25  H   UNL     1      74.368  15.137  43.814  1.00  0.00     0.293 HD
ENDBRANCH   8  24
TORSDOF 5
ENDMDL
MODEL 6
REMARK VINA RESULT:    -5.535      9.106     11.706
REMARK INTER + INTRA:          -6.768
REMARK INTER:                  -6.479
REMARK INTRA:                  -0.290
REMARK UNBOUND:                -0.263
REMARK SMILES O=c1cc(-c2ccc(O)c(O)c2)oc2cc(O)cc(O)c12
REMARK SMILES IDX 4 1 3 2 2 3 1 4 21 5 19 6 18 7 16 8 15 9 14 10 13 11 5 12
REMARK SMILES IDX 6 13 7 14 8 15 12 16 10 17 9 18 11 20 20 22 17 24
REMARK H PARENT 9 19 11 21 20 23 17 25
REMARK Flexibility Score: inf
ROOT
ATOM      1  C   UNL     1      75.403  17.243  44.537  1.00  0.00     0.138 A 
ATOM      2  C   UNL     1      75.554  15.865  44.764  1.00  0.00     0.100 A 
ATOM      3  C   UNL     1      75.809  15.407  46.057  1.00  0.00     0.197 A 
ATOM      4  O   UNL     1      75.941  14.168  46.251  1.00  0.00    -0.289 OA
ATOM      5  C   UNL     1      75.908  16.331  47.116  1.00  0.00     0.107 A 
ATOM      6  C   UNL     1      76.165  15.950  48.455  1.00  0.00     0.134 A 
ATOM      7  C   UNL     1      76.243  16.933  49.453  1.00  0.00     0.093 A 
ATOM      8  C   UNL     1      76.069  18.285  49.137  1.00  0.00     0.123 A 
ATOM      9  C   UNL     1      75.815  18.665  47.818  1.00  0.00     0.094 A 
ATOM     10  C   UNL     1      75.735  17.702  46.809  1.00  0.00     0.146 A 
ATOM     11  O   UNL     1      75.493  18.089  45.560  1.00  0.00    -0.456 OA
ENDROOT
BRANCH   1  12
ATOM     12  C   UNL     1      75.130  17.788  43.182  1.00  0.00     0.021 A 
ATOM     13  C   UNL     1      75.527  19.100  42.872  1.00  0.00     0.016 A 
ATOM     14  C   UNL     1      75.289  19.634  41.604  1.00  0.00     0.051 A 
ATOM     15  C   UNL     1      74.659  18.862  40.620  1.00  0.00     0.157 A 
ATOM     16  C   UNL     1      74.508  17.013  42.183  1.00  0.00     0.062 A 
ATOM     17  C   UNL     1      74.271  17.549  40.909  1.00  0.00     0.158 A 
BRANCH  15  18
ATOM     18  O   UNL     1      74.417  19.392  39.353  1.00  0.00    -0.504 OA
ATOM     19  H   UNL     1      73.506  19.753  39.095  1.00  0.00     0.293 HD
ENDBRANCH  15  18
BRANCH  17  20
ATOM     20  O   UNL     1      73.653  16.780  39.925  1.00  0.00    -0.504 OA
ATOM     21  H   UNL     1      74.173  16.109  39.371  1.00  0.00     0.293 HD
ENDBRANCH  17  20
ENDBRANCH   1  12
BRANCH   6  22
ATOM     22  O   UNL     1      76.342  14.610  48.798  1.00  0.00    -0.507 OA
ATOM     23  H   UNL     1      76.204  14.280  49.747  1.00  0.00     0.293 HD
ENDBRANCH   6  22
BRANCH   8  24
ATOM     24  O   UNL     1      76.147  19.261  50.129  1.00  0.00    -0.508 OA
ATOM     25  H   UNL     1      76.235  19.016  51.108  1.00  0.00     0.293 HD
ENDBRANCH   8  24
TORSDOF 5
ENDMDL
MODEL 7
REMARK VINA RESULT:    -5.466      2.168      3.115
REMARK INTER + INTRA:          -6.687
REMARK INTER:                  -6.377
REMARK INTRA:                  -0.310
REMARK UNBOUND:                -0.263
REMARK SMILES O=c1cc(-c2ccc(O)c(O)c2)oc2cc(O)cc(O)c12
REMARK SMILES IDX 4 1 3 2 2 3 1 4 21 5 19 6 18 7 16 8 15 9 14 10 13 11 5 12
REMARK SMILES IDX 6 13 7 14 8 15 12 16 10 17 9 18 11 20 20 22 17 24
REMARK H PARENT 9 19 11 21 20 23 17 25
REMARK Flexibility Score: inf
ROOT
ATOM      1  C   UNL     1      80.647  24.449  45.225  1.00  0.00     0.138 A 
ATOM      2  C   UNL     1      81.479  24.237  44.113  1.00  0.00     0.100 A 
ATOM      3  C   UNL     1      80.952  23.647  42.964  1.00  0.00     0.197 A 
ATOM      4  O   UNL     1      81.706  23.462  41.970  1.00  0.00    -0.289 OA
ATOM      5  C   UNL     1      79.593  23.274  42.934  1.00  0.00     0.107 A 
ATOM      6  C   UNL     1      78.980  22.669  41.811  1.00  0.00     0.134 A 
ATOM      7  C   UNL     1      77.618  22.334  41.860  1.00  0.00     0.093 A 
ATOM      8  C   UNL     1      76.862  22.592  43.008  1.00  0.00     0.123 A 
ATOM      9  C   UNL     1      77.462  23.188  44.118  1.00  0.00     0.094 A 
ATOM     10  C   UNL     1      78.817  23.529  44.090  1.00  0.00     0.146 A 
ATOM     11  O   UNL     1      79.366  24.095  45.161  1.00  0.00    -0.456 OA
ENDROOT
BRANCH   1  12
ATOM     12  C   UNL     1      81.153  25.074  46.473  1.00  0.00     0.021 A 
ATOM     13  C   UNL     1      82.276  25.918  46.417  1.00  0.00     0.016 A 
ATOM     14  C   UNL     1      82.768  26.524  47.576  1.00  0.00     0.051 A 
ATOM     15  C   UNL     1      82.140  26.306  48.808  1.00  0.00     0.157 A 
ATOM     16  C   UNL     1      80.520  24.869  47.715  1.00  0.00     0.062 A 
ATOM     17  C   UNL     1      81.013  25.479  48.878  1.00  0.00     0.158 A 
BRANCH  15  18
ATOM     18  O   UNL     1      82.629  26.907  49.967  1.00  0.00    -0.504 OA
ATOM     19  H   UNL     1      82.191  26.754  50.869  1.00  0.00     0.293 HD
ENDBRANCH  15  18
BRANCH  17  20
ATOM     20  O   UNL     1      80.384  25.272  50.104  1.00  0.00    -0.504 OA
ATOM     21  H   UNL     1      80.875  25.396  50.980  1.00  0.00     0.293 HD
ENDBRANCH  17  20
ENDBRANCH   1  12
BRANCH   6  22
ATOM     22  O   UNL     1      79.710  22.402  40.653  1.00  0.00    -0.507 OA
ATOM     23  H   UNL     1      80.595  21.908  40.683  1.00  0.00     0.293 HD
ENDBRANCH   6  22
BRANCH   8  24
ATOM     24  O   UNL     1      75.509  22.258  43.056  1.00  0.00    -0.508 OA
ATOM     25  H   UNL     1      74.984  22.295  43.921  1.00  0.00     0.293 HD
ENDBRANCH   8  24
TORSDOF 5
ENDMDL
MODEL 8
REMARK VINA RESULT:    -5.380      9.477     11.621
REMARK INTER + INTRA:          -6.587
REMARK INTER:                  -6.299
REMARK INTRA:                  -0.288
REMARK UNBOUND:                -0.263
REMARK SMILES O=c1cc(-c2ccc(O)c(O)c2)oc2cc(O)cc(O)c12
REMARK SMILES IDX 4 1 3 2 2 3 1 4 21 5 19 6 18 7 16 8 15 9 14 10 13 11 5 12
REMARK SMILES IDX 6 13 7 14 8 15 12 16 10 17 9 18 11 20 20 22 17 24
REMARK H PARENT 9 19 11 21 20 23 17 25
REMARK Flexibility Score: inf
ROOT
ATOM      1  C   UNL     1      74.813  17.640  43.397  1.00  0.00     0.138 A 
ATOM      2  C   UNL     1      75.286  16.367  43.038  1.00  0.00     0.100 A 
ATOM      3  C   UNL     1      75.706  15.485  44.033  1.00  0.00     0.197 A 
ATOM      4  O   UNL     1      76.128  14.344  43.701  1.00  0.00    -0.289 OA
ATOM      5  C   UNL     1      75.648  15.881  45.384  1.00  0.00     0.107 A 
ATOM      6  C   UNL     1      76.057  15.049  46.454  1.00  0.00     0.134 A 
ATOM      7  C   UNL     1      75.961  15.518  47.773  1.00  0.00     0.093 A 
ATOM      8  C   UNL     1      75.467  16.799  48.040  1.00  0.00     0.123 A 
ATOM      9  C   UNL     1      75.064  17.623  46.988  1.00  0.00     0.094 A 
ATOM     10  C   UNL     1      75.151  17.176  45.667  1.00  0.00     0.146 A 
ATOM     11  O   UNL     1      74.762  17.981  44.683  1.00  0.00    -0.456 OA
ENDROOT
BRANCH   1  12
ATOM     12  C   UNL     1      74.351  18.620  42.381  1.00  0.00     0.021 A 
ATOM     13  C   UNL     1      73.357  19.553  42.723  1.00  0.00     0.016 A 
ATOM     14  C   UNL     1      72.910  20.490  41.788  1.00  0.00     0.051 A 
ATOM     15  C   UNL     1      73.456  20.517  40.499  1.00  0.00     0.157 A 
ATOM     16  C   UNL     1      74.904  18.661  41.086  1.00  0.00     0.062 A 
ATOM     17  C   UNL     1      74.457  19.604  40.148  1.00  0.00     0.158 A 
BRANCH  15  18
ATOM     18  O   UNL     1      73.012  21.449  39.563  1.00  0.00    -0.504 OA
ATOM     19  H   UNL     1      73.221  22.437  39.658  1.00  0.00     0.293 HD
ENDBRANCH  15  18
BRANCH  17  20
ATOM     20  O   UNL     1      75.006  19.640  38.868  1.00  0.00    -0.504 OA
ATOM     21  H   UNL     1      74.583  19.140  38.095  1.00  0.00     0.293 HD
ENDBRANCH  17  20
ENDBRANCH   1  12
BRANCH   6  22
ATOM     22  O   UNL     1      76.552  13.768  46.216  1.00  0.00    -0.507 OA
ATOM     23  H   UNL     1      77.302  13.600  45.554  1.00  0.00     0.293 HD
ENDBRANCH   6  22
BRANCH   8  24
ATOM     24  O   UNL     1      75.373  17.264  49.351  1.00  0.00    -0.508 OA
ATOM     25  H   UNL     1      74.704  16.875  50.004  1.00  0.00     0.293 HD
ENDBRANCH   8  24
TORSDOF 5
ENDMDL
MODEL 9
REMARK VINA RESULT:    -5.295      2.215      3.382
REMARK INTER + INTRA:          -6.486
REMARK INTER:                  -6.218
REMARK INTRA:                  -0.268
REMARK UNBOUND:                -0.263
REMARK SMILES O=c1cc(-c2ccc(O)c(O)c2)oc2cc(O)cc(O)c12
REMARK SMILES IDX 4 1 3 2 2 3 1 4 21 5 19 6 18 7 16 8 15 9 14 10 13 11 5 12
REMARK SMILES IDX 6 13 7 14 8 15 12 16 10 17 9 18 11 20 20 22 17 24
REMARK H PARENT 9 19 11 21 20 23 17 25
REMARK Flexibility Score: inf
ROOT
ATOM      1  C   UNL     1      79.676  24.507  45.477  1.00  0.00     0.138 A 
ATOM      2  C   UNL     1      80.947  24.522  44.878  1.00  0.00     0.100 A 
ATOM      3  C   UNL     1      81.116  23.959  43.614  1.00  0.00     0.197 A 
ATOM      4  O   UNL     1      82.260  23.978  43.083  1.00  0.00    -0.289 OA
ATOM      5  C   UNL     1      80.011  23.386  42.953  1.00  0.00     0.107 A 
ATOM      6  C   UNL     1      80.096  22.793  41.671  1.00  0.00     0.134 A 
ATOM      7  C   UNL     1      78.946  22.249  41.080  1.00  0.00     0.093 A 
ATOM      8  C   UNL     1      77.716  22.288  41.746  1.00  0.00     0.123 A 
ATOM      9  C   UNL     1      77.627  22.871  43.011  1.00  0.00     0.094 A 
ATOM     10  C   UNL     1      78.761  23.417  43.617  1.00  0.00     0.146 A 
ATOM     11  O   UNL     1      78.651  23.967  44.823  1.00  0.00    -0.456 OA
ENDROOT
BRANCH   1  12
ATOM     12  C   UNL     1      79.437  25.092  46.821  1.00  0.00     0.021 A 
ATOM     13  C   UNL     1      78.497  26.128  46.966  1.00  0.00     0.016 A 
ATOM     14  C   UNL     1      78.248  26.690  48.220  1.00  0.00     0.051 A 
ATOM     15  C   UNL     1      78.926  26.222  49.352  1.00  0.00     0.157 A 
ATOM     16  C   UNL     1      80.106  24.618  47.966  1.00  0.00     0.062 A 
ATOM     17  C   UNL     1      79.854  25.182  49.226  1.00  0.00     0.158 A 
BRANCH  15  18
ATOM     18  O   UNL     1      78.681  26.782  50.605  1.00  0.00    -0.504 OA
ATOM     19  H   UNL     1      79.332  26.664  51.374  1.00  0.00     0.293 HD
ENDBRANCH  15  18
BRANCH  17  20
ATOM     20  O   UNL     1      80.519  24.710  50.355  1.00  0.00    -0.504 OA
ATOM     21  H   UNL     1      80.516  25.225  51.227  1.00  0.00     0.293 HD
ENDBRANCH  17  20
ENDBRANCH   1  12
BRANCH   6  22
ATOM     22  O   UNL     1      81.309  22.741  40.984  1.00  0.00    -0.507 OA
ATOM     23  H   UNL     1      81.725  23.571  40.574  1.00  0.00     0.293 HD
ENDBRANCH   6  22
BRANCH   8  24
ATOM     24  O   UNL     1      76.573  21.747  41.157  1.00  0.00    -0.508 OA
ATOM     25  H   UNL     1      76.634  21.048  40.428  1.00  0.00     0.293 HD
ENDBRANCH   8  24
TORSDOF 5
ENDMDL
