MODEL 1
REMARK VINA RESULT:    -4.916      0.000      0.000
REMARK INTER + INTRA:          -6.265
REMARK INTER:                  -6.066
REMARK INTRA:                  -0.199
REMARK UNBOUND:                -0.199
REMARK SMILES Oc1cc(O)c2cc(O)c(-c3cc(O)c(O)c(O)c3)[o+]c2c1
REMARK SMILES IDX 10 1 20 2 21 3 22 4 2 5 3 6 4 7 6 8 7 9 8 10 11 11 12 12
REMARK SMILES IDX 13 13 19 14 15 15 17 16 14 17 16 19 18 21 9 23 1 25 5 27
REMARK H PARENT 14 18 16 20 18 22 9 24 1 26 5 28
REMARK Flexibility Score: inf
ROOT
ATOM      1  C   UNL     1      -8.912  -4.174  -0.251  1.00  0.00     0.402 A 
ATOM      2  O   UNL     1      -8.958  -3.111   0.546  1.00  0.00    -0.202 OA
ATOM      3  C   UNL     1      -9.223  -3.184   1.846  1.00  0.00     0.368 A 
ATOM      4  C   UNL     1      -9.252  -2.008   2.602  1.00  0.00     0.162 A 
ATOM      5  C   UNL     1      -9.531  -2.057   3.971  1.00  0.00     0.128 A 
ATOM      6  C   UNL     1      -9.782  -3.284   4.586  1.00  0.00     0.093 A 
ATOM      7  C   UNL     1      -9.760  -4.477   3.852  1.00  0.00     0.136 A 
ATOM      8  C   UNL     1      -9.474  -4.433   2.462  1.00  0.00     0.125 A 
ATOM      9  C   UNL     1      -9.417  -5.578   1.650  1.00  0.00     0.078 A 
ATOM     10  C   UNL     1      -9.125  -5.457   0.288  1.00  0.00     0.223 A 
ENDROOT
BRANCH   1  11
ATOM     11  C   UNL     1      -8.616  -3.962  -1.686  1.00  0.00     0.091 A 
ATOM     12  C   UNL     1      -9.516  -4.368  -2.687  1.00  0.00     0.068 A 
ATOM     13  C   UNL     1      -9.228  -4.138  -4.038  1.00  0.00     0.162 A 
ATOM     14  C   UNL     1      -7.441  -3.291  -2.056  1.00  0.00     0.068 A 
ATOM     15  C   UNL     1      -8.042  -3.487  -4.402  1.00  0.00     0.200 A 
ATOM     16  C   UNL     1      -7.146  -3.059  -3.408  1.00  0.00     0.162 A 
BRANCH  13  17
ATOM     17  O   UNL     1     -10.120  -4.548  -5.029  1.00  0.00    -0.504 OA
ATOM     18  H   UNL     1     -10.272  -3.997  -5.865  1.00  0.00     0.293 HD
ENDBRANCH  13  17
BRANCH  15  19
ATOM     19  O   UNL     1      -7.770  -3.269  -5.754  1.00  0.00    -0.502 OA
ATOM     20  H   UNL     1      -7.383  -3.992  -6.348  1.00  0.00     0.293 HD
ENDBRANCH  15  19
BRANCH  16  21
ATOM     21  O   UNL     1      -5.968  -2.403  -3.764  1.00  0.00    -0.504 OA
ATOM     22  H   UNL     1      -5.428  -2.685  -4.572  1.00  0.00     0.293 HD
ENDBRANCH  16  21
ENDBRANCH   1  11
BRANCH  10  23
ATOM     23  O   UNL     1      -9.019  -6.597  -0.509  1.00  0.00    -0.500 OA
ATOM     24  H   UNL     1      -9.176  -7.525  -0.134  1.00  0.00     0.294 HD
ENDBRANCH  10  23
BRANCH   5  25
ATOM     25  O   UNL     1      -9.561  -0.889   4.730  1.00  0.00    -0.507 OA
ATOM     26  H   UNL     1      -8.781  -0.618   5.318  1.00  0.00     0.293 HD
ENDBRANCH   5  25
BRANCH   7  27
ATOM     27  O   UNL     1     -10.025  -5.663   4.541  1.00  0.00    -0.507 OA
ATOM     28  H   UNL     1     -10.554  -5.719   5.399  1.00  0.00     0.293 HD
ENDBRANCH   7  27
TORSDOF 7
ENDMDL
MODEL 2
REMARK VINA RESULT:    -4.430      2.422      4.758
REMARK INTER + INTRA:          -5.665
REMARK INTER:                  -5.369
REMARK INTRA:                  -0.296
REMARK UNBOUND:                -0.199
REMARK SMILES Oc1cc(O)c2cc(O)c(-c3cc(O)c(O)c(O)c3)[o+]c2c1
REMARK SMILES IDX 10 1 20 2 21 3 22 4 2 5 3 6 4 7 6 8 7 9 8 10 11 11 12 12
REMARK SMILES IDX 13 13 19 14 15 15 17 16 14 17 16 19 18 21 9 23 1 25 5 27
REMARK H PARENT 14 18 16 20 18 22 9 24 1 26 5 28
REMARK Flexibility Score: inf
ROOT
ATOM      1  C   UNL     1      -8.017  -4.148  -4.063  1.00  0.00     0.402 A 
ATOM      2  O   UNL     1      -8.656  -4.961  -3.227  1.00  0.00    -0.202 OA
ATOM      3  C   UNL     1      -8.687  -4.778  -1.911  1.00  0.00     0.368 A 
ATOM      4  C   UNL     1      -9.385  -5.689  -1.113  1.00  0.00     0.162 A 
ATOM      5  C   UNL     1      -9.430  -5.521   0.274  1.00  0.00     0.128 A 
ATOM      6  C   UNL     1      -8.776  -4.438   0.865  1.00  0.00     0.093 A 
ATOM      7  C   UNL     1      -8.070  -3.511   0.089  1.00  0.00     0.136 A 
ATOM      8  C   UNL     1      -8.023  -3.676  -1.321  1.00  0.00     0.125 A 
ATOM      9  C   UNL     1      -7.352  -2.789  -2.179  1.00  0.00     0.078 A 
ATOM     10  C   UNL     1      -7.353  -3.014  -3.559  1.00  0.00     0.223 A 
ENDROOT
BRANCH   1  11
ATOM     11  C   UNL     1      -8.048  -4.465  -5.509  1.00  0.00     0.091 A 
ATOM     12  C   UNL     1      -8.813  -3.703  -6.409  1.00  0.00     0.068 A 
ATOM     13  C   UNL     1      -8.811  -4.005  -7.777  1.00  0.00     0.162 A 
ATOM     14  C   UNL     1      -7.255  -5.511  -6.003  1.00  0.00     0.068 A 
ATOM     15  C   UNL     1      -8.034  -5.065  -8.261  1.00  0.00     0.200 A 
ATOM     16  C   UNL     1      -7.250  -5.820  -7.371  1.00  0.00     0.162 A 
BRANCH  13  17
ATOM     17  O   UNL     1      -9.576  -3.251  -8.666  1.00  0.00    -0.504 OA
ATOM     18  H   UNL     1      -9.908  -2.325  -8.426  1.00  0.00     0.293 HD
ENDBRANCH  13  17
BRANCH  15  19
ATOM     19  O   UNL     1      -8.048  -5.354  -9.626  1.00  0.00    -0.502 OA
ATOM     20  H   UNL     1      -7.991  -6.303  -9.976  1.00  0.00     0.293 HD
ENDBRANCH  15  19
BRANCH  16  21
ATOM     21  O   UNL     1      -6.468  -6.871  -7.848  1.00  0.00    -0.504 OA
ATOM     22  H   UNL     1      -5.812  -7.359  -7.250  1.00  0.00     0.293 HD
ENDBRANCH  16  21
ENDBRANCH   1  11
BRANCH  10  23
ATOM     23  O   UNL     1      -6.729  -2.108  -4.416  1.00  0.00    -0.500 OA
ATOM     24  H   UNL     1      -6.836  -2.167  -5.422  1.00  0.00     0.294 HD
ENDBRANCH  10  23
BRANCH   5  25
ATOM     25  O   UNL     1     -10.124  -6.426   1.075  1.00  0.00    -0.507 OA
ATOM     26  H   UNL     1     -10.045  -7.426   0.937  1.00  0.00     0.293 HD
ENDBRANCH   5  25
BRANCH   7  27
ATOM     27  O   UNL     1      -7.440  -2.458   0.757  1.00  0.00    -0.507 OA
ATOM     28  H   UNL     1      -6.572  -2.541   1.263  1.00  0.00     0.293 HD
ENDBRANCH   7  27
TORSDOF 7
ENDMDL
MODEL 3
REMARK VINA RESULT:    -4.412      1.452      7.466
REMARK INTER + INTRA:          -5.643
REMARK INTER:                  -5.621
REMARK INTRA:                  -0.022
REMARK UNBOUND:                -0.199
REMARK SMILES Oc1cc(O)c2cc(O)c(-c3cc(O)c(O)c(O)c3)[o+]c2c1
REMARK SMILES IDX 10 1 20 2 21 3 22 4 2 5 3 6 4 7 6 8 7 9 8 10 11 11 12 12
REMARK SMILES IDX 13 13 19 14 15 15 17 16 14 17 16 19 18 21 9 23 1 25 5 27
REMARK H PARENT 14 18 16 20 18 22 9 24 1 26 5 28
REMARK Flexibility Score: inf
ROOT
ATOM      1  C   UNL     1      -8.664  -4.465  -0.652  1.00  0.00     0.402 A 
ATOM      2  O   UNL     1      -9.145  -5.199  -1.652  1.00  0.00    -0.202 OA
ATOM      3  C   UNL     1      -8.911  -4.932  -2.932  1.00  0.00     0.368 A 
ATOM      4  C   UNL     1      -9.464  -5.761  -3.913  1.00  0.00     0.162 A 
ATOM      5  C   UNL     1      -9.234  -5.501  -5.267  1.00  0.00     0.128 A 
ATOM      6  C   UNL     1      -8.450  -4.409  -5.642  1.00  0.00     0.093 A 
ATOM      7  C   UNL     1      -7.885  -3.563  -4.680  1.00  0.00     0.136 A 
ATOM      8  C   UNL     1      -8.112  -3.824  -3.303  1.00  0.00     0.125 A 
ATOM      9  C   UNL     1      -7.575  -3.038  -2.270  1.00  0.00     0.078 A 
ATOM     10  C   UNL     1      -7.840  -3.360  -0.935  1.00  0.00     0.223 A 
ENDROOT
BRANCH   1  11
ATOM     11  C   UNL     1      -9.005  -4.859   0.733  1.00  0.00     0.091 A 
ATOM     12  C   UNL     1      -9.399  -3.907   1.689  1.00  0.00     0.068 A 
ATOM     13  C   UNL     1      -9.740  -4.302   2.989  1.00  0.00     0.162 A 
ATOM     14  C   UNL     1      -8.991  -6.216   1.088  1.00  0.00     0.068 A 
ATOM     15  C   UNL     1      -9.703  -5.657   3.343  1.00  0.00     0.200 A 
ATOM     16  C   UNL     1      -9.330  -6.618   2.389  1.00  0.00     0.162 A 
BRANCH  13  17
ATOM     17  O   UNL     1     -10.124  -3.354   3.937  1.00  0.00    -0.504 OA
ATOM     18  H   UNL     1      -9.503  -3.072   4.686  1.00  0.00     0.293 HD
ENDBRANCH  13  17
BRANCH  15  19
ATOM     19  O   UNL     1     -10.042  -6.032   4.644  1.00  0.00    -0.502 OA
ATOM     20  H   UNL     1     -10.020  -6.997   4.949  1.00  0.00     0.293 HD
ENDBRANCH  15  19
BRANCH  16  21
ATOM     21  O   UNL     1      -9.299  -7.969   2.733  1.00  0.00    -0.504 OA
ATOM     22  H   UNL     1      -9.918  -8.352   3.437  1.00  0.00     0.293 HD
ENDBRANCH  16  21
ENDBRANCH   1  11
BRANCH  10  23
ATOM     23  O   UNL     1      -7.267  -2.610   0.092  1.00  0.00    -0.500 OA
ATOM     24  H   UNL     1      -7.404  -2.852   1.067  1.00  0.00     0.294 HD
ENDBRANCH  10  23
BRANCH   5  25
ATOM     25  O   UNL     1      -9.781  -6.324  -6.249  1.00  0.00    -0.507 OA
ATOM     26  H   UNL     1      -9.225  -7.025  -6.726  1.00  0.00     0.293 HD
ENDBRANCH   5  25
BRANCH   7  27
ATOM     27  O   UNL     1      -7.115  -2.489  -5.138  1.00  0.00    -0.507 OA
ATOM     28  H   UNL     1      -6.806  -1.722  -4.561  1.00  0.00     0.293 HD
ENDBRANCH   7  27
TORSDOF 7
ENDMDL
MODEL 4
REMARK VINA RESULT:    -4.375     14.638     16.922
REMARK INTER + INTRA:          -5.597
REMARK INTER:                  -5.545
REMARK INTRA:                  -0.052
REMARK UNBOUND:                -0.199
REMARK SMILES Oc1cc(O)c2cc(O)c(-c3cc(O)c(O)c(O)c3)[o+]c2c1
REMARK SMILES IDX 10 1 20 2 21 3 22 4 2 5 3 6 4 7 6 8 7 9 8 10 11 11 12 12
REMARK SMILES IDX 13 13 19 14 15 15 17 16 14 17 16 19 18 21 9 23 1 25 5 27
REMARK H PARENT 14 18 16 20 18 22 9 24 1 26 5 28
REMARK Flexibility Score: inf
ROOT
ATOM      1  C   UNL     1       3.193   4.752   6.891  1.00  0.00     0.402 A 
ATOM      2  O   UNL     1       1.932   4.341   6.784  1.00  0.00    -0.202 OA
ATOM      3  C   UNL     1       0.897   5.172   6.723  1.00  0.00     0.368 A 
ATOM      4  C   UNL     1      -0.394   4.644   6.615  1.00  0.00     0.162 A 
ATOM      5  C   UNL     1      -1.500   5.496   6.551  1.00  0.00     0.128 A 
ATOM      6  C   UNL     1      -1.316   6.879   6.596  1.00  0.00     0.093 A 
ATOM      7  C   UNL     1      -0.035   7.433   6.705  1.00  0.00     0.136 A 
ATOM      8  C   UNL     1       1.093   6.573   6.767  1.00  0.00     0.125 A 
ATOM      9  C   UNL     1       2.414   7.039   6.863  1.00  0.00     0.078 A 
ATOM     10  C   UNL     1       3.476   6.130   6.915  1.00  0.00     0.223 A 
ENDROOT
BRANCH   1  11
ATOM     11  C   UNL     1       4.259   3.727   6.961  1.00  0.00     0.091 A 
ATOM     12  C   UNL     1       5.383   3.782   6.118  1.00  0.00     0.068 A 
ATOM     13  C   UNL     1       6.393   2.815   6.215  1.00  0.00     0.162 A 
ATOM     14  C   UNL     1       4.178   2.710   7.924  1.00  0.00     0.068 A 
ATOM     15  C   UNL     1       6.294   1.790   7.165  1.00  0.00     0.200 A 
ATOM     16  C   UNL     1       5.184   1.739   8.025  1.00  0.00     0.162 A 
BRANCH  13  17
ATOM     17  O   UNL     1       7.504   2.869   5.374  1.00  0.00    -0.504 OA
ATOM     18  H   UNL     1       8.164   2.103   5.319  1.00  0.00     0.293 HD
ENDBRANCH  13  17
BRANCH  15  19
ATOM     19  O   UNL     1       7.308   0.834   7.245  1.00  0.00    -0.502 OA
ATOM     20  H   UNL     1       8.167   1.001   7.754  1.00  0.00     0.293 HD
ENDBRANCH  15  19
BRANCH  16  21
ATOM     21  O   UNL     1       5.085   0.726   8.978  1.00  0.00    -0.504 OA
ATOM     22  H   UNL     1       5.644  -0.116   8.918  1.00  0.00     0.293 HD
ENDBRANCH  16  21
ENDBRANCH   1  11
BRANCH  10  23
ATOM     23  O   UNL     1       4.791   6.591   6.960  1.00  0.00    -0.500 OA
ATOM     24  H   UNL     1       5.061   7.373   7.546  1.00  0.00     0.294 HD
ENDBRANCH  10  23
BRANCH   5  25
ATOM     25  O   UNL     1      -2.789   4.977   6.442  1.00  0.00    -0.507 OA
ATOM     26  H   UNL     1      -2.956   3.979   6.387  1.00  0.00     0.293 HD
ENDBRANCH   5  25
BRANCH   7  27
ATOM     27  O   UNL     1       0.064   8.827   6.748  1.00  0.00    -0.507 OA
ATOM     28  H   UNL     1       0.933   9.338   6.736  1.00  0.00     0.293 HD
ENDBRANCH   7  27
TORSDOF 7
ENDMDL
MODEL 5
REMARK VINA RESULT:    -4.373     15.168     16.959
REMARK INTER + INTRA:          -5.595
REMARK INTER:                  -5.214
REMARK INTRA:                  -0.380
REMARK UNBOUND:                -0.199
REMARK SMILES Oc1cc(O)c2cc(O)c(-c3cc(O)c(O)c(O)c3)[o+]c2c1
REMARK SMILES IDX 10 1 20 2 21 3 22 4 2 5 3 6 4 7 6 8 7 9 8 10 11 11 12 12
REMARK SMILES IDX 13 13 19 14 15 15 17 16 14 17 16 19 18 21 9 23 1 25 5 27
REMARK H PARENT 14 18 16 20 18 22 9 24 1 26 5 28
REMARK Flexibility Score: inf
ROOT
ATOM      1  C   UNL     1       5.012  -5.356   7.377  1.00  0.00     0.402 A 
ATOM      2  O   UNL     1       5.234  -5.582   6.085  1.00  0.00    -0.202 OA
ATOM      3  C   UNL     1       6.334  -6.169   5.625  1.00  0.00     0.368 A 
ATOM      4  C   UNL     1       6.478  -6.362   4.248  1.00  0.00     0.162 A 
ATOM      5  C   UNL     1       7.627  -6.974   3.738  1.00  0.00     0.128 A 
ATOM      6  C   UNL     1       8.635  -7.394   4.608  1.00  0.00     0.093 A 
ATOM      7  C   UNL     1       8.516  -7.213   5.991  1.00  0.00     0.136 A 
ATOM      8  C   UNL     1       7.350  -6.594   6.514  1.00  0.00     0.125 A 
ATOM      9  C   UNL     1       7.139  -6.384   7.887  1.00  0.00     0.078 A 
ATOM     10  C   UNL     1       5.962  -5.771   8.329  1.00  0.00     0.223 A 
ENDROOT
BRANCH   1  11
ATOM     11  C   UNL     1       3.751  -4.684   7.763  1.00  0.00     0.091 A 
ATOM     12  C   UNL     1       3.652  -3.283   7.811  1.00  0.00     0.068 A 
ATOM     13  C   UNL     1       2.443  -2.665   8.157  1.00  0.00     0.162 A 
ATOM     14  C   UNL     1       2.612  -5.457   8.033  1.00  0.00     0.068 A 
ATOM     15  C   UNL     1       1.316  -3.445   8.447  1.00  0.00     0.200 A 
ATOM     16  C   UNL     1       1.399  -4.846   8.382  1.00  0.00     0.162 A 
BRANCH  13  17
ATOM     17  O   UNL     1       2.351  -1.275   8.211  1.00  0.00    -0.504 OA
ATOM     18  H   UNL     1       1.463  -0.799   8.106  1.00  0.00     0.293 HD
ENDBRANCH  13  17
BRANCH  15  19
ATOM     19  O   UNL     1       0.121  -2.813   8.794  1.00  0.00    -0.502 OA
ATOM     20  H   UNL     1      -0.438  -3.113   9.584  1.00  0.00     0.293 HD
ENDBRANCH  15  19
BRANCH  16  21
ATOM     21  O   UNL     1       0.277  -5.626   8.661  1.00  0.00    -0.504 OA
ATOM     22  H   UNL     1       0.327  -6.637   8.687  1.00  0.00     0.293 HD
ENDBRANCH  16  21
ENDBRANCH   1  11
BRANCH  10  23
ATOM     23  O   UNL     1       5.728  -5.606   9.694  1.00  0.00    -0.500 OA
ATOM     24  H   UNL     1       4.802  -5.710  10.092  1.00  0.00     0.294 HD
ENDBRANCH  10  23
BRANCH   5  25
ATOM     25  O   UNL     1       7.776  -7.170   2.367  1.00  0.00    -0.507 OA
ATOM     26  H   UNL     1       7.600  -8.071   1.937  1.00  0.00     0.293 HD
ENDBRANCH   5  25
BRANCH   7  27
ATOM     27  O   UNL     1       9.571  -7.658   6.793  1.00  0.00    -0.507 OA
ATOM     28  H   UNL     1      10.547  -7.537   6.571  1.00  0.00     0.293 HD
ENDBRANCH   7  27
TORSDOF 7
ENDMDL
MODEL 6
REMARK VINA RESULT:    -4.333     14.690     17.113
REMARK INTER + INTRA:          -5.545
REMARK INTER:                  -5.199
REMARK INTRA:                  -0.347
REMARK UNBOUND:                -0.199
REMARK SMILES Oc1cc(O)c2cc(O)c(-c3cc(O)c(O)c(O)c3)[o+]c2c1
REMARK SMILES IDX 10 1 20 2 21 3 22 4 2 5 3 6 4 7 6 8 7 9 8 10 11 11 12 12
REMARK SMILES IDX 13 13 19 14 15 15 17 16 14 17 16 19 18 21 9 23 1 25 5 27
REMARK H PARENT 14 18 16 20 18 22 9 24 1 26 5 28
REMARK Flexibility Score: inf
ROOT
ATOM      1  C   UNL     1       2.648   4.706   7.596  1.00  0.00     0.402 A 
ATOM      2  O   UNL     1       3.567   4.370   6.695  1.00  0.00    -0.202 OA
ATOM      3  C   UNL     1       4.776   3.923   7.016  1.00  0.00     0.368 A 
ATOM      4  C   UNL     1       5.675   3.598   5.997  1.00  0.00     0.162 A 
ATOM      5  C   UNL     1       6.954   3.128   6.308  1.00  0.00     0.128 A 
ATOM      6  C   UNL     1       7.335   2.982   7.643  1.00  0.00     0.093 A 
ATOM      7  C   UNL     1       6.454   3.301   8.684  1.00  0.00     0.136 A 
ATOM      8  C   UNL     1       5.153   3.776   8.373  1.00  0.00     0.125 A 
ATOM      9  C   UNL     1       4.199   4.106   9.349  1.00  0.00     0.078 A 
ATOM     10  C   UNL     1       2.934   4.565   8.966  1.00  0.00     0.223 A 
ENDROOT
BRANCH   1  11
ATOM     11  C   UNL     1       1.340   5.201   7.111  1.00  0.00     0.091 A 
ATOM     12  C   UNL     1       1.010   6.567   7.161  1.00  0.00     0.068 A 
ATOM     13  C   UNL     1      -0.224   7.020   6.676  1.00  0.00     0.162 A 
ATOM     14  C   UNL     1       0.430   4.301   6.537  1.00  0.00     0.068 A 
ATOM     15  C   UNL     1      -1.137   6.111   6.125  1.00  0.00     0.200 A 
ATOM     16  C   UNL     1      -0.808   4.747   6.051  1.00  0.00     0.162 A 
BRANCH  13  17
ATOM     17  O   UNL     1      -0.550   8.374   6.734  1.00  0.00    -0.504 OA
ATOM     18  H   UNL     1      -1.297   8.763   6.171  1.00  0.00     0.293 HD
ENDBRANCH  13  17
BRANCH  15  19
ATOM     19  O   UNL     1      -2.363   6.579   5.651  1.00  0.00    -0.502 OA
ATOM     20  H   UNL     1      -2.479   6.923   4.705  1.00  0.00     0.293 HD
ENDBRANCH  15  19
BRANCH  16  21
ATOM     21  O   UNL     1      -1.709   3.840   5.496  1.00  0.00    -0.504 OA
ATOM     22  H   UNL     1      -1.514   3.364   4.623  1.00  0.00     0.293 HD
ENDBRANCH  16  21
ENDBRANCH   1  11
BRANCH  10  23
ATOM     23  O   UNL     1       1.969   4.846   9.933  1.00  0.00    -0.500 OA
ATOM     24  H   UNL     1       1.543   5.763  10.009  1.00  0.00     0.294 HD
ENDBRANCH  10  23
BRANCH   5  25
ATOM     25  O   UNL     1       7.855   2.802   5.297  1.00  0.00    -0.507 OA
ATOM     26  H   UNL     1       8.823   2.578   5.500  1.00  0.00     0.293 HD
ENDBRANCH   5  25
BRANCH   7  27
ATOM     27  O   UNL     1       6.913   3.130   9.993  1.00  0.00    -0.507 OA
ATOM     28  H   UNL     1       7.804   3.461  10.333  1.00  0.00     0.293 HD
ENDBRANCH   7  27
TORSDOF 7
ENDMDL
MODEL 7
REMARK VINA RESULT:    -4.241      3.520      6.346
REMARK INTER + INTRA:          -5.432
REMARK INTER:                  -5.087
REMARK INTRA:                  -0.345
REMARK UNBOUND:                -0.199
REMARK SMILES Oc1cc(O)c2cc(O)c(-c3cc(O)c(O)c(O)c3)[o+]c2c1
REMARK SMILES IDX 10 1 20 2 21 3 22 4 2 5 3 6 4 7 6 8 7 9 8 10 11 11 12 12
REMARK SMILES IDX 13 13 19 14 15 15 17 16 14 17 16 19 18 21 9 23 1 25 5 27
REMARK H PARENT 14 18 16 20 18 22 9 24 1 26 5 28
REMARK Flexibility Score: inf
ROOT
ATOM      1  C   UNL     1      -7.627  -1.695  -4.902  1.00  0.00     0.402 A 
ATOM      2  O   UNL     1      -7.479  -2.000  -3.616  1.00  0.00    -0.202 OA
ATOM      3  C   UNL     1      -7.910  -3.137  -3.081  1.00  0.00     0.368 A 
ATOM      4  C   UNL     1      -7.710  -3.366  -1.716  1.00  0.00     0.162 A 
ATOM      5  C   UNL     1      -8.156  -4.553  -1.128  1.00  0.00     0.128 A 
ATOM      6  C   UNL     1      -8.803  -5.514  -1.907  1.00  0.00     0.093 A 
ATOM      7  C   UNL     1      -9.017  -5.310  -3.275  1.00  0.00     0.136 A 
ATOM      8  C   UNL     1      -8.563  -4.107  -3.878  1.00  0.00     0.125 A 
ATOM      9  C   UNL     1      -8.720  -3.822  -5.244  1.00  0.00     0.078 A 
ATOM     10  C   UNL     1      -8.244  -2.617  -5.769  1.00  0.00     0.223 A 
ENDROOT
BRANCH   1  11
ATOM     11  C   UNL     1      -7.113  -0.390  -5.377  1.00  0.00     0.091 A 
ATOM     12  C   UNL     1      -7.818   0.803  -5.144  1.00  0.00     0.068 A 
ATOM     13  C   UNL     1      -7.304   2.031  -5.580  1.00  0.00     0.162 A 
ATOM     14  C   UNL     1      -5.869  -0.332  -6.023  1.00  0.00     0.068 A 
ATOM     15  C   UNL     1      -6.071   2.079  -6.245  1.00  0.00     0.200 A 
ATOM     16  C   UNL     1      -5.349   0.893  -6.464  1.00  0.00     0.162 A 
BRANCH  13  17
ATOM     17  O   UNL     1      -8.009   3.212  -5.353  1.00  0.00    -0.504 OA
ATOM     18  H   UNL     1      -8.873   3.415  -5.841  1.00  0.00     0.293 HD
ENDBRANCH  13  17
BRANCH  15  19
ATOM     19  O   UNL     1      -5.576   3.310  -6.677  1.00  0.00    -0.502 OA
ATOM     20  H   UNL     1      -5.138   3.967  -6.043  1.00  0.00     0.293 HD
ENDBRANCH  15  19
BRANCH  16  21
ATOM     21  O   UNL     1      -4.118   0.936  -7.118  1.00  0.00    -0.504 OA
ATOM     22  H   UNL     1      -3.683   1.814  -7.373  1.00  0.00     0.293 HD
ENDBRANCH  16  21
ENDBRANCH   1  11
BRANCH  10  23
ATOM     23  O   UNL     1      -8.355  -2.354  -7.134  1.00  0.00    -0.500 OA
ATOM     24  H   UNL     1      -9.247  -2.134  -7.563  1.00  0.00     0.294 HD
ENDBRANCH  10  23
BRANCH   5  25
ATOM     25  O   UNL     1      -7.959  -4.788   0.231  1.00  0.00    -0.507 OA
ATOM     26  H   UNL     1      -7.194  -4.359   0.738  1.00  0.00     0.293 HD
ENDBRANCH   5  25
BRANCH   7  27
ATOM     27  O   UNL     1      -9.675  -6.319  -3.983  1.00  0.00    -0.507 OA
ATOM     28  H   UNL     1     -10.422  -6.885  -3.608  1.00  0.00     0.293 HD
ENDBRANCH   7  27
TORSDOF 7
ENDMDL
MODEL 8
REMARK VINA RESULT:    -4.209      4.774      9.323
REMARK INTER + INTRA:          -5.393
REMARK INTER:                  -5.022
REMARK INTRA:                  -0.370
REMARK UNBOUND:                -0.199
REMARK SMILES Oc1cc(O)c2cc(O)c(-c3cc(O)c(O)c(O)c3)[o+]c2c1
REMARK SMILES IDX 10 1 20 2 21 3 22 4 2 5 3 6 4 7 6 8 7 9 8 10 11 11 12 12
REMARK SMILES IDX 13 13 19 14 15 15 17 16 14 17 16 19 18 21 9 23 1 25 5 27
REMARK H PARENT 14 18 16 20 18 22 9 24 1 26 5 28
REMARK Flexibility Score: inf
ROOT
ATOM      1  C   UNL     1      -7.118  -0.481  -5.557  1.00  0.00     0.402 A 
ATOM      2  O   UNL     1      -5.879  -0.281  -5.997  1.00  0.00    -0.202 OA
ATOM      3  C   UNL     1      -5.471   0.864  -6.534  1.00  0.00     0.368 A 
ATOM      4  C   UNL     1      -4.148   0.977  -6.971  1.00  0.00     0.162 A 
ATOM      5  C   UNL     1      -3.694   2.170  -7.542  1.00  0.00     0.128 A 
ATOM      6  C   UNL     1      -4.565   3.251  -7.678  1.00  0.00     0.093 A 
ATOM      7  C   UNL     1      -5.895   3.164  -7.250  1.00  0.00     0.136 A 
ATOM      8  C   UNL     1      -6.361   1.956  -6.666  1.00  0.00     0.125 A 
ATOM      9  C   UNL     1      -7.673   1.783  -6.195  1.00  0.00     0.078 A 
ATOM     10  C   UNL     1      -8.058   0.564  -5.628  1.00  0.00     0.223 A 
ENDROOT
BRANCH   1  11
ATOM     11  C   UNL     1      -7.454  -1.806  -4.987  1.00  0.00     0.091 A 
ATOM     12  C   UNL     1      -7.203  -2.107  -3.637  1.00  0.00     0.068 A 
ATOM     13  C   UNL     1      -7.549  -3.358  -3.111  1.00  0.00     0.162 A 
ATOM     14  C   UNL     1      -8.088  -2.763  -5.794  1.00  0.00     0.068 A 
ATOM     15  C   UNL     1      -8.161  -4.318  -3.928  1.00  0.00     0.200 A 
ATOM     16  C   UNL     1      -8.435  -4.018  -5.273  1.00  0.00     0.162 A 
BRANCH  13  17
ATOM     17  O   UNL     1      -7.293  -3.656  -1.773  1.00  0.00    -0.504 OA
ATOM     18  H   UNL     1      -7.039  -4.591  -1.478  1.00  0.00     0.293 HD
ENDBRANCH  13  17
BRANCH  15  19
ATOM     19  O   UNL     1      -8.495  -5.561  -3.388  1.00  0.00    -0.502 OA
ATOM     20  H   UNL     1      -9.102  -6.212  -3.871  1.00  0.00     0.293 HD
ENDBRANCH  15  19
BRANCH  16  21
ATOM     21  O   UNL     1      -9.052  -4.967  -6.089  1.00  0.00    -0.504 OA
ATOM     22  H   UNL     1      -8.514  -5.642  -6.618  1.00  0.00     0.293 HD
ENDBRANCH  16  21
ENDBRANCH   1  11
BRANCH  10  23
ATOM     23  O   UNL     1      -9.346   0.406  -5.116  1.00  0.00    -0.500 OA
ATOM     24  H   UNL     1     -10.037   1.145  -5.177  1.00  0.00     0.294 HD
ENDBRANCH  10  23
BRANCH   5  25
ATOM     25  O   UNL     1      -2.376   2.289  -7.979  1.00  0.00    -0.507 OA
ATOM     26  H   UNL     1      -2.063   1.865  -8.844  1.00  0.00     0.293 HD
ENDBRANCH   5  25
BRANCH   7  27
ATOM     27  O   UNL     1      -6.704   4.291  -7.424  1.00  0.00    -0.507 OA
ATOM     28  H   UNL     1      -6.618   4.942  -8.189  1.00  0.00     0.293 HD
ENDBRANCH   7  27
TORSDOF 7
ENDMDL
MODEL 9
REMARK VINA RESULT:    -4.207      4.950      9.430
REMARK INTER + INTRA:          -5.390
REMARK INTER:                  -5.014
REMARK INTRA:                  -0.376
REMARK UNBOUND:                -0.199
REMARK SMILES Oc1cc(O)c2cc(O)c(-c3cc(O)c(O)c(O)c3)[o+]c2c1
REMARK SMILES IDX 10 1 20 2 21 3 22 4 2 5 3 6 4 7 6 8 7 9 8 10 11 11 12 12
REMARK SMILES IDX 13 13 19 14 15 15 17 16 14 17 16 19 18 21 9 23 1 25 5 27
REMARK H PARENT 14 18 16 20 18 22 9 24 1 26 5 28
REMARK Flexibility Score: inf
ROOT
ATOM      1  C   UNL     1      -6.764  -0.220  -5.625  1.00  0.00     0.402 A 
ATOM      2  O   UNL     1      -5.554  -0.375  -6.155  1.00  0.00    -0.202 OA
ATOM      3  C   UNL     1      -4.815   0.638  -6.594  1.00  0.00     0.368 A 
ATOM      4  C   UNL     1      -3.554   0.375  -7.138  1.00  0.00     0.162 A 
ATOM      5  C   UNL     1      -2.758   1.423  -7.610  1.00  0.00     0.128 A 
ATOM      6  C   UNL     1      -3.223   2.737  -7.537  1.00  0.00     0.093 A 
ATOM      7  C   UNL     1      -4.481   3.028  -6.997  1.00  0.00     0.136 A 
ATOM      8  C   UNL     1      -5.293   1.968  -6.514  1.00  0.00     0.125 A 
ATOM      9  C   UNL     1      -6.561   2.166  -5.944  1.00  0.00     0.078 A 
ATOM     10  C   UNL     1      -7.303   1.073  -5.486  1.00  0.00     0.223 A 
ENDROOT
BRANCH   1  11
ATOM     11  C   UNL     1      -7.494  -1.429  -5.181  1.00  0.00     0.091 A 
ATOM     12  C   UNL     1      -8.473  -2.032  -5.990  1.00  0.00     0.068 A 
ATOM     13  C   UNL     1      -9.137  -3.189  -5.562  1.00  0.00     0.162 A 
ATOM     14  C   UNL     1      -7.165  -2.023  -3.953  1.00  0.00     0.068 A 
ATOM     15  C   UNL     1      -8.819  -3.763  -4.324  1.00  0.00     0.200 A 
ATOM     16  C   UNL     1      -7.826  -3.180  -3.518  1.00  0.00     0.162 A 
BRANCH  13  17
ATOM     17  O   UNL     1     -10.113  -3.780  -6.364  1.00  0.00    -0.504 OA
ATOM     18  H   UNL     1      -9.949  -3.967  -7.346  1.00  0.00     0.293 HD
ENDBRANCH  13  17
BRANCH  15  19
ATOM     19  O   UNL     1      -9.493  -4.914  -3.912  1.00  0.00    -0.502 OA
ATOM     20  H   UNL     1     -10.480  -4.908  -3.690  1.00  0.00     0.293 HD
ENDBRANCH  15  19
BRANCH  16  21
ATOM     21  O   UNL     1      -7.500  -3.752  -2.289  1.00  0.00    -0.504 OA
ATOM     22  H   UNL     1      -8.031  -3.549  -1.451  1.00  0.00     0.293 HD
ENDBRANCH  16  21
ENDBRANCH   1  11
BRANCH  10  23
ATOM     23  O   UNL     1      -8.541   1.272  -4.875  1.00  0.00    -0.500 OA
ATOM     24  H   UNL     1      -9.406   1.234  -5.401  1.00  0.00     0.294 HD
ENDBRANCH  10  23
BRANCH   5  25
ATOM     25  O   UNL     1      -1.500   1.167  -8.153  1.00  0.00    -0.507 OA
ATOM     26  H   UNL     1      -1.141   1.702  -8.935  1.00  0.00     0.293 HD
ENDBRANCH   5  25
BRANCH   7  27
ATOM     27  O   UNL     1      -4.874   4.368  -6.964  1.00  0.00    -0.507 OA
ATOM     28  H   UNL     1      -5.196   4.889  -7.766  1.00  0.00     0.293 HD
ENDBRANCH   7  27
TORSDOF 7
ENDMDL
