MODEL 1
REMARK VINA RESULT:    -5.455      0.000      0.000
REMARK INTER + INTRA:         -13.283
REMARK INTER:                 -10.558
REMARK INTRA:                  -2.725
REMARK UNBOUND:                -2.725
REMARK SMILES CCCCCCCCCCCCCCCCCC(=O)[O-]
REMARK SMILES IDX 10 1 11 2 12 3 13 4 14 5 15 6 16 7 17 8 18 9 19 10 20 11
REMARK SMILES IDX 9 12 8 13 7 14 6 15 5 16 4 17 3 18 2 19 1 20
REMARK H PARENT
REMARK Flexibility Score: inf
ROOT
ATOM      1  C   UNL     1       8.778   8.260 -16.135  1.00  0.00     0.000 C 
ENDROOT
BRANCH   1   2
ATOM      2  C   UNL     1       9.672   8.228 -17.381  1.00  0.00     0.000 C 
BRANCH   2   3
ATOM      3  C   UNL     1      10.798   9.267 -17.277  1.00  0.00     0.000 C 
BRANCH   3   4
ATOM      4  C   UNL     1      12.171   8.625 -16.982  1.00  0.00     0.000 C 
BRANCH   4   5
ATOM      5  C   UNL     1      12.554   8.633 -15.490  1.00  0.00     0.000 C 
BRANCH   5   6
ATOM      6  C   UNL     1      14.038   8.344 -15.192  1.00  0.00     0.000 C 
BRANCH   6   7
ATOM      7  C   UNL     1      14.679   9.261 -14.134  1.00  0.00     0.006 C 
BRANCH   7   8
ATOM      8  C   UNL     1      13.661   9.820 -13.132  1.00  0.00     0.053 C 
BRANCH   8   9
ATOM      9  C   UNL     1      14.255   9.881 -11.761  1.00  0.00     0.041 C 
ATOM     10  O   UNL     1      14.701   8.837 -11.215  1.00  0.00    -0.550 OA
ATOM     11  O   UNL     1      14.356  11.100 -11.101  1.00  0.00    -0.550 OA
ENDBRANCH   8   9
ENDBRANCH   7   8
ENDBRANCH   6   7
ENDBRANCH   5   6
ENDBRANCH   4   5
ENDBRANCH   3   4
ENDBRANCH   2   3
ENDBRANCH   1   2
BRANCH   1  12
ATOM     12  C   UNL     1       9.176   7.161 -15.143  1.00  0.00     0.000 C 
BRANCH  12  13
ATOM     13  C   UNL     1       9.924   6.023 -15.852  1.00  0.00    -0.000 C 
BRANCH  13  14
ATOM     14  C   UNL     1      10.500   4.987 -14.865  1.00  0.00    -0.000 C 
BRANCH  14  15
ATOM     15  C   UNL     1      12.009   5.151 -14.601  1.00  0.00    -0.000 C 
BRANCH  15  16
ATOM     16  C   UNL     1      12.434   5.007 -13.127  1.00  0.00    -0.000 C 
BRANCH  16  17
ATOM     17  C   UNL     1      12.713   6.335 -12.398  1.00  0.00    -0.000 C 
BRANCH  17  18
ATOM     18  C   UNL     1      11.432   7.027 -11.909  1.00  0.00    -0.000 C 
BRANCH  18  19
ATOM     19  C   UNL     1      10.594   6.081 -11.042  1.00  0.00    -0.003 C 
ATOM     20  C   UNL     1       9.147   6.030 -11.525  1.00  0.00     0.004 C 
ENDBRANCH  18  19
ENDBRANCH  17  18
ENDBRANCH  16  17
ENDBRANCH  15  16
ENDBRANCH  14  15
ENDBRANCH  13  14
ENDBRANCH  12  13
ENDBRANCH   1  12
TORSDOF 16
ENDMDL
MODEL 2
REMARK VINA RESULT:    -5.448      1.605      4.556
REMARK INTER + INTRA:         -13.269
REMARK INTER:                 -10.425
REMARK INTRA:                  -2.845
REMARK UNBOUND:                -2.725
REMARK SMILES CCCCCCCCCCCCCCCCCC(=O)[O-]
REMARK SMILES IDX 10 1 11 2 12 3 13 4 14 5 15 6 16 7 17 8 18 9 19 10 20 11
REMARK SMILES IDX 9 12 8 13 7 14 6 15 5 16 4 17 3 18 2 19 1 20
REMARK H PARENT
REMARK Flexibility Score: inf
ROOT
ATOM      1  C   UNL     1      10.213   5.988 -10.531  1.00  0.00     0.000 C 
ENDROOT
BRANCH   1   2
ATOM      2  C   UNL     1      11.273   6.586  -9.598  1.00  0.00     0.000 C 
BRANCH   2   3
ATOM      3  C   UNL     1      12.643   5.930  -9.832  1.00  0.00     0.000 C 
BRANCH   3   4
ATOM      4  C   UNL     1      13.663   6.900 -10.465  1.00  0.00     0.000 C 
BRANCH   4   5
ATOM      5  C   UNL     1      14.127   6.483 -11.874  1.00  0.00     0.000 C 
BRANCH   5   6
ATOM      6  C   UNL     1      14.011   7.577 -12.953  1.00  0.00     0.000 C 
BRANCH   6   7
ATOM      7  C   UNL     1      12.888   8.604 -12.720  1.00  0.00     0.006 C 
BRANCH   7   8
ATOM      8  C   UNL     1      13.381  10.055 -12.793  1.00  0.00     0.053 C 
BRANCH   8   9
ATOM      9  C   UNL     1      12.630  10.913 -11.824  1.00  0.00     0.041 C 
ATOM     10  O   UNL     1      11.376  10.837 -11.747  1.00  0.00    -0.550 OA
ATOM     11  O   UNL     1      13.322  11.767 -10.973  1.00  0.00    -0.550 OA
ENDBRANCH   8   9
ENDBRANCH   7   8
ENDBRANCH   6   7
ENDBRANCH   5   6
ENDBRANCH   4   5
ENDBRANCH   3   4
ENDBRANCH   2   3
ENDBRANCH   1   2
BRANCH   1  12
ATOM     12  C   UNL     1       9.926   6.924 -11.711  1.00  0.00     0.000 C 
BRANCH  12  13
ATOM     13  C   UNL     1       9.945   6.157 -13.041  1.00  0.00    -0.000 C 
BRANCH  13  14
ATOM     14  C   UNL     1      10.954   4.990 -13.038  1.00  0.00    -0.000 C 
BRANCH  14  15
ATOM     15  C   UNL     1      11.759   4.860 -14.345  1.00  0.00    -0.000 C 
BRANCH  15  16
ATOM     16  C   UNL     1      11.232   5.701 -15.524  1.00  0.00    -0.000 C 
BRANCH  16  17
ATOM     17  C   UNL     1      12.159   6.848 -15.969  1.00  0.00    -0.000 C 
BRANCH  17  18
ATOM     18  C   UNL     1      11.419   8.185 -16.124  1.00  0.00    -0.000 C 
BRANCH  18  19
ATOM     19  C   UNL     1       9.920   7.960 -16.352  1.00  0.00    -0.003 C 
ATOM     20  C   UNL     1       9.502   8.410 -17.749  1.00  0.00     0.004 C 
ENDBRANCH  18  19
ENDBRANCH  17  18
ENDBRANCH  16  17
ENDBRANCH  15  16
ENDBRANCH  14  15
ENDBRANCH  13  14
ENDBRANCH  12  13
ENDBRANCH   1  12
TORSDOF 16
ENDMDL
MODEL 3
REMARK VINA RESULT:    -5.411      1.874      4.576
REMARK INTER + INTRA:         -13.197
REMARK INTER:                 -10.242
REMARK INTRA:                  -2.955
REMARK UNBOUND:                -2.725
REMARK SMILES CCCCCCCCCCCCCCCCCC(=O)[O-]
REMARK SMILES IDX 10 1 11 2 12 3 13 4 14 5 15 6 16 7 17 8 18 9 19 10 20 11
REMARK SMILES IDX 9 12 8 13 7 14 6 15 5 16 4 17 3 18 2 19 1 20
REMARK H PARENT
REMARK Flexibility Score: inf
ROOT
ATOM      1  C   UNL     1      12.778   8.428 -15.557  1.00  0.00     0.000 C 
ENDROOT
BRANCH   1   2
ATOM      2  C   UNL     1      12.250   7.430 -14.519  1.00  0.00     0.000 C 
BRANCH   2   3
ATOM      3  C   UNL     1      11.920   6.080 -15.174  1.00  0.00     0.000 C 
BRANCH   3   4
ATOM      4  C   UNL     1      10.674   5.411 -14.554  1.00  0.00     0.000 C 
BRANCH   4   5
ATOM      5  C   UNL     1      10.918   4.819 -13.154  1.00  0.00     0.000 C 
BRANCH   5   6
ATOM      6  C   UNL     1      10.101   5.463 -12.017  1.00  0.00     0.000 C 
BRANCH   6   7
ATOM      7  C   UNL     1      10.937   6.183 -10.943  1.00  0.00     0.006 C 
BRANCH   7   8
ATOM      8  C   UNL     1      12.448   6.064 -11.183  1.00  0.00     0.053 C 
BRANCH   8   9
ATOM      9  C   UNL     1      13.200   6.292  -9.911  1.00  0.00     0.041 C 
ATOM     10  O   UNL     1      12.831   5.732  -8.846  1.00  0.00    -0.550 OA
ATOM     11  O   UNL     1      14.337   7.092  -9.910  1.00  0.00    -0.550 OA
ENDBRANCH   8   9
ENDBRANCH   7   8
ENDBRANCH   6   7
ENDBRANCH   5   6
ENDBRANCH   4   5
ENDBRANCH   3   4
ENDBRANCH   2   3
ENDBRANCH   1   2
BRANCH   1  12
ATOM     12  C   UNL     1      12.109   8.211 -16.920  1.00  0.00     0.000 C 
BRANCH  12  13
ATOM     13  C   UNL     1      11.011   9.255 -17.168  1.00  0.00    -0.000 C 
BRANCH  13  14
ATOM     14  C   UNL     1       9.674   8.618 -17.601  1.00  0.00    -0.000 C 
BRANCH  14  15
ATOM     15  C   UNL     1       8.961   7.843 -16.476  1.00  0.00    -0.000 C 
BRANCH  15  16
ATOM     16  C   UNL     1       8.192   8.716 -15.467  1.00  0.00    -0.000 C 
BRANCH  16  17
ATOM     17  C   UNL     1       8.056   8.113 -14.056  1.00  0.00    -0.000 C 
BRANCH  17  18
ATOM     18  C   UNL     1       9.054   8.712 -13.053  1.00  0.00    -0.000 C 
BRANCH  18  19
ATOM     19  C   UNL     1       9.614  10.045 -13.566  1.00  0.00    -0.003 C 
ATOM     20  C   UNL     1      10.890  10.427 -12.823  1.00  0.00     0.004 C 
ENDBRANCH  18  19
ENDBRANCH  17  18
ENDBRANCH  16  17
ENDBRANCH  15  16
ENDBRANCH  14  15
ENDBRANCH  13  14
ENDBRANCH  12  13
ENDBRANCH   1  12
TORSDOF 16
ENDMDL
MODEL 4
REMARK VINA RESULT:    -5.408      3.051      6.092
REMARK INTER + INTRA:         -13.192
REMARK INTER:                 -10.259
REMARK INTRA:                  -2.933
REMARK UNBOUND:                -2.725
REMARK SMILES CCCCCCCCCCCCCCCCCC(=O)[O-]
REMARK SMILES IDX 10 1 11 2 12 3 13 4 14 5 15 6 16 7 17 8 18 9 19 10 20 11
REMARK SMILES IDX 9 12 8 13 7 14 6 15 5 16 4 17 3 18 2 19 1 20
REMARK H PARENT
REMARK Flexibility Score: inf
ROOT
ATOM      1  C   UNL     1      12.515   6.385  -9.763  1.00  0.00     0.000 C 
ENDROOT
BRANCH   1   2
ATOM      2  C   UNL     1      11.003   6.142  -9.846  1.00  0.00     0.000 C 
BRANCH   2   3
ATOM      3  C   UNL     1      10.561   5.919 -11.300  1.00  0.00     0.000 C 
BRANCH   3   4
ATOM      4  C   UNL     1       9.030   6.007 -11.474  1.00  0.00     0.000 C 
BRANCH   4   5
ATOM      5  C   UNL     1       8.575   7.115 -12.442  1.00  0.00     0.000 C 
BRANCH   5   6
ATOM      6  C   UNL     1       9.680   8.095 -12.882  1.00  0.00     0.000 C 
BRANCH   6   7
ATOM      7  C   UNL     1       9.489   8.703 -14.284  1.00  0.00     0.006 C 
BRANCH   7   8
ATOM      8  C   UNL     1       8.804   7.741 -15.264  1.00  0.00     0.053 C 
BRANCH   8   9
ATOM      9  C   UNL     1       8.428   8.457 -16.523  1.00  0.00     0.041 C 
ATOM     10  O   UNL     1       7.290   8.984 -16.638  1.00  0.00    -0.550 OA
ATOM     11  O   UNL     1       9.351   8.578 -17.555  1.00  0.00    -0.550 OA
ENDBRANCH   8   9
ENDBRANCH   7   8
ENDBRANCH   6   7
ENDBRANCH   5   6
ENDBRANCH   4   5
ENDBRANCH   3   4
ENDBRANCH   2   3
ENDBRANCH   1   2
BRANCH   1  12
ATOM     12  C   UNL     1      13.151   6.383 -11.158  1.00  0.00     0.000 C 
BRANCH  12  13
ATOM     13  C   UNL     1      13.969   7.661 -11.393  1.00  0.00    -0.000 C 
BRANCH  13  14
ATOM     14  C   UNL     1      13.128   8.798 -12.008  1.00  0.00    -0.000 C 
BRANCH  14  15
ATOM     15  C   UNL     1      13.710   9.364 -13.318  1.00  0.00    -0.000 C 
BRANCH  15  16
ATOM     16  C   UNL     1      13.967   8.322 -14.423  1.00  0.00    -0.000 C 
BRANCH  16  17
ATOM     17  C   UNL     1      12.899   8.273 -15.532  1.00  0.00    -0.000 C 
BRANCH  17  18
ATOM     18  C   UNL     1      12.453   6.842 -15.867  1.00  0.00    -0.000 C 
BRANCH  18  19
ATOM     19  C   UNL     1      12.237   6.021 -14.590  1.00  0.00    -0.003 C 
ATOM     20  C   UNL     1      11.159   4.961 -14.794  1.00  0.00     0.004 C 
ENDBRANCH  18  19
ENDBRANCH  17  18
ENDBRANCH  16  17
ENDBRANCH  15  16
ENDBRANCH  14  15
ENDBRANCH  13  14
ENDBRANCH  12  13
ENDBRANCH   1  12
TORSDOF 16
ENDMDL
MODEL 5
REMARK VINA RESULT:    -5.398      2.567      5.228
REMARK INTER + INTRA:         -13.172
REMARK INTER:                 -10.294
REMARK INTRA:                  -2.878
REMARK UNBOUND:                -2.725
REMARK SMILES CCCCCCCCCCCCCCCCCC(=O)[O-]
REMARK SMILES IDX 10 1 11 2 12 3 13 4 14 5 15 6 16 7 17 8 18 9 19 10 20 11
REMARK SMILES IDX 9 12 8 13 7 14 6 15 5 16 4 17 3 18 2 19 1 20
REMARK H PARENT
REMARK Flexibility Score: inf
ROOT
ATOM      1  C   UNL     1      10.588   6.501 -11.954  1.00  0.00     0.000 C 
ENDROOT
BRANCH   1   2
ATOM      2  C   UNL     1      10.448   5.335 -12.941  1.00  0.00     0.000 C 
BRANCH   2   3
ATOM      3  C   UNL     1      11.666   5.257 -13.875  1.00  0.00     0.000 C 
BRANCH   3   4
ATOM      4  C   UNL     1      11.268   5.273 -15.367  1.00  0.00     0.000 C 
BRANCH   4   5
ATOM      5  C   UNL     1       9.838   5.782 -15.625  1.00  0.00     0.000 C 
BRANCH   5   6
ATOM      6  C   UNL     1       9.745   7.199 -16.224  1.00  0.00     0.000 C 
BRANCH   6   7
ATOM      7  C   UNL     1       9.447   8.317 -15.208  1.00  0.00     0.006 C 
BRANCH   7   8
ATOM      8  C   UNL     1       8.168   8.063 -14.398  1.00  0.00     0.053 C 
BRANCH   8   9
ATOM      9  C   UNL     1       8.207   8.816 -13.107  1.00  0.00     0.041 C 
ATOM     10  O   UNL     1       9.077   9.706 -12.917  1.00  0.00    -0.550 OA
ATOM     11  O   UNL     1       7.253   8.566 -12.128  1.00  0.00    -0.550 OA
ENDBRANCH   8   9
ENDBRANCH   7   8
ENDBRANCH   6   7
ENDBRANCH   5   6
ENDBRANCH   4   5
ENDBRANCH   3   4
ENDBRANCH   2   3
ENDBRANCH   1   2
BRANCH   1  12
ATOM     12  C   UNL     1      10.423   6.021 -10.507  1.00  0.00     0.000 C 
BRANCH  12  13
ATOM     13  C   UNL     1      11.685   6.315  -9.682  1.00  0.00    -0.000 C 
BRANCH  13  14
ATOM     14  C   UNL     1      12.984   6.031 -10.464  1.00  0.00    -0.000 C 
BRANCH  14  15
ATOM     15  C   UNL     1      13.981   7.205 -10.461  1.00  0.00    -0.000 C 
BRANCH  15  16
ATOM     16  C   UNL     1      14.293   7.801 -11.847  1.00  0.00    -0.000 C 
BRANCH  16  17
ATOM     17  C   UNL     1      13.383   8.969 -12.272  1.00  0.00    -0.000 C 
BRANCH  17  18
ATOM     18  C   UNL     1      12.782   8.777 -13.672  1.00  0.00    -0.000 C 
BRANCH  18  19
ATOM     19  C   UNL     1      13.862   8.363 -14.680  1.00  0.00    -0.003 C 
ATOM     20  C   UNL     1      13.284   8.247 -16.088  1.00  0.00     0.004 C 
ENDBRANCH  18  19
ENDBRANCH  17  18
ENDBRANCH  16  17
ENDBRANCH  15  16
ENDBRANCH  14  15
ENDBRANCH  13  14
ENDBRANCH  12  13
ENDBRANCH   1  12
TORSDOF 16
ENDMDL
MODEL 6
REMARK VINA RESULT:    -5.381      2.319      4.523
REMARK INTER + INTRA:         -13.139
REMARK INTER:                 -10.202
REMARK INTRA:                  -2.937
REMARK UNBOUND:                -2.725
REMARK SMILES CCCCCCCCCCCCCCCCCC(=O)[O-]
REMARK SMILES IDX 10 1 11 2 12 3 13 4 14 5 15 6 16 7 17 8 18 9 19 10 20 11
REMARK SMILES IDX 9 12 8 13 7 14 6 15 5 16 4 17 3 18 2 19 1 20
REMARK H PARENT
REMARK Flexibility Score: inf
ROOT
ATOM      1  C   UNL     1      12.155   4.851 -15.322  1.00  0.00     0.000 C 
ENDROOT
BRANCH   1   2
ATOM      2  C   UNL     1      12.681   6.188 -15.858  1.00  0.00     0.000 C 
BRANCH   2   3
ATOM      3  C   UNL     1      11.644   7.305 -15.662  1.00  0.00     0.000 C 
BRANCH   3   4
ATOM      4  C   UNL     1      11.837   8.471 -16.655  1.00  0.00     0.000 C 
BRANCH   4   5
ATOM      5  C   UNL     1      10.525   8.976 -17.285  1.00  0.00     0.000 C 
BRANCH   5   6
ATOM      6  C   UNL     1       9.305   8.056 -17.084  1.00  0.00     0.000 C 
BRANCH   6   7
ATOM      7  C   UNL     1       8.228   8.605 -16.131  1.00  0.00     0.006 C 
BRANCH   7   8
ATOM      8  C   UNL     1       8.099   7.786 -14.839  1.00  0.00     0.053 C 
BRANCH   8   9
ATOM      9  C   UNL     1       8.523   8.601 -13.658  1.00  0.00     0.041 C 
ATOM     10  O   UNL     1       9.561   9.311 -13.716  1.00  0.00    -0.550 OA
ATOM     11  O   UNL     1       7.747   8.608 -12.506  1.00  0.00    -0.550 OA
ENDBRANCH   8   9
ENDBRANCH   7   8
ENDBRANCH   6   7
ENDBRANCH   5   6
ENDBRANCH   4   5
ENDBRANCH   3   4
ENDBRANCH   2   3
ENDBRANCH   1   2
BRANCH   1  12
ATOM     12  C   UNL     1      10.771   5.020 -14.683  1.00  0.00     0.000 C 
BRANCH  12  13
ATOM     13  C   UNL     1      10.767   4.512 -13.234  1.00  0.00    -0.000 C 
BRANCH  13  14
ATOM     14  C   UNL     1      10.185   5.543 -12.246  1.00  0.00    -0.000 C 
BRANCH  14  15
ATOM     15  C   UNL     1      11.227   6.538 -11.700  1.00  0.00    -0.000 C 
BRANCH  15  16
ATOM     16  C   UNL     1      12.681   6.027 -11.697  1.00  0.00    -0.000 C 
BRANCH  16  17
ATOM     17  C   UNL     1      13.728   7.043 -12.190  1.00  0.00    -0.000 C 
BRANCH  17  18
ATOM     18  C   UNL     1      13.099   8.354 -12.686  1.00  0.00    -0.000 C 
BRANCH  18  19
ATOM     19  C   UNL     1      14.178   9.341 -13.146  1.00  0.00    -0.003 C 
ATOM     20  C   UNL     1      14.830   8.877 -14.445  1.00  0.00     0.004 C 
ENDBRANCH  18  19
ENDBRANCH  17  18
ENDBRANCH  16  17
ENDBRANCH  15  16
ENDBRANCH  14  15
ENDBRANCH  13  14
ENDBRANCH  12  13
ENDBRANCH   1  12
TORSDOF 16
ENDMDL
MODEL 7
REMARK VINA RESULT:    -5.373      3.058      5.344
REMARK INTER + INTRA:         -13.123
REMARK INTER:                 -10.509
REMARK INTRA:                  -2.614
REMARK UNBOUND:                -2.725
REMARK SMILES CCCCCCCCCCCCCCCCCC(=O)[O-]
REMARK SMILES IDX 10 1 11 2 12 3 13 4 14 5 15 6 16 7 17 8 18 9 19 10 20 11
REMARK SMILES IDX 9 12 8 13 7 14 6 15 5 16 4 17 3 18 2 19 1 20
REMARK H PARENT
REMARK Flexibility Score: inf
ROOT
ATOM      1  C   UNL     1      13.722   7.168 -11.020  1.00  0.00     0.000 C 
ENDROOT
BRANCH   1   2
ATOM      2  C   UNL     1      14.063   6.956 -12.500  1.00  0.00     0.000 C 
BRANCH   2   3
ATOM      3  C   UNL     1      15.292   7.784 -12.905  1.00  0.00     0.000 C 
BRANCH   3   4
ATOM      4  C   UNL     1      15.095   8.517 -14.250  1.00  0.00     0.000 C 
BRANCH   4   5
ATOM      5  C   UNL     1      13.619   8.690 -14.653  1.00  0.00     0.000 C 
BRANCH   5   6
ATOM      6  C   UNL     1      13.260   8.178 -16.062  1.00  0.00     0.000 C 
BRANCH   6   7
ATOM      7  C   UNL     1      11.854   7.563 -16.190  1.00  0.00     0.006 C 
BRANCH   7   8
ATOM      8  C   UNL     1      10.802   8.571 -16.672  1.00  0.00     0.053 C 
BRANCH   8   9
ATOM      9  C   UNL     1       9.435   7.968 -16.616  1.00  0.00     0.041 C 
ATOM     10  O   UNL     1       9.265   6.821 -16.125  1.00  0.00    -0.550 OA
ATOM     11  O   UNL     1       8.338   8.692 -17.068  1.00  0.00    -0.550 OA
ENDBRANCH   8   9
ENDBRANCH   7   8
ENDBRANCH   6   7
ENDBRANCH   5   6
ENDBRANCH   4   5
ENDBRANCH   3   4
ENDBRANCH   2   3
ENDBRANCH   1   2
BRANCH   1  12
ATOM     12  C   UNL     1      12.897   5.998 -10.471  1.00  0.00     0.000 C 
BRANCH  12  13
ATOM     13  C   UNL     1      11.718   6.502  -9.626  1.00  0.00    -0.000 C 
BRANCH  13  14
ATOM     14  C   UNL     1      10.351   6.081 -10.203  1.00  0.00    -0.000 C 
BRANCH  14  15
ATOM     15  C   UNL     1      10.379   5.783 -11.715  1.00  0.00    -0.000 C 
BRANCH  15  16
ATOM     16  C   UNL     1       9.721   6.855 -12.604  1.00  0.00    -0.000 C 
BRANCH  16  17
ATOM     17  C   UNL     1      10.586   8.102 -12.867  1.00  0.00    -0.000 C 
BRANCH  17  18
ATOM     18  C   UNL     1       9.754   9.384 -13.015  1.00  0.00    -0.000 C 
BRANCH  18  19
ATOM     19  C   UNL     1      10.602  10.627 -12.714  1.00  0.00    -0.003 C 
ATOM     20  C   UNL     1      11.782  10.282 -11.810  1.00  0.00     0.004 C 
ENDBRANCH  18  19
ENDBRANCH  17  18
ENDBRANCH  16  17
ENDBRANCH  15  16
ENDBRANCH  14  15
ENDBRANCH  13  14
ENDBRANCH  12  13
ENDBRANCH   1  12
TORSDOF 16
ENDMDL
MODEL 8
REMARK VINA RESULT:    -5.363      2.454      5.533
REMARK INTER + INTRA:         -13.103
REMARK INTER:                 -10.327
REMARK INTRA:                  -2.776
REMARK UNBOUND:                -2.725
REMARK SMILES CCCCCCCCCCCCCCCCCC(=O)[O-]
REMARK SMILES IDX 10 1 11 2 12 3 13 4 14 5 15 6 16 7 17 8 18 9 19 10 20 11
REMARK SMILES IDX 9 12 8 13 7 14 6 15 5 16 4 17 3 18 2 19 1 20
REMARK H PARENT
REMARK Flexibility Score: inf
ROOT
ATOM      1  C   UNL     1      13.104   5.188 -13.003  1.00  0.00     0.000 C 
ENDROOT
BRANCH   1   2
ATOM      2  C   UNL     1      13.056   5.950 -11.673  1.00  0.00     0.000 C 
BRANCH   2   3
ATOM      3  C   UNL     1      11.774   6.790 -11.567  1.00  0.00     0.000 C 
BRANCH   3   4
ATOM      4  C   UNL     1      10.785   6.231 -10.521  1.00  0.00     0.000 C 
BRANCH   4   5
ATOM      5  C   UNL     1       9.350   6.057 -11.052  1.00  0.00     0.000 C 
BRANCH   5   6
ATOM      6  C   UNL     1       9.077   6.697 -12.427  1.00  0.00     0.000 C 
BRANCH   6   7
ATOM      7  C   UNL     1       7.677   7.317 -12.589  1.00  0.00     0.006 C 
BRANCH   7   8
ATOM      8  C   UNL     1       7.695   8.851 -12.554  1.00  0.00     0.053 C 
BRANCH   8   9
ATOM      9  C   UNL     1       8.507   9.391 -13.688  1.00  0.00     0.041 C 
ATOM     10  O   UNL     1       9.478  10.161 -13.465  1.00  0.00    -0.550 OA
ATOM     11  O   UNL     1       8.217   9.008 -14.992  1.00  0.00    -0.550 OA
ENDBRANCH   8   9
ENDBRANCH   7   8
ENDBRANCH   6   7
ENDBRANCH   5   6
ENDBRANCH   4   5
ENDBRANCH   3   4
ENDBRANCH   2   3
ENDBRANCH   1   2
BRANCH   1  12
ATOM     12  C   UNL     1      11.785   4.451 -13.263  1.00  0.00     0.000 C 
BRANCH  12  13
ATOM     13  C   UNL     1      11.377   4.555 -14.740  1.00  0.00    -0.000 C 
BRANCH  13  14
ATOM     14  C   UNL     1      12.084   5.716 -15.470  1.00  0.00    -0.000 C 
BRANCH  14  15
ATOM     15  C   UNL     1      11.260   7.017 -15.515  1.00  0.00    -0.000 C 
BRANCH  15  16
ATOM     16  C   UNL     1      12.048   8.301 -15.193  1.00  0.00    -0.000 C 
BRANCH  16  17
ATOM     17  C   UNL     1      13.552   8.240 -15.521  1.00  0.00    -0.000 C 
BRANCH  17  18
ATOM     18  C   UNL     1      14.433   8.752 -14.371  1.00  0.00    -0.000 C 
BRANCH  18  19
ATOM     19  C   UNL     1      13.590   9.467 -13.310  1.00  0.00    -0.003 C 
ATOM     20  C   UNL     1      14.342   9.569 -11.986  1.00  0.00     0.004 C 
ENDBRANCH  18  19
ENDBRANCH  17  18
ENDBRANCH  16  17
ENDBRANCH  15  16
ENDBRANCH  14  15
ENDBRANCH  13  14
ENDBRANCH  12  13
ENDBRANCH   1  12
TORSDOF 16
ENDMDL
MODEL 9
REMARK VINA RESULT:    -5.317      1.374      3.741
REMARK INTER + INTRA:         -13.015
REMARK INTER:                 -10.510
REMARK INTRA:                  -2.505
REMARK UNBOUND:                -2.725
REMARK SMILES CCCCCCCCCCCCCCCCCC(=O)[O-]
REMARK SMILES IDX 10 1 11 2 12 3 13 4 14 5 15 6 16 7 17 8 18 9 19 10 20 11
REMARK SMILES IDX 9 12 8 13 7 14 6 15 5 16 4 17 3 18 2 19 1 20
REMARK H PARENT
REMARK Flexibility Score: inf
ROOT
ATOM      1  C   UNL     1      12.017   8.093 -15.570  1.00  0.00     0.000 C 
ENDROOT
BRANCH   1   2
ATOM      2  C   UNL     1      12.550   6.655 -15.516  1.00  0.00     0.000 C 
BRANCH   2   3
ATOM      3  C   UNL     1      11.426   5.665 -15.174  1.00  0.00     0.000 C 
BRANCH   3   4
ATOM      4  C   UNL     1      11.685   4.907 -13.855  1.00  0.00     0.000 C 
BRANCH   4   5
ATOM      5  C   UNL     1      13.017   5.278 -13.175  1.00  0.00     0.000 C 
BRANCH   5   6
ATOM      6  C   UNL     1      12.887   6.144 -11.906  1.00  0.00     0.000 C 
BRANCH   6   7
ATOM      7  C   UNL     1      13.580   7.517 -11.982  1.00  0.00     0.006 C 
BRANCH   7   8
ATOM      8  C   UNL     1      12.587   8.686 -12.032  1.00  0.00     0.053 C 
BRANCH   8   9
ATOM      9  C   UNL     1      13.291   9.956 -12.386  1.00  0.00     0.041 C 
ATOM     10  O   UNL     1      13.067  11.010 -11.734  1.00  0.00    -0.550 OA
ATOM     11  O   UNL     1      14.230   9.967 -13.411  1.00  0.00    -0.550 OA
ENDBRANCH   8   9
ENDBRANCH   7   8
ENDBRANCH   6   7
ENDBRANCH   5   6
ENDBRANCH   4   5
ENDBRANCH   3   4
ENDBRANCH   2   3
ENDBRANCH   1   2
BRANCH   1  12
ATOM     12  C   UNL     1      11.999   8.619 -17.010  1.00  0.00     0.000 C 
BRANCH  12  13
ATOM     13  C   UNL     1      10.599   9.118 -17.397  1.00  0.00    -0.000 C 
BRANCH  13  14
ATOM     14  C   UNL     1       9.506   8.053 -17.169  1.00  0.00    -0.000 C 
BRANCH  14  15
ATOM     15  C   UNL     1       8.264   8.585 -16.429  1.00  0.00    -0.000 C 
BRANCH  15  16
ATOM     16  C   UNL     1       7.937   7.869 -15.104  1.00  0.00    -0.000 C 
BRANCH  16  17
ATOM     17  C   UNL     1       7.987   8.765 -13.852  1.00  0.00    -0.000 C 
BRANCH  17  18
ATOM     18  C   UNL     1       8.010   7.960 -12.544  1.00  0.00    -0.000 C 
BRANCH  18  19
ATOM     19  C   UNL     1       9.278   7.102 -12.451  1.00  0.00    -0.003 C 
ATOM     20  C   UNL     1       9.149   6.047 -11.356  1.00  0.00     0.004 C 
ENDBRANCH  18  19
ENDBRANCH  17  18
ENDBRANCH  16  17
ENDBRANCH  15  16
ENDBRANCH  14  15
ENDBRANCH  13  14
ENDBRANCH  12  13
ENDBRANCH   1  12
TORSDOF 16
ENDMDL
