MODEL 1
REMARK VINA RESULT:    -5.667      0.000      0.000
REMARK INTER + INTRA:         -11.578
REMARK INTER:                 -10.305
REMARK INTRA:                  -1.273
REMARK UNBOUND:                -1.273
REMARK SMILES CCCCCCCCCCCCCCCC(=O)[O-]
REMARK SMILES IDX 9 1 10 2 11 3 12 4 13 5 14 6 15 7 16 8 17 9 18 10 8 11 7 12
REMARK SMILES IDX 6 13 5 14 4 15 3 16 2 17 1 18
REMARK H PARENT
REMARK Flexibility Score: inf
ROOT
ATOM      1  C   UNL     1      -9.361 -14.406  26.152  1.00  0.00     0.000 C 
ENDROOT
BRANCH   1   2
ATOM      2  C   UNL     1     -10.673 -15.204  26.241  1.00  0.00     0.000 C 
BRANCH   2   3
ATOM      3  C   UNL     1     -10.801 -15.981  27.562  1.00  0.00     0.000 C 
BRANCH   3   4
ATOM      4  C   UNL     1     -12.210 -16.562  27.771  1.00  0.00     0.000 C 
BRANCH   4   5
ATOM      5  C   UNL     1     -12.742 -16.329  29.194  1.00  0.00     0.000 C 
BRANCH   5   6
ATOM      6  C   UNL     1     -11.592 -16.301  30.212  1.00  0.00     0.006 C 
BRANCH   6   7
ATOM      7  C   UNL     1     -11.455 -17.627  30.970  1.00  0.00     0.053 C 
BRANCH   7   8
ATOM      8  C   UNL     1     -10.237 -18.388  30.542  1.00  0.00     0.041 C 
ATOM      9  O   UNL     1     -10.241 -19.036  29.463  1.00  0.00    -0.550 OA
ATOM     10  O   UNL     1      -9.087 -18.355  31.321  1.00  0.00    -0.550 OA
ENDBRANCH   7   8
ENDBRANCH   6   7
ENDBRANCH   5   6
ENDBRANCH   4   5
ENDBRANCH   3   4
ENDBRANCH   2   3
ENDBRANCH   1   2
BRANCH   1  11
ATOM     11  C   UNL     1      -8.144 -15.208  26.647  1.00  0.00     0.000 C 
BRANCH  11  12
ATOM     12  C   UNL     1      -6.969 -14.306  27.056  1.00  0.00    -0.000 C 
BRANCH  12  13
ATOM     13  C   UNL     1      -6.495 -14.569  28.493  1.00  0.00    -0.000 C 
BRANCH  13  14
ATOM     14  C   UNL     1      -7.686 -14.873  29.415  1.00  0.00    -0.000 C 
BRANCH  14  15
ATOM     15  C   UNL     1      -7.289 -14.955  30.899  1.00  0.00    -0.000 C 
BRANCH  15  16
ATOM     16  C   UNL     1      -6.796 -13.630  31.518  1.00  0.00    -0.000 C 
BRANCH  16  17
ATOM     17  C   UNL     1      -5.382 -13.682  32.122  1.00  0.00    -0.003 C 
ATOM     18  C   UNL     1      -4.921 -12.335  32.676  1.00  0.00     0.004 C 
ENDBRANCH  16  17
ENDBRANCH  15  16
ENDBRANCH  14  15
ENDBRANCH  13  14
ENDBRANCH  12  13
ENDBRANCH  11  12
ENDBRANCH   1  11
TORSDOF 14
ENDMDL
MODEL 2
REMARK VINA RESULT:    -5.625      0.937      1.761
REMARK INTER + INTRA:         -11.501
REMARK INTER:                 -10.158
REMARK INTRA:                  -1.343
REMARK UNBOUND:                -1.273
REMARK SMILES CCCCCCCCCCCCCCCC(=O)[O-]
REMARK SMILES IDX 9 1 10 2 11 3 12 4 13 5 14 6 15 7 16 8 17 9 18 10 8 11 7 12
REMARK SMILES IDX 6 13 5 14 4 15 3 16 2 17 1 18
REMARK H PARENT
REMARK Flexibility Score: inf
ROOT
ATOM      1  C   UNL     1      -7.894 -15.141  26.782  1.00  0.00     0.000 C 
ENDROOT
BRANCH   1   2
ATOM      2  C   UNL     1      -9.014 -14.342  26.095  1.00  0.00     0.000 C 
BRANCH   2   3
ATOM      3  C   UNL     1     -10.385 -15.029  26.214  1.00  0.00     0.000 C 
BRANCH   3   4
ATOM      4  C   UNL     1     -10.490 -15.926  27.460  1.00  0.00     0.000 C 
BRANCH   4   5
ATOM      5  C   UNL     1     -11.925 -16.405  27.727  1.00  0.00     0.000 C 
BRANCH   5   6
ATOM      6  C   UNL     1     -12.248 -16.358  29.228  1.00  0.00     0.006 C 
BRANCH   6   7
ATOM      7  C   UNL     1     -11.019 -16.655  30.097  1.00  0.00     0.053 C 
BRANCH   7   8
ATOM      8  C   UNL     1     -10.932 -18.107  30.457  1.00  0.00     0.041 C 
ATOM      9  O   UNL     1     -11.505 -18.540  31.491  1.00  0.00    -0.550 OA
ATOM     10  O   UNL     1     -10.244 -18.987  29.632  1.00  0.00    -0.550 OA
ENDBRANCH   7   8
ENDBRANCH   6   7
ENDBRANCH   5   6
ENDBRANCH   4   5
ENDBRANCH   3   4
ENDBRANCH   2   3
ENDBRANCH   1   2
BRANCH   1  11
ATOM     11  C   UNL     1      -6.660 -14.279  27.101  1.00  0.00     0.000 C 
BRANCH  11  12
ATOM     12  C   UNL     1      -6.466 -14.062  28.610  1.00  0.00    -0.000 C 
BRANCH  12  13
ATOM     13  C   UNL     1      -7.452 -14.882  29.456  1.00  0.00    -0.000 C 
BRANCH  13  14
ATOM     14  C   UNL     1      -7.064 -14.843  30.941  1.00  0.00    -0.000 C 
BRANCH  14  15
ATOM     15  C   UNL     1      -7.052 -13.417  31.520  1.00  0.00    -0.000 C 
BRANCH  15  16
ATOM     16  C   UNL     1      -5.803 -13.059  32.352  1.00  0.00    -0.000 C 
BRANCH  16  17
ATOM     17  C   UNL     1      -5.272 -11.631  32.144  1.00  0.00    -0.003 C 
ATOM     18  C   UNL     1      -5.860 -10.950  30.910  1.00  0.00     0.004 C 
ENDBRANCH  16  17
ENDBRANCH  15  16
ENDBRANCH  14  15
ENDBRANCH  13  14
ENDBRANCH  12  13
ENDBRANCH  11  12
ENDBRANCH   1  11
TORSDOF 14
ENDMDL
MODEL 3
REMARK VINA RESULT:    -5.494      2.317      5.375
REMARK INTER + INTRA:         -11.263
REMARK INTER:                  -9.874
REMARK INTRA:                  -1.389
REMARK UNBOUND:                -1.273
REMARK SMILES CCCCCCCCCCCCCCCC(=O)[O-]
REMARK SMILES IDX 9 1 10 2 11 3 12 4 13 5 14 6 15 7 16 8 17 9 18 10 8 11 7 12
REMARK SMILES IDX 6 13 5 14 4 15 3 16 2 17 1 18
REMARK H PARENT
REMARK Flexibility Score: inf
ROOT
ATOM      1  C   UNL     1     -10.943 -15.238  26.247  1.00  0.00     0.000 C 
ENDROOT
BRANCH   1   2
ATOM      2  C   UNL     1      -9.507 -14.783  25.936  1.00  0.00     0.000 C 
BRANCH   2   3
ATOM      3  C   UNL     1      -8.549 -15.008  27.118  1.00  0.00     0.000 C 
BRANCH   3   4
ATOM      4  C   UNL     1      -7.074 -14.821  26.726  1.00  0.00     0.000 C 
BRANCH   4   5
ATOM      5  C   UNL     1      -6.209 -14.321  27.893  1.00  0.00     0.000 C 
BRANCH   5   6
ATOM      6  C   UNL     1      -7.075 -14.004  29.121  1.00  0.00     0.006 C 
BRANCH   6   7
ATOM      7  C   UNL     1      -6.352 -13.098  30.125  1.00  0.00     0.053 C 
BRANCH   7   8
ATOM      8  C   UNL     1      -5.651 -13.892  31.185  1.00  0.00     0.041 C 
ATOM      9  O   UNL     1      -6.198 -14.079  32.303  1.00  0.00    -0.550 OA
ATOM     10  O   UNL     1      -4.407 -14.451  30.925  1.00  0.00    -0.550 OA
ENDBRANCH   7   8
ENDBRANCH   6   7
ENDBRANCH   5   6
ENDBRANCH   4   5
ENDBRANCH   3   4
ENDBRANCH   2   3
ENDBRANCH   1   2
BRANCH   1  11
ATOM     11  C   UNL     1     -11.025 -16.131  27.497  1.00  0.00     0.000 C 
BRANCH  11  12
ATOM     12  C   UNL     1     -12.433 -16.156  28.114  1.00  0.00    -0.000 C 
BRANCH  12  13
ATOM     13  C   UNL     1     -12.659 -17.379  29.016  1.00  0.00    -0.000 C 
BRANCH  13  14
ATOM     14  C   UNL     1     -11.580 -18.444  28.776  1.00  0.00    -0.000 C 
BRANCH  14  15
ATOM     15  C   UNL     1     -10.593 -18.573  29.950  1.00  0.00    -0.000 C 
BRANCH  15  16
ATOM     16  C   UNL     1     -10.541 -17.356  30.897  1.00  0.00    -0.000 C 
BRANCH  16  17
ATOM     17  C   UNL     1      -9.340 -16.419  30.684  1.00  0.00    -0.003 C 
ATOM     18  C   UNL     1      -8.183 -16.707  31.639  1.00  0.00     0.004 C 
ENDBRANCH  16  17
ENDBRANCH  15  16
ENDBRANCH  14  15
ENDBRANCH  13  14
ENDBRANCH  12  13
ENDBRANCH  11  12
ENDBRANCH   1  11
TORSDOF 14
ENDMDL
MODEL 4
REMARK VINA RESULT:    -5.388      2.725      5.888
REMARK INTER + INTRA:         -11.071
REMARK INTER:                  -9.777
REMARK INTRA:                  -1.294
REMARK UNBOUND:                -1.273
REMARK SMILES CCCCCCCCCCCCCCCC(=O)[O-]
REMARK SMILES IDX 9 1 10 2 11 3 12 4 13 5 14 6 15 7 16 8 17 9 18 10 8 11 7 12
REMARK SMILES IDX 6 13 5 14 4 15 3 16 2 17 1 18
REMARK H PARENT
REMARK Flexibility Score: inf
ROOT
ATOM      1  C   UNL     1      -9.340 -14.517  26.033  1.00  0.00     0.000 C 
ENDROOT
BRANCH   1   2
ATOM      2  C   UNL     1      -8.390 -15.108  27.088  1.00  0.00     0.000 C 
BRANCH   2   3
ATOM      3  C   UNL     1      -6.962 -14.547  26.976  1.00  0.00     0.000 C 
BRANCH   3   4
ATOM      4  C   UNL     1      -6.300 -14.339  28.348  1.00  0.00     0.000 C 
BRANCH   4   5
ATOM      5  C   UNL     1      -7.303 -14.416  29.509  1.00  0.00     0.000 C 
BRANCH   5   6
ATOM      6  C   UNL     1      -6.622 -14.924  30.789  1.00  0.00     0.006 C 
BRANCH   6   7
ATOM      7  C   UNL     1      -6.798 -13.956  31.965  1.00  0.00     0.053 C 
BRANCH   7   8
ATOM      8  C   UNL     1      -5.860 -12.791  31.871  1.00  0.00     0.041 C 
ATOM      9  O   UNL     1      -6.298 -11.646  31.583  1.00  0.00    -0.550 OA
ATOM     10  O   UNL     1      -4.507 -12.966  32.132  1.00  0.00    -0.550 OA
ENDBRANCH   7   8
ENDBRANCH   6   7
ENDBRANCH   5   6
ENDBRANCH   4   5
ENDBRANCH   3   4
ENDBRANCH   2   3
ENDBRANCH   1   2
BRANCH   1  11
ATOM     11  C   UNL     1     -10.789 -15.007  26.199  1.00  0.00     0.000 C 
BRANCH  11  12
ATOM     12  C   UNL     1     -10.945 -16.008  27.355  1.00  0.00    -0.000 C 
BRANCH  12  13
ATOM     13  C   UNL     1     -12.410 -16.396  27.605  1.00  0.00    -0.000 C 
BRANCH  13  14
ATOM     14  C   UNL     1     -12.776 -16.224  29.087  1.00  0.00    -0.000 C 
BRANCH  14  15
ATOM     15  C   UNL     1     -13.150 -17.551  29.770  1.00  0.00    -0.000 C 
BRANCH  15  16
ATOM     16  C   UNL     1     -12.137 -18.055  30.819  1.00  0.00    -0.000 C 
BRANCH  16  17
ATOM     17  C   UNL     1     -10.704 -18.252  30.295  1.00  0.00    -0.003 C 
ATOM     18  C   UNL     1      -9.745 -17.155  30.754  1.00  0.00     0.004 C 
ENDBRANCH  16  17
ENDBRANCH  15  16
ENDBRANCH  14  15
ENDBRANCH  13  14
ENDBRANCH  12  13
ENDBRANCH  11  12
ENDBRANCH   1  11
TORSDOF 14
ENDMDL
MODEL 5
REMARK VINA RESULT:    -5.357      2.834      6.732
REMARK INTER + INTRA:         -11.014
REMARK INTER:                 -10.258
REMARK INTRA:                  -0.756
REMARK UNBOUND:                -1.273
REMARK SMILES CCCCCCCCCCCCCCCC(=O)[O-]
REMARK SMILES IDX 9 1 10 2 11 3 12 4 13 5 14 6 15 7 16 8 17 9 18 10 8 11 7 12
REMARK SMILES IDX 6 13 5 14 4 15 3 16 2 17 1 18
REMARK H PARENT
REMARK Flexibility Score: inf
ROOT
ATOM      1  C   UNL     1     -11.792 -16.642  28.196  1.00  0.00     0.000 C 
ENDROOT
BRANCH   1   2
ATOM      2  C   UNL     1     -10.458 -16.022  27.746  1.00  0.00     0.000 C 
BRANCH   2   3
ATOM      3  C   UNL     1     -10.580 -15.269  26.411  1.00  0.00     0.000 C 
BRANCH   3   4
ATOM      4  C   UNL     1      -9.281 -14.544  26.021  1.00  0.00     0.000 C 
BRANCH   4   5
ATOM      5  C   UNL     1      -8.023 -15.260  26.538  1.00  0.00     0.000 C 
BRANCH   5   6
ATOM      6  C   UNL     1      -6.935 -14.246  26.925  1.00  0.00     0.006 C 
BRANCH   6   7
ATOM      7  C   UNL     1      -6.124 -14.701  28.145  1.00  0.00     0.053 C 
BRANCH   7   8
ATOM      8  C   UNL     1      -6.784 -14.301  29.430  1.00  0.00     0.041 C 
ATOM      9  O   UNL     1      -7.334 -15.169  30.157  1.00  0.00    -0.550 OA
ATOM     10  O   UNL     1      -6.761 -12.974  29.838  1.00  0.00    -0.550 OA
ENDBRANCH   7   8
ENDBRANCH   6   7
ENDBRANCH   5   6
ENDBRANCH   4   5
ENDBRANCH   3   4
ENDBRANCH   2   3
ENDBRANCH   1   2
BRANCH   1  11
ATOM     11  C   UNL     1     -11.634 -18.087  28.700  1.00  0.00     0.000 C 
BRANCH  11  12
ATOM     12  C   UNL     1     -12.610 -18.426  29.838  1.00  0.00    -0.000 C 
BRANCH  12  13
ATOM     13  C   UNL     1     -12.041 -18.087  31.224  1.00  0.00    -0.000 C 
BRANCH  13  14
ATOM     14  C   UNL     1     -13.171 -17.866  32.241  1.00  0.00    -0.000 C 
BRANCH  14  15
ATOM     15  C   UNL     1     -13.203 -18.939  33.344  1.00  0.00    -0.000 C 
BRANCH  15  16
ATOM     16  C   UNL     1     -12.152 -20.058  33.198  1.00  0.00    -0.000 C 
BRANCH  16  17
ATOM     17  C   UNL     1     -12.163 -21.109  34.321  1.00  0.00    -0.003 C 
ATOM     18  C   UNL     1     -13.573 -21.500  34.758  1.00  0.00     0.004 C 
ENDBRANCH  16  17
ENDBRANCH  15  16
ENDBRANCH  14  15
ENDBRANCH  13  14
ENDBRANCH  12  13
ENDBRANCH  11  12
ENDBRANCH   1  11
TORSDOF 14
ENDMDL
MODEL 6
REMARK VINA RESULT:    -5.254      1.926      2.815
REMARK INTER + INTRA:         -10.827
REMARK INTER:                  -9.609
REMARK INTRA:                  -1.218
REMARK UNBOUND:                -1.273
REMARK SMILES CCCCCCCCCCCCCCCC(=O)[O-]
REMARK SMILES IDX 9 1 10 2 11 3 12 4 13 5 14 6 15 7 16 8 17 9 18 10 8 11 7 12
REMARK SMILES IDX 6 13 5 14 4 15 3 16 2 17 1 18
REMARK H PARENT
REMARK Flexibility Score: inf
ROOT
ATOM      1  C   UNL     1     -10.484 -15.901  27.345  1.00  0.00     0.000 C 
ENDROOT
BRANCH   1   2
ATOM      2  C   UNL     1     -11.949 -16.367  27.399  1.00  0.00     0.000 C 
BRANCH   2   3
ATOM      3  C   UNL     1     -12.371 -16.819  28.807  1.00  0.00     0.000 C 
BRANCH   3   4
ATOM      4  C   UNL     1     -11.481 -16.222  29.910  1.00  0.00     0.000 C 
BRANCH   4   5
ATOM      5  C   UNL     1     -11.329 -17.156  31.121  1.00  0.00     0.000 C 
BRANCH   5   6
ATOM      6  C   UNL     1     -12.381 -18.276  31.084  1.00  0.00     0.006 C 
BRANCH   6   7
ATOM      7  C   UNL     1     -13.227 -18.321  32.363  1.00  0.00     0.053 C 
BRANCH   7   8
ATOM      8  C   UNL     1     -12.796 -19.429  33.275  1.00  0.00     0.041 C 
ATOM      9  O   UNL     1     -11.746 -20.079  33.031  1.00  0.00    -0.550 OA
ATOM     10  O   UNL     1     -13.539 -19.722  34.411  1.00  0.00    -0.550 OA
ENDBRANCH   7   8
ENDBRANCH   6   7
ENDBRANCH   5   6
ENDBRANCH   4   5
ENDBRANCH   3   4
ENDBRANCH   2   3
ENDBRANCH   1   2
BRANCH   1  11
ATOM     11  C   UNL     1     -10.194 -14.996  26.134  1.00  0.00     0.000 C 
BRANCH  11  12
ATOM     12  C   UNL     1      -8.856 -14.250  26.262  1.00  0.00    -0.000 C 
BRANCH  12  13
ATOM     13  C   UNL     1      -7.694 -15.183  26.632  1.00  0.00    -0.000 C 
BRANCH  13  14
ATOM     14  C   UNL     1      -6.608 -14.424  27.409  1.00  0.00    -0.000 C 
BRANCH  14  15
ATOM     15  C   UNL     1      -7.111 -13.869  28.754  1.00  0.00    -0.000 C 
BRANCH  15  16
ATOM     16  C   UNL     1      -7.669 -14.925  29.729  1.00  0.00    -0.000 C 
BRANCH  16  17
ATOM     17  C   UNL     1      -7.010 -14.938  31.119  1.00  0.00    -0.003 C 
ATOM     18  C   UNL     1      -5.538 -14.533  31.084  1.00  0.00     0.004 C 
ENDBRANCH  16  17
ENDBRANCH  15  16
ENDBRANCH  14  15
ENDBRANCH  13  14
ENDBRANCH  12  13
ENDBRANCH  11  12
ENDBRANCH   1  11
TORSDOF 14
ENDMDL
MODEL 7
REMARK VINA RESULT:    -5.239      2.784      6.118
REMARK INTER + INTRA:         -10.800
REMARK INTER:                  -9.262
REMARK INTRA:                  -1.537
REMARK UNBOUND:                -1.273
REMARK SMILES CCCCCCCCCCCCCCCC(=O)[O-]
REMARK SMILES IDX 9 1 10 2 11 3 12 4 13 5 14 6 15 7 16 8 17 9 18 10 8 11 7 12
REMARK SMILES IDX 6 13 5 14 4 15 3 16 2 17 1 18
REMARK H PARENT
REMARK Flexibility Score: inf
ROOT
ATOM      1  C   UNL     1     -11.399 -16.933  31.014  1.00  0.00     0.000 C 
ENDROOT
BRANCH   1   2
ATOM      2  C   UNL     1     -10.016 -17.503  30.655  1.00  0.00     0.000 C 
BRANCH   2   3
ATOM      3  C   UNL     1      -8.865 -16.624  31.174  1.00  0.00     0.000 C 
BRANCH   3   4
ATOM      4  C   UNL     1      -8.442 -15.548  30.160  1.00  0.00     0.000 C 
BRANCH   4   5
ATOM      5  C   UNL     1      -7.635 -14.410  30.804  1.00  0.00     0.000 C 
BRANCH   5   6
ATOM      6  C   UNL     1      -6.159 -14.807  30.964  1.00  0.00     0.006 C 
BRANCH   6   7
ATOM      7  C   UNL     1      -5.206 -13.673  30.566  1.00  0.00     0.053 C 
BRANCH   7   8
ATOM      8  C   UNL     1      -5.128 -12.617  31.626  1.00  0.00     0.041 C 
ATOM      9  O   UNL     1      -5.225 -11.400  31.318  1.00  0.00    -0.550 OA
ATOM     10  O   UNL     1      -4.978 -12.980  32.959  1.00  0.00    -0.550 OA
ENDBRANCH   7   8
ENDBRANCH   6   7
ENDBRANCH   5   6
ENDBRANCH   4   5
ENDBRANCH   3   4
ENDBRANCH   2   3
ENDBRANCH   1   2
BRANCH   1  11
ATOM     11  C   UNL     1     -12.480 -17.306  29.984  1.00  0.00     0.000 C 
BRANCH  11  12
ATOM     12  C   UNL     1     -11.895 -17.580  28.589  1.00  0.00    -0.000 C 
BRANCH  12  13
ATOM     13  C   UNL     1     -11.870 -16.326  27.702  1.00  0.00    -0.000 C 
BRANCH  13  14
ATOM     14  C   UNL     1     -10.461 -16.078  27.144  1.00  0.00    -0.000 C 
BRANCH  14  15
ATOM     15  C   UNL     1     -10.390 -14.852  26.216  1.00  0.00    -0.000 C 
BRANCH  15  16
ATOM     16  C   UNL     1      -9.016 -14.155  26.158  1.00  0.00    -0.000 C 
BRANCH  16  17
ATOM     17  C   UNL     1      -7.839 -14.993  26.685  1.00  0.00    -0.003 C 
ATOM     18  C   UNL     1      -6.571 -14.170  26.903  1.00  0.00     0.004 C 
ENDBRANCH  16  17
ENDBRANCH  15  16
ENDBRANCH  14  15
ENDBRANCH  13  14
ENDBRANCH  12  13
ENDBRANCH  11  12
ENDBRANCH   1  11
TORSDOF 14
ENDMDL
MODEL 8
REMARK VINA RESULT:    -5.232      3.016      6.215
REMARK INTER + INTRA:         -10.787
REMARK INTER:                  -9.751
REMARK INTRA:                  -1.036
REMARK UNBOUND:                -1.273
REMARK SMILES CCCCCCCCCCCCCCCC(=O)[O-]
REMARK SMILES IDX 9 1 10 2 11 3 12 4 13 5 14 6 15 7 16 8 17 9 18 10 8 11 7 12
REMARK SMILES IDX 6 13 5 14 4 15 3 16 2 17 1 18
REMARK H PARENT
REMARK Flexibility Score: inf
ROOT
ATOM      1  C   UNL     1      -7.036 -14.194  26.730  1.00  0.00     0.000 C 
ENDROOT
BRANCH   1   2
ATOM      2  C   UNL     1      -5.982 -14.719  27.720  1.00  0.00     0.000 C 
BRANCH   2   3
ATOM      3  C   UNL     1      -6.138 -14.111  29.124  1.00  0.00     0.000 C 
BRANCH   3   4
ATOM      4  C   UNL     1      -7.291 -14.748  29.918  1.00  0.00     0.000 C 
BRANCH   4   5
ATOM      5  C   UNL     1      -7.050 -14.725  31.435  1.00  0.00     0.000 C 
BRANCH   5   6
ATOM      6  C   UNL     1      -6.727 -13.302  31.917  1.00  0.00     0.006 C 
BRANCH   6   7
ATOM      7  C   UNL     1      -5.342 -13.210  32.570  1.00  0.00     0.053 C 
BRANCH   7   8
ATOM      8  C   UNL     1      -4.646 -11.931  32.215  1.00  0.00     0.041 C 
ATOM      9  O   UNL     1      -4.889 -11.360  31.120  1.00  0.00    -0.550 OA
ATOM     10  O   UNL     1      -3.752 -11.356  33.109  1.00  0.00    -0.550 OA
ENDBRANCH   7   8
ENDBRANCH   6   7
ENDBRANCH   5   6
ENDBRANCH   4   5
ENDBRANCH   3   4
ENDBRANCH   2   3
ENDBRANCH   1   2
BRANCH   1  11
ATOM     11  C   UNL     1      -8.119 -15.239  26.408  1.00  0.00     0.000 C 
BRANCH  11  12
ATOM     12  C   UNL     1      -9.450 -14.597  25.985  1.00  0.00    -0.000 C 
BRANCH  12  13
ATOM     13  C   UNL     1     -10.669 -15.344  26.548  1.00  0.00    -0.000 C 
BRANCH  13  14
ATOM     14  C   UNL     1     -10.302 -16.103  27.831  1.00  0.00    -0.000 C 
BRANCH  14  15
ATOM     15  C   UNL     1     -11.455 -16.972  28.365  1.00  0.00    -0.000 C 
BRANCH  15  16
ATOM     16  C   UNL     1     -11.828 -16.728  29.841  1.00  0.00    -0.000 C 
BRANCH  16  17
ATOM     17  C   UNL     1     -10.849 -17.327  30.866  1.00  0.00    -0.003 C 
ATOM     18  C   UNL     1     -10.231 -18.644  30.400  1.00  0.00     0.004 C 
ENDBRANCH  16  17
ENDBRANCH  15  16
ENDBRANCH  14  15
ENDBRANCH  13  14
ENDBRANCH  12  13
ENDBRANCH  11  12
ENDBRANCH   1  11
TORSDOF 14
ENDMDL
MODEL 9
REMARK VINA RESULT:    -5.161      2.523      5.712
REMARK INTER + INTRA:         -10.658
REMARK INTER:                  -9.340
REMARK INTRA:                  -1.318
REMARK UNBOUND:                -1.273
REMARK SMILES CCCCCCCCCCCCCCCC(=O)[O-]
REMARK SMILES IDX 9 1 10 2 11 3 12 4 13 5 14 6 15 7 16 8 17 9 18 10 8 11 7 12
REMARK SMILES IDX 6 13 5 14 4 15 3 16 2 17 1 18
REMARK H PARENT
REMARK Flexibility Score: inf
ROOT
ATOM      1  C   UNL     1     -11.233 -16.828  27.730  1.00  0.00     0.000 C 
ENDROOT
BRANCH   1   2
ATOM      2  C   UNL     1     -10.249 -15.649  27.640  1.00  0.00     0.000 C 
BRANCH   2   3
ATOM      3  C   UNL     1     -10.257 -14.980  26.255  1.00  0.00     0.000 C 
BRANCH   3   4
ATOM      4  C   UNL     1      -8.881 -14.415  25.864  1.00  0.00     0.000 C 
BRANCH   4   5
ATOM      5  C   UNL     1      -7.724 -15.108  26.600  1.00  0.00     0.000 C 
BRANCH   5   6
ATOM      6  C   UNL     1      -6.625 -14.100  26.965  1.00  0.00     0.006 C 
BRANCH   6   7
ATOM      7  C   UNL     1      -5.627 -14.670  27.981  1.00  0.00     0.053 C 
BRANCH   7   8
ATOM      8  C   UNL     1      -5.946 -14.234  29.378  1.00  0.00     0.041 C 
ATOM      9  O   UNL     1      -5.160 -14.506  30.323  1.00  0.00    -0.550 OA
ATOM     10  O   UNL     1      -7.097 -13.498  29.630  1.00  0.00    -0.550 OA
ENDBRANCH   7   8
ENDBRANCH   6   7
ENDBRANCH   5   6
ENDBRANCH   4   5
ENDBRANCH   3   4
ENDBRANCH   2   3
ENDBRANCH   1   2
BRANCH   1  11
ATOM     11  C   UNL     1     -12.703 -16.381  27.645  1.00  0.00     0.000 C 
BRANCH  11  12
ATOM     12  C   UNL     1     -13.456 -16.574  28.972  1.00  0.00    -0.000 C 
BRANCH  12  13
ATOM     13  C   UNL     1     -12.515 -16.608  30.185  1.00  0.00    -0.000 C 
BRANCH  13  14
ATOM     14  C   UNL     1     -12.966 -17.670  31.199  1.00  0.00    -0.000 C 
BRANCH  14  15
ATOM     15  C   UNL     1     -11.887 -18.732  31.475  1.00  0.00    -0.000 C 
BRANCH  15  16
ATOM     16  C   UNL     1     -10.673 -18.693  30.524  1.00  0.00    -0.000 C 
BRANCH  16  17
ATOM     17  C   UNL     1      -9.339 -18.315  31.189  1.00  0.00    -0.003 C 
ATOM     18  C   UNL     1      -9.006 -16.830  31.055  1.00  0.00     0.004 C 
ENDBRANCH  16  17
ENDBRANCH  15  16
ENDBRANCH  14  15
ENDBRANCH  13  14
ENDBRANCH  12  13
ENDBRANCH  11  12
ENDBRANCH   1  11
TORSDOF 14
ENDMDL
