MODEL 1
REMARK VINA RESULT:    -5.444      0.000      0.000
REMARK INTER + INTRA:         -14.765
REMARK INTER:                 -12.446
REMARK INTRA:                  -2.319
REMARK UNBOUND:                -2.319
REMARK SMILES CCCCCCCCCCCCCCCCCCCCCCCC(=O)[O-]
REMARK SMILES IDX 13 1 14 2 15 3 16 4 17 5 18 6 19 7 20 8 21 9 22 10 23 11
REMARK SMILES IDX 24 12 25 13 26 14 12 15 11 16 10 17 9 18 8 19 7 20 6 21 5 22
REMARK SMILES IDX 4 23 3 24 2 25 1 26
REMARK H PARENT
REMARK Flexibility Score: inf
ROOT
ATOM      1  C   UNL     1       3.840  58.374  21.919  1.00  0.00     0.000 C 
ENDROOT
BRANCH   1   2
ATOM      2  C   UNL     1       3.140  59.324  22.907  1.00  0.00     0.000 C 
BRANCH   2   3
ATOM      3  C   UNL     1       1.807  59.871  22.372  1.00  0.00     0.000 C 
BRANCH   3   4
ATOM      4  C   UNL     1       0.638  58.966  22.787  1.00  0.00     0.000 C 
BRANCH   4   5
ATOM      5  C   UNL     1      -0.732  59.590  22.474  1.00  0.00     0.000 C 
BRANCH   5   6
ATOM      6  C   UNL     1      -0.610  60.987  21.842  1.00  0.00     0.000 C 
BRANCH   6   7
ATOM      7  C   UNL     1      -1.797  61.339  20.927  1.00  0.00     0.000 C 
BRANCH   7   8
ATOM      8  C   UNL     1      -1.577  61.049  19.432  1.00  0.00     0.000 C 
BRANCH   8   9
ATOM      9  C   UNL     1      -1.978  59.622  19.030  1.00  0.00     0.000 C 
BRANCH   9  10
ATOM     10  C   UNL     1      -1.032  59.070  17.952  1.00  0.00     0.006 C 
BRANCH  10  11
ATOM     11  C   UNL     1       0.444  59.199  18.353  1.00  0.00     0.053 C 
BRANCH  11  12
ATOM     12  C   UNL     1       1.352  59.186  17.161  1.00  0.00     0.041 C 
ATOM     13  O   UNL     1       1.406  58.171  16.415  1.00  0.00    -0.550 OA
ATOM     14  O   UNL     1       2.143  60.292  16.876  1.00  0.00    -0.550 OA
ENDBRANCH  11  12
ENDBRANCH  10  11
ENDBRANCH   9  10
ENDBRANCH   8   9
ENDBRANCH   7   8
ENDBRANCH   6   7
ENDBRANCH   5   6
ENDBRANCH   4   5
ENDBRANCH   3   4
ENDBRANCH   2   3
ENDBRANCH   1   2
BRANCH   1  15
ATOM     15  C   UNL     1       4.921  57.471  22.541  1.00  0.00     0.000 C 
BRANCH  15  16
ATOM     16  C   UNL     1       6.102  57.210  21.595  1.00  0.00     0.000 C 
BRANCH  16  17
ATOM     17  C   UNL     1       7.271  56.556  22.346  1.00  0.00     0.000 C 
BRANCH  17  18
ATOM     18  C   UNL     1       7.795  55.285  21.652  1.00  0.00    -0.000 C 
BRANCH  18  19
ATOM     19  C   UNL     1       7.130  53.974  22.111  1.00  0.00    -0.000 C 
BRANCH  19  20
ATOM     20  C   UNL     1       6.511  54.075  23.513  1.00  0.00    -0.000 C 
BRANCH  20  21
ATOM     21  C   UNL     1       7.364  53.333  24.549  1.00  0.00    -0.000 C 
BRANCH  21  22
ATOM     22  C   UNL     1       7.969  54.312  25.565  1.00  0.00    -0.000 C 
BRANCH  22  23
ATOM     23  C   UNL     1       9.249  54.995  25.051  1.00  0.00    -0.000 C 
BRANCH  23  24
ATOM     24  C   UNL     1      10.424  54.043  24.755  1.00  0.00    -0.000 C 
BRANCH  24  25
ATOM     25  C   UNL     1      10.631  53.709  23.267  1.00  0.00    -0.003 C 
ATOM     26  C   UNL     1      10.338  52.246  22.935  1.00  0.00     0.004 C 
ENDBRANCH  24  25
ENDBRANCH  23  24
ENDBRANCH  22  23
ENDBRANCH  21  22
ENDBRANCH  20  21
ENDBRANCH  19  20
ENDBRANCH  18  19
ENDBRANCH  17  18
ENDBRANCH  16  17
ENDBRANCH  15  16
ENDBRANCH   1  15
TORSDOF 22
ENDMDL
MODEL 2
REMARK VINA RESULT:    -5.372      1.296      2.552
REMARK INTER + INTRA:         -14.600
REMARK INTER:                 -12.436
REMARK INTRA:                  -2.164
REMARK UNBOUND:                -2.319
REMARK SMILES CCCCCCCCCCCCCCCCCCCCCCCC(=O)[O-]
REMARK SMILES IDX 13 1 14 2 15 3 16 4 17 5 18 6 19 7 20 8 21 9 22 10 23 11
REMARK SMILES IDX 24 12 25 13 26 14 12 15 11 16 10 17 9 18 8 19 7 20 6 21 5 22
REMARK SMILES IDX 4 23 3 24 2 25 1 26
REMARK H PARENT
REMARK Flexibility Score: inf
ROOT
ATOM      1  C   UNL     1       2.587  60.710  22.630  1.00  0.00     0.000 C 
ENDROOT
BRANCH   1   2
ATOM      2  C   UNL     1       1.697  59.885  23.578  1.00  0.00     0.000 C 
BRANCH   2   3
ATOM      3  C   UNL     1       0.486  60.674  24.101  1.00  0.00     0.000 C 
BRANCH   3   4
ATOM      4  C   UNL     1      -0.803  59.849  23.968  1.00  0.00     0.000 C 
BRANCH   4   5
ATOM      5  C   UNL     1      -1.763  60.420  22.910  1.00  0.00     0.000 C 
BRANCH   5   6
ATOM      6  C   UNL     1      -1.357  60.032  21.479  1.00  0.00     0.000 C 
BRANCH   6   7
ATOM      7  C   UNL     1      -0.604  61.154  20.742  1.00  0.00     0.000 C 
BRANCH   7   8
ATOM      8  C   UNL     1       0.178  60.707  19.495  1.00  0.00     0.000 C 
BRANCH   8   9
ATOM      9  C   UNL     1      -0.677  59.897  18.507  1.00  0.00     0.000 C 
BRANCH   9  10
ATOM     10  C   UNL     1       0.201  58.953  17.671  1.00  0.00     0.006 C 
BRANCH  10  11
ATOM     11  C   UNL     1       1.688  59.328  17.738  1.00  0.00     0.053 C 
BRANCH  11  12
ATOM     12  C   UNL     1       2.125  60.104  16.534  1.00  0.00     0.041 C 
ATOM     13  O   UNL     1       1.588  61.211  16.262  1.00  0.00    -0.550 OA
ATOM     14  O   UNL     1       3.124  59.602  15.707  1.00  0.00    -0.550 OA
ENDBRANCH  11  12
ENDBRANCH  10  11
ENDBRANCH   9  10
ENDBRANCH   8   9
ENDBRANCH   7   8
ENDBRANCH   6   7
ENDBRANCH   5   6
ENDBRANCH   4   5
ENDBRANCH   3   4
ENDBRANCH   2   3
ENDBRANCH   1   2
BRANCH   1  15
ATOM     15  C   UNL     1       3.252  59.904  21.499  1.00  0.00     0.000 C 
BRANCH  15  16
ATOM     16  C   UNL     1       2.599  58.532  21.277  1.00  0.00     0.000 C 
BRANCH  16  17
ATOM     17  C   UNL     1       3.317  57.446  22.090  1.00  0.00     0.000 C 
BRANCH  17  18
ATOM     18  C   UNL     1       4.820  57.728  22.273  1.00  0.00    -0.000 C 
BRANCH  18  19
ATOM     19  C   UNL     1       5.699  56.476  22.449  1.00  0.00    -0.000 C 
BRANCH  19  20
ATOM     20  C   UNL     1       7.135  56.676  21.943  1.00  0.00    -0.000 C 
BRANCH  20  21
ATOM     21  C   UNL     1       7.950  55.383  22.063  1.00  0.00    -0.000 C 
BRANCH  21  22
ATOM     22  C   UNL     1       7.286  54.404  23.043  1.00  0.00    -0.000 C 
BRANCH  22  23
ATOM     23  C   UNL     1       8.301  53.519  23.788  1.00  0.00    -0.000 C 
BRANCH  23  24
ATOM     24  C   UNL     1       9.630  54.212  24.151  1.00  0.00    -0.000 C 
BRANCH  24  25
ATOM     25  C   UNL     1       9.675  54.835  25.557  1.00  0.00    -0.003 C 
ATOM     26  C   UNL     1      11.020  54.634  26.257  1.00  0.00     0.004 C 
ENDBRANCH  24  25
ENDBRANCH  23  24
ENDBRANCH  22  23
ENDBRANCH  21  22
ENDBRANCH  20  21
ENDBRANCH  19  20
ENDBRANCH  18  19
ENDBRANCH  17  18
ENDBRANCH  16  17
ENDBRANCH  15  16
ENDBRANCH   1  15
TORSDOF 22
ENDMDL
MODEL 3
REMARK VINA RESULT:    -5.368      8.164     13.892
REMARK INTER + INTRA:         -14.591
REMARK INTER:                 -11.735
REMARK INTRA:                  -2.856
REMARK UNBOUND:                -2.319
REMARK SMILES CCCCCCCCCCCCCCCCCCCCCCCC(=O)[O-]
REMARK SMILES IDX 13 1 14 2 15 3 16 4 17 5 18 6 19 7 20 8 21 9 22 10 23 11
REMARK SMILES IDX 24 12 25 13 26 14 12 15 11 16 10 17 9 18 8 19 7 20 6 21 5 22
REMARK SMILES IDX 4 23 3 24 2 25 1 26
REMARK H PARENT
REMARK Flexibility Score: inf
ROOT
ATOM      1  C   UNL     1      10.201  51.474  23.895  1.00  0.00     0.000 C 
ENDROOT
BRANCH   1   2
ATOM      2  C   UNL     1      10.218  49.991  23.479  1.00  0.00     0.000 C 
BRANCH   2   3
ATOM      3  C   UNL     1      11.033  49.109  24.438  1.00  0.00     0.000 C 
BRANCH   3   4
ATOM      4  C   UNL     1      10.110  48.375  25.423  1.00  0.00     0.000 C 
BRANCH   4   5
ATOM      5  C   UNL     1       9.657  47.003  24.896  1.00  0.00     0.000 C 
BRANCH   5   6
ATOM      6  C   UNL     1      10.841  46.066  24.605  1.00  0.00     0.000 C 
BRANCH   6   7
ATOM      7  C   UNL     1      11.117  45.073  25.748  1.00  0.00     0.000 C 
BRANCH   7   8
ATOM      8  C   UNL     1      11.931  45.641  26.924  1.00  0.00     0.000 C 
BRANCH   8   9
ATOM      9  C   UNL     1      13.162  46.441  26.472  1.00  0.00     0.000 C 
BRANCH   9  10
ATOM     10  C   UNL     1      13.550  47.489  27.526  1.00  0.00     0.006 C 
BRANCH  10  11
ATOM     11  C   UNL     1      12.335  48.007  28.307  1.00  0.00     0.053 C 
BRANCH  11  12
ATOM     12  C   UNL     1      12.512  47.855  29.786  1.00  0.00     0.041 C 
ATOM     13  O   UNL     1      12.920  46.765  30.268  1.00  0.00    -0.550 OA
ATOM     14  O   UNL     1      12.221  48.917  30.635  1.00  0.00    -0.550 OA
ENDBRANCH  11  12
ENDBRANCH  10  11
ENDBRANCH   9  10
ENDBRANCH   8   9
ENDBRANCH   7   8
ENDBRANCH   6   7
ENDBRANCH   5   6
ENDBRANCH   4   5
ENDBRANCH   3   4
ENDBRANCH   2   3
ENDBRANCH   1   2
BRANCH   1  15
ATOM     15  C   UNL     1      10.236  52.477  22.727  1.00  0.00     0.000 C 
BRANCH  15  16
ATOM     16  C   UNL     1      10.505  53.918  23.182  1.00  0.00     0.000 C 
BRANCH  16  17
ATOM     17  C   UNL     1      10.764  53.974  24.695  1.00  0.00     0.000 C 
BRANCH  17  18
ATOM     18  C   UNL     1      10.155  55.221  25.363  1.00  0.00    -0.000 C 
BRANCH  18  19
ATOM     19  C   UNL     1       8.617  55.245  25.413  1.00  0.00    -0.000 C 
BRANCH  19  20
ATOM     20  C   UNL     1       8.010  53.891  25.812  1.00  0.00    -0.000 C 
BRANCH  20  21
ATOM     21  C   UNL     1       7.105  53.342  24.703  1.00  0.00    -0.000 C 
BRANCH  21  22
ATOM     22  C   UNL     1       6.895  54.386  23.597  1.00  0.00    -0.000 C 
BRANCH  22  23
ATOM     23  C   UNL     1       6.768  53.761  22.197  1.00  0.00    -0.000 C 
BRANCH  23  24
ATOM     24  C   UNL     1       6.847  54.760  21.025  1.00  0.00    -0.000 C 
BRANCH  24  25
ATOM     25  C   UNL     1       7.523  54.219  19.753  1.00  0.00    -0.003 C 
ATOM     26  C   UNL     1       6.791  54.616  18.471  1.00  0.00     0.004 C 
ENDBRANCH  24  25
ENDBRANCH  23  24
ENDBRANCH  22  23
ENDBRANCH  21  22
ENDBRANCH  20  21
ENDBRANCH  19  20
ENDBRANCH  18  19
ENDBRANCH  17  18
ENDBRANCH  16  17
ENDBRANCH  15  16
ENDBRANCH   1  15
TORSDOF 22
ENDMDL
MODEL 4
REMARK VINA RESULT:    -5.325      6.251      9.885
REMARK INTER + INTRA:         -14.492
REMARK INTER:                 -11.936
REMARK INTRA:                  -2.556
REMARK UNBOUND:                -2.319
REMARK SMILES CCCCCCCCCCCCCCCCCCCCCCCC(=O)[O-]
REMARK SMILES IDX 13 1 14 2 15 3 16 4 17 5 18 6 19 7 20 8 21 9 22 10 23 11
REMARK SMILES IDX 24 12 25 13 26 14 12 15 11 16 10 17 9 18 8 19 7 20 6 21 5 22
REMARK SMILES IDX 4 23 3 24 2 25 1 26
REMARK H PARENT
REMARK Flexibility Score: inf
ROOT
ATOM      1  C   UNL     1       9.988  51.387  23.811  1.00  0.00     0.000 C 
ENDROOT
BRANCH   1   2
ATOM      2  C   UNL     1      10.206  52.433  22.702  1.00  0.00     0.000 C 
BRANCH   2   3
ATOM      3  C   UNL     1      10.592  53.816  23.250  1.00  0.00     0.000 C 
BRANCH   3   4
ATOM      4  C   UNL     1      10.617  53.809  24.785  1.00  0.00     0.000 C 
BRANCH   4   5
ATOM      5  C   UNL     1      10.173  55.153  25.389  1.00  0.00     0.000 C 
BRANCH   5   6
ATOM      6  C   UNL     1       8.643  55.296  25.440  1.00  0.00     0.000 C 
BRANCH   6   7
ATOM      7  C   UNL     1       7.920  53.953  25.647  1.00  0.00     0.000 C 
BRANCH   7   8
ATOM      8  C   UNL     1       7.041  53.497  24.470  1.00  0.00     0.000 C 
BRANCH   8   9
ATOM      9  C   UNL     1       6.560  54.662  23.592  1.00  0.00     0.000 C 
BRANCH   9  10
ATOM     10  C   UNL     1       6.072  54.153  22.226  1.00  0.00     0.006 C 
BRANCH  10  11
ATOM     11  C   UNL     1       7.222  53.983  21.224  1.00  0.00     0.053 C 
BRANCH  11  12
ATOM     12  C   UNL     1       7.245  55.080  20.205  1.00  0.00     0.041 C 
ATOM     13  O   UNL     1       7.372  56.280  20.567  1.00  0.00    -0.550 OA
ATOM     14  O   UNL     1       7.119  54.779  18.854  1.00  0.00    -0.550 OA
ENDBRANCH  11  12
ENDBRANCH  10  11
ENDBRANCH   9  10
ENDBRANCH   8   9
ENDBRANCH   7   8
ENDBRANCH   6   7
ENDBRANCH   5   6
ENDBRANCH   4   5
ENDBRANCH   3   4
ENDBRANCH   2   3
ENDBRANCH   1   2
BRANCH   1  15
ATOM     15  C   UNL     1      10.601  50.003  23.528  1.00  0.00     0.000 C 
BRANCH  15  16
ATOM     16  C   UNL     1      10.478  49.039  24.717  1.00  0.00     0.000 C 
BRANCH  16  17
ATOM     17  C   UNL     1      10.655  47.584  24.261  1.00  0.00     0.000 C 
BRANCH  17  18
ATOM     18  C   UNL     1       9.445  46.695  24.604  1.00  0.00    -0.000 C 
BRANCH  18  19
ATOM     19  C   UNL     1       9.793  45.249  25.003  1.00  0.00    -0.000 C 
BRANCH  19  20
ATOM     20  C   UNL     1      11.171  45.128  25.671  1.00  0.00    -0.000 C 
BRANCH  20  21
ATOM     21  C   UNL     1      11.042  45.059  27.198  1.00  0.00    -0.000 C 
BRANCH  21  22
ATOM     22  C   UNL     1      12.365  45.440  27.878  1.00  0.00    -0.000 C 
BRANCH  22  23
ATOM     23  C   UNL     1      13.030  46.677  27.248  1.00  0.00    -0.000 C 
BRANCH  23  24
ATOM     24  C   UNL     1      12.519  48.033  27.774  1.00  0.00    -0.000 C 
BRANCH  24  25
ATOM     25  C   UNL     1      13.158  48.500  29.094  1.00  0.00    -0.003 C 
ATOM     26  C   UNL     1      12.195  48.439  30.280  1.00  0.00     0.004 C 
ENDBRANCH  24  25
ENDBRANCH  23  24
ENDBRANCH  22  23
ENDBRANCH  21  22
ENDBRANCH  20  21
ENDBRANCH  19  20
ENDBRANCH  18  19
ENDBRANCH  17  18
ENDBRANCH  16  17
ENDBRANCH  15  16
ENDBRANCH   1  15
TORSDOF 22
ENDMDL
MODEL 5
REMARK VINA RESULT:    -5.301      6.660     10.912
REMARK INTER + INTRA:         -14.437
REMARK INTER:                 -11.838
REMARK INTRA:                  -2.600
REMARK UNBOUND:                -2.319
REMARK SMILES CCCCCCCCCCCCCCCCCCCCCCCC(=O)[O-]
REMARK SMILES IDX 13 1 14 2 15 3 16 4 17 5 18 6 19 7 20 8 21 9 22 10 23 11
REMARK SMILES IDX 24 12 25 13 26 14 12 15 11 16 10 17 9 18 8 19 7 20 6 21 5 22
REMARK SMILES IDX 4 23 3 24 2 25 1 26
REMARK H PARENT
REMARK Flexibility Score: inf
ROOT
ATOM      1  C   UNL     1      10.071  49.124  24.594  1.00  0.00     0.000 C 
ENDROOT
BRANCH   1   2
ATOM      2  C   UNL     1      10.650  50.263  23.734  1.00  0.00     0.000 C 
BRANCH   2   3
ATOM      3  C   UNL     1       9.790  51.536  23.765  1.00  0.00     0.000 C 
BRANCH   3   4
ATOM      4  C   UNL     1      10.210  52.507  22.652  1.00  0.00     0.000 C 
BRANCH   4   5
ATOM      5  C   UNL     1      10.607  53.891  23.195  1.00  0.00     0.000 C 
BRANCH   5   6
ATOM      6  C   UNL     1      10.384  54.012  24.712  1.00  0.00     0.000 C 
BRANCH   6   7
ATOM      7  C   UNL     1       9.170  54.886  25.073  1.00  0.00     0.000 C 
BRANCH   7   8
ATOM      8  C   UNL     1       7.951  54.119  25.615  1.00  0.00     0.000 C 
BRANCH   8   9
ATOM      9  C   UNL     1       6.973  53.687  24.512  1.00  0.00     0.000 C 
BRANCH   9  10
ATOM     10  C   UNL     1       7.000  54.679  23.338  1.00  0.00     0.006 C 
BRANCH  10  11
ATOM     11  C   UNL     1       6.780  53.987  21.986  1.00  0.00     0.053 C 
BRANCH  11  12
ATOM     12  C   UNL     1       7.548  54.651  20.885  1.00  0.00     0.041 C 
ATOM     13  O   UNL     1       8.040  55.799  21.056  1.00  0.00    -0.550 OA
ATOM     14  O   UNL     1       7.718  54.004  19.666  1.00  0.00    -0.550 OA
ENDBRANCH  11  12
ENDBRANCH  10  11
ENDBRANCH   9  10
ENDBRANCH   8   9
ENDBRANCH   7   8
ENDBRANCH   6   7
ENDBRANCH   5   6
ENDBRANCH   4   5
ENDBRANCH   3   4
ENDBRANCH   2   3
ENDBRANCH   1   2
BRANCH   1  15
ATOM     15  C   UNL     1      11.116  48.161  25.186  1.00  0.00     0.000 C 
BRANCH  15  16
ATOM     16  C   UNL     1      11.461  46.999  24.243  1.00  0.00     0.000 C 
BRANCH  16  17
ATOM     17  C   UNL     1      10.677  45.734  24.624  1.00  0.00     0.000 C 
BRANCH  17  18
ATOM     18  C   UNL     1      10.248  45.717  26.102  1.00  0.00    -0.000 C 
BRANCH  18  19
ATOM     19  C   UNL     1      10.802  44.540  26.925  1.00  0.00    -0.000 C 
BRANCH  19  20
ATOM     20  C   UNL     1      11.017  44.892  28.404  1.00  0.00    -0.000 C 
BRANCH  20  21
ATOM     21  C   UNL     1      12.510  45.016  28.733  1.00  0.00    -0.000 C 
BRANCH  21  22
ATOM     22  C   UNL     1      13.296  45.543  27.523  1.00  0.00    -0.000 C 
BRANCH  22  23
ATOM     23  C   UNL     1      14.198  46.741  27.870  1.00  0.00    -0.000 C 
BRANCH  23  24
ATOM     24  C   UNL     1      13.462  48.084  28.048  1.00  0.00    -0.000 C 
BRANCH  24  25
ATOM     25  C   UNL     1      13.522  48.675  29.467  1.00  0.00    -0.003 C 
ATOM     26  C   UNL     1      12.247  48.426  30.274  1.00  0.00     0.004 C 
ENDBRANCH  24  25
ENDBRANCH  23  24
ENDBRANCH  22  23
ENDBRANCH  21  22
ENDBRANCH  20  21
ENDBRANCH  19  20
ENDBRANCH  18  19
ENDBRANCH  17  18
ENDBRANCH  16  17
ENDBRANCH  15  16
ENDBRANCH   1  15
TORSDOF 22
ENDMDL
MODEL 6
REMARK VINA RESULT:    -5.300      6.316     10.484
REMARK INTER + INTRA:         -14.435
REMARK INTER:                 -12.108
REMARK INTRA:                  -2.327
REMARK UNBOUND:                -2.319
REMARK SMILES CCCCCCCCCCCCCCCCCCCCCCCC(=O)[O-]
REMARK SMILES IDX 13 1 14 2 15 3 16 4 17 5 18 6 19 7 20 8 21 9 22 10 23 11
REMARK SMILES IDX 24 12 25 13 26 14 12 15 11 16 10 17 9 18 8 19 7 20 6 21 5 22
REMARK SMILES IDX 4 23 3 24 2 25 1 26
REMARK H PARENT
REMARK Flexibility Score: inf
ROOT
ATOM      1  C   UNL     1      10.519  50.173  23.401  1.00  0.00     0.000 C 
ENDROOT
BRANCH   1   2
ATOM      2  C   UNL     1       9.956  51.561  23.759  1.00  0.00     0.000 C 
BRANCH   2   3
ATOM      3  C   UNL     1      10.223  52.615  22.673  1.00  0.00     0.000 C 
BRANCH   3   4
ATOM      4  C   UNL     1      10.538  53.980  23.302  1.00  0.00     0.000 C 
BRANCH   4   5
ATOM      5  C   UNL     1      10.346  53.985  24.828  1.00  0.00     0.000 C 
BRANCH   5   6
ATOM      6  C   UNL     1       9.227  54.941  25.275  1.00  0.00     0.000 C 
BRANCH   6   7
ATOM      7  C   UNL     1       7.922  54.210  25.637  1.00  0.00     0.000 C 
BRANCH   7   8
ATOM      8  C   UNL     1       7.056  53.787  24.438  1.00  0.00     0.000 C 
BRANCH   8   9
ATOM      9  C   UNL     1       7.068  54.815  23.296  1.00  0.00     0.000 C 
BRANCH   9  10
ATOM     10  C   UNL     1       6.956  54.118  21.931  1.00  0.00     0.006 C 
BRANCH  10  11
ATOM     11  C   UNL     1       7.286  55.062  20.767  1.00  0.00     0.053 C 
BRANCH  11  12
ATOM     12  C   UNL     1       6.958  54.451  19.439  1.00  0.00     0.041 C 
ATOM     13  O   UNL     1       7.058  55.133  18.384  1.00  0.00    -0.550 OA
ATOM     14  O   UNL     1       6.535  53.129  19.366  1.00  0.00    -0.550 OA
ENDBRANCH  11  12
ENDBRANCH  10  11
ENDBRANCH   9  10
ENDBRANCH   8   9
ENDBRANCH   7   8
ENDBRANCH   6   7
ENDBRANCH   5   6
ENDBRANCH   4   5
ENDBRANCH   3   4
ENDBRANCH   2   3
ENDBRANCH   1   2
BRANCH   1  15
ATOM     15  C   UNL     1      10.639  49.195  24.584  1.00  0.00     0.000 C 
BRANCH  15  16
ATOM     16  C   UNL     1      10.285  47.750  24.206  1.00  0.00     0.000 C 
BRANCH  16  17
ATOM     17  C   UNL     1      11.523  46.845  24.284  1.00  0.00     0.000 C 
BRANCH  17  18
ATOM     18  C   UNL     1      12.661  47.455  25.125  1.00  0.00    -0.000 C 
BRANCH  18  19
ATOM     19  C   UNL     1      12.986  46.696  26.424  1.00  0.00    -0.000 C 
BRANCH  19  20
ATOM     20  C   UNL     1      12.008  45.545  26.706  1.00  0.00    -0.000 C 
BRANCH  20  21
ATOM     21  C   UNL     1      11.874  45.289  28.212  1.00  0.00    -0.000 C 
BRANCH  21  22
ATOM     22  C   UNL     1      12.413  46.477  29.021  1.00  0.00    -0.000 C 
BRANCH  22  23
ATOM     23  C   UNL     1      13.112  46.049  30.324  1.00  0.00    -0.000 C 
BRANCH  23  24
ATOM     24  C   UNL     1      14.652  46.026  30.262  1.00  0.00    -0.000 C 
BRANCH  24  25
ATOM     25  C   UNL     1      15.278  47.017  29.265  1.00  0.00    -0.003 C 
ATOM     26  C   UNL     1      16.674  46.599  28.803  1.00  0.00     0.004 C 
ENDBRANCH  24  25
ENDBRANCH  23  24
ENDBRANCH  22  23
ENDBRANCH  21  22
ENDBRANCH  20  21
ENDBRANCH  19  20
ENDBRANCH  18  19
ENDBRANCH  17  18
ENDBRANCH  16  17
ENDBRANCH  15  16
ENDBRANCH   1  15
TORSDOF 22
ENDMDL
MODEL 7
REMARK VINA RESULT:    -5.255      3.818     10.383
REMARK INTER + INTRA:         -14.331
REMARK INTER:                 -12.036
REMARK INTRA:                  -2.296
REMARK UNBOUND:                -2.319
REMARK SMILES CCCCCCCCCCCCCCCCCCCCCCCC(=O)[O-]
REMARK SMILES IDX 13 1 14 2 15 3 16 4 17 5 18 6 19 7 20 8 21 9 22 10 23 11
REMARK SMILES IDX 24 12 25 13 26 14 12 15 11 16 10 17 9 18 8 19 7 20 6 21 5 22
REMARK SMILES IDX 4 23 3 24 2 25 1 26
REMARK H PARENT
REMARK Flexibility Score: inf
ROOT
ATOM      1  C   UNL     1       3.819  58.804  21.487  1.00  0.00     0.000 C 
ENDROOT
BRANCH   1   2
ATOM      2  C   UNL     1       4.446  58.051  22.675  1.00  0.00     0.000 C 
BRANCH   2   3
ATOM      3  C   UNL     1       5.269  56.827  22.243  1.00  0.00     0.000 C 
BRANCH   3   4
ATOM      4  C   UNL     1       6.764  57.049  22.518  1.00  0.00     0.000 C 
BRANCH   4   5
ATOM      5  C   UNL     1       7.638  56.773  21.283  1.00  0.00     0.000 C 
BRANCH   5   6
ATOM      6  C   UNL     1       7.531  55.316  20.801  1.00  0.00     0.000 C 
BRANCH   6   7
ATOM      7  C   UNL     1       8.082  54.305  21.823  1.00  0.00     0.000 C 
BRANCH   7   8
ATOM      8  C   UNL     1       7.017  53.448  22.531  1.00  0.00     0.000 C 
BRANCH   8   9
ATOM      9  C   UNL     1       6.784  53.866  23.991  1.00  0.00     0.000 C 
BRANCH   9  10
ATOM     10  C   UNL     1       7.910  53.343  24.896  1.00  0.00     0.006 C 
BRANCH  10  11
ATOM     11  C   UNL     1       8.679  54.479  25.584  1.00  0.00     0.053 C 
BRANCH  11  12
ATOM     12  C   UNL     1      10.149  54.415  25.299  1.00  0.00     0.041 C 
ATOM     13  O   UNL     1      10.972  54.948  26.090  1.00  0.00    -0.550 OA
ATOM     14  O   UNL     1      10.609  53.773  24.155  1.00  0.00    -0.550 OA
ENDBRANCH  11  12
ENDBRANCH  10  11
ENDBRANCH   9  10
ENDBRANCH   8   9
ENDBRANCH   7   8
ENDBRANCH   6   7
ENDBRANCH   5   6
ENDBRANCH   4   5
ENDBRANCH   3   4
ENDBRANCH   2   3
ENDBRANCH   1   2
BRANCH   1  15
ATOM     15  C   UNL     1       2.653  59.741  21.853  1.00  0.00     0.000 C 
BRANCH  15  16
ATOM     16  C   UNL     1       2.517  59.964  23.367  1.00  0.00     0.000 C 
BRANCH  16  17
ATOM     17  C   UNL     1       1.137  59.511  23.864  1.00  0.00     0.000 C 
BRANCH  17  18
ATOM     18  C   UNL     1       0.263  58.909  22.747  1.00  0.00    -0.000 C 
BRANCH  18  19
ATOM     19  C   UNL     1      -1.100  59.597  22.548  1.00  0.00    -0.000 C 
BRANCH  19  20
ATOM     20  C   UNL     1      -1.230  60.285  21.181  1.00  0.00    -0.000 C 
BRANCH  20  21
ATOM     21  C   UNL     1      -0.352  61.541  21.108  1.00  0.00    -0.000 C 
BRANCH  21  22
ATOM     22  C   UNL     1       0.118  61.798  19.669  1.00  0.00    -0.000 C 
BRANCH  22  23
ATOM     23  C   UNL     1       0.050  60.543  18.781  1.00  0.00    -0.000 C 
BRANCH  23  24
ATOM     24  C   UNL     1       1.153  60.440  17.709  1.00  0.00    -0.000 C 
BRANCH  24  25
ATOM     25  C   UNL     1       1.375  59.028  17.138  1.00  0.00    -0.003 C 
ATOM     26  C   UNL     1       0.153  58.123  17.289  1.00  0.00     0.004 C 
ENDBRANCH  24  25
ENDBRANCH  23  24
ENDBRANCH  22  23
ENDBRANCH  21  22
ENDBRANCH  20  21
ENDBRANCH  19  20
ENDBRANCH  18  19
ENDBRANCH  17  18
ENDBRANCH  16  17
ENDBRANCH  15  16
ENDBRANCH   1  15
TORSDOF 22
ENDMDL
MODEL 8
REMARK VINA RESULT:    -5.231      1.380      2.184
REMARK INTER + INTRA:         -14.278
REMARK INTER:                 -12.089
REMARK INTRA:                  -2.189
REMARK UNBOUND:                -2.319
REMARK SMILES CCCCCCCCCCCCCCCCCCCCCCCC(=O)[O-]
REMARK SMILES IDX 13 1 14 2 15 3 16 4 17 5 18 6 19 7 20 8 21 9 22 10 23 11
REMARK SMILES IDX 24 12 25 13 26 14 12 15 11 16 10 17 9 18 8 19 7 20 6 21 5 22
REMARK SMILES IDX 4 23 3 24 2 25 1 26
REMARK H PARENT
REMARK Flexibility Score: inf
ROOT
ATOM      1  C   UNL     1       5.908  57.357  22.414  1.00  0.00     0.000 C 
ENDROOT
BRANCH   1   2
ATOM      2  C   UNL     1       4.380  57.389  22.231  1.00  0.00     0.000 C 
BRANCH   2   3
ATOM      3  C   UNL     1       3.837  58.802  21.967  1.00  0.00     0.000 C 
BRANCH   3   4
ATOM      4  C   UNL     1       2.950  59.273  23.130  1.00  0.00     0.000 C 
BRANCH   4   5
ATOM      5  C   UNL     1       2.130  60.525  22.777  1.00  0.00     0.000 C 
BRANCH   5   6
ATOM      6  C   UNL     1       0.646  60.205  22.529  1.00  0.00     0.000 C 
BRANCH   6   7
ATOM      7  C   UNL     1       0.067  60.945  21.310  1.00  0.00     0.000 C 
BRANCH   7   8
ATOM      8  C   UNL     1      -0.071  60.095  20.035  1.00  0.00     0.000 C 
BRANCH   8   9
ATOM      9  C   UNL     1       1.259  59.912  19.287  1.00  0.00     0.000 C 
BRANCH   9  10
ATOM     10  C   UNL     1       1.017  59.712  17.783  1.00  0.00     0.006 C 
BRANCH  10  11
ATOM     11  C   UNL     1      -0.436  60.004  17.383  1.00  0.00     0.053 C 
BRANCH  11  12
ATOM     12  C   UNL     1      -0.568  61.309  16.660  1.00  0.00     0.041 C 
ATOM     13  O   UNL     1      -1.612  61.566  16.001  1.00  0.00    -0.550 OA
ATOM     14  O   UNL     1       0.463  62.239  16.707  1.00  0.00    -0.550 OA
ENDBRANCH  11  12
ENDBRANCH  10  11
ENDBRANCH   9  10
ENDBRANCH   8   9
ENDBRANCH   7   8
ENDBRANCH   6   7
ENDBRANCH   5   6
ENDBRANCH   4   5
ENDBRANCH   3   4
ENDBRANCH   2   3
ENDBRANCH   1   2
BRANCH   1  15
ATOM     15  C   UNL     1       6.689  56.712  21.253  1.00  0.00     0.000 C 
BRANCH  15  16
ATOM     16  C   UNL     1       7.889  55.881  21.727  1.00  0.00     0.000 C 
BRANCH  16  17
ATOM     17  C   UNL     1       7.734  54.411  21.312  1.00  0.00     0.000 C 
BRANCH  17  18
ATOM     18  C   UNL     1       6.492  53.740  21.927  1.00  0.00    -0.000 C 
BRANCH  18  19
ATOM     19  C   UNL     1       6.274  54.026  23.424  1.00  0.00    -0.000 C 
BRANCH  19  20
ATOM     20  C   UNL     1       7.211  53.214  24.331  1.00  0.00    -0.000 C 
BRANCH  20  21
ATOM     21  C   UNL     1       7.660  54.037  25.543  1.00  0.00    -0.000 C 
BRANCH  21  22
ATOM     22  C   UNL     1       8.603  55.171  25.118  1.00  0.00    -0.000 C 
BRANCH  22  23
ATOM     23  C   UNL     1      10.026  55.013  25.683  1.00  0.00    -0.000 C 
BRANCH  23  24
ATOM     24  C   UNL     1      10.936  54.046  24.901  1.00  0.00    -0.000 C 
BRANCH  24  25
ATOM     25  C   UNL     1      10.595  53.895  23.408  1.00  0.00    -0.003 C 
ATOM     26  C   UNL     1      10.324  52.447  22.999  1.00  0.00     0.004 C 
ENDBRANCH  24  25
ENDBRANCH  23  24
ENDBRANCH  22  23
ENDBRANCH  21  22
ENDBRANCH  20  21
ENDBRANCH  19  20
ENDBRANCH  18  19
ENDBRANCH  17  18
ENDBRANCH  16  17
ENDBRANCH  15  16
ENDBRANCH   1  15
TORSDOF 22
ENDMDL
MODEL 9
REMARK VINA RESULT:    -5.203      1.248      2.180
REMARK INTER + INTRA:         -14.213
REMARK INTER:                 -12.137
REMARK INTRA:                  -2.076
REMARK UNBOUND:                -2.319
REMARK SMILES CCCCCCCCCCCCCCCCCCCCCCCC(=O)[O-]
REMARK SMILES IDX 13 1 14 2 15 3 16 4 17 5 18 6 19 7 20 8 21 9 22 10 23 11
REMARK SMILES IDX 24 12 25 13 26 14 12 15 11 16 10 17 9 18 8 19 7 20 6 21 5 22
REMARK SMILES IDX 4 23 3 24 2 25 1 26
REMARK H PARENT
REMARK Flexibility Score: inf
ROOT
ATOM      1  C   UNL     1       2.777  58.206  21.776  1.00  0.00     0.000 C 
ENDROOT
BRANCH   1   2
ATOM      2  C   UNL     1       1.906  59.314  22.397  1.00  0.00     0.000 C 
BRANCH   2   3
ATOM      3  C   UNL     1       1.797  60.562  21.506  1.00  0.00     0.000 C 
BRANCH   3   4
ATOM      4  C   UNL     1       0.327  60.905  21.224  1.00  0.00     0.000 C 
BRANCH   4   5
ATOM      5  C   UNL     1       0.166  61.906  20.067  1.00  0.00     0.000 C 
BRANCH   5   6
ATOM      6  C   UNL     1      -1.296  62.042  19.608  1.00  0.00     0.000 C 
BRANCH   6   7
ATOM      7  C   UNL     1      -1.881  60.724  19.068  1.00  0.00     0.000 C 
BRANCH   7   8
ATOM      8  C   UNL     1      -1.273  60.236  17.741  1.00  0.00     0.000 C 
BRANCH   8   9
ATOM      9  C   UNL     1      -0.673  58.824  17.839  1.00  0.00     0.000 C 
BRANCH   9  10
ATOM     10  C   UNL     1       0.847  58.890  18.049  1.00  0.00     0.006 C 
BRANCH  10  11
ATOM     11  C   UNL     1       1.627  58.550  16.771  1.00  0.00     0.053 C 
BRANCH  11  12
ATOM     12  C   UNL     1       2.358  59.739  16.227  1.00  0.00     0.041 C 
ATOM     13  O   UNL     1       3.289  59.584  15.392  1.00  0.00    -0.550 OA
ATOM     14  O   UNL     1       2.016  61.019  16.647  1.00  0.00    -0.550 OA
ENDBRANCH  11  12
ENDBRANCH  10  11
ENDBRANCH   9  10
ENDBRANCH   8   9
ENDBRANCH   7   8
ENDBRANCH   6   7
ENDBRANCH   5   6
ENDBRANCH   4   5
ENDBRANCH   3   4
ENDBRANCH   2   3
ENDBRANCH   1   2
BRANCH   1  15
ATOM     15  C   UNL     1       4.246  58.198  22.238  1.00  0.00     0.000 C 
BRANCH  15  16
ATOM     16  C   UNL     1       4.903  56.815  22.121  1.00  0.00     0.000 C 
BRANCH  16  17
ATOM     17  C   UNL     1       6.331  56.839  22.684  1.00  0.00     0.000 C 
BRANCH  17  18
ATOM     18  C   UNL     1       7.410  56.692  21.595  1.00  0.00    -0.000 C 
BRANCH  18  19
ATOM     19  C   UNL     1       7.219  55.492  20.650  1.00  0.00    -0.000 C 
BRANCH  19  20
ATOM     20  C   UNL     1       7.368  54.139  21.363  1.00  0.00    -0.000 C 
BRANCH  20  21
ATOM     21  C   UNL     1       8.678  54.073  22.157  1.00  0.00    -0.000 C 
BRANCH  21  22
ATOM     22  C   UNL     1       8.524  53.179  23.396  1.00  0.00    -0.000 C 
BRANCH  22  23
ATOM     23  C   UNL     1       7.530  53.747  24.426  1.00  0.00    -0.000 C 
BRANCH  23  24
ATOM     24  C   UNL     1       8.145  54.122  25.789  1.00  0.00    -0.000 C 
BRANCH  24  25
ATOM     25  C   UNL     1       9.215  55.227  25.738  1.00  0.00    -0.003 C 
ATOM     26  C   UNL     1      10.642  54.681  25.803  1.00  0.00     0.004 C 
ENDBRANCH  24  25
ENDBRANCH  23  24
ENDBRANCH  22  23
ENDBRANCH  21  22
ENDBRANCH  20  21
ENDBRANCH  19  20
ENDBRANCH  18  19
ENDBRANCH  17  18
ENDBRANCH  16  17
ENDBRANCH  15  16
ENDBRANCH   1  15
TORSDOF 22
ENDMDL
