MODEL 1
REMARK VINA RESULT:    -4.953      0.000      0.000
REMARK INTER + INTRA:          -5.815
REMARK INTER:                  -5.677
REMARK INTRA:                  -0.138
REMARK UNBOUND:                -0.138
REMARK SMILES O=C([O-])C=Cc1ccc(O)cc1
REMARK SMILES IDX 6 1 7 2 12 3 8 4 11 5 9 6 5 7 4 8 2 9 1 10 3 11 10 12
REMARK H PARENT 10 13
REMARK Flexibility Score: inf
ROOT
ATOM      1  C   UNL     1     -10.321  -5.578  -7.117  1.00  0.00    -0.025 A 
ATOM      2  C   UNL     1     -11.115  -4.542  -6.584  1.00  0.00     0.012 A 
ATOM      3  C   UNL     1     -10.197  -5.688  -8.512  1.00  0.00     0.012 A 
ATOM      4  C   UNL     1     -11.747  -3.627  -7.433  1.00  0.00     0.047 A 
ATOM      5  C   UNL     1     -10.831  -4.771  -9.358  1.00  0.00     0.047 A 
ATOM      6  C   UNL     1     -11.605  -3.736  -8.818  1.00  0.00     0.115 A 
ENDROOT
BRANCH   1   7
ATOM      7  C   UNL     1      -9.638  -6.581  -6.263  1.00  0.00     0.010 C 
ATOM      8  C   UNL     1     -10.159  -7.779  -5.958  1.00  0.00     0.025 C 
BRANCH   8   9
ATOM      9  C   UNL     1      -9.456  -8.745  -5.098  1.00  0.00     0.064 C 
ATOM     10  O   UNL     1      -8.493  -8.389  -4.366  1.00  0.00    -0.545 OA
ATOM     11  O   UNL     1      -9.859 -10.074  -5.092  1.00  0.00    -0.545 OA
ENDBRANCH   8   9
ENDBRANCH   1   7
BRANCH   6  12
ATOM     12  O   UNL     1     -12.240  -2.816  -9.650  1.00  0.00    -0.508 OA
ATOM     13  H   UNL     1     -12.517  -3.059 -10.594  1.00  0.00     0.293 HD
ENDBRANCH   6  12
TORSDOF 3
ENDMDL
MODEL 2
REMARK VINA RESULT:    -4.894      1.263      1.592
REMARK INTER + INTRA:          -5.747
REMARK INTER:                  -5.610
REMARK INTRA:                  -0.137
REMARK UNBOUND:                -0.138
REMARK SMILES O=C([O-])C=Cc1ccc(O)cc1
REMARK SMILES IDX 6 1 7 2 12 3 8 4 11 5 9 6 5 7 4 8 2 9 1 10 3 11 10 12
REMARK H PARENT 10 13
REMARK Flexibility Score: inf
ROOT
ATOM      1  C   UNL     1     -10.218  -6.297  -5.974  1.00  0.00    -0.025 A 
ATOM      2  C   UNL     1     -11.281  -5.787  -5.201  1.00  0.00     0.012 A 
ATOM      3  C   UNL     1      -9.985  -5.753  -7.249  1.00  0.00     0.012 A 
ATOM      4  C   UNL     1     -12.073  -4.743  -5.689  1.00  0.00     0.047 A 
ATOM      5  C   UNL     1     -10.780  -4.708  -7.733  1.00  0.00     0.047 A 
ATOM      6  C   UNL     1     -11.824  -4.199  -6.951  1.00  0.00     0.115 A 
ENDROOT
BRANCH   1   7
ATOM      7  C   UNL     1      -9.355  -7.411  -5.510  1.00  0.00     0.010 C 
ATOM      8  C   UNL     1      -9.725  -8.699  -5.529  1.00  0.00     0.025 C 
BRANCH   8   9
ATOM      9  C   UNL     1      -8.844  -9.777  -5.049  1.00  0.00     0.064 C 
ATOM     10  O   UNL     1      -7.664  -9.540  -4.679  1.00  0.00    -0.545 OA
ATOM     11  O   UNL     1      -9.323 -11.081  -5.005  1.00  0.00    -0.545 OA
ENDBRANCH   8   9
ENDBRANCH   1   7
BRANCH   6  12
ATOM     12  O   UNL     1     -12.621  -3.158  -7.422  1.00  0.00    -0.508 OA
ATOM     13  H   UNL     1     -13.363  -3.320  -8.093  1.00  0.00     0.293 HD
ENDBRANCH   6  12
TORSDOF 3
ENDMDL
MODEL 3
REMARK VINA RESULT:    -4.762      8.598     12.075
REMARK INTER + INTRA:          -5.596
REMARK INTER:                  -5.460
REMARK INTRA:                  -0.136
REMARK UNBOUND:                -0.138
REMARK SMILES O=C([O-])C=Cc1ccc(O)cc1
REMARK SMILES IDX 6 1 7 2 12 3 8 4 11 5 9 6 5 7 4 8 2 9 1 10 3 11 10 12
REMARK H PARENT 10 13
REMARK Flexibility Score: inf
ROOT
ATOM      1  C   UNL     1      -1.895 -12.844  -5.024  1.00  0.00    -0.025 A 
ATOM      2  C   UNL     1      -0.667 -13.010  -5.698  1.00  0.00     0.012 A 
ATOM      3  C   UNL     1      -1.919 -12.954  -3.623  1.00  0.00     0.012 A 
ATOM      4  C   UNL     1       0.507 -13.255  -4.978  1.00  0.00     0.047 A 
ATOM      5  C   UNL     1      -0.743 -13.199  -2.907  1.00  0.00     0.047 A 
ATOM      6  C   UNL     1       0.474 -13.347  -3.584  1.00  0.00     0.115 A 
ENDROOT
BRANCH   1   7
ATOM      7  C   UNL     1      -3.170 -12.594  -5.739  1.00  0.00     0.010 C 
ATOM      8  C   UNL     1      -3.720 -11.379  -5.879  1.00  0.00     0.025 C 
BRANCH   8   9
ATOM      9  C   UNL     1      -4.995 -11.171  -6.586  1.00  0.00     0.064 C 
ATOM     10  O   UNL     1      -5.386 -11.972  -7.477  1.00  0.00    -0.545 OA
ATOM     11  O   UNL     1      -5.781 -10.070  -6.268  1.00  0.00    -0.545 OA
ENDBRANCH   8   9
ENDBRANCH   1   7
BRANCH   6  12
ATOM     12  O   UNL     1       1.652 -13.591  -2.882  1.00  0.00    -0.508 OA
ATOM     13  H   UNL     1       1.952 -12.988  -2.124  1.00  0.00     0.293 HD
ENDBRANCH   6  12
TORSDOF 3
ENDMDL
MODEL 4
REMARK VINA RESULT:    -4.719      1.621      5.943
REMARK INTER + INTRA:          -5.546
REMARK INTER:                  -5.410
REMARK INTRA:                  -0.137
REMARK UNBOUND:                -0.138
REMARK SMILES O=C([O-])C=Cc1ccc(O)cc1
REMARK SMILES IDX 6 1 7 2 12 3 8 4 11 5 9 6 5 7 4 8 2 9 1 10 3 11 10 12
REMARK H PARENT 10 13
REMARK Flexibility Score: inf
ROOT
ATOM      1  C   UNL     1     -10.427  -7.551  -5.657  1.00  0.00    -0.025 A 
ATOM      2  C   UNL     1      -9.128  -7.792  -5.164  1.00  0.00     0.012 A 
ATOM      3  C   UNL     1     -11.278  -8.645  -5.889  1.00  0.00     0.012 A 
ATOM      4  C   UNL     1      -8.706  -9.097  -4.891  1.00  0.00     0.047 A 
ATOM      5  C   UNL     1     -10.852  -9.949  -5.614  1.00  0.00     0.047 A 
ATOM      6  C   UNL     1      -9.565 -10.176  -5.111  1.00  0.00     0.115 A 
ENDROOT
BRANCH   1   7
ATOM      7  C   UNL     1     -10.921  -6.188  -5.974  1.00  0.00     0.010 C 
ATOM      8  C   UNL     1     -10.477  -5.455  -7.005  1.00  0.00     0.025 C 
BRANCH   8   9
ATOM      9  C   UNL     1     -10.984  -4.101  -7.282  1.00  0.00     0.064 C 
ATOM     10  O   UNL     1     -10.740  -3.523  -8.374  1.00  0.00    -0.545 OA
ATOM     11  O   UNL     1     -11.745  -3.447  -6.321  1.00  0.00    -0.545 OA
ENDBRANCH   8   9
ENDBRANCH   1   7
BRANCH   6  12
ATOM     12  O   UNL     1      -9.130 -11.470  -4.832  1.00  0.00    -0.508 OA
ATOM     13  H   UNL     1      -9.783 -12.216  -4.627  1.00  0.00     0.293 HD
ENDBRANCH   6  12
TORSDOF 3
ENDMDL
MODEL 5
REMARK VINA RESULT:    -4.637      2.121      2.975
REMARK INTER + INTRA:          -5.452
REMARK INTER:                  -5.311
REMARK INTRA:                  -0.141
REMARK UNBOUND:                -0.138
REMARK SMILES O=C([O-])C=Cc1ccc(O)cc1
REMARK SMILES IDX 6 1 7 2 12 3 8 4 11 5 9 6 5 7 4 8 2 9 1 10 3 11 10 12
REMARK H PARENT 10 13
REMARK Flexibility Score: inf
ROOT
ATOM      1  C   UNL     1     -11.221  -6.932  -6.019  1.00  0.00    -0.025 A 
ATOM      2  C   UNL     1     -10.533  -6.070  -6.899  1.00  0.00     0.012 A 
ATOM      3  C   UNL     1     -12.229  -6.398  -5.199  1.00  0.00     0.012 A 
ATOM      4  C   UNL     1     -10.869  -4.714  -6.967  1.00  0.00     0.047 A 
ATOM      5  C   UNL     1     -12.562  -5.041  -5.270  1.00  0.00     0.047 A 
ATOM      6  C   UNL     1     -11.883  -4.198  -6.158  1.00  0.00     0.115 A 
ENDROOT
BRANCH   1   7
ATOM      7  C   UNL     1     -10.898  -8.375  -5.899  1.00  0.00     0.010 C 
ATOM      8  C   UNL     1     -11.818  -9.349  -5.920  1.00  0.00     0.025 C 
BRANCH   8   9
ATOM      9  C   UNL     1     -11.460 -10.771  -5.787  1.00  0.00     0.064 C 
ATOM     10  O   UNL     1     -11.381 -11.322  -4.657  1.00  0.00    -0.545 OA
ATOM     11  O   UNL     1     -11.203 -11.520  -6.928  1.00  0.00    -0.545 OA
ENDBRANCH   8   9
ENDBRANCH   1   7
BRANCH   6  12
ATOM     12  O   UNL     1     -12.207  -2.844  -6.239  1.00  0.00    -0.508 OA
ATOM     13  H   UNL     1     -12.061  -2.217  -5.457  1.00  0.00     0.293 HD
ENDBRANCH   6  12
TORSDOF 3
ENDMDL
MODEL 6
REMARK VINA RESULT:    -4.596      2.017      2.744
REMARK INTER + INTRA:          -5.406
REMARK INTER:                  -5.268
REMARK INTRA:                  -0.138
REMARK UNBOUND:                -0.138
REMARK SMILES O=C([O-])C=Cc1ccc(O)cc1
REMARK SMILES IDX 6 1 7 2 12 3 8 4 11 5 9 6 5 7 4 8 2 9 1 10 3 11 10 12
REMARK H PARENT 10 13
REMARK Flexibility Score: inf
ROOT
ATOM      1  C   UNL     1     -11.201  -6.849  -5.954  1.00  0.00    -0.025 A 
ATOM      2  C   UNL     1     -12.233  -6.285  -5.175  1.00  0.00     0.012 A 
ATOM      3  C   UNL     1     -10.503  -6.025  -6.853  1.00  0.00     0.012 A 
ATOM      4  C   UNL     1     -12.536  -4.924  -5.282  1.00  0.00     0.047 A 
ATOM      5  C   UNL     1     -10.809  -4.664  -6.956  1.00  0.00     0.047 A 
ATOM      6  C   UNL     1     -11.825  -4.111  -6.167  1.00  0.00     0.115 A 
ENDROOT
BRANCH   1   7
ATOM      7  C   UNL     1     -10.847  -8.288  -5.889  1.00  0.00     0.010 C 
ATOM      8  C   UNL     1     -11.734  -9.282  -6.041  1.00  0.00     0.025 C 
BRANCH   8   9
ATOM      9  C   UNL     1     -11.346 -10.701  -5.959  1.00  0.00     0.064 C 
ATOM     10  O   UNL     1     -12.008 -11.594  -6.550  1.00  0.00    -0.545 OA
ATOM     11  O   UNL     1     -10.230 -11.061  -5.215  1.00  0.00    -0.545 OA
ENDBRANCH   8   9
ENDBRANCH   1   7
BRANCH   6  12
ATOM     12  O   UNL     1     -12.138  -2.756  -6.261  1.00  0.00    -0.508 OA
ATOM     13  H   UNL     1     -12.190  -2.285  -7.156  1.00  0.00     0.293 HD
ENDBRANCH   6  12
TORSDOF 3
ENDMDL
MODEL 7
REMARK VINA RESULT:    -4.474      8.396     10.753
REMARK INTER + INTRA:          -5.265
REMARK INTER:                  -5.127
REMARK INTRA:                  -0.138
REMARK UNBOUND:                -0.138
REMARK SMILES O=C([O-])C=Cc1ccc(O)cc1
REMARK SMILES IDX 6 1 7 2 12 3 8 4 11 5 9 6 5 7 4 8 2 9 1 10 3 11 10 12
REMARK H PARENT 10 13
REMARK Flexibility Score: inf
ROOT
ATOM      1  C   UNL     1      -2.684 -12.758  -5.659  1.00  0.00    -0.025 A 
ATOM      2  C   UNL     1      -3.236 -13.660  -6.593  1.00  0.00     0.012 A 
ATOM      3  C   UNL     1      -3.229 -11.466  -5.561  1.00  0.00     0.012 A 
ATOM      4  C   UNL     1      -4.322 -13.278  -7.387  1.00  0.00     0.047 A 
ATOM      5  C   UNL     1      -4.315 -11.089  -6.357  1.00  0.00     0.047 A 
ATOM      6  C   UNL     1      -4.866 -11.997  -7.270  1.00  0.00     0.115 A 
ENDROOT
BRANCH   1   7
ATOM      7  C   UNL     1      -1.525 -13.107  -4.800  1.00  0.00     0.010 C 
ATOM      8  C   UNL     1      -1.605 -13.273  -3.472  1.00  0.00     0.025 C 
BRANCH   8   9
ATOM      9  C   UNL     1      -0.430 -13.609  -2.651  1.00  0.00     0.064 C 
ATOM     10  O   UNL     1      -0.556 -14.022  -1.468  1.00  0.00    -0.545 OA
ATOM     11  O   UNL     1       0.843 -13.466  -3.189  1.00  0.00    -0.545 OA
ENDBRANCH   8   9
ENDBRANCH   1   7
BRANCH   6  12
ATOM     12  O   UNL     1      -5.949 -11.633  -8.068  1.00  0.00    -0.508 OA
ATOM     13  H   UNL     1      -5.963 -10.756  -8.574  1.00  0.00     0.293 HD
ENDBRANCH   6  12
TORSDOF 3
ENDMDL
MODEL 8
REMARK VINA RESULT:    -4.373      6.206      7.187
REMARK INTER + INTRA:          -5.150
REMARK INTER:                  -5.005
REMARK INTRA:                  -0.145
REMARK UNBOUND:                -0.138
REMARK SMILES O=C([O-])C=Cc1ccc(O)cc1
REMARK SMILES IDX 6 1 7 2 12 3 8 4 11 5 9 6 5 7 4 8 2 9 1 10 3 11 10 12
REMARK H PARENT 10 13
REMARK Flexibility Score: inf
ROOT
ATOM      1  C   UNL     1      -8.257 -11.494  -5.935  1.00  0.00    -0.025 A 
ATOM      2  C   UNL     1      -7.570 -12.180  -6.958  1.00  0.00     0.012 A 
ATOM      3  C   UNL     1      -7.601 -10.450  -5.260  1.00  0.00     0.012 A 
ATOM      4  C   UNL     1      -6.268 -11.807  -7.309  1.00  0.00     0.047 A 
ATOM      5  C   UNL     1      -6.299 -10.080  -5.615  1.00  0.00     0.047 A 
ATOM      6  C   UNL     1      -5.632 -10.757  -6.643  1.00  0.00     0.115 A 
ENDROOT
BRANCH   1   7
ATOM      7  C   UNL     1      -9.633 -11.856  -5.515  1.00  0.00     0.010 C 
ATOM      8  C   UNL     1     -10.551 -10.962  -5.118  1.00  0.00     0.025 C 
BRANCH   8   9
ATOM      9  C   UNL     1     -11.905 -11.360  -4.699  1.00  0.00     0.064 C 
ATOM     10  O   UNL     1     -12.905 -11.154  -5.437  1.00  0.00    -0.545 OA
ATOM     11  O   UNL     1     -12.084 -11.973  -3.465  1.00  0.00    -0.545 OA
ENDBRANCH   8   9
ENDBRANCH   1   7
BRANCH   6  12
ATOM     12  O   UNL     1      -4.335 -10.397  -7.005  1.00  0.00    -0.508 OA
ATOM     13  H   UNL     1      -4.145  -9.538  -7.507  1.00  0.00     0.293 HD
ENDBRANCH   6  12
TORSDOF 3
ENDMDL
MODEL 9
REMARK VINA RESULT:    -4.108      9.519     12.335
REMARK INTER + INTRA:          -4.847
REMARK INTER:                  -4.699
REMARK INTRA:                  -0.148
REMARK UNBOUND:                -0.138
REMARK SMILES O=C([O-])C=Cc1ccc(O)cc1
REMARK SMILES IDX 6 1 7 2 12 3 8 4 11 5 9 6 5 7 4 8 2 9 1 10 3 11 10 12
REMARK H PARENT 10 13
REMARK Flexibility Score: inf
ROOT
ATOM      1  C   UNL     1      -1.971 -13.093  -5.096  1.00  0.00    -0.025 A 
ATOM      2  C   UNL     1      -1.930 -12.934  -3.695  1.00  0.00     0.012 A 
ATOM      3  C   UNL     1      -0.785 -13.413  -5.777  1.00  0.00     0.012 A 
ATOM      4  C   UNL     1      -0.731 -13.117  -2.998  1.00  0.00     0.047 A 
ATOM      5  C   UNL     1       0.412 -13.595  -5.076  1.00  0.00     0.047 A 
ATOM      6  C   UNL     1       0.439 -13.450  -3.684  1.00  0.00     0.115 A 
ENDROOT
BRANCH   1   7
ATOM      7  C   UNL     1      -3.213 -12.900  -5.886  1.00  0.00     0.010 C 
ATOM      8  C   UNL     1      -3.503 -13.589  -6.999  1.00  0.00     0.025 C 
BRANCH   8   9
ATOM      9  C   UNL     1      -4.742 -13.361  -7.763  1.00  0.00     0.064 C 
ATOM     10  O   UNL     1      -5.076 -14.125  -8.708  1.00  0.00    -0.545 OA
ATOM     11  O   UNL     1      -5.557 -12.285  -7.436  1.00  0.00    -0.545 OA
ENDBRANCH   8   9
ENDBRANCH   1   7
BRANCH   6  12
ATOM     12  O   UNL     1       1.625 -13.630  -2.974  1.00  0.00    -0.508 OA
ATOM     13  H   UNL     1       1.666 -13.502  -1.970  1.00  0.00     0.293 HD
ENDBRANCH   6  12
TORSDOF 3
ENDMDL
