MODEL 1
REMARK VINA RESULT:    -4.092      0.000      0.000
REMARK INTER + INTRA:         -15.230
REMARK INTER:                 -10.312
REMARK INTRA:                  -4.918
REMARK UNBOUND:                -4.918
REMARK SMILES CCCCCCCCCCCCCCCCCCCCCCCCCCCC(=O)[O-]
REMARK SMILES IDX 15 1 16 2 17 3 18 4 19 5 20 6 21 7 22 8 23 9 24 10 25 11
REMARK SMILES IDX 26 12 27 13 28 14 29 15 30 16 14 17 13 18 12 19 11 20 10 21
REMARK SMILES IDX 9 22 8 23 7 24 6 25 5 26 4 27 3 28 2 29 1 30
REMARK H PARENT
REMARK Flexibility Score: inf
ROOT
ATOM      1  C   UNL     1     119.609 111.438 109.353  1.00  0.00     0.000 C 
ENDROOT
BRANCH   1   2
ATOM      2  C   UNL     1     118.865 110.430 110.256  1.00  0.00     0.000 C 
BRANCH   2   3
ATOM      3  C   UNL     1     119.131 110.608 111.763  1.00  0.00     0.000 C 
BRANCH   3   4
ATOM      4  C   UNL     1     120.341 109.780 112.235  1.00  0.00     0.000 C 
BRANCH   4   5
ATOM      5  C   UNL     1     121.130 110.478 113.353  1.00  0.00     0.000 C 
BRANCH   5   6
ATOM      6  C   UNL     1     120.857 111.994 113.386  1.00  0.00     0.000 C 
BRANCH   6   7
ATOM      7  C   UNL     1     121.920 112.810 112.630  1.00  0.00     0.000 C 
BRANCH   7   8
ATOM      8  C   UNL     1     121.403 114.097 111.953  1.00  0.00     0.000 C 
BRANCH   8   9
ATOM      9  C   UNL     1     119.901 114.374 112.137  1.00  0.00     0.000 C 
BRANCH   9  10
ATOM     10  C   UNL     1     119.621 115.705 112.856  1.00  0.00     0.000 C 
BRANCH  10  11
ATOM     11  C   UNL     1     119.904 115.628 114.366  1.00  0.00     0.000 C 
BRANCH  11  12
ATOM     12  C   UNL     1     118.750 114.977 115.148  1.00  0.00     0.006 C 
BRANCH  12  13
ATOM     13  C   UNL     1     119.226 113.804 116.017  1.00  0.00     0.053 C 
BRANCH  13  14
ATOM     14  C   UNL     1     118.467 113.715 117.305  1.00  0.00     0.041 C 
ATOM     15  O   UNL     1     118.904 113.007 118.250  1.00  0.00    -0.550 OA
ATOM     16  O   UNL     1     117.270 114.409 117.456  1.00  0.00    -0.550 OA
ENDBRANCH  13  14
ENDBRANCH  12  13
ENDBRANCH  11  12
ENDBRANCH  10  11
ENDBRANCH   9  10
ENDBRANCH   8   9
ENDBRANCH   7   8
ENDBRANCH   6   7
ENDBRANCH   5   6
ENDBRANCH   4   5
ENDBRANCH   3   4
ENDBRANCH   2   3
ENDBRANCH   1   2
BRANCH   1  17
ATOM     17  C   UNL     1     119.936 110.939 107.932  1.00  0.00     0.000 C 
BRANCH  17  18
ATOM     18  C   UNL     1     120.029 109.409 107.845  1.00  0.00     0.000 C 
BRANCH  18  19
ATOM     19  C   UNL     1     120.992 108.976 106.734  1.00  0.00     0.000 C 
BRANCH  19  20
ATOM     20  C   UNL     1     122.409 108.773 107.285  1.00  0.00     0.000 C 
BRANCH  20  21
ATOM     21  C   UNL     1     122.377 108.376 108.767  1.00  0.00     0.000 C 
BRANCH  21  22
ATOM     22  C   UNL     1     123.519 109.028 109.565  1.00  0.00    -0.000 C 
BRANCH  22  23
ATOM     23  C   UNL     1     123.132 110.419 110.098  1.00  0.00    -0.000 C 
BRANCH  23  24
ATOM     24  C   UNL     1     123.932 111.558 109.440  1.00  0.00    -0.000 C 
BRANCH  24  25
ATOM     25  C   UNL     1     123.079 112.638 108.756  1.00  0.00    -0.000 C 
BRANCH  25  26
ATOM     26  C   UNL     1     123.560 112.969 107.332  1.00  0.00    -0.000 C 
BRANCH  26  27
ATOM     27  C   UNL     1     122.694 112.305 106.252  1.00  0.00    -0.000 C 
BRANCH  27  28
ATOM     28  C   UNL     1     121.867 113.324 105.447  1.00  0.00    -0.000 C 
BRANCH  28  29
ATOM     29  C   UNL     1     120.790 114.016 106.296  1.00  0.00    -0.003 C 
ATOM     30  C   UNL     1     120.265 115.301 105.658  1.00  0.00     0.004 C 
ENDBRANCH  28  29
ENDBRANCH  27  28
ENDBRANCH  26  27
ENDBRANCH  25  26
ENDBRANCH  24  25
ENDBRANCH  23  24
ENDBRANCH  22  23
ENDBRANCH  21  22
ENDBRANCH  20  21
ENDBRANCH  19  20
ENDBRANCH  18  19
ENDBRANCH  17  18
ENDBRANCH   1  17
TORSDOF 26
ENDMDL
MODEL 2
REMARK VINA RESULT:    -3.890      4.448      9.509
REMARK INTER + INTRA:         -14.720
REMARK INTER:                 -10.731
REMARK INTRA:                  -3.989
REMARK UNBOUND:                -4.918
REMARK SMILES CCCCCCCCCCCCCCCCCCCCCCCCCCCC(=O)[O-]
REMARK SMILES IDX 15 1 16 2 17 3 18 4 19 5 20 6 21 7 22 8 23 9 24 10 25 11
REMARK SMILES IDX 26 12 27 13 28 14 29 15 30 16 14 17 13 18 12 19 11 20 10 21
REMARK SMILES IDX 9 22 8 23 7 24 6 25 5 26 4 27 3 28 2 29 1 30
REMARK H PARENT
REMARK Flexibility Score: inf
ROOT
ATOM      1  C   UNL     1     119.133 114.898 115.744  1.00  0.00     0.000 C 
ENDROOT
BRANCH   1   2
ATOM      2  C   UNL     1     119.319 114.509 114.261  1.00  0.00     0.000 C 
BRANCH   2   3
ATOM      3  C   UNL     1     120.042 113.166 114.041  1.00  0.00     0.000 C 
BRANCH   3   4
ATOM      4  C   UNL     1     121.325 113.335 113.206  1.00  0.00     0.000 C 
BRANCH   4   5
ATOM      5  C   UNL     1     121.765 112.025 112.534  1.00  0.00     0.000 C 
BRANCH   5   6
ATOM      6  C   UNL     1     121.308 110.790 113.333  1.00  0.00     0.000 C 
BRANCH   6   7
ATOM      7  C   UNL     1     120.358 109.879 112.536  1.00  0.00     0.000 C 
BRANCH   7   8
ATOM      8  C   UNL     1     119.319 110.613 111.664  1.00  0.00     0.000 C 
BRANCH   8   9
ATOM      9  C   UNL     1     119.221 110.119 110.210  1.00  0.00     0.000 C 
BRANCH   9  10
ATOM     10  C   UNL     1     120.559 109.589 109.666  1.00  0.00     0.000 C 
BRANCH  10  11
ATOM     11  C   UNL     1     120.516 109.329 108.151  1.00  0.00     0.000 C 
BRANCH  11  12
ATOM     12  C   UNL     1     120.237 110.607 107.342  1.00  0.00     0.006 C 
BRANCH  12  13
ATOM     13  C   UNL     1     121.125 111.779 107.783  1.00  0.00     0.053 C 
BRANCH  13  14
ATOM     14  C   UNL     1     122.037 112.235 106.686  1.00  0.00     0.041 C 
ATOM     15  O   UNL     1     122.633 111.392 105.965  1.00  0.00    -0.550 OA
ATOM     16  O   UNL     1     122.235 113.595 106.467  1.00  0.00    -0.550 OA
ENDBRANCH  13  14
ENDBRANCH  12  13
ENDBRANCH  11  12
ENDBRANCH  10  11
ENDBRANCH   9  10
ENDBRANCH   8   9
ENDBRANCH   7   8
ENDBRANCH   6   7
ENDBRANCH   5   6
ENDBRANCH   4   5
ENDBRANCH   3   4
ENDBRANCH   2   3
ENDBRANCH   1   2
BRANCH   1  17
ATOM     17  C   UNL     1     117.674 114.949 116.237  1.00  0.00     0.000 C 
BRANCH  17  18
ATOM     18  C   UNL     1     117.346 113.838 117.245  1.00  0.00     0.000 C 
BRANCH  18  19
ATOM     19  C   UNL     1     118.609 113.361 117.972  1.00  0.00     0.000 C 
BRANCH  19  20
ATOM     20  C   UNL     1     118.805 111.850 117.796  1.00  0.00     0.000 C 
BRANCH  20  21
ATOM     21  C   UNL     1     120.280 111.508 117.543  1.00  0.00     0.000 C 
BRANCH  21  22
ATOM     22  C   UNL     1     121.212 112.683 117.883  1.00  0.00    -0.000 C 
BRANCH  22  23
ATOM     23  C   UNL     1     122.372 112.811 116.879  1.00  0.00    -0.000 C 
BRANCH  23  24
ATOM     24  C   UNL     1     122.958 111.449 116.463  1.00  0.00    -0.000 C 
BRANCH  24  25
ATOM     25  C   UNL     1     124.438 111.242 116.824  1.00  0.00    -0.000 C 
BRANCH  25  26
ATOM     26  C   UNL     1     124.631 110.403 118.100  1.00  0.00    -0.000 C 
BRANCH  26  27
ATOM     27  C   UNL     1     123.405 109.535 118.420  1.00  0.00    -0.000 C 
BRANCH  27  28
ATOM     28  C   UNL     1     122.793 109.860 119.795  1.00  0.00    -0.000 C 
BRANCH  28  29
ATOM     29  C   UNL     1     123.720 110.717 120.670  1.00  0.00    -0.003 C 
ATOM     30  C   UNL     1     123.130 112.086 121.000  1.00  0.00     0.004 C 
ENDBRANCH  28  29
ENDBRANCH  27  28
ENDBRANCH  26  27
ENDBRANCH  25  26
ENDBRANCH  24  25
ENDBRANCH  23  24
ENDBRANCH  22  23
ENDBRANCH  21  22
ENDBRANCH  20  21
ENDBRANCH  19  20
ENDBRANCH  18  19
ENDBRANCH  17  18
ENDBRANCH   1  17
TORSDOF 26
ENDMDL
MODEL 3
REMARK VINA RESULT:    -3.853      2.211      4.790
REMARK INTER + INTRA:         -14.628
REMARK INTER:                  -9.832
REMARK INTRA:                  -4.797
REMARK UNBOUND:                -4.918
REMARK SMILES CCCCCCCCCCCCCCCCCCCCCCCCCCCC(=O)[O-]
REMARK SMILES IDX 15 1 16 2 17 3 18 4 19 5 20 6 21 7 22 8 23 9 24 10 25 11
REMARK SMILES IDX 26 12 27 13 28 14 29 15 30 16 14 17 13 18 12 19 11 20 10 21
REMARK SMILES IDX 9 22 8 23 7 24 6 25 5 26 4 27 3 28 2 29 1 30
REMARK H PARENT
REMARK Flexibility Score: inf
ROOT
ATOM      1  C   UNL     1     120.839 112.968 112.282  1.00  0.00     0.000 C 
ENDROOT
BRANCH   1   2
ATOM      2  C   UNL     1     120.043 114.133 111.653  1.00  0.00     0.000 C 
BRANCH   2   3
ATOM      3  C   UNL     1     119.627 115.231 112.651  1.00  0.00     0.000 C 
BRANCH   3   4
ATOM      4  C   UNL     1     120.677 115.428 113.760  1.00  0.00     0.000 C 
BRANCH   4   5
ATOM      5  C   UNL     1     120.096 115.205 115.165  1.00  0.00     0.000 C 
BRANCH   5   6
ATOM      6  C   UNL     1     118.742 114.472 115.115  1.00  0.00     0.000 C 
BRANCH   6   7
ATOM      7  C   UNL     1     117.779 114.915 116.230  1.00  0.00     0.000 C 
BRANCH   7   8
ATOM      8  C   UNL     1     117.377 113.811 117.230  1.00  0.00     0.000 C 
BRANCH   8   9
ATOM      9  C   UNL     1     118.487 113.373 118.200  1.00  0.00     0.000 C 
BRANCH   9  10
ATOM     10  C   UNL     1     119.048 111.977 117.877  1.00  0.00     0.000 C 
BRANCH  10  11
ATOM     11  C   UNL     1     120.491 111.794 118.377  1.00  0.00     0.000 C 
BRANCH  11  12
ATOM     12  C   UNL     1     121.529 112.381 117.405  1.00  0.00     0.006 C 
BRANCH  12  13
ATOM     13  C   UNL     1     121.456 111.733 116.016  1.00  0.00     0.053 C 
BRANCH  13  14
ATOM     14  C   UNL     1     122.779 111.175 115.587  1.00  0.00     0.041 C 
ATOM     15  O   UNL     1     123.067 111.099 114.363  1.00  0.00    -0.550 OA
ATOM     16  O   UNL     1     123.688 110.729 116.541  1.00  0.00    -0.550 OA
ENDBRANCH  13  14
ENDBRANCH  12  13
ENDBRANCH  11  12
ENDBRANCH  10  11
ENDBRANCH   9  10
ENDBRANCH   8   9
ENDBRANCH   7   8
ENDBRANCH   6   7
ENDBRANCH   5   6
ENDBRANCH   4   5
ENDBRANCH   3   4
ENDBRANCH   2   3
ENDBRANCH   1   2
BRANCH   1  17
ATOM     17  C   UNL     1     119.991 111.782 112.782  1.00  0.00     0.000 C 
BRANCH  17  18
ATOM     18  C   UNL     1     120.137 110.532 111.902  1.00  0.00     0.000 C 
BRANCH  18  19
ATOM     19  C   UNL     1     119.110 110.536 110.763  1.00  0.00     0.000 C 
BRANCH  19  20
ATOM     20  C   UNL     1     119.565 109.628 109.613  1.00  0.00     0.000 C 
BRANCH  20  21
ATOM     21  C   UNL     1     121.037 109.223 109.774  1.00  0.00     0.000 C 
BRANCH  21  22
ATOM     22  C   UNL     1     121.698 108.899 108.424  1.00  0.00    -0.000 C 
BRANCH  22  23
ATOM     23  C   UNL     1     121.001 109.612 107.252  1.00  0.00    -0.000 C 
BRANCH  23  24
ATOM     24  C   UNL     1     121.760 110.864 106.774  1.00  0.00    -0.000 C 
BRANCH  24  25
ATOM     25  C   UNL     1     121.017 112.194 106.986  1.00  0.00    -0.000 C 
BRANCH  25  26
ATOM     26  C   UNL     1     121.122 112.714 108.430  1.00  0.00    -0.000 C 
BRANCH  26  27
ATOM     27  C   UNL     1     122.124 113.871 108.564  1.00  0.00    -0.000 C 
BRANCH  27  28
ATOM     28  C   UNL     1     123.298 113.531 109.500  1.00  0.00    -0.000 C 
BRANCH  28  29
ATOM     29  C   UNL     1     123.326 112.049 109.904  1.00  0.00    -0.003 C 
ATOM     30  C   UNL     1     124.505 111.290 109.298  1.00  0.00     0.004 C 
ENDBRANCH  28  29
ENDBRANCH  27  28
ENDBRANCH  26  27
ENDBRANCH  25  26
ENDBRANCH  24  25
ENDBRANCH  23  24
ENDBRANCH  22  23
ENDBRANCH  21  22
ENDBRANCH  20  21
ENDBRANCH  19  20
ENDBRANCH  18  19
ENDBRANCH  17  18
ENDBRANCH   1  17
TORSDOF 26
ENDMDL
MODEL 4
REMARK VINA RESULT:    -3.817      3.639      7.894
REMARK INTER + INTRA:         -14.536
REMARK INTER:                  -9.137
REMARK INTRA:                  -5.399
REMARK UNBOUND:                -4.918
REMARK SMILES CCCCCCCCCCCCCCCCCCCCCCCCCCCC(=O)[O-]
REMARK SMILES IDX 15 1 16 2 17 3 18 4 19 5 20 6 21 7 22 8 23 9 24 10 25 11
REMARK SMILES IDX 26 12 27 13 28 14 29 15 30 16 14 17 13 18 12 19 11 20 10 21
REMARK SMILES IDX 9 22 8 23 7 24 6 25 5 26 4 27 3 28 2 29 1 30
REMARK H PARENT
REMARK Flexibility Score: inf
ROOT
ATOM      1  C   UNL     1     119.504 109.999 110.061  1.00  0.00     0.000 C 
ENDROOT
BRANCH   1   2
ATOM      2  C   UNL     1     119.654 111.165 109.059  1.00  0.00     0.000 C 
BRANCH   2   3
ATOM      3  C   UNL     1     119.989 110.728 107.620  1.00  0.00     0.000 C 
BRANCH   3   4
ATOM      4  C   UNL     1     119.861 109.205 107.437  1.00  0.00     0.000 C 
BRANCH   4   5
ATOM      5  C   UNL     1     121.002 108.616 106.592  1.00  0.00     0.000 C 
BRANCH   5   6
ATOM      6  C   UNL     1     121.727 107.473 107.327  1.00  0.00     0.000 C 
BRANCH   6   7
ATOM      7  C   UNL     1     122.269 107.896 108.704  1.00  0.00     0.000 C 
BRANCH   7   8
ATOM      8  C   UNL     1     123.807 107.922 108.826  1.00  0.00     0.000 C 
BRANCH   8   9
ATOM      9  C   UNL     1     124.423 109.319 109.011  1.00  0.00     0.000 C 
BRANCH   9  10
ATOM     10  C   UNL     1     123.408 110.455 108.794  1.00  0.00     0.000 C 
BRANCH  10  11
ATOM     11  C   UNL     1     123.613 111.177 107.452  1.00  0.00     0.000 C 
BRANCH  11  12
ATOM     12  C   UNL     1     123.639 112.708 107.606  1.00  0.00     0.006 C 
BRANCH  12  13
ATOM     13  C   UNL     1     122.269 113.343 107.332  1.00  0.00     0.053 C 
BRANCH  13  14
ATOM     14  C   UNL     1     122.011 113.509 105.865  1.00  0.00     0.041 C 
ATOM     15  O   UNL     1     120.840 113.712 105.447  1.00  0.00    -0.550 OA
ATOM     16  O   UNL     1     123.064 113.430 104.960  1.00  0.00    -0.550 OA
ENDBRANCH  13  14
ENDBRANCH  12  13
ENDBRANCH  11  12
ENDBRANCH  10  11
ENDBRANCH   9  10
ENDBRANCH   8   9
ENDBRANCH   7   8
ENDBRANCH   6   7
ENDBRANCH   5   6
ENDBRANCH   4   5
ENDBRANCH   3   4
ENDBRANCH   2   3
ENDBRANCH   1   2
BRANCH   1  17
ATOM     17  C   UNL     1     119.198 110.410 111.514  1.00  0.00     0.000 C 
BRANCH  17  18
ATOM     18  C   UNL     1     120.339 110.070 112.483  1.00  0.00     0.000 C 
BRANCH  18  19
ATOM     19  C   UNL     1     121.705 110.383 111.860  1.00  0.00     0.000 C 
BRANCH  19  20
ATOM     20  C   UNL     1     122.647 111.013 112.893  1.00  0.00     0.000 C 
BRANCH  20  21
ATOM     21  C   UNL     1     122.969 112.470 112.535  1.00  0.00     0.000 C 
BRANCH  21  22
ATOM     22  C   UNL     1     122.476 112.841 111.126  1.00  0.00    -0.000 C 
BRANCH  22  23
ATOM     23  C   UNL     1     121.619 114.119 111.131  1.00  0.00    -0.000 C 
BRANCH  23  24
ATOM     24  C   UNL     1     120.190 113.881 111.652  1.00  0.00    -0.000 C 
BRANCH  24  25
ATOM     25  C   UNL     1     119.903 114.461 113.047  1.00  0.00    -0.000 C 
BRANCH  25  26
ATOM     26  C   UNL     1     119.793 113.378 114.135  1.00  0.00    -0.000 C 
BRANCH  26  27
ATOM     27  C   UNL     1     120.623 113.716 115.383  1.00  0.00    -0.000 C 
BRANCH  27  28
ATOM     28  C   UNL     1     121.374 112.494 115.942  1.00  0.00    -0.000 C 
BRANCH  28  29
ATOM     29  C   UNL     1     120.435 111.456 116.573  1.00  0.00    -0.003 C 
ATOM     30  C   UNL     1     119.588 112.032 117.707  1.00  0.00     0.004 C 
ENDBRANCH  28  29
ENDBRANCH  27  28
ENDBRANCH  26  27
ENDBRANCH  25  26
ENDBRANCH  24  25
ENDBRANCH  23  24
ENDBRANCH  22  23
ENDBRANCH  21  22
ENDBRANCH  20  21
ENDBRANCH  19  20
ENDBRANCH  18  19
ENDBRANCH  17  18
ENDBRANCH   1  17
TORSDOF 26
ENDMDL
MODEL 5
REMARK VINA RESULT:    -3.797      3.728      8.458
REMARK INTER + INTRA:         -14.485
REMARK INTER:                 -10.889
REMARK INTRA:                  -3.596
REMARK UNBOUND:                -4.918
REMARK SMILES CCCCCCCCCCCCCCCCCCCCCCCCCCCC(=O)[O-]
REMARK SMILES IDX 15 1 16 2 17 3 18 4 19 5 20 6 21 7 22 8 23 9 24 10 25 11
REMARK SMILES IDX 26 12 27 13 28 14 29 15 30 16 14 17 13 18 12 19 11 20 10 21
REMARK SMILES IDX 9 22 8 23 7 24 6 25 5 26 4 27 3 28 2 29 1 30
REMARK H PARENT
REMARK Flexibility Score: inf
ROOT
ATOM      1  C   UNL     1     121.348 112.176 114.871  1.00  0.00     0.000 C 
ENDROOT
BRANCH   1   2
ATOM      2  C   UNL     1     122.712 111.576 114.464  1.00  0.00     0.000 C 
BRANCH   2   3
ATOM      3  C   UNL     1     122.616 110.370 113.509  1.00  0.00     0.000 C 
BRANCH   3   4
ATOM      4  C   UNL     1     121.747 110.679 112.276  1.00  0.00     0.000 C 
BRANCH   4   5
ATOM      5  C   UNL     1     120.438 109.876 112.264  1.00  0.00     0.000 C 
BRANCH   5   6
ATOM      6  C   UNL     1     119.259 110.711 111.727  1.00  0.00     0.000 C 
BRANCH   6   7
ATOM      7  C   UNL     1     118.890 110.361 110.275  1.00  0.00     0.000 C 
BRANCH   7   8
ATOM      8  C   UNL     1     119.635 111.171 109.193  1.00  0.00     0.000 C 
BRANCH   8   9
ATOM      9  C   UNL     1     120.650 110.369 108.361  1.00  0.00     0.000 C 
BRANCH   9  10
ATOM     10  C   UNL     1     121.271 111.192 107.218  1.00  0.00     0.000 C 
BRANCH  10  11
ATOM     11  C   UNL     1     120.783 112.650 107.212  1.00  0.00     0.000 C 
BRANCH  11  12
ATOM     12  C   UNL     1     121.224 113.413 105.950  1.00  0.00     0.006 C 
BRANCH  12  13
ATOM     13  C   UNL     1     120.401 114.689 105.726  1.00  0.00     0.053 C 
BRANCH  13  14
ATOM     14  C   UNL     1     121.233 115.801 105.166  1.00  0.00     0.041 C 
ATOM     15  O   UNL     1     121.199 116.060 103.934  1.00  0.00    -0.550 OA
ATOM     16  O   UNL     1     122.055 116.547 106.006  1.00  0.00    -0.550 OA
ENDBRANCH  13  14
ENDBRANCH  12  13
ENDBRANCH  11  12
ENDBRANCH  10  11
ENDBRANCH   9  10
ENDBRANCH   8   9
ENDBRANCH   7   8
ENDBRANCH   6   7
ENDBRANCH   5   6
ENDBRANCH   4   5
ENDBRANCH   3   4
ENDBRANCH   2   3
ENDBRANCH   1   2
BRANCH   1  17
ATOM     17  C   UNL     1     120.741 111.618 116.172  1.00  0.00     0.000 C 
BRANCH  17  18
ATOM     18  C   UNL     1     121.005 112.518 117.387  1.00  0.00     0.000 C 
BRANCH  18  19
ATOM     19  C   UNL     1     119.976 112.266 118.496  1.00  0.00     0.000 C 
BRANCH  19  20
ATOM     20  C   UNL     1     118.547 112.334 117.942  1.00  0.00     0.000 C 
BRANCH  20  21
ATOM     21  C   UNL     1     118.085 113.787 117.775  1.00  0.00     0.000 C 
BRANCH  21  22
ATOM     22  C   UNL     1     117.805 114.140 116.305  1.00  0.00    -0.000 C 
BRANCH  22  23
ATOM     23  C   UNL     1     117.767 115.661 116.072  1.00  0.00    -0.000 C 
BRANCH  23  24
ATOM     24  C   UNL     1     118.478 116.087 114.774  1.00  0.00    -0.000 C 
BRANCH  24  25
ATOM     25  C   UNL     1     119.372 115.007 114.140  1.00  0.00    -0.000 C 
BRANCH  25  26
ATOM     26  C   UNL     1     119.920 115.417 112.762  1.00  0.00    -0.000 C 
BRANCH  26  27
ATOM     27  C   UNL     1     119.952 114.243 111.772  1.00  0.00    -0.000 C 
BRANCH  27  28
ATOM     28  C   UNL     1     121.346 114.028 111.156  1.00  0.00    -0.000 C 
BRANCH  28  29
ATOM     29  C   UNL     1     122.347 115.123 111.553  1.00  0.00    -0.003 C 
ATOM     30  C   UNL     1     123.497 114.597 112.410  1.00  0.00     0.004 C 
ENDBRANCH  28  29
ENDBRANCH  27  28
ENDBRANCH  26  27
ENDBRANCH  25  26
ENDBRANCH  24  25
ENDBRANCH  23  24
ENDBRANCH  22  23
ENDBRANCH  21  22
ENDBRANCH  20  21
ENDBRANCH  19  20
ENDBRANCH  18  19
ENDBRANCH  17  18
ENDBRANCH   1  17
TORSDOF 26
ENDMDL
MODEL 6
REMARK VINA RESULT:    -3.795      2.964      6.021
REMARK INTER + INTRA:         -14.482
REMARK INTER:                 -10.238
REMARK INTRA:                  -4.244
REMARK UNBOUND:                -4.918
REMARK SMILES CCCCCCCCCCCCCCCCCCCCCCCCCCCC(=O)[O-]
REMARK SMILES IDX 15 1 16 2 17 3 18 4 19 5 20 6 21 7 22 8 23 9 24 10 25 11
REMARK SMILES IDX 26 12 27 13 28 14 29 15 30 16 14 17 13 18 12 19 11 20 10 21
REMARK SMILES IDX 9 22 8 23 7 24 6 25 5 26 4 27 3 28 2 29 1 30
REMARK H PARENT
REMARK Flexibility Score: inf
ROOT
ATOM      1  C   UNL     1     120.997 115.382 114.852  1.00  0.00     0.000 C 
ENDROOT
BRANCH   1   2
ATOM      2  C   UNL     1     119.813 116.238 114.349  1.00  0.00     0.000 C 
BRANCH   2   3
ATOM      3  C   UNL     1     118.479 115.966 115.070  1.00  0.00     0.000 C 
BRANCH   3   4
ATOM      4  C   UNL     1     118.340 114.489 115.484  1.00  0.00     0.000 C 
BRANCH   4   5
ATOM      5  C   UNL     1     117.428 114.305 116.707  1.00  0.00     0.000 C 
BRANCH   5   6
ATOM      6  C   UNL     1     118.199 113.743 117.917  1.00  0.00     0.000 C 
BRANCH   6   7
ATOM      7  C   UNL     1     118.237 112.205 117.940  1.00  0.00     0.000 C 
BRANCH   7   8
ATOM      8  C   UNL     1     119.645 111.582 118.037  1.00  0.00     0.000 C 
BRANCH   8   9
ATOM      9  C   UNL     1     120.466 111.617 116.737  1.00  0.00     0.000 C 
BRANCH   9  10
ATOM     10  C   UNL     1     121.793 112.382 116.886  1.00  0.00     0.000 C 
BRANCH  10  11
ATOM     11  C   UNL     1     122.530 112.031 118.190  1.00  0.00     0.000 C 
BRANCH  11  12
ATOM     12  C   UNL     1     123.090 110.597 118.182  1.00  0.00     0.006 C 
BRANCH  12  13
ATOM     13  C   UNL     1     122.941 109.908 119.545  1.00  0.00     0.053 C 
BRANCH  13  14
ATOM     14  C   UNL     1     123.706 110.619 120.619  1.00  0.00     0.041 C 
ATOM     15  O   UNL     1     123.103 111.091 121.620  1.00  0.00    -0.550 OA
ATOM     16  O   UNL     1     125.085 110.768 120.509  1.00  0.00    -0.550 OA
ENDBRANCH  13  14
ENDBRANCH  12  13
ENDBRANCH  11  12
ENDBRANCH  10  11
ENDBRANCH   9  10
ENDBRANCH   8   9
ENDBRANCH   7   8
ENDBRANCH   6   7
ENDBRANCH   5   6
ENDBRANCH   4   5
ENDBRANCH   3   4
ENDBRANCH   2   3
ENDBRANCH   1   2
BRANCH   1  17
ATOM     17  C   UNL     1     121.720 114.555 113.772  1.00  0.00     0.000 C 
BRANCH  17  18
ATOM     18  C   UNL     1     120.786 114.107 112.639  1.00  0.00     0.000 C 
BRANCH  18  19
ATOM     19  C   UNL     1     120.190 112.725 112.929  1.00  0.00     0.000 C 
BRANCH  19  20
ATOM     20  C   UNL     1     121.278 111.741 113.376  1.00  0.00     0.000 C 
BRANCH  20  21
ATOM     21  C   UNL     1     120.914 110.300 112.995  1.00  0.00     0.000 C 
BRANCH  21  22
ATOM     22  C   UNL     1     119.812 110.246 111.924  1.00  0.00    -0.000 C 
BRANCH  22  23
ATOM     23  C   UNL     1     120.252 109.453 110.680  1.00  0.00    -0.000 C 
BRANCH  23  24
ATOM     24  C   UNL     1     119.647 110.002 109.374  1.00  0.00    -0.000 C 
BRANCH  24  25
ATOM     25  C   UNL     1     119.651 111.535 109.252  1.00  0.00    -0.000 C 
BRANCH  25  26
ATOM     26  C   UNL     1     120.546 112.042 108.108  1.00  0.00    -0.000 C 
BRANCH  26  27
ATOM     27  C   UNL     1     122.038 111.797 108.379  1.00  0.00    -0.000 C 
BRANCH  27  28
ATOM     28  C   UNL     1     122.512 112.434 109.698  1.00  0.00    -0.000 C 
BRANCH  28  29
ATOM     29  C   UNL     1     123.419 111.502 110.514  1.00  0.00    -0.003 C 
ATOM     30  C   UNL     1     124.457 110.781 109.657  1.00  0.00     0.004 C 
ENDBRANCH  28  29
ENDBRANCH  27  28
ENDBRANCH  26  27
ENDBRANCH  25  26
ENDBRANCH  24  25
ENDBRANCH  23  24
ENDBRANCH  22  23
ENDBRANCH  21  22
ENDBRANCH  20  21
ENDBRANCH  19  20
ENDBRANCH  18  19
ENDBRANCH  17  18
ENDBRANCH   1  17
TORSDOF 26
ENDMDL
MODEL 7
REMARK VINA RESULT:    -3.777      3.769      9.093
REMARK INTER + INTRA:         -14.437
REMARK INTER:                 -10.362
REMARK INTRA:                  -4.075
REMARK UNBOUND:                -4.918
REMARK SMILES CCCCCCCCCCCCCCCCCCCCCCCCCCCC(=O)[O-]
REMARK SMILES IDX 15 1 16 2 17 3 18 4 19 5 20 6 21 7 22 8 23 9 24 10 25 11
REMARK SMILES IDX 26 12 27 13 28 14 29 15 30 16 14 17 13 18 12 19 11 20 10 21
REMARK SMILES IDX 9 22 8 23 7 24 6 25 5 26 4 27 3 28 2 29 1 30
REMARK H PARENT
REMARK Flexibility Score: inf
ROOT
ATOM      1  C   UNL     1     119.832 115.564 114.792  1.00  0.00     0.000 C 
ENDROOT
BRANCH   1   2
ATOM      2  C   UNL     1     119.926 115.968 113.305  1.00  0.00     0.000 C 
BRANCH   2   3
ATOM      3  C   UNL     1     119.681 114.813 112.314  1.00  0.00     0.000 C 
BRANCH   3   4
ATOM      4  C   UNL     1     120.768 113.727 112.418  1.00  0.00     0.000 C 
BRANCH   4   5
ATOM      5  C   UNL     1     120.183 112.337 112.715  1.00  0.00     0.000 C 
BRANCH   5   6
ATOM      6  C   UNL     1     121.056 111.212 112.127  1.00  0.00     0.000 C 
BRANCH   6   7
ATOM      7  C   UNL     1     120.261 109.927 111.836  1.00  0.00     0.000 C 
BRANCH   7   8
ATOM      8  C   UNL     1     119.940 109.674 110.348  1.00  0.00     0.000 C 
BRANCH   8   9
ATOM      9  C   UNL     1     121.081 109.042 109.532  1.00  0.00     0.000 C 
BRANCH   9  10
ATOM     10  C   UNL     1     121.322 109.753 108.189  1.00  0.00     0.000 C 
BRANCH  10  11
ATOM     11  C   UNL     1     120.169 110.697 107.809  1.00  0.00     0.000 C 
BRANCH  11  12
ATOM     12  C   UNL     1     120.656 112.120 107.484  1.00  0.00     0.006 C 
BRANCH  12  13
ATOM     13  C   UNL     1     121.086 112.887 108.742  1.00  0.00     0.053 C 
BRANCH  13  14
ATOM     14  C   UNL     1     122.567 113.107 108.787  1.00  0.00     0.041 C 
ATOM     15  O   UNL     1     123.118 113.880 107.960  1.00  0.00    -0.550 OA
ATOM     16  O   UNL     1     123.339 112.447 109.738  1.00  0.00    -0.550 OA
ENDBRANCH  13  14
ENDBRANCH  12  13
ENDBRANCH  11  12
ENDBRANCH  10  11
ENDBRANCH   9  10
ENDBRANCH   8   9
ENDBRANCH   7   8
ENDBRANCH   6   7
ENDBRANCH   5   6
ENDBRANCH   4   5
ENDBRANCH   3   4
ENDBRANCH   2   3
ENDBRANCH   1   2
BRANCH   1  17
ATOM     17  C   UNL     1     118.710 114.565 115.137  1.00  0.00     0.000 C 
BRANCH  17  18
ATOM     18  C   UNL     1     117.788 115.068 116.257  1.00  0.00     0.000 C 
BRANCH  18  19
ATOM     19  C   UNL     1     117.389 113.926 117.198  1.00  0.00     0.000 C 
BRANCH  19  20
ATOM     20  C   UNL     1     118.604 113.411 117.980  1.00  0.00     0.000 C 
BRANCH  20  21
ATOM     21  C   UNL     1     118.662 111.877 117.970  1.00  0.00     0.000 C 
BRANCH  21  22
ATOM     22  C   UNL     1     120.091 111.354 117.753  1.00  0.00    -0.000 C 
BRANCH  22  23
ATOM     23  C   UNL     1     120.541 111.491 116.287  1.00  0.00    -0.000 C 
BRANCH  23  24
ATOM     24  C   UNL     1     121.958 112.079 116.148  1.00  0.00    -0.000 C 
BRANCH  24  25
ATOM     25  C   UNL     1     122.118 113.516 116.673  1.00  0.00    -0.000 C 
BRANCH  25  26
ATOM     26  C   UNL     1     123.154 113.627 117.805  1.00  0.00    -0.000 C 
BRANCH  26  27
ATOM     27  C   UNL     1     123.630 112.253 118.301  1.00  0.00    -0.000 C 
BRANCH  27  28
ATOM     28  C   UNL     1     123.174 111.953 119.741  1.00  0.00    -0.000 C 
BRANCH  28  29
ATOM     29  C   UNL     1     123.037 110.449 120.019  1.00  0.00    -0.003 C 
ATOM     30  C   UNL     1     123.190 109.594 118.762  1.00  0.00     0.004 C 
ENDBRANCH  28  29
ENDBRANCH  27  28
ENDBRANCH  26  27
ENDBRANCH  25  26
ENDBRANCH  24  25
ENDBRANCH  23  24
ENDBRANCH  22  23
ENDBRANCH  21  22
ENDBRANCH  20  21
ENDBRANCH  19  20
ENDBRANCH  18  19
ENDBRANCH  17  18
ENDBRANCH   1  17
TORSDOF 26
ENDMDL
MODEL 8
REMARK VINA RESULT:    -3.746      3.576      8.279
REMARK INTER + INTRA:         -14.358
REMARK INTER:                  -9.497
REMARK INTRA:                  -4.862
REMARK UNBOUND:                -4.918
REMARK SMILES CCCCCCCCCCCCCCCCCCCCCCCCCCCC(=O)[O-]
REMARK SMILES IDX 15 1 16 2 17 3 18 4 19 5 20 6 21 7 22 8 23 9 24 10 25 11
REMARK SMILES IDX 26 12 27 13 28 14 29 15 30 16 14 17 13 18 12 19 11 20 10 21
REMARK SMILES IDX 9 22 8 23 7 24 6 25 5 26 4 27 3 28 2 29 1 30
REMARK H PARENT
REMARK Flexibility Score: inf
ROOT
ATOM      1  C   UNL     1     123.343 111.019 112.387  1.00  0.00     0.000 C 
ENDROOT
BRANCH   1   2
ATOM      2  C   UNL     1     122.381 110.366 113.404  1.00  0.00     0.000 C 
BRANCH   2   3
ATOM      3  C   UNL     1     120.902 110.756 113.221  1.00  0.00     0.000 C 
BRANCH   3   4
ATOM      4  C   UNL     1     120.201 109.876 112.169  1.00  0.00     0.000 C 
BRANCH   4   5
ATOM      5  C   UNL     1     119.381 110.700 111.165  1.00  0.00     0.000 C 
BRANCH   5   6
ATOM      6  C   UNL     1     119.591 110.213 109.719  1.00  0.00     0.000 C 
BRANCH   6   7
ATOM      7  C   UNL     1     119.673 111.366 108.704  1.00  0.00     0.000 C 
BRANCH   7   8
ATOM      8  C   UNL     1     120.450 111.050 107.408  1.00  0.00     0.000 C 
BRANCH   8   9
ATOM      9  C   UNL     1     121.978 111.185 107.514  1.00  0.00     0.000 C 
BRANCH   9  10
ATOM     10  C   UNL     1     122.646 111.508 106.166  1.00  0.00     0.000 C 
BRANCH  10  11
ATOM     11  C   UNL     1     123.412 112.841 106.194  1.00  0.00     0.000 C 
BRANCH  11  12
ATOM     12  C   UNL     1     122.597 113.974 106.842  1.00  0.00     0.006 C 
BRANCH  12  13
ATOM     13  C   UNL     1     122.319 115.123 105.863  1.00  0.00     0.053 C 
BRANCH  13  14
ATOM     14  C   UNL     1     120.852 115.313 105.623  1.00  0.00     0.041 C 
ATOM     15  O   UNL     1     120.061 114.341 105.736  1.00  0.00    -0.550 OA
ATOM     16  O   UNL     1     120.363 116.566 105.265  1.00  0.00    -0.550 OA
ENDBRANCH  13  14
ENDBRANCH  12  13
ENDBRANCH  11  12
ENDBRANCH  10  11
ENDBRANCH   9  10
ENDBRANCH   8   9
ENDBRANCH   7   8
ENDBRANCH   6   7
ENDBRANCH   5   6
ENDBRANCH   4   5
ENDBRANCH   3   4
ENDBRANCH   2   3
ENDBRANCH   1   2
BRANCH   1  17
ATOM     17  C   UNL     1     123.088 112.512 112.099  1.00  0.00     0.000 C 
BRANCH  17  18
ATOM     18  C   UNL     1     122.590 112.767 110.670  1.00  0.00     0.000 C 
BRANCH  18  19
ATOM     19  C   UNL     1     121.472 113.815 110.653  1.00  0.00     0.000 C 
BRANCH  19  20
ATOM     20  C   UNL     1     121.878 115.061 111.451  1.00  0.00     0.000 C 
BRANCH  20  21
ATOM     21  C   UNL     1     120.788 115.454 112.458  1.00  0.00     0.000 C 
BRANCH  21  22
ATOM     22  C   UNL     1     119.813 114.298 112.735  1.00  0.00    -0.000 C 
BRANCH  22  23
ATOM     23  C   UNL     1     119.691 113.991 114.238  1.00  0.00    -0.000 C 
BRANCH  23  24
ATOM     24  C   UNL     1     120.852 114.574 115.065  1.00  0.00    -0.000 C 
BRANCH  24  25
ATOM     25  C   UNL     1     121.965 113.571 115.416  1.00  0.00    -0.000 C 
BRANCH  25  26
ATOM     26  C   UNL     1     121.806 112.969 116.823  1.00  0.00    -0.000 C 
BRANCH  26  27
ATOM     27  C   UNL     1     121.409 111.485 116.783  1.00  0.00    -0.000 C 
BRANCH  27  28
ATOM     28  C   UNL     1     120.008 111.231 117.367  1.00  0.00    -0.000 C 
BRANCH  28  29
ATOM     29  C   UNL     1     119.524 112.377 118.268  1.00  0.00    -0.003 C 
ATOM     30  C   UNL     1     118.317 113.117 117.693  1.00  0.00     0.004 C 
ENDBRANCH  28  29
ENDBRANCH  27  28
ENDBRANCH  26  27
ENDBRANCH  25  26
ENDBRANCH  24  25
ENDBRANCH  23  24
ENDBRANCH  22  23
ENDBRANCH  21  22
ENDBRANCH  20  21
ENDBRANCH  19  20
ENDBRANCH  18  19
ENDBRANCH  17  18
ENDBRANCH   1  17
TORSDOF 26
ENDMDL
MODEL 9
REMARK VINA RESULT:    -3.676      1.867      3.159
REMARK INTER + INTRA:         -14.183
REMARK INTER:                  -9.631
REMARK INTRA:                  -4.552
REMARK UNBOUND:                -4.918
REMARK SMILES CCCCCCCCCCCCCCCCCCCCCCCCCCCC(=O)[O-]
REMARK SMILES IDX 15 1 16 2 17 3 18 4 19 5 20 6 21 7 22 8 23 9 24 10 25 11
REMARK SMILES IDX 26 12 27 13 28 14 29 15 30 16 14 17 13 18 12 19 11 20 10 21
REMARK SMILES IDX 9 22 8 23 7 24 6 25 5 26 4 27 3 28 2 29 1 30
REMARK H PARENT
REMARK Flexibility Score: inf
ROOT
ATOM      1  C   UNL     1     120.494 109.989 111.878  1.00  0.00     0.000 C 
ENDROOT
BRANCH   1   2
ATOM      2  C   UNL     1     120.885 110.387 113.319  1.00  0.00     0.000 C 
BRANCH   2   3
ATOM      3  C   UNL     1     122.310 110.956 113.458  1.00  0.00     0.000 C 
BRANCH   3   4
ATOM      4  C   UNL     1     122.675 111.885 112.286  1.00  0.00     0.000 C 
BRANCH   4   5
ATOM      5  C   UNL     1     122.470 113.369 112.626  1.00  0.00     0.000 C 
BRANCH   5   6
ATOM      6  C   UNL     1     121.183 113.930 111.992  1.00  0.00     0.000 C 
BRANCH   6   7
ATOM      7  C   UNL     1     120.019 114.035 112.992  1.00  0.00     0.000 C 
BRANCH   7   8
ATOM      8  C   UNL     1     120.422 113.975 114.480  1.00  0.00     0.000 C 
BRANCH   8   9
ATOM      9  C   UNL     1     119.287 114.269 115.477  1.00  0.00     0.000 C 
BRANCH   9  10
ATOM     10  C   UNL     1     119.366 113.402 116.745  1.00  0.00     0.000 C 
BRANCH  10  11
ATOM     11  C   UNL     1     120.306 112.196 116.577  1.00  0.00     0.000 C 
BRANCH  11  12
ATOM     12  C   UNL     1     120.424 111.358 117.862  1.00  0.00     0.006 C 
BRANCH  12  13
ATOM     13  C   UNL     1     120.616 112.231 119.109  1.00  0.00     0.053 C 
BRANCH  13  14
ATOM     14  C   UNL     1     122.000 112.114 119.668  1.00  0.00     0.041 C 
ATOM     15  O   UNL     1     122.189 111.554 120.780  1.00  0.00    -0.550 OA
ATOM     16  O   UNL     1     123.082 112.634 118.964  1.00  0.00    -0.550 OA
ENDBRANCH  13  14
ENDBRANCH  12  13
ENDBRANCH  11  12
ENDBRANCH  10  11
ENDBRANCH   9  10
ENDBRANCH   8   9
ENDBRANCH   7   8
ENDBRANCH   6   7
ENDBRANCH   5   6
ENDBRANCH   4   5
ENDBRANCH   3   4
ENDBRANCH   2   3
ENDBRANCH   1   2
BRANCH   1  17
ATOM     17  C   UNL     1     119.312 110.771 111.273  1.00  0.00     0.000 C 
BRANCH  17  18
ATOM     18  C   UNL     1     119.361 110.834 109.740  1.00  0.00     0.000 C 
BRANCH  18  19
ATOM     19  C   UNL     1     119.884 109.520 109.149  1.00  0.00     0.000 C 
BRANCH  19  20
ATOM     20  C   UNL     1     119.909 109.580 107.617  1.00  0.00     0.000 C 
BRANCH  20  21
ATOM     21  C   UNL     1     121.064 108.745 107.047  1.00  0.00     0.000 C 
BRANCH  21  22
ATOM     22  C   UNL     1     122.005 108.232 108.150  1.00  0.00    -0.000 C 
BRANCH  22  23
ATOM     23  C   UNL     1     123.379 108.924 108.107  1.00  0.00    -0.000 C 
BRANCH  23  24
ATOM     24  C   UNL     1     123.509 110.063 109.136  1.00  0.00    -0.000 C 
BRANCH  24  25
ATOM     25  C   UNL     1     123.080 111.449 108.626  1.00  0.00    -0.000 C 
BRANCH  25  26
ATOM     26  C   UNL     1     123.468 111.693 107.157  1.00  0.00    -0.000 C 
BRANCH  26  27
ATOM     27  C   UNL     1     122.282 112.182 106.311  1.00  0.00    -0.000 C 
BRANCH  27  28
ATOM     28  C   UNL     1     121.228 112.930 107.148  1.00  0.00    -0.000 C 
BRANCH  28  29
ATOM     29  C   UNL     1     120.828 114.278 106.531  1.00  0.00    -0.003 C 
ATOM     30  C   UNL     1     121.154 114.371 105.041  1.00  0.00     0.004 C 
ENDBRANCH  28  29
ENDBRANCH  27  28
ENDBRANCH  26  27
ENDBRANCH  25  26
ENDBRANCH  24  25
ENDBRANCH  23  24
ENDBRANCH  22  23
ENDBRANCH  21  22
ENDBRANCH  20  21
ENDBRANCH  19  20
ENDBRANCH  18  19
ENDBRANCH  17  18
ENDBRANCH   1  17
TORSDOF 26
ENDMDL
