MODEL 1
REMARK VINA RESULT:     8.898      0.000      0.000
REMARK INTER + INTRA:          26.929
REMARK INTER:                  23.463
REMARK INTRA:                   3.466
REMARK UNBOUND:                 3.466
REMARK SMILES CCCCCCCCCCCCCCCCCCCCCCCCCCCCCC(=O)[O-]
REMARK SMILES IDX 16 1 17 2 18 3 19 4 20 5 21 6 22 7 23 8 24 9 25 10 26 11
REMARK SMILES IDX 27 12 28 13 29 14 30 15 31 16 32 17 15 18 14 19 13 20 12 21
REMARK SMILES IDX 11 22 10 23 9 24 8 25 7 26 6 27 5 28 4 29 3 30 2 31 1 32
REMARK H PARENT
REMARK Flexibility Score: inf
ROOT
ATOM      1  C   UNL     1      -6.045  35.181  23.608  1.00  0.00     0.000 C 
ENDROOT
BRANCH   1   2
ATOM      2  C   UNL     1      -5.563  33.718  23.701  1.00  0.00     0.000 C 
BRANCH   2   3
ATOM      3  C   UNL     1      -4.499  33.339  22.654  1.00  0.00     0.000 C 
BRANCH   3   4
ATOM      4  C   UNL     1      -4.764  33.859  21.228  1.00  0.00     0.000 C 
BRANCH   4   5
ATOM      5  C   UNL     1      -3.578  34.578  20.559  1.00  0.00     0.000 C 
BRANCH   5   6
ATOM      6  C   UNL     1      -3.944  35.806  19.700  1.00  0.00     0.000 C 
BRANCH   6   7
ATOM      7  C   UNL     1      -5.277  35.669  18.932  1.00  0.00     0.000 C 
BRANCH   7   8
ATOM      8  C   UNL     1      -5.484  34.262  18.340  1.00  0.00     0.000 C 
BRANCH   8   9
ATOM      9  C   UNL     1      -4.240  33.753  17.592  1.00  0.00     0.000 C 
BRANCH   9  10
ATOM     10  C   UNL     1      -3.733  34.763  16.545  1.00  0.00     0.000 C 
BRANCH  10  11
ATOM     11  C   UNL     1      -2.231  35.059  16.688  1.00  0.00     0.000 C 
BRANCH  11  12
ATOM     12  C   UNL     1      -1.644  35.740  15.441  1.00  0.00     0.000 C 
BRANCH  12  13
ATOM     13  C   UNL     1      -2.683  35.927  14.320  1.00  0.00     0.006 C 
BRANCH  13  14
ATOM     14  C   UNL     1      -2.888  37.385  13.877  1.00  0.00     0.053 C 
BRANCH  14  15
ATOM     15  C   UNL     1      -4.061  38.023  14.558  1.00  0.00     0.041 C 
ATOM     16  O   UNL     1      -4.557  37.497  15.590  1.00  0.00    -0.550 OA
ATOM     17  O   UNL     1      -4.637  39.171  14.028  1.00  0.00    -0.550 OA
ENDBRANCH  14  15
ENDBRANCH  13  14
ENDBRANCH  12  13
ENDBRANCH  11  12
ENDBRANCH  10  11
ENDBRANCH   9  10
ENDBRANCH   8   9
ENDBRANCH   7   8
ENDBRANCH   6   7
ENDBRANCH   5   6
ENDBRANCH   4   5
ENDBRANCH   3   4
ENDBRANCH   2   3
ENDBRANCH   1   2
BRANCH   1  18
ATOM     18  C   UNL     1      -6.124  35.698  22.158  1.00  0.00     0.000 C 
BRANCH  18  19
ATOM     19  C   UNL     1      -6.110  37.233  22.081  1.00  0.00     0.000 C 
BRANCH  19  20
ATOM     20  C   UNL     1      -5.792  37.754  20.668  1.00  0.00     0.000 C 
BRANCH  20  21
ATOM     21  C   UNL     1      -5.132  39.144  20.681  1.00  0.00     0.000 C 
BRANCH  21  22
ATOM     22  C   UNL     1      -5.612  40.089  21.804  1.00  0.00     0.000 C 
BRANCH  22  23
ATOM     23  C   UNL     1      -4.843  39.974  23.135  1.00  0.00     0.000 C 
BRANCH  23  24
ATOM     24  C   UNL     1      -5.691  39.498  24.329  1.00  0.00    -0.000 C 
BRANCH  24  25
ATOM     25  C   UNL     1      -5.499  38.001  24.667  1.00  0.00    -0.000 C 
BRANCH  25  26
ATOM     26  C   UNL     1      -5.226  37.720  26.155  1.00  0.00    -0.000 C 
BRANCH  26  27
ATOM     27  C   UNL     1      -3.949  36.894  26.378  1.00  0.00    -0.000 C 
BRANCH  27  28
ATOM     28  C   UNL     1      -2.951  37.656  27.264  1.00  0.00    -0.000 C 
BRANCH  28  29
ATOM     29  C   UNL     1      -1.555  36.998  27.285  1.00  0.00    -0.000 C 
BRANCH  29  30
ATOM     30  C   UNL     1      -1.584  35.481  27.545  1.00  0.00    -0.000 C 
BRANCH  30  31
ATOM     31  C   UNL     1      -2.086  35.120  28.951  1.00  0.00    -0.003 C 
ATOM     32  C   UNL     1      -1.151  34.122  29.631  1.00  0.00     0.004 C 
ENDBRANCH  30  31
ENDBRANCH  29  30
ENDBRANCH  28  29
ENDBRANCH  27  28
ENDBRANCH  26  27
ENDBRANCH  25  26
ENDBRANCH  24  25
ENDBRANCH  23  24
ENDBRANCH  22  23
ENDBRANCH  21  22
ENDBRANCH  20  21
ENDBRANCH  19  20
ENDBRANCH  18  19
ENDBRANCH   1  18
TORSDOF 28
ENDMDL
MODEL 2
REMARK VINA RESULT:    11.390      1.894      4.466
REMARK INTER + INTRA:          33.500
REMARK INTER:                  34.254
REMARK INTRA:                  -0.754
REMARK UNBOUND:                 3.466
REMARK SMILES CCCCCCCCCCCCCCCCCCCCCCCCCCCCCC(=O)[O-]
REMARK SMILES IDX 16 1 17 2 18 3 19 4 20 5 21 6 22 7 23 8 24 9 25 10 26 11
REMARK SMILES IDX 27 12 28 13 29 14 30 15 31 16 32 17 15 18 14 19 13 20 12 21
REMARK SMILES IDX 11 22 10 23 9 24 8 25 7 26 6 27 5 28 4 29 3 30 2 31 1 32
REMARK H PARENT
REMARK Flexibility Score: inf
ROOT
ATOM      1  C   UNL     1      -5.928  38.226  24.419  1.00  0.00     0.000 C 
ENDROOT
BRANCH   1   2
ATOM      2  C   UNL     1      -5.284  39.374  23.615  1.00  0.00     0.000 C 
BRANCH   2   3
ATOM      3  C   UNL     1      -6.125  39.850  22.415  1.00  0.00     0.000 C 
BRANCH   3   4
ATOM      4  C   UNL     1      -5.380  39.899  21.067  1.00  0.00     0.000 C 
BRANCH   4   5
ATOM      5  C   UNL     1      -6.071  39.159  19.906  1.00  0.00     0.000 C 
BRANCH   5   6
ATOM      6  C   UNL     1      -5.308  37.941  19.347  1.00  0.00     0.000 C 
BRANCH   6   7
ATOM      7  C   UNL     1      -5.759  36.585  19.934  1.00  0.00     0.000 C 
BRANCH   7   8
ATOM      8  C   UNL     1      -4.577  35.697  20.363  1.00  0.00     0.000 C 
BRANCH   8   9
ATOM      9  C   UNL     1      -4.460  34.423  19.507  1.00  0.00     0.000 C 
BRANCH   9  10
ATOM     10  C   UNL     1      -4.944  34.644  18.061  1.00  0.00     0.000 C 
BRANCH  10  11
ATOM     11  C   UNL     1      -4.021  35.583  17.266  1.00  0.00     0.000 C 
BRANCH  11  12
ATOM     12  C   UNL     1      -3.243  34.847  16.162  1.00  0.00     0.000 C 
BRANCH  12  13
ATOM     13  C   UNL     1      -2.894  35.758  14.971  1.00  0.00     0.006 C 
BRANCH  13  14
ATOM     14  C   UNL     1      -4.111  36.365  14.255  1.00  0.00     0.053 C 
BRANCH  14  15
ATOM     15  C   UNL     1      -4.126  37.862  14.335  1.00  0.00     0.041 C 
ATOM     16  O   UNL     1      -3.148  38.479  14.834  1.00  0.00    -0.550 OA
ATOM     17  O   UNL     1      -5.239  38.573  13.902  1.00  0.00    -0.550 OA
ENDBRANCH  14  15
ENDBRANCH  13  14
ENDBRANCH  12  13
ENDBRANCH  11  12
ENDBRANCH  10  11
ENDBRANCH   9  10
ENDBRANCH   8   9
ENDBRANCH   7   8
ENDBRANCH   6   7
ENDBRANCH   5   6
ENDBRANCH   4   5
ENDBRANCH   3   4
ENDBRANCH   2   3
ENDBRANCH   1   2
BRANCH   1  18
ATOM     18  C   UNL     1      -5.918  36.882  23.664  1.00  0.00     0.000 C 
BRANCH  18  19
ATOM     19  C   UNL     1      -5.655  35.687  24.595  1.00  0.00     0.000 C 
BRANCH  19  20
ATOM     20  C   UNL     1      -5.065  36.110  25.952  1.00  0.00     0.000 C 
BRANCH  20  21
ATOM     21  C   UNL     1      -3.926  37.135  25.812  1.00  0.00     0.000 C 
BRANCH  21  22
ATOM     22  C   UNL     1      -3.285  37.591  27.141  1.00  0.00     0.000 C 
BRANCH  22  23
ATOM     23  C   UNL     1      -1.772  37.877  27.078  1.00  0.00     0.000 C 
BRANCH  23  24
ATOM     24  C   UNL     1      -0.908  36.964  27.968  1.00  0.00    -0.000 C 
BRANCH  24  25
ATOM     25  C   UNL     1      -1.275  35.466  27.859  1.00  0.00    -0.000 C 
BRANCH  25  26
ATOM     26  C   UNL     1      -2.132  34.940  29.022  1.00  0.00    -0.000 C 
BRANCH  26  27
ATOM     27  C   UNL     1      -1.544  33.676  29.668  1.00  0.00    -0.000 C 
BRANCH  27  28
ATOM     28  C   UNL     1      -0.089  33.457  29.219  1.00  0.00    -0.000 C 
BRANCH  28  29
ATOM     29  C   UNL     1       0.691  32.525  30.171  1.00  0.00    -0.000 C 
BRANCH  29  30
ATOM     30  C   UNL     1       1.630  31.542  29.448  1.00  0.00    -0.000 C 
BRANCH  30  31
ATOM     31  C   UNL     1       2.066  30.364  30.333  1.00  0.00    -0.003 C 
ATOM     32  C   UNL     1       3.519  29.978  30.061  1.00  0.00     0.004 C 
ENDBRANCH  30  31
ENDBRANCH  29  30
ENDBRANCH  28  29
ENDBRANCH  27  28
ENDBRANCH  26  27
ENDBRANCH  25  26
ENDBRANCH  24  25
ENDBRANCH  23  24
ENDBRANCH  22  23
ENDBRANCH  21  22
ENDBRANCH  20  21
ENDBRANCH  19  20
ENDBRANCH  18  19
ENDBRANCH   1  18
TORSDOF 28
ENDMDL
