MODEL 1
REMARK VINA RESULT:    -8.310      0.000      0.000
REMARK INTER + INTRA:         -10.234
REMARK INTER:                 -10.010
REMARK INTRA:                  -0.224
REMARK UNBOUND:                -0.224
REMARK SMILES O=c1c(O)c(-c2ccc(O)cc2O)oc2cc(O)cc(O)c12
REMARK SMILES IDX 5 1 3 2 2 3 1 4 22 5 20 6 19 7 17 8 16 9 15 10 14 11 6 12
REMARK SMILES IDX 8 13 7 14 9 15 11 16 12 17 10 18 13 20 4 22 21 24 18 26
REMARK H PARENT 10 19 13 21 4 23 21 25 18 27
REMARK Flexibility Score: inf
ROOT
ATOM      1  C   UNL     1      80.189 -26.487  84.556  1.00  0.00     0.184 A 
ATOM      2  C   UNL     1      81.487 -26.938  84.854  1.00  0.00     0.208 A 
ATOM      3  C   UNL     1      82.223 -26.277  85.849  1.00  0.00     0.238 A 
ATOM      4  O   UNL     1      83.392 -26.665  86.117  1.00  0.00    -0.285 OA
ATOM      5  C   UNL     1      81.643 -25.192  86.538  1.00  0.00     0.111 A 
ATOM      6  C   UNL     1      82.315 -24.473  87.556  1.00  0.00     0.134 A 
ATOM      7  C   UNL     1      81.666 -23.410  88.202  1.00  0.00     0.093 A 
ATOM      8  C   UNL     1      80.362 -23.054  87.851  1.00  0.00     0.123 A 
ATOM      9  C   UNL     1      79.693 -23.760  86.847  1.00  0.00     0.094 A 
ATOM     10  C   UNL     1      80.322 -24.821  86.190  1.00  0.00     0.146 A 
ATOM     11  O   UNL     1      79.665 -25.472  85.236  1.00  0.00    -0.451 OA
ENDROOT
BRANCH   1  12
ATOM     12  C   UNL     1      79.364 -27.131  83.513  1.00  0.00     0.063 A 
ATOM     13  C   UNL     1      79.163 -27.939  81.228  1.00  0.00     0.047 A 
ATOM     14  C   UNL     1      79.914 -27.329  82.237  1.00  0.00     0.020 A 
ATOM     15  C   UNL     1      77.857 -28.372  81.489  1.00  0.00     0.119 A 
ATOM     16  C   UNL     1      77.309 -28.200  82.763  1.00  0.00     0.093 A 
ATOM     17  C   UNL     1      78.059 -27.593  83.783  1.00  0.00     0.130 A 
BRANCH  15  18
ATOM     18  O   UNL     1      77.097 -28.978  80.491  1.00  0.00    -0.508 OA
ATOM     19  H   UNL     1      76.164 -29.327  80.673  1.00  0.00     0.293 HD
ENDBRANCH  15  18
BRANCH  17  20
ATOM     20  O   UNL     1      77.518 -27.472  85.063  1.00  0.00    -0.507 OA
ATOM     21  H   UNL     1      76.553 -27.202  85.209  1.00  0.00     0.293 HD
ENDBRANCH  17  20
ENDBRANCH   1  12
BRANCH   2  22
ATOM     22  O   UNL     1      82.016 -28.045  84.185  1.00  0.00    -0.502 OA
ATOM     23  H   UNL     1      82.878 -27.996  83.655  1.00  0.00     0.293 HD
ENDBRANCH   2  22
BRANCH   6  24
ATOM     24  O   UNL     1      83.618 -24.805  87.929  1.00  0.00    -0.507 OA
ATOM     25  H   UNL     1      84.051 -25.675  87.639  1.00  0.00     0.293 HD
ENDBRANCH   6  24
BRANCH   8  26
ATOM     26  O   UNL     1      79.739 -21.995  88.510  1.00  0.00    -0.508 OA
ATOM     27  H   UNL     1      79.175 -22.144  89.338  1.00  0.00     0.293 HD
ENDBRANCH   8  26
TORSDOF 6
ENDMDL
MODEL 2
REMARK VINA RESULT:    -8.255      2.430      4.500
REMARK INTER + INTRA:         -10.168
REMARK INTER:                  -9.968
REMARK INTRA:                  -0.201
REMARK UNBOUND:                -0.224
REMARK SMILES O=c1c(O)c(-c2ccc(O)cc2O)oc2cc(O)cc(O)c12
REMARK SMILES IDX 5 1 3 2 2 3 1 4 22 5 20 6 19 7 17 8 16 9 15 10 14 11 6 12
REMARK SMILES IDX 8 13 7 14 9 15 11 16 12 17 10 18 13 20 4 22 21 24 18 26
REMARK H PARENT 10 19 13 21 4 23 21 25 18 27
REMARK Flexibility Score: inf
ROOT
ATOM      1  C   UNL     1      78.928 -25.930  86.167  1.00  0.00     0.184 A 
ATOM      2  C   UNL     1      79.499 -24.927  86.969  1.00  0.00     0.208 A 
ATOM      3  C   UNL     1      80.888 -24.927  87.168  1.00  0.00     0.238 A 
ATOM      4  O   UNL     1      81.410 -24.038  87.895  1.00  0.00    -0.285 OA
ATOM      5  C   UNL     1      81.680 -25.914  86.547  1.00  0.00     0.111 A 
ATOM      6  C   UNL     1      83.086 -25.983  86.693  1.00  0.00     0.134 A 
ATOM      7  C   UNL     1      83.805 -26.992  86.035  1.00  0.00     0.093 A 
ATOM      8  C   UNL     1      83.148 -27.930  85.236  1.00  0.00     0.123 A 
ATOM      9  C   UNL     1      81.758 -27.868  85.088  1.00  0.00     0.094 A 
ATOM     10  C   UNL     1      81.024 -26.871  85.737  1.00  0.00     0.146 A 
ATOM     11  O   UNL     1      79.704 -26.837  85.583  1.00  0.00    -0.451 OA
ENDROOT
BRANCH   1  12
ATOM     12  C   UNL     1      77.471 -25.995  85.925  1.00  0.00     0.063 A 
ATOM     13  C   UNL     1      75.213 -25.973  86.827  1.00  0.00     0.047 A 
ATOM     14  C   UNL     1      76.596 -25.920  87.020  1.00  0.00     0.020 A 
ATOM     15  C   UNL     1      74.688 -26.089  85.534  1.00  0.00     0.119 A 
ATOM     16  C   UNL     1      75.551 -26.142  84.436  1.00  0.00     0.093 A 
ATOM     17  C   UNL     1      76.941 -26.083  84.622  1.00  0.00     0.130 A 
BRANCH  15  18
ATOM     18  O   UNL     1      73.311 -26.148  85.330  1.00  0.00    -0.508 OA
ATOM     19  H   UNL     1      72.881 -26.928  84.848  1.00  0.00     0.293 HD
ENDBRANCH  15  18
BRANCH  17  20
ATOM     20  O   UNL     1      77.789 -26.088  83.514  1.00  0.00    -0.507 OA
ATOM     21  H   UNL     1      78.021 -26.944  83.025  1.00  0.00     0.293 HD
ENDBRANCH  17  20
ENDBRANCH   1  12
BRANCH   2  22
ATOM     22  O   UNL     1      78.692 -23.935  87.533  1.00  0.00    -0.502 OA
ATOM     23  H   UNL     1      78.424 -23.101  87.025  1.00  0.00     0.293 HD
ENDBRANCH   2  22
BRANCH   6  24
ATOM     24  O   UNL     1      83.772 -25.061  87.484  1.00  0.00    -0.507 OA
ATOM     25  H   UNL     1      84.418 -25.355  88.209  1.00  0.00     0.293 HD
ENDBRANCH   6  24
BRANCH   8  26
ATOM     26  O   UNL     1      83.886 -28.922  84.592  1.00  0.00    -0.508 OA
ATOM     27  H   UNL     1      84.043 -28.900  83.592  1.00  0.00     0.293 HD
ENDBRANCH   8  26
TORSDOF 6
ENDMDL
MODEL 3
REMARK VINA RESULT:    -8.235      2.099      6.225
REMARK INTER + INTRA:         -10.144
REMARK INTER:                  -9.729
REMARK INTRA:                  -0.415
REMARK UNBOUND:                -0.224
REMARK SMILES O=c1c(O)c(-c2ccc(O)cc2O)oc2cc(O)cc(O)c12
REMARK SMILES IDX 5 1 3 2 2 3 1 4 22 5 20 6 19 7 17 8 16 9 15 10 14 11 6 12
REMARK SMILES IDX 8 13 7 14 9 15 11 16 12 17 10 18 13 20 4 22 21 24 18 26
REMARK H PARENT 10 19 13 21 4 23 21 25 18 27
REMARK Flexibility Score: inf
ROOT
ATOM      1  C   UNL     1      80.388 -25.898  85.662  1.00  0.00     0.184 A 
ATOM      2  C   UNL     1      80.460 -26.814  84.598  1.00  0.00     0.208 A 
ATOM      3  C   UNL     1      79.276 -27.189  83.945  1.00  0.00     0.238 A 
ATOM      4  O   UNL     1      79.327 -28.018  82.996  1.00  0.00    -0.285 OA
ATOM      5  C   UNL     1      78.048 -26.629  84.354  1.00  0.00     0.111 A 
ATOM      6  C   UNL     1      76.810 -26.951  83.747  1.00  0.00     0.134 A 
ATOM      7  C   UNL     1      75.632 -26.344  84.206  1.00  0.00     0.093 A 
ATOM      8  C   UNL     1      75.667 -25.424  85.257  1.00  0.00     0.123 A 
ATOM      9  C   UNL     1      76.887 -25.102  85.860  1.00  0.00     0.094 A 
ATOM     10  C   UNL     1      78.072 -25.697  85.419  1.00  0.00     0.146 A 
ATOM     11  O   UNL     1      79.217 -25.376  86.013  1.00  0.00    -0.451 OA
ENDROOT
BRANCH   1  12
ATOM     12  C   UNL     1      81.595 -25.469  86.400  1.00  0.00     0.063 A 
ATOM     13  C   UNL     1      83.286 -25.956  88.078  1.00  0.00     0.047 A 
ATOM     14  C   UNL     1      82.143 -26.328  87.366  1.00  0.00     0.020 A 
ATOM     15  C   UNL     1      83.903 -24.725  87.823  1.00  0.00     0.119 A 
ATOM     16  C   UNL     1      83.377 -23.873  86.848  1.00  0.00     0.093 A 
ATOM     17  C   UNL     1      82.232 -24.242  86.124  1.00  0.00     0.130 A 
BRANCH  15  18
ATOM     18  O   UNL     1      85.040 -24.341  88.530  1.00  0.00    -0.508 OA
ATOM     19  H   UNL     1      85.708 -23.686  88.143  1.00  0.00     0.293 HD
ENDBRANCH  15  18
BRANCH  17  20
ATOM     20  O   UNL     1      81.747 -23.404  85.120  1.00  0.00    -0.507 OA
ATOM     21  H   UNL     1      81.947 -22.411  85.114  1.00  0.00     0.293 HD
ENDBRANCH  17  20
ENDBRANCH   1  12
BRANCH   2  22
ATOM     22  O   UNL     1      81.698 -27.316  84.186  1.00  0.00    -0.502 OA
ATOM     23  H   UNL     1      81.789 -28.197  83.697  1.00  0.00     0.293 HD
ENDBRANCH   2  22
BRANCH   6  24
ATOM     24  O   UNL     1      76.742 -27.865  82.696  1.00  0.00    -0.507 OA
ATOM     25  H   UNL     1      76.779 -28.866  82.856  1.00  0.00     0.293 HD
ENDBRANCH   6  24
BRANCH   8  26
ATOM     26  O   UNL     1      74.482 -24.833  85.693  1.00  0.00    -0.508 OA
ATOM     27  H   UNL     1      73.621 -25.361  85.761  1.00  0.00     0.293 HD
ENDBRANCH   8  26
TORSDOF 6
ENDMDL
MODEL 4
REMARK VINA RESULT:    -8.140      1.752      6.917
REMARK INTER + INTRA:         -10.030
REMARK INTER:                  -9.613
REMARK INTRA:                  -0.417
REMARK UNBOUND:                -0.224
REMARK SMILES O=c1c(O)c(-c2ccc(O)cc2O)oc2cc(O)cc(O)c12
REMARK SMILES IDX 5 1 3 2 2 3 1 4 22 5 20 6 19 7 17 8 16 9 15 10 14 11 6 12
REMARK SMILES IDX 8 13 7 14 9 15 11 16 12 17 10 18 13 20 4 22 21 24 18 26
REMARK H PARENT 10 19 13 21 4 23 21 25 18 27
REMARK Flexibility Score: inf
ROOT
ATOM      1  C   UNL     1      80.539 -25.766  85.941  1.00  0.00     0.184 A 
ATOM      2  C   UNL     1      79.280 -25.315  86.373  1.00  0.00     0.208 A 
ATOM      3  C   UNL     1      78.133 -25.756  85.696  1.00  0.00     0.238 A 
ATOM      4  O   UNL     1      76.998 -25.350  86.067  1.00  0.00    -0.285 OA
ATOM      5  C   UNL     1      78.264 -26.652  84.615  1.00  0.00     0.111 A 
ATOM      6  C   UNL     1      77.159 -27.148  83.882  1.00  0.00     0.134 A 
ATOM      7  C   UNL     1      77.372 -28.045  82.824  1.00  0.00     0.093 A 
ATOM      8  C   UNL     1      78.664 -28.455  82.487  1.00  0.00     0.123 A 
ATOM      9  C   UNL     1      79.759 -27.969  83.208  1.00  0.00     0.094 A 
ATOM     10  C   UNL     1      79.569 -27.073  84.264  1.00  0.00     0.146 A 
ATOM     11  O   UNL     1      80.627 -26.624  84.929  1.00  0.00    -0.451 OA
ENDROOT
BRANCH   1  12
ATOM     12  C   UNL     1      81.788 -25.332  86.602  1.00  0.00     0.063 A 
ATOM     13  C   UNL     1      83.499 -25.738  88.282  1.00  0.00     0.047 A 
ATOM     14  C   UNL     1      82.317 -26.117  87.639  1.00  0.00     0.020 A 
ATOM     15  C   UNL     1      84.174 -24.577  87.885  1.00  0.00     0.119 A 
ATOM     16  C   UNL     1      83.666 -23.802  86.839  1.00  0.00     0.093 A 
ATOM     17  C   UNL     1      82.483 -24.179  86.184  1.00  0.00     0.130 A 
BRANCH  15  18
ATOM     18  O   UNL     1      85.350 -24.188  88.522  1.00  0.00    -0.508 OA
ATOM     19  H   UNL     1      85.893 -23.398  88.194  1.00  0.00     0.293 HD
ENDBRANCH  15  18
BRANCH  17  20
ATOM     20  O   UNL     1      82.015 -23.423  85.109  1.00  0.00    -0.507 OA
ATOM     21  H   UNL     1      81.626 -23.859  84.282  1.00  0.00     0.293 HD
ENDBRANCH  17  20
ENDBRANCH   1  12
BRANCH   2  22
ATOM     22  O   UNL     1      79.180 -24.463  87.476  1.00  0.00    -0.502 OA
ATOM     23  H   UNL     1      78.538 -23.680  87.500  1.00  0.00     0.293 HD
ENDBRANCH   2  22
BRANCH   6  24
ATOM     24  O   UNL     1      75.857 -26.757  84.194  1.00  0.00    -0.507 OA
ATOM     25  H   UNL     1      75.665 -25.911  84.719  1.00  0.00     0.293 HD
ENDBRANCH   6  24
BRANCH   8  26
ATOM     26  O   UNL     1      78.848 -29.348  81.433  1.00  0.00    -0.508 OA
ATOM     27  H   UNL     1      78.743 -29.059  80.469  1.00  0.00     0.293 HD
ENDBRANCH   8  26
TORSDOF 6
ENDMDL
MODEL 5
REMARK VINA RESULT:    -8.035      2.282      3.788
REMARK INTER + INTRA:          -9.903
REMARK INTER:                  -9.805
REMARK INTRA:                  -0.098
REMARK UNBOUND:                -0.224
REMARK SMILES O=c1c(O)c(-c2ccc(O)cc2O)oc2cc(O)cc(O)c12
REMARK SMILES IDX 5 1 3 2 2 3 1 4 22 5 20 6 19 7 17 8 16 9 15 10 14 11 6 12
REMARK SMILES IDX 8 13 7 14 9 15 11 16 12 17 10 18 13 20 4 22 21 24 18 26
REMARK H PARENT 10 19 13 21 4 23 21 25 18 27
REMARK Flexibility Score: inf
ROOT
ATOM      1  C   UNL     1      79.004 -26.565  85.600  1.00  0.00     0.184 A 
ATOM      2  C   UNL     1      79.604 -27.589  84.845  1.00  0.00     0.208 A 
ATOM      3  C   UNL     1      81.000 -27.720  84.869  1.00  0.00     0.238 A 
ATOM      4  O   UNL     1      81.550 -28.628  84.187  1.00  0.00    -0.285 OA
ATOM      5  C   UNL     1      81.768 -26.841  85.659  1.00  0.00     0.111 A 
ATOM      6  C   UNL     1      83.180 -26.908  85.742  1.00  0.00     0.134 A 
ATOM      7  C   UNL     1      83.873 -26.001  86.559  1.00  0.00     0.093 A 
ATOM      8  C   UNL     1      83.183 -25.033  87.293  1.00  0.00     0.123 A 
ATOM      9  C   UNL     1      81.789 -24.963  87.216  1.00  0.00     0.094 A 
ATOM     10  C   UNL     1      81.080 -25.855  86.406  1.00  0.00     0.146 A 
ATOM     11  O   UNL     1      79.756 -25.763  86.347  1.00  0.00    -0.451 OA
ENDROOT
BRANCH   1  12
ATOM     12  C   UNL     1      77.540 -26.364  85.610  1.00  0.00     0.063 A 
ATOM     13  C   UNL     1      75.485 -26.133  86.889  1.00  0.00     0.047 A 
ATOM     14  C   UNL     1      76.868 -26.327  86.842  1.00  0.00     0.020 A 
ATOM     15  C   UNL     1      74.759 -25.959  85.704  1.00  0.00     0.119 A 
ATOM     16  C   UNL     1      75.423 -25.972  84.475  1.00  0.00     0.093 A 
ATOM     17  C   UNL     1      76.813 -26.161  84.420  1.00  0.00     0.130 A 
BRANCH  15  18
ATOM     18  O   UNL     1      73.380 -25.770  85.739  1.00  0.00    -0.508 OA
ATOM     19  H   UNL     1      72.738 -26.553  85.747  1.00  0.00     0.293 HD
ENDBRANCH  15  18
BRANCH  17  20
ATOM     20  O   UNL     1      77.470 -26.122  83.189  1.00  0.00    -0.507 OA
ATOM     21  H   UNL     1      77.458 -25.294  82.606  1.00  0.00     0.293 HD
ENDBRANCH  17  20
ENDBRANCH   1  12
BRANCH   2  22
ATOM     22  O   UNL     1      78.811 -28.473  84.107  1.00  0.00    -0.502 OA
ATOM     23  H   UNL     1      79.208 -29.198  83.523  1.00  0.00     0.293 HD
ENDBRANCH   2  22
BRANCH   6  24
ATOM     24  O   UNL     1      83.897 -27.863  85.021  1.00  0.00    -0.507 OA
ATOM     25  H   UNL     1      83.461 -28.425  84.299  1.00  0.00     0.293 HD
ENDBRANCH   6  24
BRANCH   8  26
ATOM     26  O   UNL     1      83.895 -24.147  88.099  1.00  0.00    -0.508 OA
ATOM     27  H   UNL     1      84.896 -24.232  88.225  1.00  0.00     0.293 HD
ENDBRANCH   8  26
TORSDOF 6
ENDMDL
MODEL 6
REMARK VINA RESULT:    -7.783      1.311      3.153
REMARK INTER + INTRA:          -9.599
REMARK INTER:                  -9.492
REMARK INTRA:                  -0.107
REMARK UNBOUND:                -0.224
REMARK SMILES O=c1c(O)c(-c2ccc(O)cc2O)oc2cc(O)cc(O)c12
REMARK SMILES IDX 5 1 3 2 2 3 1 4 22 5 20 6 19 7 17 8 16 9 15 10 14 11 6 12
REMARK SMILES IDX 8 13 7 14 9 15 11 16 12 17 10 18 13 20 4 22 21 24 18 26
REMARK H PARENT 10 19 13 21 4 23 21 25 18 27
REMARK Flexibility Score: inf
ROOT
ATOM      1  C   UNL     1      79.321 -26.167  84.627  1.00  0.00     0.184 A 
ATOM      2  C   UNL     1      78.477 -25.306  85.350  1.00  0.00     0.208 A 
ATOM      3  C   UNL     1      79.028 -24.521  86.375  1.00  0.00     0.238 A 
ATOM      4  O   UNL     1      78.279 -23.753  87.038  1.00  0.00    -0.285 OA
ATOM      5  C   UNL     1      80.410 -24.596  86.643  1.00  0.00     0.111 A 
ATOM      6  C   UNL     1      81.045 -23.837  87.656  1.00  0.00     0.134 A 
ATOM      7  C   UNL     1      82.428 -23.962  87.855  1.00  0.00     0.093 A 
ATOM      8  C   UNL     1      83.186 -24.828  87.065  1.00  0.00     0.123 A 
ATOM      9  C   UNL     1      82.565 -25.581  86.063  1.00  0.00     0.094 A 
ATOM     10  C   UNL     1      81.188 -25.472  85.850  1.00  0.00     0.146 A 
ATOM     11  O   UNL     1      80.623 -26.202  84.894  1.00  0.00    -0.451 OA
ENDROOT
BRANCH   1  12
ATOM     12  C   UNL     1      78.805 -27.029  83.543  1.00  0.00     0.063 A 
ATOM     13  C   UNL     1      77.082 -28.543  82.735  1.00  0.00     0.047 A 
ATOM     14  C   UNL     1      77.601 -27.723  83.741  1.00  0.00     0.020 A 
ATOM     15  C   UNL     1      77.754 -28.667  81.513  1.00  0.00     0.119 A 
ATOM     16  C   UNL     1      78.942 -27.962  81.299  1.00  0.00     0.093 A 
ATOM     17  C   UNL     1      79.466 -27.132  82.302  1.00  0.00     0.130 A 
BRANCH  15  18
ATOM     18  O   UNL     1      77.249 -29.485  80.506  1.00  0.00    -0.508 OA
ATOM     19  H   UNL     1      77.852 -30.096  79.967  1.00  0.00     0.293 HD
ENDBRANCH  15  18
BRANCH  17  20
ATOM     20  O   UNL     1      80.626 -26.396  82.057  1.00  0.00    -0.507 OA
ATOM     21  H   UNL     1      81.451 -26.495  82.636  1.00  0.00     0.293 HD
ENDBRANCH  17  20
ENDBRANCH   1  12
BRANCH   2  22
ATOM     22  O   UNL     1      77.120 -25.220  85.030  1.00  0.00    -0.502 OA
ATOM     23  H   UNL     1      76.722 -25.694  84.228  1.00  0.00     0.293 HD
ENDBRANCH   2  22
BRANCH   6  24
ATOM     24  O   UNL     1      80.315 -22.963  88.462  1.00  0.00    -0.507 OA
ATOM     25  H   UNL     1      80.067 -23.198  89.416  1.00  0.00     0.293 HD
ENDBRANCH   6  24
BRANCH   8  26
ATOM     26  O   UNL     1      84.559 -24.932  87.282  1.00  0.00    -0.508 OA
ATOM     27  H   UNL     1      84.986 -25.805  87.566  1.00  0.00     0.293 HD
ENDBRANCH   8  26
TORSDOF 6
ENDMDL
MODEL 7
REMARK VINA RESULT:    -6.902      3.168      6.001
REMARK INTER + INTRA:          -8.538
REMARK INTER:                  -8.228
REMARK INTRA:                  -0.309
REMARK UNBOUND:                -0.224
REMARK SMILES O=c1c(O)c(-c2ccc(O)cc2O)oc2cc(O)cc(O)c12
REMARK SMILES IDX 5 1 3 2 2 3 1 4 22 5 20 6 19 7 17 8 16 9 15 10 14 11 6 12
REMARK SMILES IDX 8 13 7 14 9 15 11 16 12 17 10 18 13 20 4 22 21 24 18 26
REMARK H PARENT 10 19 13 21 4 23 21 25 18 27
REMARK Flexibility Score: inf
ROOT
ATOM      1  C   UNL     1      78.528 -26.596  85.464  1.00  0.00     0.184 A 
ATOM      2  C   UNL     1      77.857 -26.385  84.246  1.00  0.00     0.208 A 
ATOM      3  C   UNL     1      76.468 -26.189  84.263  1.00  0.00     0.238 A 
ATOM      4  O   UNL     1      75.854 -26.010  83.176  1.00  0.00    -0.285 OA
ATOM      5  C   UNL     1      75.780 -26.188  85.494  1.00  0.00     0.111 A 
ATOM      6  C   UNL     1      74.381 -25.994  85.599  1.00  0.00     0.134 A 
ATOM      7  C   UNL     1      73.771 -25.998  86.862  1.00  0.00     0.093 A 
ATOM      8  C   UNL     1      74.530 -26.190  88.019  1.00  0.00     0.123 A 
ATOM      9  C   UNL     1      75.912 -26.382  87.922  1.00  0.00     0.094 A 
ATOM     10  C   UNL     1      76.538 -26.384  86.672  1.00  0.00     0.146 A 
ATOM     11  O   UNL     1      77.852 -26.573  86.608  1.00  0.00    -0.451 OA
ENDROOT
BRANCH   1  12
ATOM     12  C   UNL     1      79.988 -26.820  85.517  1.00  0.00     0.063 A 
ATOM     13  C   UNL     1      82.188 -26.027  86.183  1.00  0.00     0.047 A 
ATOM     14  C   UNL     1      80.804 -25.845  86.111  1.00  0.00     0.020 A 
ATOM     15  C   UNL     1      82.770 -27.194  85.674  1.00  0.00     0.119 A 
ATOM     16  C   UNL     1      81.963 -28.181  85.101  1.00  0.00     0.093 A 
ATOM     17  C   UNL     1      80.572 -28.007  85.030  1.00  0.00     0.130 A 
BRANCH  15  18
ATOM     18  O   UNL     1      84.149 -27.385  85.736  1.00  0.00    -0.508 OA
ATOM     19  H   UNL     1      84.555 -28.145  86.268  1.00  0.00     0.293 HD
ENDBRANCH  15  18
BRANCH  17  20
ATOM     20  O   UNL     1      79.773 -29.021  84.501  1.00  0.00    -0.507 OA
ATOM     21  H   UNL     1      78.958 -28.816  83.934  1.00  0.00     0.293 HD
ENDBRANCH  17  20
ENDBRANCH   1  12
BRANCH   2  22
ATOM     22  O   UNL     1      78.574 -26.347  83.047  1.00  0.00    -0.502 OA
ATOM     23  H   UNL     1      78.666 -25.501  82.498  1.00  0.00     0.293 HD
ENDBRANCH   2  22
BRANCH   6  24
ATOM     24  O   UNL     1      73.596 -25.800  84.462  1.00  0.00    -0.507 OA
ATOM     25  H   UNL     1      73.502 -26.515  83.749  1.00  0.00     0.293 HD
ENDBRANCH   6  24
BRANCH   8  26
ATOM     26  O   UNL     1      73.900 -26.187  89.262  1.00  0.00    -0.508 OA
ATOM     27  H   UNL     1      73.996 -25.409  89.903  1.00  0.00     0.293 HD
ENDBRANCH   8  26
TORSDOF 6
ENDMDL
MODEL 8
REMARK VINA RESULT:    -6.594      2.605      3.359
REMARK INTER + INTRA:          -8.168
REMARK INTER:                  -7.751
REMARK INTRA:                  -0.417
REMARK UNBOUND:                -0.224
REMARK SMILES O=c1c(O)c(-c2ccc(O)cc2O)oc2cc(O)cc(O)c12
REMARK SMILES IDX 5 1 3 2 2 3 1 4 22 5 20 6 19 7 17 8 16 9 15 10 14 11 6 12
REMARK SMILES IDX 8 13 7 14 9 15 11 16 12 17 10 18 13 20 4 22 21 24 18 26
REMARK H PARENT 10 19 13 21 4 23 21 25 18 27
REMARK Flexibility Score: inf
ROOT
ATOM      1  C   UNL     1      78.158 -25.558  85.911  1.00  0.00     0.184 A 
ATOM      2  C   UNL     1      79.103 -26.477  85.420  1.00  0.00     0.208 A 
ATOM      3  C   UNL     1      80.461 -26.268  85.703  1.00  0.00     0.238 A 
ATOM      4  O   UNL     1      81.318 -27.079  85.259  1.00  0.00    -0.285 OA
ATOM      5  C   UNL     1      80.847 -25.159  86.484  1.00  0.00     0.111 A 
ATOM      6  C   UNL     1      82.194 -24.879  86.817  1.00  0.00     0.134 A 
ATOM      7  C   UNL     1      82.497 -23.760  87.607  1.00  0.00     0.093 A 
ATOM      8  C   UNL     1      81.482 -22.919  88.070  1.00  0.00     0.123 A 
ATOM      9  C   UNL     1      80.149 -23.191  87.744  1.00  0.00     0.094 A 
ATOM     10  C   UNL     1      79.827 -24.299  86.956  1.00  0.00     0.146 A 
ATOM     11  O   UNL     1      78.553 -24.532  86.658  1.00  0.00    -0.451 OA
ENDROOT
BRANCH   1  12
ATOM     12  C   UNL     1      76.713 -25.712  85.641  1.00  0.00     0.063 A 
ATOM     13  C   UNL     1      74.868 -25.571  84.064  1.00  0.00     0.047 A 
ATOM     14  C   UNL     1      76.228 -25.431  84.354  1.00  0.00     0.020 A 
ATOM     15  C   UNL     1      73.979 -26.007  85.054  1.00  0.00     0.119 A 
ATOM     16  C   UNL     1      74.457 -26.311  86.331  1.00  0.00     0.093 A 
ATOM     17  C   UNL     1      75.822 -26.179  86.630  1.00  0.00     0.130 A 
BRANCH  15  18
ATOM     18  O   UNL     1      72.621 -26.146  84.777  1.00  0.00    -0.508 OA
ATOM     19  H   UNL     1      72.033 -25.342  84.593  1.00  0.00     0.293 HD
ENDBRANCH  15  18
BRANCH  17  20
ATOM     20  O   UNL     1      76.293 -26.532  87.894  1.00  0.00    -0.507 OA
ATOM     21  H   UNL     1      76.287 -25.876  88.666  1.00  0.00     0.293 HD
ENDBRANCH  17  20
ENDBRANCH   1  12
BRANCH   2  22
ATOM     22  O   UNL     1      78.684 -27.591  84.688  1.00  0.00    -0.502 OA
ATOM     23  H   UNL     1      78.468 -27.539  83.700  1.00  0.00     0.293 HD
ENDBRANCH   2  22
BRANCH   6  24
ATOM     24  O   UNL     1      83.230 -25.699  86.371  1.00  0.00    -0.507 OA
ATOM     25  H   UNL     1      83.689 -25.543  85.480  1.00  0.00     0.293 HD
ENDBRANCH   6  24
BRANCH   8  26
ATOM     26  O   UNL     1      81.809 -21.815  88.854  1.00  0.00    -0.508 OA
ATOM     27  H   UNL     1      82.711 -21.360  88.781  1.00  0.00     0.293 HD
ENDBRANCH   8  26
TORSDOF 6
ENDMDL
MODEL 9
REMARK VINA RESULT:    -6.353      2.544      5.778
REMARK INTER + INTRA:          -7.877
REMARK INTER:                  -7.579
REMARK INTRA:                  -0.298
REMARK UNBOUND:                -0.224
REMARK SMILES O=c1c(O)c(-c2ccc(O)cc2O)oc2cc(O)cc(O)c12
REMARK SMILES IDX 5 1 3 2 2 3 1 4 22 5 20 6 19 7 17 8 16 9 15 10 14 11 6 12
REMARK SMILES IDX 8 13 7 14 9 15 11 16 12 17 10 18 13 20 4 22 21 24 18 26
REMARK H PARENT 10 19 13 21 4 23 21 25 18 27
REMARK Flexibility Score: inf
ROOT
ATOM      1  C   UNL     1      79.931 -26.242  85.895  1.00  0.00     0.184 A 
ATOM      2  C   UNL     1      79.772 -25.057  86.635  1.00  0.00     0.208 A 
ATOM      3  C   UNL     1      78.566 -24.347  86.525  1.00  0.00     0.238 A 
ATOM      4  O   UNL     1      78.416 -23.276  87.175  1.00  0.00    -0.285 OA
ATOM      5  C   UNL     1      77.539 -24.842  85.696  1.00  0.00     0.111 A 
ATOM      6  C   UNL     1      76.294 -24.190  85.532  1.00  0.00     0.134 A 
ATOM      7  C   UNL     1      75.318 -24.752  84.695  1.00  0.00     0.093 A 
ATOM      8  C   UNL     1      75.563 -25.950  84.021  1.00  0.00     0.123 A 
ATOM      9  C   UNL     1      76.791 -26.600  84.179  1.00  0.00     0.094 A 
ATOM     10  C   UNL     1      77.777 -26.055  85.007  1.00  0.00     0.146 A 
ATOM     11  O   UNL     1      78.937 -26.690  85.135  1.00  0.00    -0.451 OA
ENDROOT
BRANCH   1  12
ATOM     12  C   UNL     1      81.178 -27.033  85.955  1.00  0.00     0.063 A 
ATOM     13  C   UNL     1      82.295 -29.108  86.555  1.00  0.00     0.047 A 
ATOM     14  C   UNL     1      81.135 -28.331  86.488  1.00  0.00     0.020 A 
ATOM     15  C   UNL     1      83.509 -28.600  86.077  1.00  0.00     0.119 A 
ATOM     16  C   UNL     1      83.557 -27.318  85.524  1.00  0.00     0.093 A 
ATOM     17  C   UNL     1      82.395 -26.533  85.448  1.00  0.00     0.130 A 
BRANCH  15  18
ATOM     18  O   UNL     1      84.672 -29.364  86.143  1.00  0.00    -0.508 OA
ATOM     19  H   UNL     1      85.488 -29.136  85.587  1.00  0.00     0.293 HD
ENDBRANCH  15  18
BRANCH  17  20
ATOM     20  O   UNL     1      82.447 -25.274  84.849  1.00  0.00    -0.507 OA
ATOM     21  H   UNL     1      82.761 -24.456  85.358  1.00  0.00     0.293 HD
ENDBRANCH  17  20
ENDBRANCH   1  12
BRANCH   2  22
ATOM     22  O   UNL     1      80.791 -24.616  87.483  1.00  0.00    -0.502 OA
ATOM     23  H   UNL     1      81.048 -23.640  87.559  1.00  0.00     0.293 HD
ENDBRANCH   2  22
BRANCH   6  24
ATOM     24  O   UNL     1      76.019 -22.991  86.192  1.00  0.00    -0.507 OA
ATOM     25  H   UNL     1      76.432 -22.770  87.091  1.00  0.00     0.293 HD
ENDBRANCH   6  24
BRANCH   8  26
ATOM     26  O   UNL     1      74.576 -26.488  83.197  1.00  0.00    -0.508 OA
ATOM     27  H   UNL     1      74.361 -26.084  82.294  1.00  0.00     0.293 HD
ENDBRANCH   8  26
TORSDOF 6
ENDMDL
