MODEL 1
REMARK VINA RESULT:     0.687      0.000      0.000
REMARK INTER + INTRA:           0.860
REMARK INTER:                   0.828
REMARK INTRA:                   0.032
REMARK UNBOUND:                 0.032
REMARK SMILES O=c1c(O)c(-c2ccc(O)c(O)c2)oc2cc(O)cc(O)c12
REMARK SMILES IDX 5 1 3 2 2 3 1 4 22 5 20 6 19 7 17 8 16 9 15 10 14 11 6 12
REMARK SMILES IDX 7 13 8 14 9 15 13 16 11 17 10 18 12 20 4 22 21 24 18 26
REMARK H PARENT 10 19 12 21 4 23 21 25 18 27
REMARK Flexibility Score: inf
ROOT
ATOM      1  C   UNL     1      -9.245 -34.847   1.031  1.00  0.00     0.180 A 
ATOM      2  C   UNL     1      -8.029 -35.445   1.418  1.00  0.00     0.208 A 
ATOM      3  C   UNL     1      -7.636 -35.373   2.762  1.00  0.00     0.238 A 
ATOM      4  O   UNL     1      -6.545 -35.895   3.119  1.00  0.00    -0.285 OA
ATOM      5  C   UNL     1      -8.469 -34.726   3.699  1.00  0.00     0.111 A 
ATOM      6  C   UNL     1      -8.147 -34.613   5.073  1.00  0.00     0.134 A 
ATOM      7  C   UNL     1      -9.033 -33.962   5.944  1.00  0.00     0.093 A 
ATOM      8  C   UNL     1     -10.233 -33.422   5.467  1.00  0.00     0.123 A 
ATOM      9  C   UNL     1     -10.554 -33.530   4.113  1.00  0.00     0.094 A 
ATOM     10  C   UNL     1      -9.683 -34.175   3.229  1.00  0.00     0.146 A 
ATOM     11  O   UNL     1     -10.011 -34.259   1.944  1.00  0.00    -0.452 OA
ENDROOT
BRANCH   1  12
ATOM     12  C   UNL     1      -9.719 -34.865  -0.371  1.00  0.00     0.025 A 
ATOM     13  C   UNL     1      -9.767 -36.082  -1.070  1.00  0.00     0.016 A 
ATOM     14  C   UNL     1     -10.231 -36.124  -2.386  1.00  0.00     0.051 A 
ATOM     15  C   UNL     1     -10.670 -34.957  -3.020  1.00  0.00     0.157 A 
ATOM     16  C   UNL     1     -10.180 -33.696  -1.003  1.00  0.00     0.062 A 
ATOM     17  C   UNL     1     -10.648 -33.737  -2.325  1.00  0.00     0.158 A 
BRANCH  15  18
ATOM     18  O   UNL     1     -11.125 -35.031  -4.336  1.00  0.00    -0.504 OA
ATOM     19  H   UNL     1     -12.106 -35.154  -4.560  1.00  0.00     0.293 HD
ENDBRANCH  15  18
BRANCH  17  20
ATOM     20  O   UNL     1     -11.097 -32.572  -2.946  1.00  0.00    -0.504 OA
ATOM     21  H   UNL     1     -11.964 -32.548  -3.469  1.00  0.00     0.293 HD
ENDBRANCH  17  20
ENDBRANCH   1  12
BRANCH   2  22
ATOM     22  O   UNL     1      -7.247 -36.124   0.479  1.00  0.00    -0.502 OA
ATOM     23  H   UNL     1      -7.409 -36.048  -0.518  1.00  0.00     0.293 HD
ENDBRANCH   2  22
BRANCH   6  24
ATOM     24  O   UNL     1      -6.959 -35.141   5.578  1.00  0.00    -0.507 OA
ATOM     25  H   UNL     1      -6.952 -35.797   6.352  1.00  0.00     0.293 HD
ENDBRANCH   6  24
BRANCH   8  26
ATOM     26  O   UNL     1     -11.114 -32.775   6.331  1.00  0.00    -0.508 OA
ATOM     27  H   UNL     1     -12.081 -32.615   6.078  1.00  0.00     0.293 HD
ENDBRANCH   8  26
TORSDOF 6
ENDMDL
