MODEL 1
REMARK VINA RESULT:    -7.472      0.000      0.000
REMARK INTER + INTRA:          -7.796
REMARK INTER:                  -8.127
REMARK INTRA:                   0.332
REMARK UNBOUND:                 0.332
REMARK SMILES C[C@H]1[C@@H](C)CC[C@]2(C(=O)[O-])CC[C@@]3(C)C(=CC[C@@H]4[C@]5(C)CC[C@H](O)C(C)(C)[C@@H]5CC[C@]43C)[C@@H]12
REMARK SMILES IDX 7 1 6 2 11 3 33 4 5 5 12 6 15 7 2 8 3 9 13 10 16 11 1 12
REMARK SMILES IDX 4 13 14 14 31 15 17 16 18 17 30 18 32 19 19 20 29 21 28 22
REMARK SMILES IDX 21 23 20 24 25 25 22 26 23 27 26 28 27 29 8 30 9 31 10 32
REMARK SMILES IDX 24 33
REMARK H PARENT 24 34
REMARK Flexibility Score: inf
ROOT
ATOM      1  C   UNL     1      12.595  53.107  31.255  1.00  0.00     0.017 C 
ATOM      2  C   UNL     1      11.878  54.026  32.294  1.00  0.00     0.014 C 
ATOM      3  C   UNL     1      11.506  52.292  30.471  1.00  0.00     0.014 C 
ATOM      4  C   UNL     1      13.552  52.154  32.058  1.00  0.00     0.030 C 
ATOM      5  C   UNL     1      12.850  54.798  33.206  1.00  0.00     0.004 C 
ATOM      6  C   UNL     1      11.575  50.763  30.675  1.00  0.00     0.013 C 
ATOM      7  C   UNL     1      14.032  50.939  31.242  1.00  0.00    -0.063 C 
ATOM      8  C   UNL     1      14.573  52.907  32.983  1.00  0.00    -0.003 C 
ATOM      9  C   UNL     1      13.788  53.836  33.957  1.00  0.00    -0.011 C 
ATOM     10  C   UNL     1      12.982  50.123  30.424  1.00  0.00    -0.006 C 
ATOM     11  C   UNL     1      15.265  50.413  31.444  1.00  0.00    -0.027 C 
ATOM     12  C   UNL     1      15.708  53.653  32.240  1.00  0.00     0.008 C 
ATOM     13  C   UNL     1      14.699  54.595  34.939  1.00  0.00     0.008 C 
ATOM     14  C   UNL     1      13.336  50.411  28.929  1.00  0.00     0.017 C 
ATOM     15  C   UNL     1      13.022  48.495  30.767  1.00  0.00    -0.020 C 
ATOM     16  C   UNL     1      15.489  48.940  31.276  1.00  0.00     0.032 C 
ATOM     17  C   UNL     1      14.206  48.228  31.784  1.00  0.00     0.006 C 
ATOM     18  C   UNL     1      11.690  47.874  31.380  1.00  0.00     0.008 C 
ATOM     19  C   UNL     1      13.246  47.670  29.455  1.00  0.00     0.012 C 
ATOM     20  C   UNL     1      14.370  46.772  32.403  1.00  0.00    -0.025 C 
ATOM     21  C   UNL     1      11.810  47.310  32.798  1.00  0.00     0.005 C 
ATOM     22  C   UNL     1      12.983  46.295  33.035  1.00  0.00     0.003 C 
ATOM     23  C   UNL     1      15.020  45.774  31.365  1.00  0.00     0.010 C 
ATOM     24  C   UNL     1      15.380  46.901  33.601  1.00  0.00     0.012 C 
ATOM     25  C   UNL     1      12.661  44.750  32.896  1.00  0.00    -0.006 C 
ATOM     26  C   UNL     1      14.260  44.505  30.895  1.00  0.00     0.033 C 
ATOM     27  C   UNL     1      12.848  44.251  31.445  1.00  0.00     0.120 C 
ATOM     28  C   UNL     1      13.606  43.924  33.818  1.00  0.00     0.014 C 
ATOM     29  C   UNL     1      11.222  44.409  33.370  1.00  0.00     0.014 C 
ENDROOT
BRANCH   1  30
ATOM     30  C   UNL     1      13.347  53.967  30.240  1.00  0.00     0.048 C 
ATOM     31  O   UNL     1      13.149  55.210  30.182  1.00  0.00    -0.550 OA
ATOM     32  O   UNL     1      14.192  53.390  29.300  1.00  0.00    -0.550 OA
ENDBRANCH   1  30
BRANCH  27  33
ATOM     33  O   UNL     1      11.893  44.813  30.583  1.00  0.00    -0.393 OA
ATOM     34  H   UNL     1      12.310  45.588  30.120  1.00  0.00     0.210 HD
ENDBRANCH  27  33
TORSDOF 2
ENDMDL
MODEL 2
REMARK VINA RESULT:    -7.276      1.641      7.795
REMARK INTER + INTRA:          -7.582
REMARK INTER:                  -7.907
REMARK INTRA:                   0.325
REMARK UNBOUND:                 0.332
REMARK SMILES C[C@H]1[C@@H](C)CC[C@]2(C(=O)[O-])CC[C@@]3(C)C(=CC[C@@H]4[C@]5(C)CC[C@H](O)C(C)(C)[C@@H]5CC[C@]43C)[C@@H]12
REMARK SMILES IDX 7 1 6 2 11 3 33 4 5 5 12 6 15 7 2 8 3 9 13 10 16 11 1 12
REMARK SMILES IDX 4 13 14 14 31 15 17 16 18 17 30 18 32 19 19 20 29 21 28 22
REMARK SMILES IDX 21 23 20 24 25 25 22 26 23 27 26 28 27 29 8 30 9 31 10 32
REMARK SMILES IDX 24 33
REMARK H PARENT 24 34
REMARK Flexibility Score: inf
ROOT
ATOM      1  C   UNL     1      15.158  47.630  31.129  1.00  0.00     0.017 C 
ATOM      2  C   UNL     1      15.635  46.756  32.333  1.00  0.00     0.014 C 
ATOM      3  C   UNL     1      16.349  48.543  30.670  1.00  0.00     0.014 C 
ATOM      4  C   UNL     1      13.942  48.490  31.631  1.00  0.00     0.030 C 
ATOM      5  C   UNL     1      14.517  45.894  32.948  1.00  0.00     0.004 C 
ATOM      6  C   UNL     1      16.102  50.058  30.835  1.00  0.00     0.013 C 
ATOM      7  C   UNL     1      13.607  49.675  30.705  1.00  0.00    -0.063 C 
ATOM      8  C   UNL     1      12.772  47.642  32.244  1.00  0.00    -0.003 C 
ATOM      9  C   UNL     1      13.332  46.766  33.404  1.00  0.00    -0.011 C 
ATOM     10  C   UNL     1      14.771  50.585  30.202  1.00  0.00    -0.006 C 
ATOM     11  C   UNL     1      12.327  50.096  30.556  1.00  0.00    -0.027 C 
ATOM     12  C   UNL     1      11.950  46.819  31.224  1.00  0.00     0.008 C 
ATOM     13  C   UNL     1      12.253  45.920  34.104  1.00  0.00     0.008 C 
ATOM     14  C   UNL     1      14.866  50.292  28.669  1.00  0.00     0.017 C 
ATOM     15  C   UNL     1      14.504  52.199  30.508  1.00  0.00    -0.020 C 
ATOM     16  C   UNL     1      12.038  51.548  30.322  1.00  0.00     0.032 C 
ATOM     17  C   UNL     1      13.069  52.354  31.158  1.00  0.00     0.006 C 
ATOM     18  C   UNL     1      15.561  52.917  31.459  1.00  0.00     0.008 C 
ATOM     19  C   UNL     1      14.582  53.024  29.178  1.00  0.00     0.012 C 
ATOM     20  C   UNL     1      12.622  53.783  31.697  1.00  0.00    -0.025 C 
ATOM     21  C   UNL     1      15.010  53.448  32.785  1.00  0.00     0.005 C 
ATOM     22  C   UNL     1      13.737  54.360  32.682  1.00  0.00     0.003 C 
ATOM     23  C   UNL     1      12.203  54.739  30.512  1.00  0.00     0.010 C 
ATOM     24  C   UNL     1      11.335  53.553  32.572  1.00  0.00     0.012 C 
ATOM     25  C   UNL     1      13.957  55.928  32.625  1.00  0.00    -0.006 C 
ATOM     26  C   UNL     1      12.955  56.073  30.260  1.00  0.00     0.033 C 
ATOM     27  C   UNL     1      14.136  56.433  31.175  1.00  0.00     0.120 C 
ATOM     28  C   UNL     1      12.731  56.661  33.245  1.00  0.00     0.014 C 
ATOM     29  C   UNL     1      15.178  56.378  33.474  1.00  0.00     0.014 C 
ENDROOT
BRANCH   1  30
ATOM     30  C   UNL     1      14.787  46.728  29.953  1.00  0.00     0.048 C 
ATOM     31  O   UNL     1      15.075  45.501  29.972  1.00  0.00    -0.550 OA
ATOM     32  O   UNL     1      14.212  47.252  28.803  1.00  0.00    -0.550 OA
ENDBRANCH   1  30
BRANCH  27  33
ATOM     33  O   UNL     1      15.334  55.963  30.613  1.00  0.00    -0.393 OA
ATOM     34  H   UNL     1      15.338  54.970  30.675  1.00  0.00     0.210 HD
ENDBRANCH  27  33
TORSDOF 2
ENDMDL
MODEL 3
REMARK VINA RESULT:    -6.255      1.719      2.474
REMARK INTER + INTRA:          -6.471
REMARK INTER:                  -6.799
REMARK INTRA:                   0.328
REMARK UNBOUND:                 0.332
REMARK SMILES C[C@H]1[C@@H](C)CC[C@]2(C(=O)[O-])CC[C@@]3(C)C(=CC[C@@H]4[C@]5(C)CC[C@H](O)C(C)(C)[C@@H]5CC[C@]43C)[C@@H]12
REMARK SMILES IDX 7 1 6 2 11 3 33 4 5 5 12 6 15 7 2 8 3 9 13 10 16 11 1 12
REMARK SMILES IDX 4 13 14 14 31 15 17 16 18 17 30 18 32 19 19 20 29 21 28 22
REMARK SMILES IDX 21 23 20 24 25 25 22 26 23 27 26 28 27 29 8 30 9 31 10 32
REMARK SMILES IDX 24 33
REMARK H PARENT 24 34
REMARK Flexibility Score: inf
ROOT
ATOM      1  C   UNL     1      12.203  54.211  32.551  1.00  0.00     0.017 C 
ATOM      2  C   UNL     1      11.765  54.442  34.032  1.00  0.00     0.014 C 
ATOM      3  C   UNL     1      11.004  53.568  31.768  1.00  0.00     0.014 C 
ATOM      4  C   UNL     1      13.447  53.250  32.577  1.00  0.00     0.030 C 
ATOM      5  C   UNL     1      12.898  54.969  34.933  1.00  0.00     0.004 C 
ATOM      6  C   UNL     1      11.273  52.146  31.231  1.00  0.00     0.013 C 
ATOM      7  C   UNL     1      13.756  52.613  31.209  1.00  0.00    -0.063 C 
ATOM      8  C   UNL     1      14.632  53.766  33.468  1.00  0.00    -0.003 C 
ATOM      9  C   UNL     1      14.109  54.017  34.914  1.00  0.00    -0.011 C 
ATOM     10  C   UNL     1      12.582  51.993  30.388  1.00  0.00    -0.006 C 
ATOM     11  C   UNL     1      15.033  52.337  30.847  1.00  0.00    -0.027 C 
ATOM     12  C   UNL     1      15.404  54.979  32.899  1.00  0.00     0.008 C 
ATOM     13  C   UNL     1      15.207  54.489  35.884  1.00  0.00     0.008 C 
ATOM     14  C   UNL     1      12.423  52.936  29.152  1.00  0.00     0.017 C 
ATOM     15  C   UNL     1      12.877  50.419  29.931  1.00  0.00    -0.020 C 
ATOM     16  C   UNL     1      15.328  51.151  29.980  1.00  0.00     0.032 C 
ATOM     17  C   UNL     1      14.338  50.029  30.399  1.00  0.00     0.006 C 
ATOM     18  C   UNL     1      11.866  49.324  30.493  1.00  0.00     0.008 C 
ATOM     19  C   UNL     1      12.755  50.274  28.377  1.00  0.00     0.012 C 
ATOM     20  C   UNL     1      14.821  48.523  30.228  1.00  0.00    -0.025 C 
ATOM     21  C   UNL     1      12.475  48.272  31.424  1.00  0.00     0.005 C 
ATOM     22  C   UNL     1      13.751  47.536  30.885  1.00  0.00     0.003 C 
ATOM     23  C   UNL     1      15.202  48.207  28.728  1.00  0.00     0.010 C 
ATOM     24  C   UNL     1      16.139  48.371  31.072  1.00  0.00     0.012 C 
ATOM     25  C   UNL     1      13.545  46.153  30.139  1.00  0.00    -0.006 C 
ATOM     26  C   UNL     1      14.453  47.106  27.929  1.00  0.00     0.033 C 
ATOM     27  C   UNL     1      13.314  46.345  28.623  1.00  0.00     0.120 C 
ATOM     28  C   UNL     1      14.802  45.254  30.328  1.00  0.00     0.014 C 
ATOM     29  C   UNL     1      12.363  45.340  30.735  1.00  0.00     0.014 C 
ENDROOT
BRANCH   1  30
ATOM     30  C   UNL     1      12.518  55.553  31.892  1.00  0.00     0.048 C 
ATOM     31  O   UNL     1      12.179  56.633  32.445  1.00  0.00    -0.550 OA
ATOM     32  O   UNL     1      13.097  55.612  30.631  1.00  0.00    -0.550 OA
ENDBRANCH   1  30
BRANCH  27  33
ATOM     33  O   UNL     1      12.089  46.984  28.368  1.00  0.00    -0.393 OA
ATOM     34  H   UNL     1      11.660  46.532  27.592  1.00  0.00     0.210 HD
ENDBRANCH  27  33
TORSDOF 2
ENDMDL
MODEL 4
REMARK VINA RESULT:    -6.251      3.154      8.357
REMARK INTER + INTRA:          -6.468
REMARK INTER:                  -6.795
REMARK INTRA:                   0.327
REMARK UNBOUND:                 0.332
REMARK SMILES C[C@H]1[C@@H](C)CC[C@]2(C(=O)[O-])CC[C@@]3(C)C(=CC[C@@H]4[C@]5(C)CC[C@H](O)C(C)(C)[C@@H]5CC[C@]43C)[C@@H]12
REMARK SMILES IDX 7 1 6 2 11 3 33 4 5 5 12 6 15 7 2 8 3 9 13 10 16 11 1 12
REMARK SMILES IDX 4 13 14 14 31 15 17 16 18 17 30 18 32 19 19 20 29 21 28 22
REMARK SMILES IDX 21 23 20 24 25 25 22 26 23 27 26 28 27 29 8 30 9 31 10 32
REMARK SMILES IDX 24 33
REMARK H PARENT 24 34
REMARK Flexibility Score: inf
ROOT
ATOM      1  C   UNL     1      11.833  43.216  31.936  1.00  0.00     0.017 C 
ATOM      2  C   UNL     1      11.564  41.887  31.160  1.00  0.00     0.014 C 
ATOM      3  C   UNL     1      10.875  44.326  31.376  1.00  0.00     0.014 C 
ATOM      4  C   UNL     1      13.341  43.594  31.702  1.00  0.00     0.030 C 
ATOM      5  C   UNL     1      12.524  40.746  31.543  1.00  0.00     0.004 C 
ATOM      6  C   UNL     1      11.591  45.513  30.697  1.00  0.00     0.013 C 
ATOM      7  C   UNL     1      13.668  45.055  32.062  1.00  0.00    -0.063 C 
ATOM      8  C   UNL     1      14.352  42.461  32.103  1.00  0.00    -0.003 C 
ATOM      9  C   UNL     1      13.991  41.160  31.327  1.00  0.00    -0.011 C 
ATOM     10  C   UNL     1      12.718  46.184  31.550  1.00  0.00    -0.006 C 
ATOM     11  C   UNL     1      14.884  45.390  32.559  1.00  0.00    -0.027 C 
ATOM     12  C   UNL     1      14.501  42.221  33.624  1.00  0.00     0.008 C 
ATOM     13  C   UNL     1      14.951  39.992  31.619  1.00  0.00     0.008 C 
ATOM     14  C   UNL     1      12.027  46.733  32.840  1.00  0.00     0.017 C 
ATOM     15  C   UNL     1      13.528  47.382  30.725  1.00  0.00    -0.020 C 
ATOM     16  C   UNL     1      15.483  46.727  32.239  1.00  0.00     0.032 C 
ATOM     17  C   UNL     1      15.078  47.064  30.778  1.00  0.00     0.006 C 
ATOM     18  C   UNL     1      13.114  47.587  29.201  1.00  0.00     0.008 C 
ATOM     19  C   UNL     1      13.244  48.777  31.377  1.00  0.00     0.012 C 
ATOM     20  C   UNL     1      16.075  47.969  29.930  1.00  0.00    -0.025 C 
ATOM     21  C   UNL     1      14.212  47.311  28.170  1.00  0.00     0.005 C 
ATOM     22  C   UNL     1      15.580  48.041  28.414  1.00  0.00     0.003 C 
ATOM     23  C   UNL     1      16.323  49.363  30.629  1.00  0.00     0.010 C 
ATOM     24  C   UNL     1      17.457  47.220  29.908  1.00  0.00     0.012 C 
ATOM     25  C   UNL     1      15.817  49.426  27.680  1.00  0.00    -0.006 C 
ATOM     26  C   UNL     1      15.950  50.691  29.916  1.00  0.00     0.033 C 
ATOM     27  C   UNL     1      15.309  50.618  28.522  1.00  0.00     0.120 C 
ATOM     28  C   UNL     1      17.337  49.633  27.414  1.00  0.00     0.014 C 
ATOM     29  C   UNL     1      15.144  49.467  26.281  1.00  0.00     0.014 C 
ENDROOT
BRANCH   1  30
ATOM     30  C   UNL     1      11.504  43.024  33.416  1.00  0.00     0.048 C 
ATOM     31  O   UNL     1      10.894  41.992  33.807  1.00  0.00    -0.550 OA
ATOM     32  O   UNL     1      11.782  44.017  34.345  1.00  0.00    -0.550 OA
ENDBRANCH   1  30
BRANCH  27  33
ATOM     33  O   UNL     1      13.910  50.603  28.641  1.00  0.00    -0.393 OA
ATOM     34  H   UNL     1      13.556  49.892  28.041  1.00  0.00     0.210 HD
ENDBRANCH  27  33
TORSDOF 2
ENDMDL
MODEL 5
REMARK VINA RESULT:    -6.182      3.114      4.839
REMARK INTER + INTRA:          -6.393
REMARK INTER:                  -6.719
REMARK INTRA:                   0.327
REMARK UNBOUND:                 0.332
REMARK SMILES C[C@H]1[C@@H](C)CC[C@]2(C(=O)[O-])CC[C@@]3(C)C(=CC[C@@H]4[C@]5(C)CC[C@H](O)C(C)(C)[C@@H]5CC[C@]43C)[C@@H]12
REMARK SMILES IDX 7 1 6 2 11 3 33 4 5 5 12 6 15 7 2 8 3 9 13 10 16 11 1 12
REMARK SMILES IDX 4 13 14 14 31 15 17 16 18 17 30 18 32 19 19 20 29 21 28 22
REMARK SMILES IDX 21 23 20 24 25 25 22 26 23 27 26 28 27 29 8 30 9 31 10 32
REMARK SMILES IDX 24 33
REMARK H PARENT 24 34
REMARK Flexibility Score: inf
ROOT
ATOM      1  C   UNL     1      14.007  55.419  32.781  1.00  0.00     0.017 C 
ATOM      2  C   UNL     1      15.036  56.087  33.747  1.00  0.00     0.014 C 
ATOM      3  C   UNL     1      13.457  54.114  33.458  1.00  0.00     0.014 C 
ATOM      4  C   UNL     1      14.768  55.090  31.445  1.00  0.00     0.030 C 
ATOM      5  C   UNL     1      15.733  57.322  33.146  1.00  0.00     0.004 C 
ATOM      6  C   UNL     1      13.799  52.807  32.712  1.00  0.00     0.013 C 
ATOM      7  C   UNL     1      14.019  54.089  30.545  1.00  0.00    -0.063 C 
ATOM      8  C   UNL     1      15.472  56.331  30.791  1.00  0.00    -0.003 C 
ATOM      9  C   UNL     1      16.445  56.969  31.827  1.00  0.00    -0.011 C 
ATOM     10  C   UNL     1      13.430  52.796  31.191  1.00  0.00    -0.006 C 
ATOM     11  C   UNL     1      14.108  54.172  29.195  1.00  0.00    -0.027 C 
ATOM     12  C   UNL     1      14.518  57.371  30.156  1.00  0.00     0.008 C 
ATOM     13  C   UNL     1      17.220  58.177  31.269  1.00  0.00     0.008 C 
ATOM     14  C   UNL     1      11.880  52.987  31.113  1.00  0.00     0.017 C 
ATOM     15  C   UNL     1      13.922  51.408  30.416  1.00  0.00    -0.020 C 
ATOM     16  C   UNL     1      14.058  52.927  28.362  1.00  0.00     0.032 C 
ATOM     17  C   UNL     1      14.796  51.819  29.162  1.00  0.00     0.006 C 
ATOM     18  C   UNL     1      14.762  50.376  31.291  1.00  0.00     0.008 C 
ATOM     19  C   UNL     1      12.679  50.575  29.953  1.00  0.00     0.012 C 
ATOM     20  C   UNL     1      15.528  50.677  28.330  1.00  0.00    -0.025 C 
ATOM     21  C   UNL     1      16.201  50.129  30.829  1.00  0.00     0.005 C 
ATOM     22  C   UNL     1      16.380  49.755  29.316  1.00  0.00     0.003 C 
ATOM     23  C   UNL     1      14.517  49.911  27.390  1.00  0.00     0.010 C 
ATOM     24  C   UNL     1      16.565  51.396  27.391  1.00  0.00     0.012 C 
ATOM     25  C   UNL     1      16.436  48.217  28.939  1.00  0.00    -0.006 C 
ATOM     26  C   UNL     1      14.277  48.386  27.550  1.00  0.00     0.033 C 
ATOM     27  C   UNL     1      15.029  47.639  28.662  1.00  0.00     0.120 C 
ATOM     28  C   UNL     1      17.303  48.014  27.661  1.00  0.00     0.014 C 
ATOM     29  C   UNL     1      17.126  47.369  30.043  1.00  0.00     0.014 C 
ENDROOT
BRANCH   1  30
ATOM     30  C   UNL     1      12.823  56.360  32.560  1.00  0.00     0.048 C 
ATOM     31  O   UNL     1      12.649  57.356  33.311  1.00  0.00    -0.550 OA
ATOM     32  O   UNL     1      11.865  56.088  31.592  1.00  0.00    -0.550 OA
ENDBRANCH   1  30
BRANCH  27  33
ATOM     33  O   UNL     1      14.249  47.611  29.829  1.00  0.00    -0.393 OA
ATOM     34  H   UNL     1      14.852  47.438  30.602  1.00  0.00     0.210 HD
ENDBRANCH  27  33
TORSDOF 2
ENDMDL
MODEL 6
REMARK VINA RESULT:    -6.060      3.483      7.918
REMARK INTER + INTRA:          -6.259
REMARK INTER:                  -6.682
REMARK INTRA:                   0.423
REMARK UNBOUND:                 0.332
REMARK SMILES C[C@H]1[C@@H](C)CC[C@]2(C(=O)[O-])CC[C@@]3(C)C(=CC[C@@H]4[C@]5(C)CC[C@H](O)C(C)(C)[C@@H]5CC[C@]43C)[C@@H]12
REMARK SMILES IDX 7 1 6 2 11 3 33 4 5 5 12 6 15 7 2 8 3 9 13 10 16 11 1 12
REMARK SMILES IDX 4 13 14 14 31 15 17 16 18 17 30 18 32 19 19 20 29 21 28 22
REMARK SMILES IDX 21 23 20 24 25 25 22 26 23 27 26 28 27 29 8 30 9 31 10 32
REMARK SMILES IDX 24 33
REMARK H PARENT 24 34
REMARK Flexibility Score: inf
ROOT
ATOM      1  C   UNL     1      15.031  46.167  31.950  1.00  0.00     0.017 C 
ATOM      2  C   UNL     1      14.764  46.437  33.465  1.00  0.00     0.014 C 
ATOM      3  C   UNL     1      16.508  46.584  31.619  1.00  0.00     0.014 C 
ATOM      4  C   UNL     1      14.000  47.029  31.135  1.00  0.00     0.030 C 
ATOM      5  C   UNL     1      13.308  46.172  33.890  1.00  0.00     0.004 C 
ATOM      6  C   UNL     1      16.639  47.748  30.614  1.00  0.00     0.013 C 
ATOM      7  C   UNL     1      14.373  47.184  29.648  1.00  0.00    -0.063 C 
ATOM      8  C   UNL     1      12.501  46.768  31.525  1.00  0.00    -0.003 C 
ATOM      9  C   UNL     1      12.324  47.012  33.054  1.00  0.00    -0.011 C 
ATOM     10  C   UNL     1      15.841  47.566  29.280  1.00  0.00    -0.006 C 
ATOM     11  C   UNL     1      13.410  47.272  28.699  1.00  0.00    -0.027 C 
ATOM     12  C   UNL     1      11.931  45.402  31.074  1.00  0.00     0.008 C 
ATOM     13  C   UNL     1      10.875  46.822  33.536  1.00  0.00     0.008 C 
ATOM     14  C   UNL     1      16.420  46.288  28.592  1.00  0.00     0.017 C 
ATOM     15  C   UNL     1      15.930  48.898  28.286  1.00  0.00    -0.020 C 
ATOM     16  C   UNL     1      13.637  48.108  27.475  1.00  0.00     0.032 C 
ATOM     17  C   UNL     1      14.457  49.348  27.922  1.00  0.00     0.006 C 
ATOM     18  C   UNL     1      16.706  50.160  28.871  1.00  0.00     0.008 C 
ATOM     19  C   UNL     1      16.722  48.549  26.981  1.00  0.00     0.012 C 
ATOM     20  C   UNL     1      14.248  50.699  27.107  1.00  0.00    -0.025 C 
ATOM     21  C   UNL     1      15.865  51.424  29.072  1.00  0.00     0.005 C 
ATOM     22  C   UNL     1      15.024  51.891  27.832  1.00  0.00     0.003 C 
ATOM     23  C   UNL     1      14.581  50.505  25.576  1.00  0.00     0.010 C 
ATOM     24  C   UNL     1      12.718  51.050  27.197  1.00  0.00     0.012 C 
ATOM     25  C   UNL     1      15.668  52.974  26.871  1.00  0.00    -0.006 C 
ATOM     26  C   UNL     1      15.707  51.329  24.894  1.00  0.00     0.033 C 
ATOM     27  C   UNL     1      16.508  52.323  25.749  1.00  0.00     0.120 C 
ATOM     28  C   UNL     1      14.549  53.828  26.206  1.00  0.00     0.014 C 
ATOM     29  C   UNL     1      16.554  53.989  27.646  1.00  0.00     0.014 C 
ENDROOT
BRANCH   1  30
ATOM     30  C   UNL     1      14.897  44.672  31.663  1.00  0.00     0.048 C 
ATOM     31  O   UNL     1      15.046  44.229  30.493  1.00  0.00    -0.550 OA
ATOM     32  O   UNL     1      14.517  43.784  32.660  1.00  0.00    -0.550 OA
ENDBRANCH   1  30
BRANCH  27  33
ATOM     33  O   UNL     1      17.652  51.693  26.265  1.00  0.00    -0.393 OA
ATOM     34  H   UNL     1      18.445  52.245  26.024  1.00  0.00     0.210 HD
ENDBRANCH  27  33
TORSDOF 2
ENDMDL
MODEL 7
REMARK VINA RESULT:    -5.771      3.203      9.035
REMARK INTER + INTRA:          -5.945
REMARK INTER:                  -6.272
REMARK INTRA:                   0.326
REMARK UNBOUND:                 0.332
REMARK SMILES C[C@H]1[C@@H](C)CC[C@]2(C(=O)[O-])CC[C@@]3(C)C(=CC[C@@H]4[C@]5(C)CC[C@H](O)C(C)(C)[C@@H]5CC[C@]43C)[C@@H]12
REMARK SMILES IDX 7 1 6 2 11 3 33 4 5 5 12 6 15 7 2 8 3 9 13 10 16 11 1 12
REMARK SMILES IDX 4 13 14 14 31 15 17 16 18 17 30 18 32 19 19 20 29 21 28 22
REMARK SMILES IDX 21 23 20 24 25 25 22 26 23 27 26 28 27 29 8 30 9 31 10 32
REMARK SMILES IDX 24 33
REMARK H PARENT 24 34
REMARK Flexibility Score: inf
ROOT
ATOM      1  C   UNL     1      15.324  50.842  28.460  1.00  0.00     0.017 C 
ATOM      2  C   UNL     1      16.279  49.679  28.875  1.00  0.00     0.014 C 
ATOM      3  C   UNL     1      16.127  51.855  27.569  1.00  0.00     0.014 C 
ATOM      4  C   UNL     1      14.817  51.524  29.782  1.00  0.00     0.030 C 
ATOM      5  C   UNL     1      15.635  48.673  29.848  1.00  0.00     0.004 C 
ATOM      6  C   UNL     1      16.281  53.266  28.176  1.00  0.00     0.013 C 
ATOM      7  C   UNL     1      14.191  52.913  29.553  1.00  0.00    -0.063 C 
ATOM      8  C   UNL     1      14.134  50.532  30.789  1.00  0.00    -0.003 C 
ATOM      9  C   UNL     1      15.127  49.378  31.119  1.00  0.00    -0.011 C 
ATOM     10  C   UNL     1      14.946  53.935  28.646  1.00  0.00    -0.006 C 
ATOM     11  C   UNL     1      13.170  53.348  30.331  1.00  0.00    -0.027 C 
ATOM     12  C   UNL     1      12.743  50.010  30.358  1.00  0.00     0.008 C 
ATOM     13  C   UNL     1      14.567  48.366  32.135  1.00  0.00     0.008 C 
ATOM     14  C   UNL     1      14.049  54.070  27.373  1.00  0.00     0.017 C 
ATOM     15  C   UNL     1      15.186  55.403  29.392  1.00  0.00    -0.020 C 
ATOM     16  C   UNL     1      13.041  54.807  30.651  1.00  0.00     0.032 C 
ATOM     17  C   UNL     1      14.481  55.364  30.809  1.00  0.00     0.006 C 
ATOM     18  C   UNL     1      16.701  55.845  29.602  1.00  0.00     0.008 C 
ATOM     19  C   UNL     1      14.581  56.558  28.524  1.00  0.00     0.012 C 
ATOM     20  C   UNL     1      14.691  56.589  31.803  1.00  0.00    -0.025 C 
ATOM     21  C   UNL     1      17.157  55.991  31.056  1.00  0.00     0.005 C 
ATOM     22  C   UNL     1      16.250  56.887  31.971  1.00  0.00     0.003 C 
ATOM     23  C   UNL     1      13.806  57.828  31.383  1.00  0.00     0.010 C 
ATOM     24  C   UNL     1      14.175  56.121  33.213  1.00  0.00     0.012 C 
ATOM     25  C   UNL     1      16.644  58.413  32.131  1.00  0.00    -0.006 C 
ATOM     26  C   UNL     1      14.460  59.187  31.013  1.00  0.00     0.033 C 
ATOM     27  C   UNL     1      15.992  59.294  31.040  1.00  0.00     0.120 C 
ATOM     28  C   UNL     1      16.179  58.940  33.521  1.00  0.00     0.014 C 
ATOM     29  C   UNL     1      18.182  58.625  32.104  1.00  0.00     0.014 C 
ENDROOT
BRANCH   1  30
ATOM     30  C   UNL     1      14.178  50.290  27.613  1.00  0.00     0.048 C 
ATOM     31  O   UNL     1      14.230  49.118  27.152  1.00  0.00    -0.550 OA
ATOM     32  O   UNL     1      13.102  51.092  27.255  1.00  0.00    -0.550 OA
ENDBRANCH   1  30
BRANCH  27  33
ATOM     33  O   UNL     1      16.513  59.004  29.769  1.00  0.00    -0.393 OA
ATOM     34  H   UNL     1      16.843  58.065  29.776  1.00  0.00     0.210 HD
ENDBRANCH  27  33
TORSDOF 2
ENDMDL
MODEL 8
REMARK VINA RESULT:    -5.580      1.818      2.340
REMARK INTER + INTRA:          -5.737
REMARK INTER:                  -6.143
REMARK INTRA:                   0.405
REMARK UNBOUND:                 0.332
REMARK SMILES C[C@H]1[C@@H](C)CC[C@]2(C(=O)[O-])CC[C@@]3(C)C(=CC[C@@H]4[C@]5(C)CC[C@H](O)C(C)(C)[C@@H]5CC[C@]43C)[C@@H]12
REMARK SMILES IDX 7 1 6 2 11 3 33 4 5 5 12 6 15 7 2 8 3 9 13 10 16 11 1 12
REMARK SMILES IDX 4 13 14 14 31 15 17 16 18 17 30 18 32 19 19 20 29 21 28 22
REMARK SMILES IDX 21 23 20 24 25 25 22 26 23 27 26 28 27 29 8 30 9 31 10 32
REMARK SMILES IDX 24 33
REMARK H PARENT 24 34
REMARK Flexibility Score: inf
ROOT
ATOM      1  C   UNL     1      13.544  53.150  29.843  1.00  0.00     0.017 C 
ATOM      2  C   UNL     1      12.289  53.799  30.509  1.00  0.00     0.014 C 
ATOM      3  C   UNL     1      13.090  52.407  28.536  1.00  0.00     0.014 C 
ATOM      4  C   UNL     1      14.157  52.145  30.885  1.00  0.00     0.030 C 
ATOM      5  C   UNL     1      12.588  54.466  31.865  1.00  0.00     0.004 C 
ATOM      6  C   UNL     1      13.300  50.878  28.558  1.00  0.00     0.013 C 
ATOM      7  C   UNL     1      15.148  51.146  30.260  1.00  0.00    -0.063 C 
ATOM      8  C   UNL     1      14.496  52.796  32.273  1.00  0.00    -0.003 C 
ATOM      9  C   UNL     1      13.211  53.460  32.851  1.00  0.00    -0.011 C 
ATOM     10  C   UNL     1      14.744  50.413  28.942  1.00  0.00    -0.006 C 
ATOM     11  C   UNL     1      16.213  50.694  30.967  1.00  0.00    -0.027 C 
ATOM     12  C   UNL     1      15.710  53.755  32.272  1.00  0.00     0.008 C 
ATOM     13  C   UNL     1      13.426  54.096  34.237  1.00  0.00     0.008 C 
ATOM     14  C   UNL     1      15.700  51.001  27.855  1.00  0.00     0.017 C 
ATOM     15  C   UNL     1      14.881  48.758  29.058  1.00  0.00    -0.020 C 
ATOM     16  C   UNL     1      16.722  49.301  30.749  1.00  0.00     0.032 C 
ATOM     17  C   UNL     1      15.482  48.405  30.479  1.00  0.00     0.006 C 
ATOM     18  C   UNL     1      13.536  47.928  28.867  1.00  0.00     0.008 C 
ATOM     19  C   UNL     1      15.818  48.211  27.928  1.00  0.00     0.012 C 
ATOM     20  C   UNL     1      15.571  46.877  30.915  1.00  0.00    -0.025 C 
ATOM     21  C   UNL     1      13.072  47.122  30.084  1.00  0.00     0.005 C 
ATOM     22  C   UNL     1      14.147  46.181  30.732  1.00  0.00     0.003 C 
ATOM     23  C   UNL     1      16.779  46.146  30.208  1.00  0.00     0.010 C 
ATOM     24  C   UNL     1      15.874  46.864  32.458  1.00  0.00     0.012 C 
ATOM     25  C   UNL     1      14.178  44.667  30.264  1.00  0.00    -0.006 C 
ATOM     26  C   UNL     1      16.539  44.928  29.276  1.00  0.00     0.033 C 
ATOM     27  C   UNL     1      15.095  44.462  29.037  1.00  0.00     0.120 C 
ATOM     28  C   UNL     1      14.705  43.765  31.418  1.00  0.00     0.014 C 
ATOM     29  C   UNL     1      12.759  44.128  29.935  1.00  0.00     0.014 C 
ENDROOT
BRANCH   1  30
ATOM     30  C   UNL     1      14.532  54.241  29.435  1.00  0.00     0.048 C 
ATOM     31  O   UNL     1      15.679  53.939  29.009  1.00  0.00    -0.550 OA
ATOM     32  O   UNL     1      14.227  55.585  29.610  1.00  0.00    -0.550 OA
ENDBRANCH   1  30
BRANCH  27  33
ATOM     33  O   UNL     1      14.573  45.094  27.896  1.00  0.00    -0.393 OA
ATOM     34  H   UNL     1      14.494  46.067  28.090  1.00  0.00     0.210 HD
ENDBRANCH  27  33
TORSDOF 2
ENDMDL
MODEL 9
REMARK VINA RESULT:    -5.295      3.336      5.751
REMARK INTER + INTRA:          -5.427
REMARK INTER:                  -5.771
REMARK INTRA:                   0.344
REMARK UNBOUND:                 0.332
REMARK SMILES C[C@H]1[C@@H](C)CC[C@]2(C(=O)[O-])CC[C@@]3(C)C(=CC[C@@H]4[C@]5(C)CC[C@H](O)C(C)(C)[C@@H]5CC[C@]43C)[C@@H]12
REMARK SMILES IDX 7 1 6 2 11 3 33 4 5 5 12 6 15 7 2 8 3 9 13 10 16 11 1 12
REMARK SMILES IDX 4 13 14 14 31 15 17 16 18 17 30 18 32 19 19 20 29 21 28 22
REMARK SMILES IDX 21 23 20 24 25 25 22 26 23 27 26 28 27 29 8 30 9 31 10 32
REMARK SMILES IDX 24 33
REMARK H PARENT 24 34
REMARK Flexibility Score: inf
ROOT
ATOM      1  C   UNL     1      15.882  48.546  29.514  1.00  0.00     0.017 C 
ATOM      2  C   UNL     1      16.678  48.637  28.174  1.00  0.00     0.014 C 
ATOM      3  C   UNL     1      16.759  47.778  30.566  1.00  0.00     0.014 C 
ATOM      4  C   UNL     1      14.548  47.772  29.211  1.00  0.00     0.030 C 
ATOM      5  C   UNL     1      15.876  49.274  27.024  1.00  0.00     0.004 C 
ATOM      6  C   UNL     1      16.162  46.438  31.047  1.00  0.00     0.013 C 
ATOM      7  C   UNL     1      13.839  47.255  30.478  1.00  0.00    -0.063 C 
ATOM      8  C   UNL     1      13.691  48.406  28.059  1.00  0.00    -0.003 C 
ATOM      9  C   UNL     1      14.564  48.507  26.772  1.00  0.00    -0.011 C 
ATOM     10  C   UNL     1      14.686  46.516  31.561  1.00  0.00    -0.006 C 
ATOM     11  C   UNL     1      12.487  47.184  30.534  1.00  0.00    -0.027 C 
ATOM     12  C   UNL     1      13.000  49.745  28.412  1.00  0.00     0.008 C 
ATOM     13  C   UNL     1      13.802  49.082  25.564  1.00  0.00     0.008 C 
ATOM     14  C   UNL     1      14.697  47.488  32.785  1.00  0.00     0.017 C 
ATOM     15  C   UNL     1      14.061  45.026  31.960  1.00  0.00    -0.020 C 
ATOM     16  C   UNL     1      11.826  46.096  31.326  1.00  0.00     0.032 C 
ATOM     17  C   UNL     1      12.704  44.826  31.169  1.00  0.00     0.006 C 
ATOM     18  C   UNL     1      14.997  43.771  31.669  1.00  0.00     0.008 C 
ATOM     19  C   UNL     1      13.799  44.943  33.502  1.00  0.00     0.012 C 
ATOM     20  C   UNL     1      11.974  43.414  31.245  1.00  0.00    -0.025 C 
ATOM     21  C   UNL     1      14.467  42.771  30.637  1.00  0.00     0.005 C 
ATOM     22  C   UNL     1      13.005  42.253  30.873  1.00  0.00     0.003 C 
ATOM     23  C   UNL     1      11.215  43.232  32.618  1.00  0.00     0.010 C 
ATOM     24  C   UNL     1      10.878  43.410  30.117  1.00  0.00     0.012 C 
ATOM     25  C   UNL     1      12.824  40.894  31.668  1.00  0.00    -0.006 C 
ATOM     26  C   UNL     1      11.586  42.077  33.588  1.00  0.00     0.033 C 
ATOM     27  C   UNL     1      12.726  41.127  33.193  1.00  0.00     0.120 C 
ATOM     28  C   UNL     1      11.523  40.175  31.203  1.00  0.00     0.014 C 
ATOM     29  C   UNL     1      13.974  39.891  31.379  1.00  0.00     0.014 C 
ENDROOT
BRANCH   1  30
ATOM     30  C   UNL     1      15.630  49.951  30.060  1.00  0.00     0.048 C 
ATOM     31  O   UNL     1      16.130  50.958  29.490  1.00  0.00    -0.550 OA
ATOM     32  O   UNL     1      14.927  50.143  31.242  1.00  0.00    -0.550 OA
ENDBRANCH   1  30
BRANCH  27  33
ATOM     33  O   UNL     1      13.941  41.596  33.718  1.00  0.00    -0.393 OA
ATOM     34  H   UNL     1      13.940  42.590  33.661  1.00  0.00     0.210 HD
ENDBRANCH  27  33
TORSDOF 2
ENDMDL
