MODEL 1
REMARK VINA RESULT:    -5.733      0.000      0.000
REMARK INTER + INTRA:          -7.226
REMARK INTER:                  -6.906
REMARK INTRA:                  -0.319
REMARK UNBOUND:                -0.319
REMARK SMILES O=c1c(O)c(-c2ccc(O)c(O)c2)oc2cc(O)cc(O)c12
REMARK SMILES IDX 5 1 3 2 2 3 1 4 22 5 20 6 19 7 17 8 16 9 15 10 14 11 6 12
REMARK SMILES IDX 7 13 8 14 9 15 13 16 11 17 10 18 12 20 4 22 21 24 18 26
REMARK H PARENT 10 19 12 21 4 23 21 25 18 27
REMARK Flexibility Score: inf
ROOT
ATOM      1  C   UNL     1     155.658 150.458 142.842  1.00  0.00     0.180 A 
ATOM      2  C   UNL     1     156.792 150.880 143.557  1.00  0.00     0.208 A 
ATOM      3  C   UNL     1     157.866 149.990 143.717  1.00  0.00     0.238 A 
ATOM      4  O   UNL     1     158.856 150.355 144.405  1.00  0.00    -0.285 OA
ATOM      5  C   UNL     1     157.800 148.696 143.147  1.00  0.00     0.111 A 
ATOM      6  C   UNL     1     158.847 147.727 143.212  1.00  0.00     0.134 A 
ATOM      7  C   UNL     1     158.621 146.434 142.725  1.00  0.00     0.093 A 
ATOM      8  C   UNL     1     157.410 146.094 142.116  1.00  0.00     0.123 A 
ATOM      9  C   UNL     1     156.405 147.050 141.995  1.00  0.00     0.094 A 
ATOM     10  C   UNL     1     156.587 148.339 142.503  1.00  0.00     0.146 A 
ATOM     11  O   UNL     1     155.599 149.216 142.375  1.00  0.00    -0.452 OA
ENDROOT
BRANCH   1  12
ATOM     12  C   UNL     1     154.497 151.348 142.611  1.00  0.00     0.025 A 
ATOM     13  C   UNL     1     154.457 152.145 141.456  1.00  0.00     0.016 A 
ATOM     14  C   UNL     1     153.382 153.007 141.228  1.00  0.00     0.051 A 
ATOM     15  C   UNL     1     152.339 153.098 142.155  1.00  0.00     0.157 A 
ATOM     16  C   UNL     1     153.457 151.456 143.552  1.00  0.00     0.062 A 
ATOM     17  C   UNL     1     152.378 152.323 143.325  1.00  0.00     0.158 A 
BRANCH  15  18
ATOM     18  O   UNL     1     151.278 153.966 141.899  1.00  0.00    -0.504 OA
ATOM     19  H   UNL     1     150.379 153.634 141.569  1.00  0.00     0.293 HD
ENDBRANCH  15  18
BRANCH  17  20
ATOM     20  O   UNL     1     151.349 152.418 144.261  1.00  0.00    -0.504 OA
ATOM     21  H   UNL     1     151.364 153.111 145.000  1.00  0.00     0.293 HD
ENDBRANCH  17  20
ENDBRANCH   1  12
BRANCH   2  22
ATOM     22  O   UNL     1     156.828 152.154 144.131  1.00  0.00    -0.502 OA
ATOM     23  H   UNL     1     157.181 152.321 145.066  1.00  0.00     0.293 HD
ENDBRANCH   2  22
BRANCH   6  24
ATOM     24  O   UNL     1     160.123 147.991 143.716  1.00  0.00    -0.507 OA
ATOM     25  H   UNL     1     160.927 147.397 143.584  1.00  0.00     0.293 HD
ENDBRANCH   6  24
BRANCH   8  26
ATOM     26  O   UNL     1     157.200 144.810 141.621  1.00  0.00    -0.508 OA
ATOM     27  H   UNL     1     157.965 144.156 141.499  1.00  0.00     0.293 HD
ENDBRANCH   8  26
TORSDOF 6
ENDMDL
MODEL 2
REMARK VINA RESULT:    -5.663      2.682      8.261
REMARK INTER + INTRA:          -7.141
REMARK INTER:                  -6.846
REMARK INTRA:                  -0.295
REMARK UNBOUND:                -0.319
REMARK SMILES O=c1c(O)c(-c2ccc(O)c(O)c2)oc2cc(O)cc(O)c12
REMARK SMILES IDX 5 1 3 2 2 3 1 4 22 5 20 6 19 7 17 8 16 9 15 10 14 11 6 12
REMARK SMILES IDX 7 13 8 14 9 15 13 16 11 17 10 18 12 20 4 22 21 24 18 26
REMARK H PARENT 10 19 12 21 4 23 21 25 18 27
REMARK Flexibility Score: inf
ROOT
ATOM      1  C   UNL     1     152.604 153.034 142.525  1.00  0.00     0.180 A 
ATOM      2  C   UNL     1     152.601 154.203 141.746  1.00  0.00     0.208 A 
ATOM      3  C   UNL     1     151.389 154.881 141.541  1.00  0.00     0.238 A 
ATOM      4  O   UNL     1     151.383 155.898 140.798  1.00  0.00    -0.285 OA
ATOM      5  C   UNL     1     150.199 154.392 142.131  1.00  0.00     0.111 A 
ATOM      6  C   UNL     1     148.922 155.021 142.023  1.00  0.00     0.134 A 
ATOM      7  C   UNL     1     147.790 154.378 142.539  1.00  0.00     0.093 A 
ATOM      8  C   UNL     1     147.898 153.160 143.215  1.00  0.00     0.123 A 
ATOM      9  C   UNL     1     149.148 152.568 143.377  1.00  0.00     0.094 A 
ATOM     10  C   UNL     1     150.291 153.167 142.843  1.00  0.00     0.146 A 
ATOM     11  O   UNL     1     151.462 152.563 143.011  1.00  0.00    -0.452 OA
ENDROOT
BRANCH   1  12
ATOM     12  C   UNL     1     153.847 152.278 142.806  1.00  0.00     0.025 A 
ATOM     13  C   UNL     1     154.085 151.067 142.139  1.00  0.00     0.016 A 
ATOM     14  C   UNL     1     155.239 150.327 142.403  1.00  0.00     0.051 A 
ATOM     15  C   UNL     1     156.167 150.777 143.348  1.00  0.00     0.157 A 
ATOM     16  C   UNL     1     154.770 152.719 143.772  1.00  0.00     0.062 A 
ATOM     17  C   UNL     1     155.930 151.976 144.040  1.00  0.00     0.158 A 
BRANCH  15  18
ATOM     18  O   UNL     1     157.311 150.018 143.589  1.00  0.00    -0.504 OA
ATOM     19  H   UNL     1     157.306 149.006 143.540  1.00  0.00     0.293 HD
ENDBRANCH  15  18
BRANCH  17  20
ATOM     20  O   UNL     1     156.842 152.424 144.993  1.00  0.00    -0.504 OA
ATOM     21  H   UNL     1     157.828 152.197 144.934  1.00  0.00     0.293 HD
ENDBRANCH  17  20
ENDBRANCH   1  12
BRANCH   2  22
ATOM     22  O   UNL     1     153.783 154.658 141.154  1.00  0.00    -0.502 OA
ATOM     23  H   UNL     1     153.788 155.295 140.366  1.00  0.00     0.293 HD
ENDBRANCH   2  22
BRANCH   6  24
ATOM     24  O   UNL     1     148.718 156.279 141.450  1.00  0.00    -0.507 OA
ATOM     25  H   UNL     1     149.027 156.547 140.528  1.00  0.00     0.293 HD
ENDBRANCH   6  24
BRANCH   8  26
ATOM     26  O   UNL     1     146.769 152.535 143.738  1.00  0.00    -0.508 OA
ATOM     27  H   UNL     1     146.265 151.827 143.216  1.00  0.00     0.293 HD
ENDBRANCH   8  26
TORSDOF 6
ENDMDL
MODEL 3
REMARK VINA RESULT:    -5.656      2.447      7.835
REMARK INTER + INTRA:          -7.133
REMARK INTER:                  -6.810
REMARK INTRA:                  -0.323
REMARK UNBOUND:                -0.319
REMARK SMILES O=c1c(O)c(-c2ccc(O)c(O)c2)oc2cc(O)cc(O)c12
REMARK SMILES IDX 5 1 3 2 2 3 1 4 22 5 20 6 19 7 17 8 16 9 15 10 14 11 6 12
REMARK SMILES IDX 7 13 8 14 9 15 13 16 11 17 10 18 12 20 4 22 21 24 18 26
REMARK H PARENT 10 19 12 21 4 23 21 25 18 27
REMARK Flexibility Score: inf
ROOT
ATOM      1  C   UNL     1     153.904 152.053 143.257  1.00  0.00     0.180 A 
ATOM      2  C   UNL     1     152.762 151.263 143.470  1.00  0.00     0.208 A 
ATOM      3  C   UNL     1     151.503 151.780 143.124  1.00  0.00     0.238 A 
ATOM      4  O   UNL     1     150.478 151.088 143.367  1.00  0.00    -0.285 OA
ATOM      5  C   UNL     1     151.403 153.072 142.556  1.00  0.00     0.111 A 
ATOM      6  C   UNL     1     150.183 153.679 142.131  1.00  0.00     0.134 A 
ATOM      7  C   UNL     1     150.189 155.012 141.703  1.00  0.00     0.093 A 
ATOM      8  C   UNL     1     151.379 155.740 141.624  1.00  0.00     0.123 A 
ATOM      9  C   UNL     1     152.583 155.136 141.980  1.00  0.00     0.094 A 
ATOM     10  C   UNL     1     152.605 153.819 142.444  1.00  0.00     0.146 A 
ATOM     11  O   UNL     1     153.773 153.286 142.783  1.00  0.00    -0.452 OA
ENDROOT
BRANCH   1  12
ATOM     12  C   UNL     1     155.267 151.567 143.573  1.00  0.00     0.025 A 
ATOM     13  C   UNL     1     155.881 151.961 144.773  1.00  0.00     0.016 A 
ATOM     14  C   UNL     1     157.173 151.533 145.082  1.00  0.00     0.051 A 
ATOM     15  C   UNL     1     157.879 150.717 144.192  1.00  0.00     0.157 A 
ATOM     16  C   UNL     1     155.987 150.763 142.670  1.00  0.00     0.062 A 
ATOM     17  C   UNL     1     157.286 150.333 142.978  1.00  0.00     0.158 A 
BRANCH  15  18
ATOM     18  O   UNL     1     159.167 150.303 144.529  1.00  0.00    -0.504 OA
ATOM     19  H   UNL     1     159.848 150.936 144.932  1.00  0.00     0.293 HD
ENDBRANCH  15  18
BRANCH  17  20
ATOM     20  O   UNL     1     157.989 149.532 142.080  1.00  0.00    -0.504 OA
ATOM     21  H   UNL     1     158.995 149.602 141.978  1.00  0.00     0.293 HD
ENDBRANCH  17  20
ENDBRANCH   1  12
BRANCH   2  22
ATOM     22  O   UNL     1     152.879 149.997 144.053  1.00  0.00    -0.502 OA
ATOM     23  H   UNL     1     152.295 149.697 144.824  1.00  0.00     0.293 HD
ENDBRANCH   2  22
BRANCH   6  24
ATOM     24  O   UNL     1     148.956 153.013 142.083  1.00  0.00    -0.507 OA
ATOM     25  H   UNL     1     148.322 153.032 141.299  1.00  0.00     0.293 HD
ENDBRANCH   6  24
BRANCH   8  26
ATOM     26  O   UNL     1     151.377 157.061 141.183  1.00  0.00    -0.508 OA
ATOM     27  H   UNL     1     150.538 157.629 141.214  1.00  0.00     0.293 HD
ENDBRANCH   8  26
TORSDOF 6
ENDMDL
MODEL 4
REMARK VINA RESULT:    -5.520      2.463      7.251
REMARK INTER + INTRA:          -6.968
REMARK INTER:                  -6.705
REMARK INTRA:                  -0.263
REMARK UNBOUND:                -0.319
REMARK SMILES O=c1c(O)c(-c2ccc(O)c(O)c2)oc2cc(O)cc(O)c12
REMARK SMILES IDX 5 1 3 2 2 3 1 4 22 5 20 6 19 7 17 8 16 9 15 10 14 11 6 12
REMARK SMILES IDX 7 13 8 14 9 15 13 16 11 17 10 18 12 20 4 22 21 24 18 26
REMARK H PARENT 10 19 12 21 4 23 21 25 18 27
REMARK Flexibility Score: inf
ROOT
ATOM      1  C   UNL     1     154.047 152.206 143.015  1.00  0.00     0.180 A 
ATOM      2  C   UNL     1     153.870 153.555 142.661  1.00  0.00     0.208 A 
ATOM      3  C   UNL     1     152.583 154.009 142.330  1.00  0.00     0.238 A 
ATOM      4  O   UNL     1     152.441 155.205 141.962  1.00  0.00    -0.285 OA
ATOM      5  C   UNL     1     151.488 153.114 142.372  1.00  0.00     0.111 A 
ATOM      6  C   UNL     1     150.135 153.475 142.096  1.00  0.00     0.134 A 
ATOM      7  C   UNL     1     149.152 152.479 142.041  1.00  0.00     0.093 A 
ATOM      8  C   UNL     1     149.462 151.145 142.316  1.00  0.00     0.123 A 
ATOM      9  C   UNL     1     150.768 150.792 142.645  1.00  0.00     0.094 A 
ATOM     10  C   UNL     1     151.777 151.758 142.673  1.00  0.00     0.146 A 
ATOM     11  O   UNL     1     153.011 151.376 142.982  1.00  0.00    -0.452 OA
ENDROOT
BRANCH   1  12
ATOM     12  C   UNL     1     155.369 151.660 143.400  1.00  0.00     0.025 A 
ATOM     13  C   UNL     1     155.906 151.974 144.658  1.00  0.00     0.016 A 
ATOM     14  C   UNL     1     157.160 151.487 145.034  1.00  0.00     0.051 A 
ATOM     15  C   UNL     1     157.903 150.694 144.155  1.00  0.00     0.157 A 
ATOM     16  C   UNL     1     156.127 150.879 142.509  1.00  0.00     0.062 A 
ATOM     17  C   UNL     1     157.388 150.392 142.884  1.00  0.00     0.158 A 
BRANCH  15  18
ATOM     18  O   UNL     1     159.151 150.221 144.559  1.00  0.00    -0.504 OA
ATOM     19  H   UNL     1     159.547 150.451 145.463  1.00  0.00     0.293 HD
ENDBRANCH  15  18
BRANCH  17  20
ATOM     20  O   UNL     1     158.129 149.613 141.997  1.00  0.00    -0.504 OA
ATOM     21  H   UNL     1     158.836 150.019 141.395  1.00  0.00     0.293 HD
ENDBRANCH  17  20
ENDBRANCH   1  12
BRANCH   2  22
ATOM     22  O   UNL     1     154.969 154.417 142.604  1.00  0.00    -0.502 OA
ATOM     23  H   UNL     1     155.909 154.090 142.413  1.00  0.00     0.293 HD
ENDBRANCH   2  22
BRANCH   6  24
ATOM     24  O   UNL     1     149.703 154.790 141.898  1.00  0.00    -0.507 OA
ATOM     25  H   UNL     1     150.313 155.576 141.735  1.00  0.00     0.293 HD
ENDBRANCH   6  24
BRANCH   8  26
ATOM     26  O   UNL     1     148.475 150.163 142.274  1.00  0.00    -0.508 OA
ATOM     27  H   UNL     1     148.633 149.270 141.821  1.00  0.00     0.293 HD
ENDBRANCH   8  26
TORSDOF 6
ENDMDL
MODEL 5
REMARK VINA RESULT:    -5.495      1.290      2.980
REMARK INTER + INTRA:          -6.939
REMARK INTER:                  -6.605
REMARK INTRA:                  -0.334
REMARK UNBOUND:                -0.319
REMARK SMILES O=c1c(O)c(-c2ccc(O)c(O)c2)oc2cc(O)cc(O)c12
REMARK SMILES IDX 5 1 3 2 2 3 1 4 22 5 20 6 19 7 17 8 16 9 15 10 14 11 6 12
REMARK SMILES IDX 7 13 8 14 9 15 13 16 11 17 10 18 12 20 4 22 21 24 18 26
REMARK H PARENT 10 19 12 21 4 23 21 25 18 27
REMARK Flexibility Score: inf
ROOT
ATOM      1  C   UNL     1     154.667 150.529 142.393  1.00  0.00     0.180 A 
ATOM      2  C   UNL     1     154.566 149.294 141.731  1.00  0.00     0.208 A 
ATOM      3  C   UNL     1     155.618 148.371 141.847  1.00  0.00     0.238 A 
ATOM      4  O   UNL     1     155.545 147.289 141.207  1.00  0.00    -0.285 OA
ATOM      5  C   UNL     1     156.749 148.687 142.637  1.00  0.00     0.111 A 
ATOM      6  C   UNL     1     157.854 147.811 142.858  1.00  0.00     0.134 A 
ATOM      7  C   UNL     1     158.978 148.279 143.550  1.00  0.00     0.093 A 
ATOM      8  C   UNL     1     159.009 149.569 144.086  1.00  0.00     0.123 A 
ATOM      9  C   UNL     1     157.911 150.411 143.927  1.00  0.00     0.094 A 
ATOM     10  C   UNL     1     156.790 149.985 143.210  1.00  0.00     0.146 A 
ATOM     11  O   UNL     1     155.769 150.823 143.073  1.00  0.00    -0.452 OA
ENDROOT
BRANCH   1  12
ATOM     12  C   UNL     1     153.589 151.543 142.338  1.00  0.00     0.025 A 
ATOM     13  C   UNL     1     153.651 152.567 141.379  1.00  0.00     0.016 A 
ATOM     14  C   UNL     1     152.657 153.545 141.322  1.00  0.00     0.051 A 
ATOM     15  C   UNL     1     151.593 153.527 142.230  1.00  0.00     0.157 A 
ATOM     16  C   UNL     1     152.530 151.538 143.263  1.00  0.00     0.062 A 
ATOM     17  C   UNL     1     151.531 152.521 143.209  1.00  0.00     0.158 A 
BRANCH  15  18
ATOM     18  O   UNL     1     150.614 154.515 142.148  1.00  0.00    -0.504 OA
ATOM     19  H   UNL     1     149.938 154.667 142.887  1.00  0.00     0.293 HD
ENDBRANCH  15  18
BRANCH  17  20
ATOM     20  O   UNL     1     150.482 152.504 144.126  1.00  0.00    -0.504 OA
ATOM     21  H   UNL     1     149.727 153.180 144.085  1.00  0.00     0.293 HD
ENDBRANCH  17  20
ENDBRANCH   1  12
BRANCH   2  22
ATOM     22  O   UNL     1     153.450 149.010 140.938  1.00  0.00    -0.502 OA
ATOM     23  H   UNL     1     153.365 148.153 140.405  1.00  0.00     0.293 HD
ENDBRANCH   2  22
BRANCH   6  24
ATOM     24  O   UNL     1     157.886 146.476 142.446  1.00  0.00    -0.507 OA
ATOM     25  H   UNL     1     158.371 146.139 141.628  1.00  0.00     0.293 HD
ENDBRANCH   6  24
BRANCH   8  26
ATOM     26  O   UNL     1     160.125 150.020 144.787  1.00  0.00    -0.508 OA
ATOM     27  H   UNL     1     160.736 150.736 144.409  1.00  0.00     0.293 HD
ENDBRANCH   8  26
TORSDOF 6
ENDMDL
MODEL 6
REMARK VINA RESULT:    -5.452      4.749      7.487
REMARK INTER + INTRA:          -6.887
REMARK INTER:                  -7.038
REMARK INTRA:                   0.151
REMARK UNBOUND:                -0.319
REMARK SMILES O=c1c(O)c(-c2ccc(O)c(O)c2)oc2cc(O)cc(O)c12
REMARK SMILES IDX 5 1 3 2 2 3 1 4 22 5 20 6 19 7 17 8 16 9 15 10 14 11 6 12
REMARK SMILES IDX 7 13 8 14 9 15 13 16 11 17 10 18 12 20 4 22 21 24 18 26
REMARK H PARENT 10 19 12 21 4 23 21 25 18 27
REMARK Flexibility Score: inf
ROOT
ATOM      1  C   UNL     1     154.036 143.893 141.964  1.00  0.00     0.180 A 
ATOM      2  C   UNL     1     155.017 142.890 141.890  1.00  0.00     0.208 A 
ATOM      3  C   UNL     1     156.339 143.204 142.243  1.00  0.00     0.238 A 
ATOM      4  O   UNL     1     157.224 142.316 142.123  1.00  0.00    -0.285 OA
ATOM      5  C   UNL     1     156.661 144.512 142.680  1.00  0.00     0.111 A 
ATOM      6  C   UNL     1     157.959 144.930 143.102  1.00  0.00     0.134 A 
ATOM      7  C   UNL     1     158.189 146.281 143.389  1.00  0.00     0.093 A 
ATOM      8  C   UNL     1     157.152 147.216 143.335  1.00  0.00     0.123 A 
ATOM      9  C   UNL     1     155.869 146.806 142.983  1.00  0.00     0.094 A 
ATOM     10  C   UNL     1     155.616 145.472 142.655  1.00  0.00     0.146 A 
ATOM     11  O   UNL     1     154.380 145.126 142.315  1.00  0.00    -0.452 OA
ENDROOT
BRANCH   1  12
ATOM     12  C   UNL     1     152.616 143.631 141.632  1.00  0.00     0.025 A 
ATOM     13  C   UNL     1     151.852 144.638 141.023  1.00  0.00     0.016 A 
ATOM     14  C   UNL     1     150.506 144.421 140.720  1.00  0.00     0.051 A 
ATOM     15  C   UNL     1     149.898 143.202 141.035  1.00  0.00     0.157 A 
ATOM     16  C   UNL     1     151.998 142.413 141.967  1.00  0.00     0.062 A 
ATOM     17  C   UNL     1     150.646 142.193 141.666  1.00  0.00     0.158 A 
BRANCH  15  18
ATOM     18  O   UNL     1     148.554 143.013 140.718  1.00  0.00    -0.504 OA
ATOM     19  H   UNL     1     147.858 143.733 140.874  1.00  0.00     0.293 HD
ENDBRANCH  15  18
BRANCH  17  20
ATOM     20  O   UNL     1     150.043 140.981 141.995  1.00  0.00    -0.504 OA
ATOM     21  H   UNL     1     150.539 140.263 142.513  1.00  0.00     0.293 HD
ENDBRANCH  17  20
ENDBRANCH   1  12
BRANCH   2  22
ATOM     22  O   UNL     1     154.684 141.611 141.435  1.00  0.00    -0.502 OA
ATOM     23  H   UNL     1     153.858 141.430 140.876  1.00  0.00     0.293 HD
ENDBRANCH   2  22
BRANCH   6  24
ATOM     24  O   UNL     1     159.039 144.061 143.278  1.00  0.00    -0.507 OA
ATOM     25  H   UNL     1     159.957 144.198 142.883  1.00  0.00     0.293 HD
ENDBRANCH   6  24
BRANCH   8  26
ATOM     26  O   UNL     1     157.387 148.555 143.638  1.00  0.00    -0.508 OA
ATOM     27  H   UNL     1     157.512 148.869 144.594  1.00  0.00     0.293 HD
ENDBRANCH   8  26
TORSDOF 6
ENDMDL
MODEL 7
REMARK VINA RESULT:    -5.449      4.034      7.141
REMARK INTER + INTRA:          -6.883
REMARK INTER:                  -6.635
REMARK INTRA:                  -0.248
REMARK UNBOUND:                -0.319
REMARK SMILES O=c1c(O)c(-c2ccc(O)c(O)c2)oc2cc(O)cc(O)c12
REMARK SMILES IDX 5 1 3 2 2 3 1 4 22 5 20 6 19 7 17 8 16 9 15 10 14 11 6 12
REMARK SMILES IDX 7 13 8 14 9 15 13 16 11 17 10 18 12 20 4 22 21 24 18 26
REMARK H PARENT 10 19 12 21 4 23 21 25 18 27
REMARK Flexibility Score: inf
ROOT
ATOM      1  C   UNL     1     155.840 145.165 142.110  1.00  0.00     0.180 A 
ATOM      2  C   UNL     1     156.315 143.905 142.512  1.00  0.00     0.208 A 
ATOM      3  C   UNL     1     155.431 142.814 142.520  1.00  0.00     0.238 A 
ATOM      4  O   UNL     1     155.849 141.700 142.933  1.00  0.00    -0.285 OA
ATOM      5  C   UNL     1     154.088 142.993 142.110  1.00  0.00     0.111 A 
ATOM      6  C   UNL     1     153.116 141.950 142.040  1.00  0.00     0.134 A 
ATOM      7  C   UNL     1     151.784 142.267 141.746  1.00  0.00     0.093 A 
ATOM      8  C   UNL     1     151.402 143.579 141.455  1.00  0.00     0.123 A 
ATOM      9  C   UNL     1     152.355 144.594 141.463  1.00  0.00     0.094 A 
ATOM     10  C   UNL     1     153.685 144.315 141.788  1.00  0.00     0.146 A 
ATOM     11  O   UNL     1     154.559 145.314 141.794  1.00  0.00    -0.452 OA
ENDROOT
BRANCH   1  12
ATOM     12  C   UNL     1     156.718 146.356 142.052  1.00  0.00     0.025 A 
ATOM     13  C   UNL     1     157.684 146.453 141.038  1.00  0.00     0.016 A 
ATOM     14  C   UNL     1     158.538 147.557 140.976  1.00  0.00     0.051 A 
ATOM     15  C   UNL     1     158.451 148.573 141.934  1.00  0.00     0.157 A 
ATOM     16  C   UNL     1     156.646 147.368 143.026  1.00  0.00     0.062 A 
ATOM     17  C   UNL     1     157.504 148.476 142.967  1.00  0.00     0.158 A 
BRANCH  15  18
ATOM     18  O   UNL     1     159.314 149.663 141.845  1.00  0.00    -0.504 OA
ATOM     19  H   UNL     1     160.321 149.552 141.821  1.00  0.00     0.293 HD
ENDBRANCH  15  18
BRANCH  17  20
ATOM     20  O   UNL     1     157.420 149.477 143.933  1.00  0.00    -0.504 OA
ATOM     21  H   UNL     1     156.537 149.731 144.363  1.00  0.00     0.293 HD
ENDBRANCH  17  20
ENDBRANCH   1  12
BRANCH   2  22
ATOM     22  O   UNL     1     157.640 143.754 142.934  1.00  0.00    -0.502 OA
ATOM     23  H   UNL     1     158.429 143.916 142.319  1.00  0.00     0.293 HD
ENDBRANCH   2  22
BRANCH   6  24
ATOM     24  O   UNL     1     153.411 140.596 142.221  1.00  0.00    -0.507 OA
ATOM     25  H   UNL     1     152.817 139.835 141.930  1.00  0.00     0.293 HD
ENDBRANCH   6  24
BRANCH   8  26
ATOM     26  O   UNL     1     150.078 143.882 141.149  1.00  0.00    -0.508 OA
ATOM     27  H   UNL     1     149.453 144.286 141.837  1.00  0.00     0.293 HD
ENDBRANCH   8  26
TORSDOF 6
ENDMDL
MODEL 8
REMARK VINA RESULT:    -5.445      2.030      7.242
REMARK INTER + INTRA:          -6.878
REMARK INTER:                  -6.734
REMARK INTRA:                  -0.144
REMARK UNBOUND:                -0.319
REMARK SMILES O=c1c(O)c(-c2ccc(O)c(O)c2)oc2cc(O)cc(O)c12
REMARK SMILES IDX 5 1 3 2 2 3 1 4 22 5 20 6 19 7 17 8 16 9 15 10 14 11 6 12
REMARK SMILES IDX 7 13 8 14 9 15 13 16 11 17 10 18 12 20 4 22 21 24 18 26
REMARK H PARENT 10 19 12 21 4 23 21 25 18 27
REMARK Flexibility Score: inf
ROOT
ATOM      1  C   UNL     1     158.183 147.464 142.657  1.00  0.00     0.180 A 
ATOM      2  C   UNL     1     158.876 148.363 143.485  1.00  0.00     0.208 A 
ATOM      3  C   UNL     1     158.313 149.623 143.743  1.00  0.00     0.238 A 
ATOM      4  O   UNL     1     158.964 150.445 144.441  1.00  0.00    -0.285 OA
ATOM      5  C   UNL     1     157.058 149.962 143.183  1.00  0.00     0.111 A 
ATOM      6  C   UNL     1     156.375 151.195 143.411  1.00  0.00     0.134 A 
ATOM      7  C   UNL     1     155.200 151.474 142.701  1.00  0.00     0.093 A 
ATOM      8  C   UNL     1     154.649 150.538 141.822  1.00  0.00     0.123 A 
ATOM      9  C   UNL     1     155.277 149.309 141.639  1.00  0.00     0.094 A 
ATOM     10  C   UNL     1     156.469 149.015 142.305  1.00  0.00     0.146 A 
ATOM     11  O   UNL     1     157.039 147.835 142.094  1.00  0.00    -0.452 OA
ENDROOT
BRANCH   1  12
ATOM     12  C   UNL     1     158.701 146.109 142.359  1.00  0.00     0.025 A 
ATOM     13  C   UNL     1     158.912 145.727 141.025  1.00  0.00     0.016 A 
ATOM     14  C   UNL     1     159.380 144.447 140.720  1.00  0.00     0.051 A 
ATOM     15  C   UNL     1     159.630 143.523 141.740  1.00  0.00     0.157 A 
ATOM     16  C   UNL     1     158.933 145.172 143.382  1.00  0.00     0.062 A 
ATOM     17  C   UNL     1     159.401 143.885 143.078  1.00  0.00     0.158 A 
BRANCH  15  18
ATOM     18  O   UNL     1     160.099 142.254 141.405  1.00  0.00    -0.504 OA
ATOM     19  H   UNL     1     160.775 141.762 141.977  1.00  0.00     0.293 HD
ENDBRANCH  15  18
BRANCH  17  20
ATOM     20  O   UNL     1     159.635 142.966 144.099  1.00  0.00    -0.504 OA
ATOM     21  H   UNL     1     159.976 142.030 143.906  1.00  0.00     0.293 HD
ENDBRANCH  17  20
ENDBRANCH   1  12
BRANCH   2  22
ATOM     22  O   UNL     1     160.125 148.018 144.010  1.00  0.00    -0.502 OA
ATOM     23  H   UNL     1     160.637 148.623 144.641  1.00  0.00     0.293 HD
ENDBRANCH   2  22
BRANCH   6  24
ATOM     24  O   UNL     1     156.790 152.158 144.335  1.00  0.00    -0.507 OA
ATOM     25  H   UNL     1     157.686 152.620 144.319  1.00  0.00     0.293 HD
ENDBRANCH   6  24
BRANCH   8  26
ATOM     26  O   UNL     1     153.472 150.818 141.132  1.00  0.00    -0.508 OA
ATOM     27  H   UNL     1     152.579 150.878 141.608  1.00  0.00     0.293 HD
ENDBRANCH   8  26
TORSDOF 6
ENDMDL
MODEL 9
REMARK VINA RESULT:    -5.343      2.624      8.397
REMARK INTER + INTRA:          -6.756
REMARK INTER:                  -6.473
REMARK INTRA:                  -0.282
REMARK UNBOUND:                -0.319
REMARK SMILES O=c1c(O)c(-c2ccc(O)c(O)c2)oc2cc(O)cc(O)c12
REMARK SMILES IDX 5 1 3 2 2 3 1 4 22 5 20 6 19 7 17 8 16 9 15 10 14 11 6 12
REMARK SMILES IDX 7 13 8 14 9 15 13 16 11 17 10 18 12 20 4 22 21 24 18 26
REMARK H PARENT 10 19 12 21 4 23 21 25 18 27
REMARK Flexibility Score: inf
ROOT
ATOM      1  C   UNL     1     152.611 152.533 142.862  1.00  0.00     0.180 A 
ATOM      2  C   UNL     1     151.499 151.864 143.401  1.00  0.00     0.208 A 
ATOM      3  C   UNL     1     150.232 152.458 143.298  1.00  0.00     0.238 A 
ATOM      4  O   UNL     1     149.248 151.879 143.830  1.00  0.00    -0.285 OA
ATOM      5  C   UNL     1     150.089 153.706 142.645  1.00  0.00     0.111 A 
ATOM      6  C   UNL     1     148.846 154.380 142.448  1.00  0.00     0.134 A 
ATOM      7  C   UNL     1     148.840 155.671 141.904  1.00  0.00     0.093 A 
ATOM      8  C   UNL     1     150.025 156.284 141.490  1.00  0.00     0.123 A 
ATOM      9  C   UNL     1     151.236 155.609 141.623  1.00  0.00     0.094 A 
ATOM     10  C   UNL     1     151.278 154.336 142.195  1.00  0.00     0.146 A 
ATOM     11  O   UNL     1     152.455 153.732 142.313  1.00  0.00    -0.452 OA
ENDROOT
BRANCH   1  12
ATOM     12  C   UNL     1     153.976 151.958 142.909  1.00  0.00     0.025 A 
ATOM     13  C   UNL     1     154.323 150.930 142.019  1.00  0.00     0.016 A 
ATOM     14  C   UNL     1     155.597 150.359 142.059  1.00  0.00     0.051 A 
ATOM     15  C   UNL     1     156.537 150.793 142.999  1.00  0.00     0.157 A 
ATOM     16  C   UNL     1     154.916 152.379 143.867  1.00  0.00     0.062 A 
ATOM     17  C   UNL     1     156.194 151.805 143.911  1.00  0.00     0.158 A 
BRANCH  15  18
ATOM     18  O   UNL     1     157.801 150.205 143.014  1.00  0.00    -0.504 OA
ATOM     19  H   UNL     1     158.638 150.722 142.770  1.00  0.00     0.293 HD
ENDBRANCH  15  18
BRANCH  17  20
ATOM     20  O   UNL     1     157.121 152.233 144.860  1.00  0.00    -0.504 OA
ATOM     21  H   UNL     1     157.627 153.106 144.754  1.00  0.00     0.293 HD
ENDBRANCH  17  20
ENDBRANCH   1  12
BRANCH   2  22
ATOM     22  O   UNL     1     151.665 150.643 144.061  1.00  0.00    -0.502 OA
ATOM     23  H   UNL     1     150.883 150.056 144.326  1.00  0.00     0.293 HD
ENDBRANCH   2  22
BRANCH   6  24
ATOM     24  O   UNL     1     147.600 153.821 142.742  1.00  0.00    -0.507 OA
ATOM     25  H   UNL     1     147.122 153.146 142.163  1.00  0.00     0.293 HD
ENDBRANCH   6  24
BRANCH   8  26
ATOM     26  O   UNL     1     150.008 157.562 140.936  1.00  0.00    -0.508 OA
ATOM     27  H   UNL     1     149.232 158.196 141.087  1.00  0.00     0.293 HD
ENDBRANCH   8  26
TORSDOF 6
ENDMDL
