MODEL 1
REMARK VINA RESULT:    -5.558      0.000      0.000
REMARK INTER + INTRA:         -11.263
REMARK INTER:                 -10.107
REMARK INTRA:                  -1.156
REMARK UNBOUND:                -1.156
REMARK SMILES CCCCCCCCCCCCCCCC(=O)[O-]
REMARK SMILES IDX 9 1 10 2 11 3 12 4 13 5 14 6 15 7 16 8 17 9 18 10 8 11 7 12
REMARK SMILES IDX 6 13 5 14 4 15 3 16 2 17 1 18
REMARK H PARENT
REMARK Flexibility Score: inf
ROOT
ATOM      1  C   UNL     1      41.595  54.464  59.920  1.00  0.00     0.000 C 
ENDROOT
BRANCH   1   2
ATOM      2  C   UNL     1      42.906  54.971  60.542  1.00  0.00     0.000 C 
BRANCH   2   3
ATOM      3  C   UNL     1      43.181  56.450  60.218  1.00  0.00     0.000 C 
BRANCH   3   4
ATOM      4  C   UNL     1      41.910  57.208  59.797  1.00  0.00     0.000 C 
BRANCH   4   5
ATOM      5  C   UNL     1      41.933  57.618  58.315  1.00  0.00     0.000 C 
BRANCH   5   6
ATOM      6  C   UNL     1      40.997  58.803  58.011  1.00  0.00     0.006 C 
BRANCH   6   7
ATOM      7  C   UNL     1      41.722  60.095  57.602  1.00  0.00     0.053 C 
BRANCH   7   8
ATOM      8  C   UNL     1      40.846  60.999  56.789  1.00  0.00     0.041 C 
ATOM      9  O   UNL     1      41.203  62.183  56.553  1.00  0.00    -0.550 OA
ATOM     10  O   UNL     1      39.650  60.523  56.265  1.00  0.00    -0.550 OA
ENDBRANCH   7   8
ENDBRANCH   6   7
ENDBRANCH   5   6
ENDBRANCH   4   5
ENDBRANCH   3   4
ENDBRANCH   2   3
ENDBRANCH   1   2
BRANCH   1  11
ATOM     11  C   UNL     1      40.618  53.906  60.966  1.00  0.00     0.000 C 
BRANCH  11  12
ATOM     12  C   UNL     1      39.163  54.190  60.563  1.00  0.00    -0.000 C 
BRANCH  12  13
ATOM     13  C   UNL     1      38.686  55.591  60.986  1.00  0.00    -0.000 C 
BRANCH  13  14
ATOM     14  C   UNL     1      38.034  56.425  59.865  1.00  0.00    -0.000 C 
BRANCH  14  15
ATOM     15  C   UNL     1      36.494  56.366  59.820  1.00  0.00    -0.000 C 
BRANCH  15  16
ATOM     16  C   UNL     1      35.908  55.430  58.744  1.00  0.00    -0.000 C 
BRANCH  16  17
ATOM     17  C   UNL     1      35.924  53.936  59.111  1.00  0.00    -0.003 C 
ATOM     18  C   UNL     1      35.055  53.086  58.184  1.00  0.00     0.004 C 
ENDBRANCH  16  17
ENDBRANCH  15  16
ENDBRANCH  14  15
ENDBRANCH  13  14
ENDBRANCH  12  13
ENDBRANCH  11  12
ENDBRANCH   1  11
TORSDOF 14
ENDMDL
MODEL 2
REMARK VINA RESULT:    -5.511      1.900      2.620
REMARK INTER + INTRA:         -11.177
REMARK INTER:                  -9.966
REMARK INTRA:                  -1.211
REMARK UNBOUND:                -1.156
REMARK SMILES CCCCCCCCCCCCCCCC(=O)[O-]
REMARK SMILES IDX 9 1 10 2 11 3 12 4 13 5 14 6 15 7 16 8 17 9 18 10 8 11 7 12
REMARK SMILES IDX 6 13 5 14 4 15 3 16 2 17 1 18
REMARK H PARENT
REMARK Flexibility Score: inf
ROOT
ATOM      1  C   UNL     1      40.169  53.917  61.256  1.00  0.00     0.000 C 
ENDROOT
BRANCH   1   2
ATOM      2  C   UNL     1      41.181  54.062  60.109  1.00  0.00     0.000 C 
BRANCH   2   3
ATOM      3  C   UNL     1      42.427  54.869  60.517  1.00  0.00     0.000 C 
BRANCH   3   4
ATOM      4  C   UNL     1      43.042  55.640  59.336  1.00  0.00     0.000 C 
BRANCH   4   5
ATOM      5  C   UNL     1      42.052  56.632  58.701  1.00  0.00     0.000 C 
BRANCH   5   6
ATOM      6  C   UNL     1      42.117  58.030  59.345  1.00  0.00     0.006 C 
BRANCH   6   7
ATOM      7  C   UNL     1      43.530  58.477  59.752  1.00  0.00     0.053 C 
BRANCH   7   8
ATOM      8  C   UNL     1      44.184  59.310  58.692  1.00  0.00     0.041 C 
ATOM      9  O   UNL     1      43.594  60.322  58.228  1.00  0.00    -0.550 OA
ATOM     10  O   UNL     1      45.458  58.989  58.241  1.00  0.00    -0.550 OA
ENDBRANCH   7   8
ENDBRANCH   6   7
ENDBRANCH   5   6
ENDBRANCH   4   5
ENDBRANCH   3   4
ENDBRANCH   2   3
ENDBRANCH   1   2
BRANCH   1  11
ATOM     11  C   UNL     1      38.820  54.585  60.947  1.00  0.00     0.000 C 
BRANCH  11  12
ATOM     12  C   UNL     1      39.002  56.085  60.668  1.00  0.00    -0.000 C 
BRANCH  12  13
ATOM     13  C   UNL     1      38.026  56.619  59.605  1.00  0.00    -0.000 C 
BRANCH  13  14
ATOM     14  C   UNL     1      36.552  56.214  59.809  1.00  0.00    -0.000 C 
BRANCH  14  15
ATOM     15  C   UNL     1      35.971  55.293  58.718  1.00  0.00    -0.000 C 
BRANCH  15  16
ATOM     16  C   UNL     1      35.893  53.801  59.096  1.00  0.00    -0.000 C 
BRANCH  16  17
ATOM     17  C   UNL     1      34.926  52.967  58.238  1.00  0.00    -0.003 C 
ATOM     18  C   UNL     1      35.588  51.735  57.622  1.00  0.00     0.004 C 
ENDBRANCH  16  17
ENDBRANCH  15  16
ENDBRANCH  14  15
ENDBRANCH  13  14
ENDBRANCH  12  13
ENDBRANCH  11  12
ENDBRANCH   1  11
TORSDOF 14
ENDMDL
MODEL 3
REMARK VINA RESULT:    -5.479      4.889      8.286
REMARK INTER + INTRA:         -11.119
REMARK INTER:                 -10.017
REMARK INTRA:                  -1.102
REMARK UNBOUND:                -1.156
REMARK SMILES CCCCCCCCCCCCCCCC(=O)[O-]
REMARK SMILES IDX 9 1 10 2 11 3 12 4 13 5 14 6 15 7 16 8 17 9 18 10 8 11 7 12
REMARK SMILES IDX 6 13 5 14 4 15 3 16 2 17 1 18
REMARK H PARENT
REMARK Flexibility Score: inf
ROOT
ATOM      1  C   UNL     1      38.629  55.454  60.728  1.00  0.00     0.000 C 
ENDROOT
BRANCH   1   2
ATOM      2  C   UNL     1      37.356  55.297  59.881  1.00  0.00     0.000 C 
BRANCH   2   3
ATOM      3  C   UNL     1      36.880  53.836  59.792  1.00  0.00     0.000 C 
BRANCH   3   4
ATOM      4  C   UNL     1      35.685  53.663  58.839  1.00  0.00     0.000 C 
BRANCH   4   5
ATOM      5  C   UNL     1      35.861  52.470  57.884  1.00  0.00     0.000 C 
BRANCH   5   6
ATOM      6  C   UNL     1      34.765  51.402  58.059  1.00  0.00     0.006 C 
BRANCH   6   7
ATOM      7  C   UNL     1      33.367  51.969  58.357  1.00  0.00     0.053 C 
BRANCH   7   8
ATOM      8  C   UNL     1      32.330  50.892  58.448  1.00  0.00     0.041 C 
ATOM      9  O   UNL     1      32.532  49.771  57.911  1.00  0.00    -0.550 OA
ATOM     10  O   UNL     1      31.155  51.115  59.154  1.00  0.00    -0.550 OA
ENDBRANCH   7   8
ENDBRANCH   6   7
ENDBRANCH   5   6
ENDBRANCH   4   5
ENDBRANCH   3   4
ENDBRANCH   2   3
ENDBRANCH   1   2
BRANCH   1  11
ATOM     11  C   UNL     1      39.358  54.120  60.957  1.00  0.00     0.000 C 
BRANCH  11  12
ATOM     12  C   UNL     1      40.571  53.991  60.024  1.00  0.00    -0.000 C 
BRANCH  12  13
ATOM     13  C   UNL     1      41.870  54.526  60.653  1.00  0.00    -0.000 C 
BRANCH  13  14
ATOM     14  C   UNL     1      42.738  55.394  59.720  1.00  0.00    -0.000 C 
BRANCH  14  15
ATOM     15  C   UNL     1      43.061  56.804  60.254  1.00  0.00    -0.000 C 
BRANCH  15  16
ATOM     16  C   UNL     1      42.187  57.936  59.677  1.00  0.00    -0.000 C 
BRANCH  16  17
ATOM     17  C   UNL     1      41.457  57.585  58.369  1.00  0.00    -0.003 C 
ATOM     18  C   UNL     1      40.050  58.176  58.295  1.00  0.00     0.004 C 
ENDBRANCH  16  17
ENDBRANCH  15  16
ENDBRANCH  14  15
ENDBRANCH  13  14
ENDBRANCH  12  13
ENDBRANCH  11  12
ENDBRANCH   1  11
TORSDOF 14
ENDMDL
MODEL 4
REMARK VINA RESULT:    -5.414      1.333      2.805
REMARK INTER + INTRA:         -11.001
REMARK INTER:                  -9.957
REMARK INTRA:                  -1.044
REMARK UNBOUND:                -1.156
REMARK SMILES CCCCCCCCCCCCCCCC(=O)[O-]
REMARK SMILES IDX 9 1 10 2 11 3 12 4 13 5 14 6 15 7 16 8 17 9 18 10 8 11 7 12
REMARK SMILES IDX 6 13 5 14 4 15 3 16 2 17 1 18
REMARK H PARENT
REMARK Flexibility Score: inf
ROOT
ATOM      1  C   UNL     1      39.048  54.426  60.738  1.00  0.00     0.000 C 
ENDROOT
BRANCH   1   2
ATOM      2  C   UNL     1      40.269  53.837  60.014  1.00  0.00     0.000 C 
BRANCH   2   3
ATOM      3  C   UNL     1      41.602  54.342  60.595  1.00  0.00     0.000 C 
BRANCH   3   4
ATOM      4  C   UNL     1      42.422  55.147  59.573  1.00  0.00     0.000 C 
BRANCH   4   5
ATOM      5  C   UNL     1      43.354  56.171  60.242  1.00  0.00     0.000 C 
BRANCH   5   6
ATOM      6  C   UNL     1      43.032  57.622  59.836  1.00  0.00     0.006 C 
BRANCH   6   7
ATOM      7  C   UNL     1      42.920  57.847  58.319  1.00  0.00     0.053 C 
BRANCH   7   8
ATOM      8  C   UNL     1      41.736  58.692  57.962  1.00  0.00     0.041 C 
ATOM      9  O   UNL     1      40.576  58.330  58.293  1.00  0.00    -0.550 OA
ATOM     10  O   UNL     1      41.917  59.896  57.292  1.00  0.00    -0.550 OA
ENDBRANCH   7   8
ENDBRANCH   6   7
ENDBRANCH   5   6
ENDBRANCH   4   5
ENDBRANCH   3   4
ENDBRANCH   2   3
ENDBRANCH   1   2
BRANCH   1  11
ATOM     11  C   UNL     1      39.017  55.962  60.696  1.00  0.00     0.000 C 
BRANCH  11  12
ATOM     12  C   UNL     1      37.995  56.461  59.663  1.00  0.00    -0.000 C 
BRANCH  12  13
ATOM     13  C   UNL     1      36.569  55.951  59.936  1.00  0.00    -0.000 C 
BRANCH  13  14
ATOM     14  C   UNL     1      35.902  55.216  58.756  1.00  0.00    -0.000 C 
BRANCH  14  15
ATOM     15  C   UNL     1      35.835  53.682  58.897  1.00  0.00    -0.000 C 
BRANCH  15  16
ATOM     16  C   UNL     1      34.717  53.000  58.083  1.00  0.00    -0.000 C 
BRANCH  16  17
ATOM     17  C   UNL     1      34.731  51.462  58.129  1.00  0.00    -0.003 C 
ATOM     18  C   UNL     1      35.899  50.852  57.356  1.00  0.00     0.004 C 
ENDBRANCH  16  17
ENDBRANCH  15  16
ENDBRANCH  14  15
ENDBRANCH  13  14
ENDBRANCH  12  13
ENDBRANCH  11  12
ENDBRANCH   1  11
TORSDOF 14
ENDMDL
MODEL 5
REMARK VINA RESULT:    -5.363      3.011      6.714
REMARK INTER + INTRA:         -10.908
REMARK INTER:                  -8.926
REMARK INTRA:                  -1.983
REMARK UNBOUND:                -1.156
REMARK SMILES CCCCCCCCCCCCCCCC(=O)[O-]
REMARK SMILES IDX 9 1 10 2 11 3 12 4 13 5 14 6 15 7 16 8 17 9 18 10 8 11 7 12
REMARK SMILES IDX 6 13 5 14 4 15 3 16 2 17 1 18
REMARK H PARENT
REMARK Flexibility Score: inf
ROOT
ATOM      1  C   UNL     1      43.247  56.012  59.873  1.00  0.00     0.000 C 
ENDROOT
BRANCH   1   2
ATOM      2  C   UNL     1      42.617  54.851  60.659  1.00  0.00     0.000 C 
BRANCH   2   3
ATOM      3  C   UNL     1      41.309  54.347  60.023  1.00  0.00     0.000 C 
BRANCH   3   4
ATOM      4  C   UNL     1      40.294  53.861  61.072  1.00  0.00     0.000 C 
BRANCH   4   5
ATOM      5  C   UNL     1      38.930  54.560  60.939  1.00  0.00     0.000 C 
BRANCH   5   6
ATOM      6  C   UNL     1      39.059  56.072  60.675  1.00  0.00     0.006 C 
BRANCH   6   7
ATOM      7  C   UNL     1      38.197  56.590  59.512  1.00  0.00     0.053 C 
BRANCH   7   8
ATOM      8  C   UNL     1      36.757  56.207  59.666  1.00  0.00     0.041 C 
ATOM      9  O   UNL     1      36.041  56.772  60.535  1.00  0.00    -0.550 OA
ATOM     10  O   UNL     1      36.197  55.251  58.829  1.00  0.00    -0.550 OA
ENDBRANCH   7   8
ENDBRANCH   6   7
ENDBRANCH   5   6
ENDBRANCH   4   5
ENDBRANCH   3   4
ENDBRANCH   2   3
ENDBRANCH   1   2
BRANCH   1  11
ATOM     11  C   UNL     1      42.422  56.413  58.641  1.00  0.00     0.000 C 
BRANCH  11  12
ATOM     12  C   UNL     1      41.811  57.811  58.822  1.00  0.00    -0.000 C 
BRANCH  12  13
ATOM     13  C   UNL     1      42.253  58.493  60.129  1.00  0.00    -0.000 C 
BRANCH  13  14
ATOM     14  C   UNL     1      43.035  59.809  59.947  1.00  0.00    -0.000 C 
BRANCH  14  15
ATOM     15  C   UNL     1      43.704  59.985  58.569  1.00  0.00    -0.000 C 
BRANCH  15  16
ATOM     16  C   UNL     1      45.230  59.763  58.552  1.00  0.00    -0.000 C 
BRANCH  16  17
ATOM     17  C   UNL     1      45.670  58.291  58.638  1.00  0.00    -0.003 C 
ATOM     18  C   UNL     1      46.664  58.031  59.769  1.00  0.00     0.004 C 
ENDBRANCH  16  17
ENDBRANCH  15  16
ENDBRANCH  14  15
ENDBRANCH  13  14
ENDBRANCH  12  13
ENDBRANCH  11  12
ENDBRANCH   1  11
TORSDOF 14
ENDMDL
MODEL 6
REMARK VINA RESULT:    -5.346      3.050      4.316
REMARK INTER + INTRA:         -10.876
REMARK INTER:                 -10.301
REMARK INTRA:                  -0.575
REMARK UNBOUND:                -1.156
REMARK SMILES CCCCCCCCCCCCCCCC(=O)[O-]
REMARK SMILES IDX 9 1 10 2 11 3 12 4 13 5 14 6 15 7 16 8 17 9 18 10 8 11 7 12
REMARK SMILES IDX 6 13 5 14 4 15 3 16 2 17 1 18
REMARK H PARENT
REMARK Flexibility Score: inf
ROOT
ATOM      1  C   UNL     1      39.364  55.300  60.494  1.00  0.00     0.000 C 
ENDROOT
BRANCH   1   2
ATOM      2  C   UNL     1      40.360  54.169  60.795  1.00  0.00     0.000 C 
BRANCH   2   3
ATOM      3  C   UNL     1      41.533  54.132  59.799  1.00  0.00     0.000 C 
BRANCH   3   4
ATOM      4  C   UNL     1      42.101  55.531  59.507  1.00  0.00     0.000 C 
BRANCH   4   5
ATOM      5  C   UNL     1      43.349  55.847  60.350  1.00  0.00     0.000 C 
BRANCH   5   6
ATOM      6  C   UNL     1      43.769  57.327  60.259  1.00  0.00     0.006 C 
BRANCH   6   7
ATOM      7  C   UNL     1      44.883  57.608  59.238  1.00  0.00     0.053 C 
BRANCH   7   8
ATOM      8  C   UNL     1      45.929  58.531  59.786  1.00  0.00     0.041 C 
ATOM      9  O   UNL     1      46.903  58.068  60.438  1.00  0.00    -0.550 OA
ATOM     10  O   UNL     1      45.845  59.897  59.550  1.00  0.00    -0.550 OA
ENDBRANCH   7   8
ENDBRANCH   6   7
ENDBRANCH   5   6
ENDBRANCH   4   5
ENDBRANCH   3   4
ENDBRANCH   2   3
ENDBRANCH   1   2
BRANCH   1  11
ATOM     11  C   UNL     1      37.934  54.786  60.260  1.00  0.00     0.000 C 
BRANCH  11  12
ATOM     12  C   UNL     1      37.098  55.821  59.493  1.00  0.00    -0.000 C 
BRANCH  12  13
ATOM     13  C   UNL     1      35.888  55.199  58.774  1.00  0.00    -0.000 C 
BRANCH  13  14
ATOM     14  C   UNL     1      35.654  53.703  59.065  1.00  0.00    -0.000 C 
BRANCH  14  15
ATOM     15  C   UNL     1      35.603  52.796  57.819  1.00  0.00    -0.000 C 
BRANCH  15  16
ATOM     16  C   UNL     1      35.154  51.345  58.086  1.00  0.00    -0.000 C 
BRANCH  16  17
ATOM     17  C   UNL     1      35.854  50.283  57.220  1.00  0.00    -0.003 C 
ATOM     18  C   UNL     1      34.941  49.112  56.861  1.00  0.00     0.004 C 
ENDBRANCH  16  17
ENDBRANCH  15  16
ENDBRANCH  14  15
ENDBRANCH  13  14
ENDBRANCH  12  13
ENDBRANCH  11  12
ENDBRANCH   1  11
TORSDOF 14
ENDMDL
MODEL 7
REMARK VINA RESULT:    -5.325      3.292      6.565
REMARK INTER + INTRA:         -10.840
REMARK INTER:                  -9.778
REMARK INTRA:                  -1.061
REMARK UNBOUND:                -1.156
REMARK SMILES CCCCCCCCCCCCCCCC(=O)[O-]
REMARK SMILES IDX 9 1 10 2 11 3 12 4 13 5 14 6 15 7 16 8 17 9 18 10 8 11 7 12
REMARK SMILES IDX 6 13 5 14 4 15 3 16 2 17 1 18
REMARK H PARENT
REMARK Flexibility Score: inf
ROOT
ATOM      1  C   UNL     1      42.072  54.933  59.501  1.00  0.00     0.000 C 
ENDROOT
BRANCH   1   2
ATOM      2  C   UNL     1      41.054  54.117  60.314  1.00  0.00     0.000 C 
BRANCH   2   3
ATOM      3  C   UNL     1      39.791  54.925  60.662  1.00  0.00     0.000 C 
BRANCH   3   4
ATOM      4  C   UNL     1      39.853  56.369  60.138  1.00  0.00     0.000 C 
BRANCH   4   5
ATOM      5  C   UNL     1      38.512  56.841  59.549  1.00  0.00     0.000 C 
BRANCH   5   6
ATOM      6  C   UNL     1      37.301  56.135  60.189  1.00  0.00     0.006 C 
BRANCH   6   7
ATOM      7  C   UNL     1      36.234  55.670  59.185  1.00  0.00     0.053 C 
BRANCH   7   8
ATOM      8  C   UNL     1      36.085  54.179  59.173  1.00  0.00     0.041 C 
ATOM      9  O   UNL     1      36.796  53.465  59.928  1.00  0.00    -0.550 OA
ATOM     10  O   UNL     1      35.137  53.581  58.352  1.00  0.00    -0.550 OA
ENDBRANCH   7   8
ENDBRANCH   6   7
ENDBRANCH   5   6
ENDBRANCH   4   5
ENDBRANCH   3   4
ENDBRANCH   2   3
ENDBRANCH   1   2
BRANCH   1  11
ATOM     11  C   UNL     1      43.229  55.466  60.361  1.00  0.00     0.000 C 
BRANCH  11  12
ATOM     12  C   UNL     1      43.808  56.756  59.761  1.00  0.00    -0.000 C 
BRANCH  12  13
ATOM     13  C   UNL     1      43.031  57.241  58.523  1.00  0.00    -0.000 C 
BRANCH  13  14
ATOM     14  C   UNL     1      43.198  58.738  58.194  1.00  0.00    -0.000 C 
BRANCH  14  15
ATOM     15  C   UNL     1      41.890  59.481  57.856  1.00  0.00    -0.000 C 
BRANCH  15  16
ATOM     16  C   UNL     1      41.971  61.018  57.946  1.00  0.00    -0.000 C 
BRANCH  16  17
ATOM     17  C   UNL     1      40.845  61.769  57.214  1.00  0.00    -0.003 C 
ATOM     18  C   UNL     1      40.645  61.288  55.777  1.00  0.00     0.004 C 
ENDBRANCH  16  17
ENDBRANCH  15  16
ENDBRANCH  14  15
ENDBRANCH  13  14
ENDBRANCH  12  13
ENDBRANCH  11  12
ENDBRANCH   1  11
TORSDOF 14
ENDMDL
MODEL 8
REMARK VINA RESULT:    -5.323      1.659      4.932
REMARK INTER + INTRA:         -10.835
REMARK INTER:                  -9.342
REMARK INTRA:                  -1.493
REMARK UNBOUND:                -1.156
REMARK SMILES CCCCCCCCCCCCCCCC(=O)[O-]
REMARK SMILES IDX 9 1 10 2 11 3 12 4 13 5 14 6 15 7 16 8 17 9 18 10 8 11 7 12
REMARK SMILES IDX 6 13 5 14 4 15 3 16 2 17 1 18
REMARK H PARENT
REMARK Flexibility Score: inf
ROOT
ATOM      1  C   UNL     1      38.160  55.790  59.892  1.00  0.00     0.000 C 
ENDROOT
BRANCH   1   2
ATOM      2  C   UNL     1      38.840  56.770  60.860  1.00  0.00     0.000 C 
BRANCH   2   3
ATOM      3  C   UNL     1      40.046  57.488  60.227  1.00  0.00     0.000 C 
BRANCH   3   4
ATOM      4  C   UNL     1      39.801  57.863  58.756  1.00  0.00     0.000 C 
BRANCH   4   5
ATOM      5  C   UNL     1      41.104  58.204  58.011  1.00  0.00     0.000 C 
BRANCH   5   6
ATOM      6  C   UNL     1      41.264  59.715  57.754  1.00  0.00     0.006 C 
BRANCH   6   7
ATOM      7  C   UNL     1      40.150  60.334  56.894  1.00  0.00     0.053 C 
BRANCH   7   8
ATOM      8  C   UNL     1      40.606  61.577  56.193  1.00  0.00     0.041 C 
ATOM      9  O   UNL     1      40.652  61.614  54.935  1.00  0.00    -0.550 OA
ATOM     10  O   UNL     1      40.949  62.704  56.928  1.00  0.00    -0.550 OA
ENDBRANCH   7   8
ENDBRANCH   6   7
ENDBRANCH   5   6
ENDBRANCH   4   5
ENDBRANCH   3   4
ENDBRANCH   2   3
ENDBRANCH   1   2
BRANCH   1  11
ATOM     11  C   UNL     1      38.335  54.322  60.311  1.00  0.00     0.000 C 
BRANCH  11  12
ATOM     12  C   UNL     1      39.668  54.118  61.047  1.00  0.00    -0.000 C 
BRANCH  12  13
ATOM     13  C   UNL     1      40.858  53.933  60.089  1.00  0.00    -0.000 C 
BRANCH  13  14
ATOM     14  C   UNL     1      42.200  54.498  60.598  1.00  0.00    -0.000 C 
BRANCH  14  15
ATOM     15  C   UNL     1      42.957  55.387  59.592  1.00  0.00    -0.000 C 
BRANCH  15  16
ATOM     16  C   UNL     1      43.679  56.602  60.209  1.00  0.00    -0.000 C 
BRANCH  16  17
ATOM     17  C   UNL     1      44.565  57.393  59.231  1.00  0.00    -0.003 C 
ATOM     18  C   UNL     1      45.723  58.110  59.923  1.00  0.00     0.004 C 
ENDBRANCH  16  17
ENDBRANCH  15  16
ENDBRANCH  14  15
ENDBRANCH  13  14
ENDBRANCH  12  13
ENDBRANCH  11  12
ENDBRANCH   1  11
TORSDOF 14
ENDMDL
MODEL 9
REMARK VINA RESULT:    -5.245      3.868      7.205
REMARK INTER + INTRA:         -10.693
REMARK INTER:                  -9.531
REMARK INTRA:                  -1.163
REMARK UNBOUND:                -1.156
REMARK SMILES CCCCCCCCCCCCCCCC(=O)[O-]
REMARK SMILES IDX 9 1 10 2 11 3 12 4 13 5 14 6 15 7 16 8 17 9 18 10 8 11 7 12
REMARK SMILES IDX 6 13 5 14 4 15 3 16 2 17 1 18
REMARK H PARENT
REMARK Flexibility Score: inf
ROOT
ATOM      1  C   UNL     1      40.420  54.748  60.458  1.00  0.00     0.000 C 
ENDROOT
BRANCH   1   2
ATOM      2  C   UNL     1      39.859  56.160  60.231  1.00  0.00     0.000 C 
BRANCH   2   3
ATOM      3  C   UNL     1      38.406  56.306  60.717  1.00  0.00     0.000 C 
BRANCH   3   4
ATOM      4  C   UNL     1      37.510  55.148  60.248  1.00  0.00     0.000 C 
BRANCH   4   5
ATOM      5  C   UNL     1      36.557  55.563  59.113  1.00  0.00     0.000 C 
BRANCH   5   6
ATOM      6  C   UNL     1      35.528  54.469  58.771  1.00  0.00     0.006 C 
BRANCH   6   7
ATOM      7  C   UNL     1      36.098  53.042  58.761  1.00  0.00     0.053 C 
BRANCH   7   8
ATOM      8  C   UNL     1      35.147  52.060  58.148  1.00  0.00     0.041 C 
ATOM      9  O   UNL     1      33.920  52.334  58.064  1.00  0.00    -0.550 OA
ATOM     10  O   UNL     1      35.619  50.856  57.641  1.00  0.00    -0.550 OA
ENDBRANCH   7   8
ENDBRANCH   6   7
ENDBRANCH   5   6
ENDBRANCH   4   5
ENDBRANCH   3   4
ENDBRANCH   2   3
ENDBRANCH   1   2
BRANCH   1  11
ATOM     11  C   UNL     1      41.772  54.526  59.763  1.00  0.00     0.000 C 
BRANCH  11  12
ATOM     12  C   UNL     1      42.914  55.165  60.568  1.00  0.00    -0.000 C 
BRANCH  12  13
ATOM     13  C   UNL     1      43.896  55.958  59.687  1.00  0.00    -0.000 C 
BRANCH  13  14
ATOM     14  C   UNL     1      44.120  57.423  60.115  1.00  0.00    -0.000 C 
BRANCH  14  15
ATOM     15  C   UNL     1      43.056  58.419  59.612  1.00  0.00    -0.000 C 
BRANCH  15  16
ATOM     16  C   UNL     1      42.334  58.002  58.315  1.00  0.00    -0.000 C 
BRANCH  16  17
ATOM     17  C   UNL     1      41.177  58.925  57.895  1.00  0.00    -0.003 C 
ATOM     18  C   UNL     1      41.629  60.358  57.617  1.00  0.00     0.004 C 
ENDBRANCH  16  17
ENDBRANCH  15  16
ENDBRANCH  14  15
ENDBRANCH  13  14
ENDBRANCH  12  13
ENDBRANCH  11  12
ENDBRANCH   1  11
TORSDOF 14
ENDMDL
