MODEL 1
REMARK VINA RESULT:     6.168      0.000      0.000
REMARK INTER + INTRA:           9.022
REMARK INTER:                   9.773
REMARK INTRA:                  -0.751
REMARK UNBOUND:                -0.751
REMARK SMILES CCCCCCCCCCCC(=O)[O-]
REMARK SMILES IDX 7 1 8 2 9 3 10 4 11 5 12 6 13 7 14 8 6 9 5 10 4 11 3 12 2 13
REMARK SMILES IDX 1 14
REMARK H PARENT
REMARK Flexibility Score: inf
ROOT
ATOM      1  C   UNL     1     -12.429  17.833  -9.720  1.00  0.00     0.000 C 
ENDROOT
BRANCH   1   2
ATOM      2  C   UNL     1     -13.144  18.878 -10.588  1.00  0.00     0.000 C 
BRANCH   2   3
ATOM      3  C   UNL     1     -13.118  18.508 -12.087  1.00  0.00     0.000 C 
BRANCH   3   4
ATOM      4  C   UNL     1     -13.001  19.725 -13.019  1.00  0.00     0.006 C 
BRANCH   4   5
ATOM      5  C   UNL     1     -11.591  19.901 -13.596  1.00  0.00     0.053 C 
BRANCH   5   6
ATOM      6  C   UNL     1     -11.515  19.327 -14.975  1.00  0.00     0.041 C 
ATOM      7  O   UNL     1     -10.663  19.758 -15.796  1.00  0.00    -0.550 OA
ATOM      8  O   UNL     1     -12.420  18.349 -15.372  1.00  0.00    -0.550 OA
ENDBRANCH   5   6
ENDBRANCH   4   5
ENDBRANCH   3   4
ENDBRANCH   2   3
ENDBRANCH   1   2
BRANCH   1   9
ATOM      9  C   UNL     1     -12.776  18.017  -8.237  1.00  0.00     0.000 C 
BRANCH   9  10
ATOM     10  C   UNL     1     -13.697  19.229  -8.034  1.00  0.00    -0.000 C 
BRANCH  10  11
ATOM     11  C   UNL     1     -13.494  19.902  -6.668  1.00  0.00    -0.000 C 
BRANCH  11  12
ATOM     12  C   UNL     1     -12.499  21.074  -6.726  1.00  0.00    -0.000 C 
BRANCH  12  13
ATOM     13  C   UNL     1     -12.198  21.521  -8.165  1.00  0.00    -0.003 C 
ATOM     14  C   UNL     1     -10.703  21.517  -8.482  1.00  0.00     0.004 C 
ENDBRANCH  12  13
ENDBRANCH  11  12
ENDBRANCH  10  11
ENDBRANCH   9  10
ENDBRANCH   1   9
TORSDOF 10
ENDMDL
MODEL 2
REMARK VINA RESULT:     6.467      0.930      1.699
REMARK INTER + INTRA:           9.497
REMARK INTER:                   9.990
REMARK INTRA:                  -0.493
REMARK UNBOUND:                -0.751
REMARK SMILES CCCCCCCCCCCC(=O)[O-]
REMARK SMILES IDX 7 1 8 2 9 3 10 4 11 5 12 6 13 7 14 8 6 9 5 10 4 11 3 12 2 13
REMARK SMILES IDX 1 14
REMARK H PARENT
REMARK Flexibility Score: inf
ROOT
ATOM      1  C   UNL     1     -13.173  18.791 -11.022  1.00  0.00     0.000 C 
ENDROOT
BRANCH   1   2
ATOM      2  C   UNL     1     -12.811  18.501 -12.486  1.00  0.00     0.000 C 
BRANCH   2   3
ATOM      3  C   UNL     1     -13.003  19.737 -13.391  1.00  0.00     0.000 C 
BRANCH   3   4
ATOM      4  C   UNL     1     -11.713  20.189 -14.095  1.00  0.00     0.006 C 
BRANCH   4   5
ATOM      5  C   UNL     1     -11.118  19.107 -15.004  1.00  0.00     0.053 C 
BRANCH   5   6
ATOM      6  C   UNL     1     -10.760  19.684 -16.338  1.00  0.00     0.041 C 
ATOM      7  O   UNL     1     -10.229  20.824 -16.414  1.00  0.00    -0.550 OA
ATOM      8  O   UNL     1     -11.058  18.984 -17.500  1.00  0.00    -0.550 OA
ENDBRANCH   5   6
ENDBRANCH   4   5
ENDBRANCH   3   4
ENDBRANCH   2   3
ENDBRANCH   1   2
BRANCH   1   9
ATOM      9  C   UNL     1     -12.712  17.652 -10.103  1.00  0.00     0.000 C 
BRANCH   9  10
ATOM     10  C   UNL     1     -12.716  18.097  -8.633  1.00  0.00    -0.000 C 
BRANCH  10  11
ATOM     11  C   UNL     1     -13.339  19.488  -8.439  1.00  0.00    -0.000 C 
BRANCH  11  12
ATOM     12  C   UNL     1     -13.122  20.041  -7.019  1.00  0.00    -0.000 C 
BRANCH  12  13
ATOM     13  C   UNL     1     -12.314  21.349  -7.014  1.00  0.00    -0.003 C 
ATOM     14  C   UNL     1     -11.564  21.583  -8.325  1.00  0.00     0.004 C 
ENDBRANCH  12  13
ENDBRANCH  11  12
ENDBRANCH  10  11
ENDBRANCH   9  10
ENDBRANCH   1   9
TORSDOF 10
ENDMDL
MODEL 3
REMARK VINA RESULT:     6.605      3.469      6.778
REMARK INTER + INTRA:           9.716
REMARK INTER:                  10.224
REMARK INTRA:                  -0.509
REMARK UNBOUND:                -0.751
REMARK SMILES CCCCCCCCCCCC(=O)[O-]
REMARK SMILES IDX 7 1 8 2 9 3 10 4 11 5 12 6 13 7 14 8 6 9 5 10 4 11 3 12 2 13
REMARK SMILES IDX 1 14
REMARK H PARENT
REMARK Flexibility Score: inf
ROOT
ATOM      1  C   UNL     1     -13.214  19.328 -11.390  1.00  0.00     0.000 C 
ENDROOT
BRANCH   1   2
ATOM      2  C   UNL     1     -12.803  17.990 -10.758  1.00  0.00     0.000 C 
BRANCH   2   3
ATOM      3  C   UNL     1     -12.796  18.050  -9.216  1.00  0.00     0.000 C 
BRANCH   3   4
ATOM      4  C   UNL     1     -13.601  19.228  -8.643  1.00  0.00     0.006 C 
BRANCH   4   5
ATOM      5  C   UNL     1     -13.119  19.660  -7.253  1.00  0.00     0.053 C 
BRANCH   5   6
ATOM      6  C   UNL     1     -12.395  20.967  -7.334  1.00  0.00     0.041 C 
ATOM      7  O   UNL     1     -12.426  21.770  -6.365  1.00  0.00    -0.550 OA
ATOM      8  O   UNL     1     -11.728  21.321  -8.500  1.00  0.00    -0.550 OA
ENDBRANCH   5   6
ENDBRANCH   4   5
ENDBRANCH   3   4
ENDBRANCH   2   3
ENDBRANCH   1   2
BRANCH   1   9
ATOM      9  C   UNL     1     -12.369  19.634 -12.633  1.00  0.00     0.000 C 
BRANCH   9  10
ATOM     10  C   UNL     1     -13.116  19.241 -13.916  1.00  0.00    -0.000 C 
BRANCH  10  11
ATOM     11  C   UNL     1     -12.188  18.629 -14.976  1.00  0.00    -0.000 C 
BRANCH  11  12
ATOM     12  C   UNL     1     -10.875  19.413 -15.138  1.00  0.00    -0.000 C 
BRANCH  12  13
ATOM     13  C   UNL     1     -10.587  19.785 -16.601  1.00  0.00    -0.003 C 
ATOM     14  C   UNL     1     -10.073  21.217 -16.755  1.00  0.00     0.004 C 
ENDBRANCH  12  13
ENDBRANCH  11  12
ENDBRANCH  10  11
ENDBRANCH   9  10
ENDBRANCH   1   9
TORSDOF 10
ENDMDL
MODEL 4
REMARK VINA RESULT:     6.633      1.944      2.827
REMARK INTER + INTRA:           9.760
REMARK INTER:                  10.210
REMARK INTRA:                  -0.450
REMARK UNBOUND:                -0.751
REMARK SMILES CCCCCCCCCCCC(=O)[O-]
REMARK SMILES IDX 7 1 8 2 9 3 10 4 11 5 12 6 13 7 14 8 6 9 5 10 4 11 3 12 2 13
REMARK SMILES IDX 1 14
REMARK H PARENT
REMARK Flexibility Score: inf
ROOT
ATOM      1  C   UNL     1     -13.053  18.797 -11.879  1.00  0.00     0.000 C 
ENDROOT
BRANCH   1   2
ATOM      2  C   UNL     1     -12.185  19.742 -12.722  1.00  0.00     0.000 C 
BRANCH   2   3
ATOM      3  C   UNL     1     -12.114  19.306 -14.201  1.00  0.00     0.000 C 
BRANCH   3   4
ATOM      4  C   UNL     1     -13.431  18.715 -14.731  1.00  0.00     0.006 C 
BRANCH   4   5
ATOM      5  C   UNL     1     -13.273  18.038 -16.098  1.00  0.00     0.053 C 
BRANCH   5   6
ATOM      6  C   UNL     1     -14.607  17.627 -16.635  1.00  0.00     0.041 C 
ATOM      7  O   UNL     1     -14.690  16.709 -17.494  1.00  0.00    -0.550 OA
ATOM      8  O   UNL     1     -15.757  18.290 -16.225  1.00  0.00    -0.550 OA
ENDBRANCH   5   6
ENDBRANCH   4   5
ENDBRANCH   3   4
ENDBRANCH   2   3
ENDBRANCH   1   2
BRANCH   1   9
ATOM      9  C   UNL     1     -13.079  19.235 -10.409  1.00  0.00     0.000 C 
BRANCH   9  10
ATOM     10  C   UNL     1     -12.783  18.050  -9.477  1.00  0.00    -0.000 C 
BRANCH  10  11
ATOM     11  C   UNL     1     -12.795  18.449  -7.993  1.00  0.00    -0.000 C 
BRANCH  11  12
ATOM     12  C   UNL     1     -13.503  19.792  -7.746  1.00  0.00    -0.000 C 
BRANCH  12  13
ATOM     13  C   UNL     1     -12.571  20.844  -7.125  1.00  0.00    -0.003 C 
ATOM     14  C   UNL     1     -11.711  21.559  -8.167  1.00  0.00     0.004 C 
ENDBRANCH  12  13
ENDBRANCH  11  12
ENDBRANCH  10  11
ENDBRANCH   9  10
ENDBRANCH   1   9
TORSDOF 10
ENDMDL
MODEL 5
REMARK VINA RESULT:     6.827      3.804      7.056
REMARK INTER + INTRA:          10.067
REMARK INTER:                  10.551
REMARK INTRA:                  -0.484
REMARK UNBOUND:                -0.751
REMARK SMILES CCCCCCCCCCCC(=O)[O-]
REMARK SMILES IDX 7 1 8 2 9 3 10 4 11 5 12 6 13 7 14 8 6 9 5 10 4 11 3 12 2 13
REMARK SMILES IDX 1 14
REMARK H PARENT
REMARK Flexibility Score: inf
ROOT
ATOM      1  C   UNL     1     -13.136  19.232 -11.771  1.00  0.00     0.000 C 
ENDROOT
BRANCH   1   2
ATOM      2  C   UNL     1     -12.768  17.920 -11.064  1.00  0.00     0.000 C 
BRANCH   2   3
ATOM      3  C   UNL     1     -12.729  18.075  -9.528  1.00  0.00     0.000 C 
BRANCH   3   4
ATOM      4  C   UNL     1     -13.393  19.367  -9.024  1.00  0.00     0.006 C 
BRANCH   4   5
ATOM      5  C   UNL     1     -13.050  19.682  -7.563  1.00  0.00     0.053 C 
BRANCH   5   6
ATOM      6  C   UNL     1     -12.322  20.986  -7.467  1.00  0.00     0.041 C 
ATOM      7  O   UNL     1     -11.674  21.425  -8.453  1.00  0.00    -0.550 OA
ATOM      8  O   UNL     1     -12.318  21.693  -6.271  1.00  0.00    -0.550 OA
ENDBRANCH   5   6
ENDBRANCH   4   5
ENDBRANCH   3   4
ENDBRANCH   2   3
ENDBRANCH   1   2
BRANCH   1   9
ATOM      9  C   UNL     1     -11.927  19.821 -12.507  1.00  0.00     0.000 C 
BRANCH   9  10
ATOM     10  C   UNL     1     -11.985  19.496 -14.007  1.00  0.00    -0.000 C 
BRANCH  10  11
ATOM     11  C   UNL     1     -13.381  19.041 -14.459  1.00  0.00    -0.000 C 
BRANCH  11  12
ATOM     12  C   UNL     1     -13.334  18.118 -15.689  1.00  0.00    -0.000 C 
BRANCH  12  13
ATOM     13  C   UNL     1     -14.716  17.925 -16.333  1.00  0.00    -0.003 C 
ATOM     14  C   UNL     1     -14.719  16.833 -17.404  1.00  0.00     0.004 C 
ENDBRANCH  12  13
ENDBRANCH  11  12
ENDBRANCH  10  11
ENDBRANCH   9  10
ENDBRANCH   1   9
TORSDOF 10
ENDMDL
MODEL 6
REMARK VINA RESULT:     8.044     14.477     16.714
REMARK INTER + INTRA:          11.995
REMARK INTER:                  11.733
REMARK INTRA:                   0.263
REMARK UNBOUND:                -0.751
REMARK SMILES CCCCCCCCCCCC(=O)[O-]
REMARK SMILES IDX 7 1 8 2 9 3 10 4 11 5 12 6 13 7 14 8 6 9 5 10 4 11 3 12 2 13
REMARK SMILES IDX 1 14
REMARK H PARENT
REMARK Flexibility Score: inf
ROOT
ATOM      1  C   UNL     1      -7.941   5.457 -18.977  1.00  0.00     0.000 C 
ENDROOT
BRANCH   1   2
ATOM      2  C   UNL     1      -8.271   4.705 -20.275  1.00  0.00     0.000 C 
BRANCH   2   3
ATOM      3  C   UNL     1      -7.148   3.728 -20.685  1.00  0.00     0.000 C 
BRANCH   3   4
ATOM      4  C   UNL     1      -7.138   3.398 -22.187  1.00  0.00     0.006 C 
BRANCH   4   5
ATOM      5  C   UNL     1      -7.465   4.612 -23.066  1.00  0.00     0.053 C 
BRANCH   5   6
ATOM      6  C   UNL     1      -8.941   4.860 -23.087  1.00  0.00     0.041 C 
ATOM      7  O   UNL     1      -9.746   3.892 -23.125  1.00  0.00    -0.550 OA
ATOM      8  O   UNL     1      -9.426   6.161 -23.114  1.00  0.00    -0.550 OA
ENDBRANCH   5   6
ENDBRANCH   4   5
ENDBRANCH   3   4
ENDBRANCH   2   3
ENDBRANCH   1   2
BRANCH   1   9
ATOM      9  C   UNL     1      -7.339   6.836 -19.276  1.00  0.00     0.000 C 
BRANCH   9  10
ATOM     10  C   UNL     1      -7.668   7.834 -18.156  1.00  0.00    -0.000 C 
BRANCH  10  11
ATOM     11  C   UNL     1      -8.132   9.196 -18.696  1.00  0.00    -0.000 C 
BRANCH  11  12
ATOM     12  C   UNL     1      -8.607  10.144 -17.582  1.00  0.00    -0.000 C 
BRANCH  12  13
ATOM     13  C   UNL     1      -7.858   9.921 -16.258  1.00  0.00    -0.003 C 
ATOM     14  C   UNL     1      -8.628  10.451 -15.049  1.00  0.00     0.004 C 
ENDBRANCH  12  13
ENDBRANCH  11  12
ENDBRANCH  10  11
ENDBRANCH   9  10
ENDBRANCH   1   9
TORSDOF 10
ENDMDL
MODEL 7
REMARK VINA RESULT:     8.721     14.972     18.022
REMARK INTER + INTRA:          13.068
REMARK INTER:                  13.813
REMARK INTRA:                  -0.745
REMARK UNBOUND:                -0.751
REMARK SMILES CCCCCCCCCCCC(=O)[O-]
REMARK SMILES IDX 7 1 8 2 9 3 10 4 11 5 12 6 13 7 14 8 6 9 5 10 4 11 3 12 2 13
REMARK SMILES IDX 1 14
REMARK H PARENT
REMARK Flexibility Score: inf
ROOT
ATOM      1  C   UNL     1      -8.851   4.912 -19.939  1.00  0.00     0.000 C 
ENDROOT
BRANCH   1   2
ATOM      2  C   UNL     1      -7.454   5.461 -19.611  1.00  0.00     0.000 C 
BRANCH   2   3
ATOM      3  C   UNL     1      -7.327   5.891 -18.134  1.00  0.00     0.000 C 
BRANCH   3   4
ATOM      4  C   UNL     1      -6.912   7.361 -17.956  1.00  0.00     0.006 C 
BRANCH   4   5
ATOM      5  C   UNL     1      -7.793   8.330 -18.753  1.00  0.00     0.053 C 
BRANCH   5   6
ATOM      6  C   UNL     1      -8.061   9.569 -17.957  1.00  0.00     0.041 C 
ATOM      7  O   UNL     1      -8.176  10.682 -18.535  1.00  0.00    -0.550 OA
ATOM      8  O   UNL     1      -8.135   9.502 -16.571  1.00  0.00    -0.550 OA
ENDBRANCH   5   6
ENDBRANCH   4   5
ENDBRANCH   3   4
ENDBRANCH   2   3
ENDBRANCH   1   2
BRANCH   1   9
ATOM      9  C   UNL     1      -8.761   3.687 -20.856  1.00  0.00     0.000 C 
BRANCH   9  10
ATOM     10  C   UNL     1      -8.606   4.109 -22.325  1.00  0.00    -0.000 C 
BRANCH  10  11
ATOM     11  C   UNL     1      -7.618   3.220 -23.094  1.00  0.00    -0.000 C 
BRANCH  11  12
ATOM     12  C   UNL     1      -6.193   3.800 -23.117  1.00  0.00    -0.000 C 
BRANCH  12  13
ATOM     13  C   UNL     1      -6.182   5.336 -23.125  1.00  0.00    -0.003 C 
ATOM     14  C   UNL     1      -4.772   5.916 -23.005  1.00  0.00     0.004 C 
ENDBRANCH  12  13
ENDBRANCH  11  12
ENDBRANCH  10  11
ENDBRANCH   9  10
ENDBRANCH   1   9
TORSDOF 10
ENDMDL
MODEL 8
REMARK VINA RESULT:     9.156     14.569     16.702
REMARK INTER + INTRA:          13.758
REMARK INTER:                  14.279
REMARK INTRA:                  -0.521
REMARK UNBOUND:                -0.751
REMARK SMILES CCCCCCCCCCCC(=O)[O-]
REMARK SMILES IDX 7 1 8 2 9 3 10 4 11 5 12 6 13 7 14 8 6 9 5 10 4 11 3 12 2 13
REMARK SMILES IDX 1 14
REMARK H PARENT
REMARK Flexibility Score: inf
ROOT
ATOM      1  C   UNL     1      -7.216   5.790 -18.856  1.00  0.00     0.000 C 
ENDROOT
BRANCH   1   2
ATOM      2  C   UNL     1      -8.611   5.592 -19.467  1.00  0.00     0.000 C 
BRANCH   2   3
ATOM      3  C   UNL     1      -8.697   4.311 -20.324  1.00  0.00     0.000 C 
BRANCH   3   4
ATOM      4  C   UNL     1      -8.759   4.585 -21.835  1.00  0.00     0.006 C 
BRANCH   4   5
ATOM      5  C   UNL     1      -8.119   3.469 -22.670  1.00  0.00     0.053 C 
BRANCH   5   6
ATOM      6  C   UNL     1      -6.692   3.799 -22.977  1.00  0.00     0.041 C 
ATOM      7  O   UNL     1      -5.845   2.879 -23.124  1.00  0.00    -0.550 OA
ATOM      8  O   UNL     1      -6.285   5.126 -23.051  1.00  0.00    -0.550 OA
ENDBRANCH   5   6
ENDBRANCH   4   5
ENDBRANCH   3   4
ENDBRANCH   2   3
ENDBRANCH   1   2
BRANCH   1   9
ATOM      9  C   UNL     1      -6.922   7.277 -18.620  1.00  0.00     0.000 C 
BRANCH   9  10
ATOM     10  C   UNL     1      -8.222   8.092 -18.570  1.00  0.00    -0.000 C 
BRANCH  10  11
ATOM     11  C   UNL     1      -7.969   9.608 -18.571  1.00  0.00    -0.000 C 
BRANCH  11  12
ATOM     12  C   UNL     1      -8.646  10.323 -17.388  1.00  0.00    -0.000 C 
BRANCH  12  13
ATOM     13  C   UNL     1      -7.840  10.198 -16.086  1.00  0.00    -0.003 C 
ATOM     14  C   UNL     1      -8.726   9.931 -14.868  1.00  0.00     0.004 C 
ENDBRANCH  12  13
ENDBRANCH  11  12
ENDBRANCH  10  11
ENDBRANCH   9  10
ENDBRANCH   1   9
TORSDOF 10
ENDMDL
