MODEL 1
REMARK VINA RESULT:    -4.795      0.000      0.000
REMARK INTER + INTRA:          -6.110
REMARK INTER:                  -5.776
REMARK INTRA:                  -0.333
REMARK UNBOUND:                -0.333
REMARK SMILES Oc1cc(O)c2cc(O)c(-c3ccc(O)c(O)c3)[o+]c2c1
REMARK SMILES IDX 10 1 19 2 20 3 21 4 2 5 3 6 4 7 6 8 7 9 8 10 11 11 12 12
REMARK SMILES IDX 13 13 14 14 18 15 16 16 15 17 17 19 9 21 1 23 5 25
REMARK H PARENT 15 18 17 20 9 22 1 24 5 26
REMARK Flexibility Score: inf
ROOT
ATOM      1  C   UNL     1      40.105 -30.587  10.706  1.00  0.00     0.402 A 
ATOM      2  O   UNL     1      39.225 -30.662   9.712  1.00  0.00    -0.202 OA
ATOM      3  C   UNL     1      37.918 -30.478   9.879  1.00  0.00     0.368 A 
ATOM      4  C   UNL     1      37.071 -30.580   8.773  1.00  0.00     0.162 A 
ATOM      5  C   UNL     1      35.693 -30.394   8.921  1.00  0.00     0.128 A 
ATOM      6  C   UNL     1      35.161 -30.107  10.180  1.00  0.00     0.093 A 
ATOM      7  C   UNL     1      35.990 -29.999  11.304  1.00  0.00     0.136 A 
ATOM      8  C   UNL     1      37.389 -30.184  11.159  1.00  0.00     0.125 A 
ATOM      9  C   UNL     1      38.296 -30.081  12.225  1.00  0.00     0.078 A 
ATOM     10  C   UNL     1      39.664 -30.272  12.004  1.00  0.00     0.223 A 
ENDROOT
BRANCH   1  11
ATOM     11  C   UNL     1      41.534 -30.821  10.393  1.00  0.00     0.087 A 
ATOM     12  C   UNL     1      42.415 -29.753  10.157  1.00  0.00     0.022 A 
ATOM     13  C   UNL     1      43.763 -29.997   9.887  1.00  0.00     0.051 A 
ATOM     14  C   UNL     1      44.261 -31.305   9.861  1.00  0.00     0.157 A 
ATOM     15  C   UNL     1      42.035 -32.131  10.390  1.00  0.00     0.068 A 
ATOM     16  C   UNL     1      43.386 -32.386  10.120  1.00  0.00     0.158 A 
BRANCH  14  17
ATOM     17  O   UNL     1      45.617 -31.481   9.582  1.00  0.00    -0.504 OA
ATOM     18  H   UNL     1      46.301 -30.740   9.612  1.00  0.00     0.293 HD
ENDBRANCH  14  17
BRANCH  16  19
ATOM     19  O   UNL     1      43.812 -33.716  10.121  1.00  0.00    -0.504 OA
ATOM     20  H   UNL     1      43.410 -34.438  10.701  1.00  0.00     0.293 HD
ENDBRANCH  16  19
ENDBRANCH   1  11
BRANCH  10  21
ATOM     21  O   UNL     1      40.570 -30.121  13.054  1.00  0.00    -0.500 OA
ATOM     22  H   UNL     1      41.572 -30.146  12.900  1.00  0.00     0.294 HD
ENDBRANCH  10  21
BRANCH   5  23
ATOM     23  O   UNL     1      34.842 -30.496   7.823  1.00  0.00    -0.507 OA
ATOM     24  H   UNL     1      35.146 -30.240   6.890  1.00  0.00     0.293 HD
ENDBRANCH   5  23
BRANCH   7  25
ATOM     25  O   UNL     1      35.379 -29.711  12.528  1.00  0.00    -0.507 OA
ATOM     26  H   UNL     1      35.635 -28.937  13.124  1.00  0.00     0.293 HD
ENDBRANCH   7  25
TORSDOF 6
ENDMDL
MODEL 2
REMARK VINA RESULT:    -4.490      1.788      2.596
REMARK INTER + INTRA:          -5.742
REMARK INTER:                  -5.390
REMARK INTRA:                  -0.352
REMARK UNBOUND:                -0.333
REMARK SMILES Oc1cc(O)c2cc(O)c(-c3ccc(O)c(O)c3)[o+]c2c1
REMARK SMILES IDX 10 1 19 2 20 3 21 4 2 5 3 6 4 7 6 8 7 9 8 10 11 11 12 12
REMARK SMILES IDX 13 13 14 14 18 15 16 16 15 17 17 19 9 21 1 23 5 25
REMARK H PARENT 15 18 17 20 9 22 1 24 5 26
REMARK Flexibility Score: inf
ROOT
ATOM      1  C   UNL     1      40.789 -30.679  11.105  1.00  0.00     0.402 A 
ATOM      2  O   UNL     1      39.810 -31.198  11.842  1.00  0.00    -0.202 OA
ATOM      3  C   UNL     1      38.525 -30.917  11.651  1.00  0.00     0.368 A 
ATOM      4  C   UNL     1      37.569 -31.511  12.479  1.00  0.00     0.162 A 
ATOM      5  C   UNL     1      36.211 -31.230  12.302  1.00  0.00     0.128 A 
ATOM      6  C   UNL     1      35.808 -30.351  11.295  1.00  0.00     0.093 A 
ATOM      7  C   UNL     1      36.747 -29.743  10.452  1.00  0.00     0.136 A 
ATOM      8  C   UNL     1      38.126 -30.027  10.625  1.00  0.00     0.125 A 
ATOM      9  C   UNL     1      39.135 -29.476   9.819  1.00  0.00     0.078 A 
ATOM     10  C   UNL     1      40.474 -29.806  10.048  1.00  0.00     0.223 A 
ENDROOT
BRANCH   1  11
ATOM     11  C   UNL     1      42.183 -31.064  11.423  1.00  0.00     0.087 A 
ATOM     12  C   UNL     1      42.950 -30.336  12.347  1.00  0.00     0.022 A 
ATOM     13  C   UNL     1      44.255 -30.732  12.647  1.00  0.00     0.051 A 
ATOM     14  C   UNL     1      44.815 -31.865  12.046  1.00  0.00     0.157 A 
ATOM     15  C   UNL     1      42.734 -32.213  10.835  1.00  0.00     0.068 A 
ATOM     16  C   UNL     1      44.042 -32.617  11.130  1.00  0.00     0.158 A 
BRANCH  14  17
ATOM     17  O   UNL     1      46.125 -32.204  12.386  1.00  0.00    -0.504 OA
ATOM     18  H   UNL     1      46.512 -33.131  12.288  1.00  0.00     0.293 HD
ENDBRANCH  14  17
BRANCH  16  19
ATOM     19  O   UNL     1      44.529 -33.763  10.498  1.00  0.00    -0.504 OA
ATOM     20  H   UNL     1      44.792 -33.803   9.524  1.00  0.00     0.293 HD
ENDBRANCH  16  19
ENDBRANCH   1  11
BRANCH  10  21
ATOM     21  O   UNL     1      41.472 -29.298   9.216  1.00  0.00    -0.500 OA
ATOM     22  H   UNL     1      42.084 -28.547   9.516  1.00  0.00     0.294 HD
ENDBRANCH  10  21
BRANCH   5  23
ATOM     23  O   UNL     1      35.252 -31.817  13.125  1.00  0.00    -0.507 OA
ATOM     24  H   UNL     1      34.443 -31.301  13.450  1.00  0.00     0.293 HD
ENDBRANCH   5  23
BRANCH   7  25
ATOM     25  O   UNL     1      36.262 -28.875   9.469  1.00  0.00    -0.507 OA
ATOM     26  H   UNL     1      36.629 -28.814   8.530  1.00  0.00     0.293 HD
ENDBRANCH   7  25
TORSDOF 6
ENDMDL
MODEL 3
REMARK VINA RESULT:    -4.366      1.721      6.804
REMARK INTER + INTRA:          -5.593
REMARK INTER:                  -5.267
REMARK INTRA:                  -0.326
REMARK UNBOUND:                -0.333
REMARK SMILES Oc1cc(O)c2cc(O)c(-c3ccc(O)c(O)c3)[o+]c2c1
REMARK SMILES IDX 10 1 19 2 20 3 21 4 2 5 3 6 4 7 6 8 7 9 8 10 11 11 12 12
REMARK SMILES IDX 13 13 14 14 18 15 16 16 15 17 17 19 9 21 1 23 5 25
REMARK H PARENT 15 18 17 20 9 22 1 24 5 26
REMARK Flexibility Score: inf
ROOT
ATOM      1  C   UNL     1      39.867 -31.231  10.726  1.00  0.00     0.402 A 
ATOM      2  O   UNL     1      41.015 -30.927  10.125  1.00  0.00    -0.202 OA
ATOM      3  C   UNL     1      42.193 -31.399  10.522  1.00  0.00     0.368 A 
ATOM      4  C   UNL     1      43.345 -31.020   9.828  1.00  0.00     0.162 A 
ATOM      5  C   UNL     1      44.597 -31.499  10.225  1.00  0.00     0.128 A 
ATOM      6  C   UNL     1      44.696 -32.359  11.321  1.00  0.00     0.093 A 
ATOM      7  C   UNL     1      43.557 -32.753  12.033  1.00  0.00     0.136 A 
ATOM      8  C   UNL     1      42.284 -32.272  11.632  1.00  0.00     0.125 A 
ATOM      9  C   UNL     1      41.087 -32.625  12.277  1.00  0.00     0.078 A 
ATOM     10  C   UNL     1      39.868 -32.114  11.821  1.00  0.00     0.223 A 
ENDROOT
BRANCH   1  11
ATOM     11  C   UNL     1      38.620 -30.633  10.194  1.00  0.00     0.087 A 
ATOM     12  C   UNL     1      38.003 -29.543  10.830  1.00  0.00     0.022 A 
ATOM     13  C   UNL     1      36.841 -28.982  10.298  1.00  0.00     0.051 A 
ATOM     14  C   UNL     1      36.280 -29.485   9.118  1.00  0.00     0.157 A 
ATOM     15  C   UNL     1      38.073 -31.125   9.000  1.00  0.00     0.068 A 
ATOM     16  C   UNL     1      36.907 -30.568   8.459  1.00  0.00     0.158 A 
BRANCH  14  17
ATOM     17  O   UNL     1      35.115 -28.882   8.641  1.00  0.00    -0.504 OA
ATOM     18  H   UNL     1      34.188 -29.255   8.780  1.00  0.00     0.293 HD
ENDBRANCH  14  17
BRANCH  16  19
ATOM     19  O   UNL     1      36.411 -31.117   7.274  1.00  0.00    -0.504 OA
ATOM     20  H   UNL     1      36.833 -30.977   6.367  1.00  0.00     0.293 HD
ENDBRANCH  16  19
ENDBRANCH   1  11
BRANCH  10  21
ATOM     21  O   UNL     1      38.674 -32.503  12.430  1.00  0.00    -0.500 OA
ATOM     22  H   UNL     1      37.924 -32.934  11.903  1.00  0.00     0.294 HD
ENDBRANCH  10  21
BRANCH   5  23
ATOM     23  O   UNL     1      45.750 -31.125   9.539  1.00  0.00    -0.507 OA
ATOM     24  H   UNL     1      46.032 -31.589   8.683  1.00  0.00     0.293 HD
ENDBRANCH   5  23
BRANCH   7  25
ATOM     25  O   UNL     1      43.742 -33.614  13.119  1.00  0.00    -0.507 OA
ATOM     26  H   UNL     1      44.006 -34.585  13.038  1.00  0.00     0.293 HD
ENDBRANCH   7  25
TORSDOF 6
ENDMDL
MODEL 4
REMARK VINA RESULT:    -4.357      2.411      7.442
REMARK INTER + INTRA:          -5.583
REMARK INTER:                  -5.429
REMARK INTRA:                  -0.154
REMARK UNBOUND:                -0.333
REMARK SMILES Oc1cc(O)c2cc(O)c(-c3ccc(O)c(O)c3)[o+]c2c1
REMARK SMILES IDX 10 1 19 2 20 3 21 4 2 5 3 6 4 7 6 8 7 9 8 10 11 11 12 12
REMARK SMILES IDX 13 13 14 14 18 15 16 16 15 17 17 19 9 21 1 23 5 25
REMARK H PARENT 15 18 17 20 9 22 1 24 5 26
REMARK Flexibility Score: inf
ROOT
ATOM      1  C   UNL     1      41.006 -31.299  12.259  1.00  0.00     0.402 A 
ATOM      2  O   UNL     1      41.481 -32.528  12.442  1.00  0.00    -0.202 OA
ATOM      3  C   UNL     1      42.774 -32.796  12.596  1.00  0.00     0.368 A 
ATOM      4  C   UNL     1      43.176 -34.122  12.780  1.00  0.00     0.162 A 
ATOM      5  C   UNL     1      44.530 -34.432  12.941  1.00  0.00     0.128 A 
ATOM      6  C   UNL     1      45.484 -33.413  12.917  1.00  0.00     0.093 A 
ATOM      7  C   UNL     1      45.107 -32.077  12.734  1.00  0.00     0.136 A 
ATOM      8  C   UNL     1      43.734 -31.756  12.573  1.00  0.00     0.125 A 
ATOM      9  C   UNL     1      43.263 -30.445  12.399  1.00  0.00     0.078 A 
ATOM     10  C   UNL     1      41.892 -30.206  12.250  1.00  0.00     0.223 A 
ENDROOT
BRANCH   1  11
ATOM     11  C   UNL     1      39.545 -31.131  12.091  1.00  0.00     0.087 A 
ATOM     12  C   UNL     1      38.646 -31.482  13.112  1.00  0.00     0.022 A 
ATOM     13  C   UNL     1      37.274 -31.292  12.940  1.00  0.00     0.051 A 
ATOM     14  C   UNL     1      36.772 -30.739  11.756  1.00  0.00     0.157 A 
ATOM     15  C   UNL     1      39.046 -30.556  10.912  1.00  0.00     0.068 A 
ATOM     16  C   UNL     1      37.671 -30.363  10.730  1.00  0.00     0.158 A 
BRANCH  14  17
ATOM     17  O   UNL     1      35.390 -30.580  11.645  1.00  0.00    -0.504 OA
ATOM     18  H   UNL     1      34.947 -29.845  11.115  1.00  0.00     0.293 HD
ENDBRANCH  14  17
BRANCH  16  19
ATOM     19  O   UNL     1      37.245 -29.797   9.526  1.00  0.00    -0.504 OA
ATOM     20  H   UNL     1      36.281 -29.752   9.233  1.00  0.00     0.293 HD
ENDBRANCH  16  19
ENDBRANCH   1  11
BRANCH  10  21
ATOM     21  O   UNL     1      41.419 -28.900  12.127  1.00  0.00    -0.500 OA
ATOM     22  H   UNL     1      41.845 -28.130  12.630  1.00  0.00     0.294 HD
ENDBRANCH  10  21
BRANCH   5  23
ATOM     23  O   UNL     1      44.938 -35.751  13.124  1.00  0.00    -0.507 OA
ATOM     24  H   UNL     1      45.824 -35.977  13.562  1.00  0.00     0.293 HD
ENDBRANCH   5  23
BRANCH   7  25
ATOM     25  O   UNL     1      46.123 -31.118  12.720  1.00  0.00    -0.507 OA
ATOM     26  H   UNL     1      45.969 -30.122  12.794  1.00  0.00     0.293 HD
ENDBRANCH   7  25
TORSDOF 6
ENDMDL
MODEL 5
REMARK VINA RESULT:    -4.195      1.598      7.227
REMARK INTER + INTRA:          -5.387
REMARK INTER:                  -5.092
REMARK INTRA:                  -0.295
REMARK UNBOUND:                -0.333
REMARK SMILES Oc1cc(O)c2cc(O)c(-c3ccc(O)c(O)c3)[o+]c2c1
REMARK SMILES IDX 10 1 19 2 20 3 21 4 2 5 3 6 4 7 6 8 7 9 8 10 11 11 12 12
REMARK SMILES IDX 13 13 14 14 18 15 16 16 15 17 17 19 9 21 1 23 5 25
REMARK H PARENT 15 18 17 20 9 22 1 24 5 26
REMARK Flexibility Score: inf
ROOT
ATOM      1  C   UNL     1      40.665 -30.755  10.505  1.00  0.00     0.402 A 
ATOM      2  O   UNL     1      41.087 -31.788  11.228  1.00  0.00    -0.202 OA
ATOM      3  C   UNL     1      42.356 -32.183  11.266  1.00  0.00     0.368 A 
ATOM      4  C   UNL     1      42.703 -33.283  12.055  1.00  0.00     0.162 A 
ATOM      5  C   UNL     1      44.029 -33.721  12.110  1.00  0.00     0.128 A 
ATOM      6  C   UNL     1      45.012 -33.057  11.373  1.00  0.00     0.093 A 
ATOM      7  C   UNL     1      44.690 -31.952  10.575  1.00  0.00     0.136 A 
ATOM      8  C   UNL     1      43.346 -31.502  10.518  1.00  0.00     0.125 A 
ATOM      9  C   UNL     1      42.934 -30.396   9.757  1.00  0.00     0.078 A 
ATOM     10  C   UNL     1      41.590 -30.008   9.753  1.00  0.00     0.223 A 
ENDROOT
BRANCH   1  11
ATOM     11  C   UNL     1      39.223 -30.420  10.539  1.00  0.00     0.087 A 
ATOM     12  C   UNL     1      38.387 -30.672   9.439  1.00  0.00     0.022 A 
ATOM     13  C   UNL     1      37.026 -30.369   9.503  1.00  0.00     0.051 A 
ATOM     14  C   UNL     1      36.469 -29.823  10.665  1.00  0.00     0.157 A 
ATOM     15  C   UNL     1      38.663 -29.893  11.713  1.00  0.00     0.068 A 
ATOM     16  C   UNL     1      37.299 -29.586  11.786  1.00  0.00     0.158 A 
BRANCH  14  17
ATOM     17  O   UNL     1      35.103 -29.539  10.662  1.00  0.00    -0.504 OA
ATOM     18  H   UNL     1      34.558 -29.378  11.496  1.00  0.00     0.293 HD
ENDBRANCH  14  17
BRANCH  16  19
ATOM     19  O   UNL     1      36.814 -29.052  12.982  1.00  0.00    -0.504 OA
ATOM     20  H   UNL     1      36.134 -28.307  13.034  1.00  0.00     0.293 HD
ENDBRANCH  16  19
ENDBRANCH   1  11
BRANCH  10  21
ATOM     21  O   UNL     1      41.189 -28.880   9.037  1.00  0.00    -0.500 OA
ATOM     22  H   UNL     1      40.215 -28.706   8.819  1.00  0.00     0.294 HD
ENDBRANCH  10  21
BRANCH   5  23
ATOM     23  O   UNL     1      44.382 -34.818  12.894  1.00  0.00    -0.507 OA
ATOM     24  H   UNL     1      44.390 -34.766  13.906  1.00  0.00     0.293 HD
ENDBRANCH   5  23
BRANCH   7  25
ATOM     25  O   UNL     1      45.731 -31.345   9.868  1.00  0.00    -0.507 OA
ATOM     26  H   UNL     1      46.703 -31.380  10.140  1.00  0.00     0.293 HD
ENDBRANCH   7  25
TORSDOF 6
ENDMDL
MODEL 6
REMARK VINA RESULT:    -2.845      2.259      7.280
REMARK INTER + INTRA:          -3.761
REMARK INTER:                  -3.735
REMARK INTRA:                  -0.025
REMARK UNBOUND:                -0.333
REMARK SMILES Oc1cc(O)c2cc(O)c(-c3ccc(O)c(O)c3)[o+]c2c1
REMARK SMILES IDX 10 1 19 2 20 3 21 4 2 5 3 6 4 7 6 8 7 9 8 10 11 11 12 12
REMARK SMILES IDX 13 13 14 14 18 15 16 16 15 17 17 19 9 21 1 23 5 25
REMARK H PARENT 15 18 17 20 9 22 1 24 5 26
REMARK Flexibility Score: inf
ROOT
ATOM      1  C   UNL     1      40.315 -31.019  11.872  1.00  0.00     0.402 A 
ATOM      2  O   UNL     1      41.306 -30.161  12.096  1.00  0.00    -0.202 OA
ATOM      3  C   UNL     1      42.550 -30.539  12.373  1.00  0.00     0.368 A 
ATOM      4  C   UNL     1      43.524 -29.562  12.596  1.00  0.00     0.162 A 
ATOM      5  C   UNL     1      44.840 -29.933  12.893  1.00  0.00     0.128 A 
ATOM      6  C   UNL     1      45.181 -31.285  12.968  1.00  0.00     0.093 A 
ATOM      7  C   UNL     1      44.223 -32.283  12.749  1.00  0.00     0.136 A 
ATOM      8  C   UNL     1      42.888 -31.912  12.445  1.00  0.00     0.125 A 
ATOM      9  C   UNL     1      41.866 -32.843  12.196  1.00  0.00     0.078 A 
ATOM     10  C   UNL     1      40.572 -32.402  11.898  1.00  0.00     0.223 A 
ENDROOT
BRANCH   1  11
ATOM     11  C   UNL     1      38.969 -30.472  11.582  1.00  0.00     0.087 A 
ATOM     12  C   UNL     1      38.770 -29.516  10.572  1.00  0.00     0.022 A 
ATOM     13  C   UNL     1      37.489 -29.033  10.301  1.00  0.00     0.051 A 
ATOM     14  C   UNL     1      36.382 -29.501  11.019  1.00  0.00     0.157 A 
ATOM     15  C   UNL     1      37.859 -30.959  12.288  1.00  0.00     0.068 A 
ATOM     16  C   UNL     1      36.569 -30.480  12.023  1.00  0.00     0.158 A 
BRANCH  14  17
ATOM     17  O   UNL     1      35.129 -28.974  10.702  1.00  0.00    -0.504 OA
ATOM     18  H   UNL     1      34.970 -28.295   9.972  1.00  0.00     0.293 HD
ENDBRANCH  14  17
BRANCH  16  19
ATOM     19  O   UNL     1      35.513 -31.000  12.773  1.00  0.00    -0.504 OA
ATOM     20  H   UNL     1      35.621 -31.423  13.683  1.00  0.00     0.293 HD
ENDBRANCH  16  19
ENDBRANCH   1  11
BRANCH  10  21
ATOM     21  O   UNL     1      39.569 -33.324  11.603  1.00  0.00    -0.500 OA
ATOM     22  H   UNL     1      38.627 -33.031  11.371  1.00  0.00     0.294 HD
ENDBRANCH  10  21
BRANCH   5  23
ATOM     23  O   UNL     1      45.816 -28.965  13.117  1.00  0.00    -0.507 OA
ATOM     24  H   UNL     1      46.551 -29.100  13.801  1.00  0.00     0.293 HD
ENDBRANCH   5  23
BRANCH   7  25
ATOM     25  O   UNL     1      44.645 -33.612  12.844  1.00  0.00    -0.507 OA
ATOM     26  H   UNL     1      45.560 -33.898  13.163  1.00  0.00     0.293 HD
ENDBRANCH   7  25
TORSDOF 6
ENDMDL
MODEL 7
REMARK VINA RESULT:    -1.864      1.737      6.872
REMARK INTER + INTRA:          -2.579
REMARK INTER:                  -3.063
REMARK INTRA:                   0.484
REMARK UNBOUND:                -0.333
REMARK SMILES Oc1cc(O)c2cc(O)c(-c3ccc(O)c(O)c3)[o+]c2c1
REMARK SMILES IDX 10 1 19 2 20 3 21 4 2 5 3 6 4 7 6 8 7 9 8 10 11 11 12 12
REMARK SMILES IDX 13 13 14 14 18 15 16 16 15 17 17 19 9 21 1 23 5 25
REMARK H PARENT 15 18 17 20 9 22 1 24 5 26
REMARK Flexibility Score: inf
ROOT
ATOM      1  C   UNL     1      40.121 -30.870  10.274  1.00  0.00     0.402 A 
ATOM      2  O   UNL     1      41.007 -31.835  10.045  1.00  0.00    -0.202 OA
ATOM      3  C   UNL     1      42.193 -31.893  10.642  1.00  0.00     0.368 A 
ATOM      4  C   UNL     1      43.059 -32.946  10.333  1.00  0.00     0.162 A 
ATOM      5  C   UNL     1      44.314 -33.030  10.945  1.00  0.00     0.128 A 
ATOM      6  C   UNL     1      44.704 -32.057  11.867  1.00  0.00     0.093 A 
ATOM      7  C   UNL     1      43.854 -30.992  12.194  1.00  0.00     0.136 A 
ATOM      8  C   UNL     1      42.579 -30.904  11.578  1.00  0.00     0.125 A 
ATOM      9  C   UNL     1      41.658 -29.881  11.855  1.00  0.00     0.078 A 
ATOM     10  C   UNL     1      40.416 -29.863  11.211  1.00  0.00     0.223 A 
ENDROOT
BRANCH   1  11
ATOM     11  C   UNL     1      38.836 -30.911   9.538  1.00  0.00     0.087 A 
ATOM     12  C   UNL     1      38.590 -31.878   8.550  1.00  0.00     0.022 A 
ATOM     13  C   UNL     1      37.363 -31.911   7.885  1.00  0.00     0.051 A 
ATOM     14  C   UNL     1      36.354 -30.993   8.201  1.00  0.00     0.157 A 
ATOM     15  C   UNL     1      37.820 -30.003   9.871  1.00  0.00     0.068 A 
ATOM     16  C   UNL     1      36.585 -30.029   9.210  1.00  0.00     0.158 A 
BRANCH  14  17
ATOM     17  O   UNL     1      35.152 -31.077   7.497  1.00  0.00    -0.504 OA
ATOM     18  H   UNL     1      34.616 -31.926   7.394  1.00  0.00     0.293 HD
ENDBRANCH  14  17
BRANCH  16  19
ATOM     19  O   UNL     1      35.625 -29.087   9.585  1.00  0.00    -0.504 OA
ATOM     20  H   UNL     1      35.053 -29.162  10.414  1.00  0.00     0.293 HD
ENDBRANCH  16  19
ENDBRANCH   1  11
BRANCH  10  21
ATOM     21  O   UNL     1      39.481 -28.875  11.522  1.00  0.00    -0.500 OA
ATOM     22  H   UNL     1      39.573 -27.927  11.176  1.00  0.00     0.294 HD
ENDBRANCH  10  21
BRANCH   5  23
ATOM     23  O   UNL     1      45.182 -34.076  10.641  1.00  0.00    -0.507 OA
ATOM     24  H   UNL     1      46.168 -34.031  10.872  1.00  0.00     0.293 HD
ENDBRANCH   5  23
BRANCH   7  25
ATOM     25  O   UNL     1      44.321 -30.060  13.125  1.00  0.00    -0.507 OA
ATOM     26  H   UNL     1      44.011 -29.100  13.175  1.00  0.00     0.293 HD
ENDBRANCH   7  25
TORSDOF 6
ENDMDL
MODEL 8
REMARK VINA RESULT:    -1.822      2.565      3.099
REMARK INTER + INTRA:          -2.528
REMARK INTER:                  -2.457
REMARK INTRA:                  -0.071
REMARK UNBOUND:                -0.333
REMARK SMILES Oc1cc(O)c2cc(O)c(-c3ccc(O)c(O)c3)[o+]c2c1
REMARK SMILES IDX 10 1 19 2 20 3 21 4 2 5 3 6 4 7 6 8 7 9 8 10 11 11 12 12
REMARK SMILES IDX 13 13 14 14 18 15 16 16 15 17 17 19 9 21 1 23 5 25
REMARK H PARENT 15 18 17 20 9 22 1 24 5 26
REMARK Flexibility Score: inf
ROOT
ATOM      1  C   UNL     1      40.758 -31.718  12.437  1.00  0.00     0.402 A 
ATOM      2  O   UNL     1      39.687 -32.506  12.434  1.00  0.00    -0.202 OA
ATOM      3  C   UNL     1      38.446 -32.052  12.588  1.00  0.00     0.368 A 
ATOM      4  C   UNL     1      37.384 -32.960  12.574  1.00  0.00     0.162 A 
ATOM      5  C   UNL     1      36.070 -32.510  12.736  1.00  0.00     0.128 A 
ATOM      6  C   UNL     1      35.819 -31.148  12.915  1.00  0.00     0.093 A 
ATOM      7  C   UNL     1      36.866 -30.219  12.933  1.00  0.00     0.136 A 
ATOM      8  C   UNL     1      38.201 -30.670  12.765  1.00  0.00     0.125 A 
ATOM      9  C   UNL     1      39.310 -29.809  12.756  1.00  0.00     0.078 A 
ATOM     10  C   UNL     1      40.598 -30.327  12.581  1.00  0.00     0.223 A 
ENDROOT
BRANCH   1  11
ATOM     11  C   UNL     1      42.089 -32.345  12.265  1.00  0.00     0.087 A 
ATOM     12  C   UNL     1      42.521 -33.384  13.106  1.00  0.00     0.022 A 
ATOM     13  C   UNL     1      43.770 -33.976  12.910  1.00  0.00     0.051 A 
ATOM     14  C   UNL     1      44.605 -33.555  11.868  1.00  0.00     0.157 A 
ATOM     15  C   UNL     1      42.914 -31.936  11.207  1.00  0.00     0.068 A 
ATOM     16  C   UNL     1      44.169 -32.524  11.003  1.00  0.00     0.158 A 
BRANCH  14  17
ATOM     17  O   UNL     1      45.843 -34.184  11.729  1.00  0.00    -0.504 OA
ATOM     18  H   UNL     1      46.140 -34.975  12.282  1.00  0.00     0.293 HD
ENDBRANCH  14  17
BRANCH  16  19
ATOM     19  O   UNL     1      44.942 -32.058   9.938  1.00  0.00    -0.504 OA
ATOM     20  H   UNL     1      45.064 -31.081   9.713  1.00  0.00     0.293 HD
ENDBRANCH  16  19
ENDBRANCH   1  11
BRANCH  10  21
ATOM     21  O   UNL     1      41.696 -29.468  12.522  1.00  0.00    -0.500 OA
ATOM     22  H   UNL     1      41.789 -28.679  13.151  1.00  0.00     0.294 HD
ENDBRANCH  10  21
BRANCH   5  23
ATOM     23  O   UNL     1      35.006 -33.410  12.724  1.00  0.00    -0.507 OA
ATOM     24  H   UNL     1      34.969 -34.179  12.064  1.00  0.00     0.293 HD
ENDBRANCH   5  23
BRANCH   7  25
ATOM     25  O   UNL     1      36.530 -28.875  13.119  1.00  0.00    -0.507 OA
ATOM     26  H   UNL     1      35.656 -28.460  12.828  1.00  0.00     0.293 HD
ENDBRANCH   7  25
TORSDOF 6
ENDMDL
