MODEL 1
REMARK VINA RESULT:    10.274      0.000      0.000
REMARK INTER + INTRA:          24.293
REMARK INTER:                  15.079
REMARK INTRA:                   9.214
REMARK UNBOUND:                 9.214
REMARK SMILES O=c1c(O[C@H]2O[C@H](CO)[C@@H](O)[C@@H](O)[C@@H]2O)c(-c2ccc(O)c(O)c2)oc2cc(O)cc(O)c12
REMARK SMILES IDX 4 1 3 2 16 3 25 4 2 5 26 6 1 7 33 8 27 9 31 10 28 11 30 12
REMARK SMILES IDX 17 13 18 14 19 15 20 16 24 17 22 18 21 19 23 21 32 23 29 25
REMARK SMILES IDX 5 27 14 28 6 29 12 30 7 31 10 32 15 33 13 35 8 37 9 38 11 40
REMARK H PARENT 21 20 23 22 32 24 29 26 15 34 13 36 9 39 11 41
REMARK Flexibility Score: inf
ROOT
ATOM      1  O   UNL     1       4.948  11.306   9.621  1.00  0.00    -0.454 OA
ENDROOT
BRANCH   1   2
ATOM      2  C   UNL     1       5.510  11.782   8.424  1.00  0.00     0.214 A 
ATOM      3  C   UNL     1       4.631  12.100   7.379  1.00  0.00     0.180 A 
ATOM      4  O   UNL     1       5.095  12.453   6.188  1.00  0.00    -0.452 OA
ATOM      5  C   UNL     1       6.894  11.958   8.220  1.00  0.00     0.239 A 
ATOM      6  C   UNL     1       6.391  12.545   5.920  1.00  0.00     0.146 A 
ATOM      7  O   UNL     1       7.695  11.745   9.162  1.00  0.00    -0.285 OA
ATOM      8  C   UNL     1       7.359  12.369   6.945  1.00  0.00     0.111 A 
ATOM      9  C   UNL     1       6.789  12.800   4.607  1.00  0.00     0.094 A 
ATOM     10  C   UNL     1       8.732  12.530   6.620  1.00  0.00     0.134 A 
ATOM     11  C   UNL     1       8.146  12.858   4.280  1.00  0.00     0.123 A 
ATOM     12  C   UNL     1       9.106  12.726   5.285  1.00  0.00     0.093 A 
BRANCH   3  13
ATOM     13  C   UNL     1       3.174  12.034   7.594  1.00  0.00     0.025 A 
ATOM     14  C   UNL     1       2.369  11.264   6.745  1.00  0.00     0.016 A 
ATOM     15  C   UNL     1       1.000  11.127   7.008  1.00  0.00     0.051 A 
ATOM     16  C   UNL     1       0.430  11.753   8.122  1.00  0.00     0.157 A 
ATOM     17  C   UNL     1       2.601  12.679   8.694  1.00  0.00     0.062 A 
ATOM     18  C   UNL     1       1.236  12.525   8.974  1.00  0.00     0.158 A 
BRANCH  16  19
ATOM     19  O   UNL     1      -0.930  11.570   8.377  1.00  0.00    -0.504 OA
ATOM     20  H   UNL     1      -1.539  12.341   8.628  1.00  0.00     0.293 HD
ENDBRANCH  16  19
BRANCH  18  21
ATOM     21  O   UNL     1       0.683  13.124  10.105  1.00  0.00    -0.504 OA
ATOM     22  H   UNL     1       1.117  13.045  11.018  1.00  0.00     0.293 HD
ENDBRANCH  18  21
ENDBRANCH   3  13
BRANCH  10  23
ATOM     23  O   UNL     1       9.750  12.526   7.576  1.00  0.00    -0.507 OA
ATOM     24  H   UNL     1      10.719  12.390   7.338  1.00  0.00     0.293 HD
ENDBRANCH  10  23
BRANCH  11  25
ATOM     25  O   UNL     1       8.548  13.041   2.955  1.00  0.00    -0.508 OA
ATOM     26  H   UNL     1       7.945  12.790   2.177  1.00  0.00     0.293 HD
ENDBRANCH  11  25
ENDBRANCH   1   2
BRANCH   1  27
ATOM     27  C   UNL     1       5.289  10.094  10.302  1.00  0.00     0.339 C 
ATOM     28  C   UNL     1       5.701   9.009   9.296  1.00  0.00     0.214 C 
ATOM     29  O   UNL     1       4.230   9.651  11.125  1.00  0.00    -0.332 OA
ATOM     30  C   UNL     1       4.493   8.410   8.535  1.00  0.00     0.180 C 
ATOM     31  C   UNL     1       3.023   9.362  10.418  1.00  0.00     0.179 C 
ATOM     32  C   UNL     1       3.158   9.099   8.882  1.00  0.00     0.177 C 
BRANCH  28  33
ATOM     33  O   UNL     1       6.375   7.990   9.991  1.00  0.00    -0.384 OA
ATOM     34  H   UNL     1       6.754   7.378   9.305  1.00  0.00     0.211 HD
ENDBRANCH  28  33
BRANCH  30  35
ATOM     35  O   UNL     1       4.732   8.498   7.146  1.00  0.00    -0.387 OA
ATOM     36  H   UNL     1       3.856   8.408   6.685  1.00  0.00     0.211 HD
ENDBRANCH  30  35
BRANCH  31  37
ATOM     37  C   UNL     1       2.340   8.184  11.125  1.00  0.00     0.191 C 
BRANCH  37  38
ATOM     38  O   UNL     1       1.894   7.239  10.179  1.00  0.00    -0.394 OA
ATOM     39  H   UNL     1       2.686   6.990   9.642  1.00  0.00     0.210 HD
ENDBRANCH  37  38
ENDBRANCH  31  37
BRANCH  32  40
ATOM     40  O   UNL     1       3.044  10.312   8.181  1.00  0.00    -0.387 OA
ATOM     41  H   UNL     1       3.880  10.821   8.330  1.00  0.00     0.211 HD
ENDBRANCH  32  40
ENDBRANCH   1  27
TORSDOF 12
ENDMDL
MODEL 2
REMARK VINA RESULT:    12.879      2.188      6.630
REMARK INTER + INTRA:          28.116
REMARK INTER:                  27.448
REMARK INTRA:                   0.667
REMARK UNBOUND:                 9.214
REMARK SMILES O=c1c(O[C@H]2O[C@H](CO)[C@@H](O)[C@@H](O)[C@@H]2O)c(-c2ccc(O)c(O)c2)oc2cc(O)cc(O)c12
REMARK SMILES IDX 4 1 3 2 16 3 25 4 2 5 26 6 1 7 33 8 27 9 31 10 28 11 30 12
REMARK SMILES IDX 17 13 18 14 19 15 20 16 24 17 22 18 21 19 23 21 32 23 29 25
REMARK SMILES IDX 5 27 14 28 6 29 12 30 7 31 10 32 15 33 13 35 8 37 9 38 11 40
REMARK H PARENT 21 20 23 22 32 24 29 26 15 34 13 36 9 39 11 41
REMARK Flexibility Score: inf
ROOT
ATOM      1  O   UNL     1       6.645  10.873   6.757  1.00  0.00    -0.454 OA
ENDROOT
BRANCH   1   2
ATOM      2  C   UNL     1       5.284  10.825   7.103  1.00  0.00     0.214 A 
ATOM      3  C   UNL     1       4.349  10.846   6.057  1.00  0.00     0.180 A 
ATOM      4  O   UNL     1       3.050  10.910   6.311  1.00  0.00    -0.452 OA
ATOM      5  C   UNL     1       4.811  10.755   8.429  1.00  0.00     0.239 A 
ATOM      6  C   UNL     1       2.559  10.938   7.544  1.00  0.00     0.146 A 
ATOM      7  O   UNL     1       5.627  10.666   9.379  1.00  0.00    -0.285 OA
ATOM      8  C   UNL     1       3.414  10.792   8.670  1.00  0.00     0.111 A 
ATOM      9  C   UNL     1       1.188  11.134   7.716  1.00  0.00     0.094 A 
ATOM     10  C   UNL     1       2.834  10.775   9.966  1.00  0.00     0.134 A 
ATOM     11  C   UNL     1       0.643  11.214   9.000  1.00  0.00     0.123 A 
ATOM     12  C   UNL     1       1.466  11.032  10.114  1.00  0.00     0.093 A 
BRANCH   3  13
ATOM     13  C   UNL     1       4.809  10.807   4.657  1.00  0.00     0.025 A 
ATOM     14  C   UNL     1       4.129  10.030   3.711  1.00  0.00     0.016 A 
ATOM     15  C   UNL     1       4.509  10.068   2.364  1.00  0.00     0.051 A 
ATOM     16  C   UNL     1       5.567  10.887   1.954  1.00  0.00     0.157 A 
ATOM     17  C   UNL     1       5.881  11.608   4.251  1.00  0.00     0.062 A 
ATOM     18  C   UNL     1       6.251  11.667   2.900  1.00  0.00     0.158 A 
BRANCH  16  19
ATOM     19  O   UNL     1       5.902  10.929   0.600  1.00  0.00    -0.504 OA
ATOM     20  H   UNL     1       5.492  10.294  -0.076  1.00  0.00     0.293 HD
ENDBRANCH  16  19
BRANCH  18  21
ATOM     21  O   UNL     1       7.284  12.511   2.495  1.00  0.00    -0.504 OA
ATOM     22  H   UNL     1       7.129  13.267   1.838  1.00  0.00     0.293 HD
ENDBRANCH  18  21
ENDBRANCH   3  13
BRANCH  10  23
ATOM     23  O   UNL     1       3.561  10.488  11.124  1.00  0.00    -0.507 OA
ATOM     24  H   UNL     1       3.884  11.205  11.753  1.00  0.00     0.293 HD
ENDBRANCH  10  23
BRANCH  11  25
ATOM     25  O   UNL     1      -0.715  11.482   9.177  1.00  0.00    -0.508 OA
ATOM     26  H   UNL     1      -1.128  12.362   8.882  1.00  0.00     0.293 HD
ENDBRANCH  11  25
ENDBRANCH   1   2
BRANCH   1  27
ATOM     27  C   UNL     1       7.391  12.036   6.385  1.00  0.00     0.339 C 
ATOM     28  C   UNL     1       8.629  11.642   5.565  1.00  0.00     0.214 C 
ATOM     29  O   UNL     1       7.751  12.801   7.517  1.00  0.00    -0.332 OA
ATOM     30  C   UNL     1       9.751  11.025   6.435  1.00  0.00     0.180 C 
ATOM     31  C   UNL     1       8.576  12.105   8.453  1.00  0.00     0.179 C 
ATOM     32  C   UNL     1       9.344  10.854   7.913  1.00  0.00     0.177 C 
BRANCH  28  33
ATOM     33  O   UNL     1       9.112  12.787   4.911  1.00  0.00    -0.384 OA
ATOM     34  H   UNL     1       9.961  13.039   5.365  1.00  0.00     0.211 HD
ENDBRANCH  28  33
BRANCH  30  35
ATOM     35  O   UNL     1      10.124   9.777   5.892  1.00  0.00    -0.387 OA
ATOM     36  H   UNL     1       9.385   9.473   5.301  1.00  0.00     0.211 HD
ENDBRANCH  30  35
BRANCH  31  37
ATOM     37  C   UNL     1       9.542  13.125   9.071  1.00  0.00     0.191 C 
BRANCH  37  38
ATOM     38  O   UNL     1       9.450  13.095  10.476  1.00  0.00    -0.394 OA
ATOM     39  H   UNL     1       8.617  12.608  10.690  1.00  0.00     0.210 HD
ENDBRANCH  37  38
ENDBRANCH  31  37
BRANCH  32  40
ATOM     40  O   UNL     1       8.547   9.706   8.064  1.00  0.00    -0.387 OA
ATOM     41  H   UNL     1       7.798   9.778   7.422  1.00  0.00     0.211 HD
ENDBRANCH  32  40
ENDBRANCH   1  27
TORSDOF 12
ENDMDL
