MODEL 1
REMARK VINA RESULT:    -7.060      0.000      0.000
REMARK INTER + INTRA:          -8.236
REMARK INTER:                  -8.504
REMARK INTRA:                   0.269
REMARK UNBOUND:                 0.269
REMARK SMILES O=c1c(O)c(-c2ccc(O)c(O)c2)oc2cc(O)cc(O)c12
REMARK SMILES IDX 5 1 3 2 2 3 1 4 22 5 20 6 19 7 17 8 16 9 15 10 14 11 6 12
REMARK SMILES IDX 7 13 8 14 9 15 13 16 11 17 10 18 12 20 4 22 21 24 18 26
REMARK H PARENT 10 19 12 21 4 23 21 25 18 27
REMARK Flexibility Score: inf
ROOT
ATOM      1  C   UNL     1      62.086  44.563  17.228  1.00  0.00     0.180 A 
ATOM      2  C   UNL     1      61.664  43.294  16.787  1.00  0.00     0.208 A 
ATOM      3  C   UNL     1      61.991  42.885  15.485  1.00  0.00     0.238 A 
ATOM      4  O   UNL     1      61.609  41.755  15.075  1.00  0.00    -0.285 OA
ATOM      5  C   UNL     1      62.748  43.738  14.656  1.00  0.00     0.111 A 
ATOM      6  C   UNL     1      63.122  43.400  13.334  1.00  0.00     0.134 A 
ATOM      7  C   UNL     1      63.885  44.300  12.574  1.00  0.00     0.093 A 
ATOM      8  C   UNL     1      64.281  45.528  13.111  1.00  0.00     0.123 A 
ATOM      9  C   UNL     1      63.913  45.867  14.417  1.00  0.00     0.094 A 
ATOM     10  C   UNL     1      63.152  44.984  15.188  1.00  0.00     0.146 A 
ATOM     11  O   UNL     1      62.812  45.334  16.424  1.00  0.00    -0.452 OA
ENDROOT
BRANCH   1  12
ATOM     12  C   UNL     1      61.765  45.073  18.581  1.00  0.00     0.025 A 
ATOM     13  C   UNL     1      61.570  46.444  18.819  1.00  0.00     0.016 A 
ATOM     14  C   UNL     1      61.292  46.904  20.109  1.00  0.00     0.051 A 
ATOM     15  C   UNL     1      61.219  46.009  21.179  1.00  0.00     0.157 A 
ATOM     16  C   UNL     1      61.712  44.178  19.663  1.00  0.00     0.062 A 
ATOM     17  C   UNL     1      61.433  44.638  20.957  1.00  0.00     0.158 A 
BRANCH  15  18
ATOM     18  O   UNL     1      60.938  46.499  22.455  1.00  0.00    -0.504 OA
ATOM     19  H   UNL     1      60.301  47.271  22.606  1.00  0.00     0.293 HD
ENDBRANCH  15  18
BRANCH  17  20
ATOM     20  O   UNL     1      61.369  43.740  22.021  1.00  0.00    -0.504 OA
ATOM     21  H   UNL     1      61.507  44.040  22.979  1.00  0.00     0.293 HD
ENDBRANCH  17  20
ENDBRANCH   1  12
BRANCH   2  22
ATOM     22  O   UNL     1      60.957  42.448  17.645  1.00  0.00    -0.502 OA
ATOM     23  H   UNL     1      61.386  42.010  18.452  1.00  0.00     0.293 HD
ENDBRANCH   2  22
BRANCH   6  24
ATOM     24  O   UNL     1      62.745  42.181  12.769  1.00  0.00    -0.507 OA
ATOM     25  H   UNL     1      63.383  41.396  12.718  1.00  0.00     0.293 HD
ENDBRANCH   6  24
BRANCH   8  26
ATOM     26  O   UNL     1      65.039  46.403  12.337  1.00  0.00    -0.508 OA
ATOM     27  H   UNL     1      65.998  46.195  12.086  1.00  0.00     0.293 HD
ENDBRANCH   8  26
TORSDOF 6
ENDMDL
MODEL 2
REMARK VINA RESULT:    -7.010      1.252      2.884
REMARK INTER + INTRA:          -8.176
REMARK INTER:                  -8.431
REMARK INTRA:                   0.255
REMARK UNBOUND:                 0.269
REMARK SMILES O=c1c(O)c(-c2ccc(O)c(O)c2)oc2cc(O)cc(O)c12
REMARK SMILES IDX 5 1 3 2 2 3 1 4 22 5 20 6 19 7 17 8 16 9 15 10 14 11 6 12
REMARK SMILES IDX 7 13 8 14 9 15 13 16 11 17 10 18 12 20 4 22 21 24 18 26
REMARK H PARENT 10 19 12 21 4 23 21 25 18 27
REMARK Flexibility Score: inf
ROOT
ATOM      1  C   UNL     1      62.329  45.340  17.632  1.00  0.00     0.180 A 
ATOM      2  C   UNL     1      63.061  46.286  16.889  1.00  0.00     0.208 A 
ATOM      3  C   UNL     1      63.510  45.941  15.604  1.00  0.00     0.238 A 
ATOM      4  O   UNL     1      64.176  46.775  14.934  1.00  0.00    -0.285 OA
ATOM      5  C   UNL     1      63.203  44.669  15.078  1.00  0.00     0.111 A 
ATOM      6  C   UNL     1      63.614  44.244  13.791  1.00  0.00     0.134 A 
ATOM      7  C   UNL     1      63.261  42.965  13.335  1.00  0.00     0.093 A 
ATOM      8  C   UNL     1      62.506  42.106  14.137  1.00  0.00     0.123 A 
ATOM      9  C   UNL     1      62.098  42.520  15.409  1.00  0.00     0.094 A 
ATOM     10  C   UNL     1      62.441  43.790  15.882  1.00  0.00     0.146 A 
ATOM     11  O   UNL     1      62.045  44.156  17.096  1.00  0.00    -0.452 OA
ENDROOT
BRANCH   1  12
ATOM     12  C   UNL     1      61.838  45.623  18.999  1.00  0.00     0.025 A 
ATOM     13  C   UNL     1      61.479  46.924  19.394  1.00  0.00     0.016 A 
ATOM     14  C   UNL     1      61.042  47.171  20.697  1.00  0.00     0.051 A 
ATOM     15  C   UNL     1      60.968  46.132  21.628  1.00  0.00     0.157 A 
ATOM     16  C   UNL     1      61.783  44.584  19.943  1.00  0.00     0.062 A 
ATOM     17  C   UNL     1      61.344  44.831  21.252  1.00  0.00     0.158 A 
BRANCH  15  18
ATOM     18  O   UNL     1      60.525  46.409  22.922  1.00  0.00    -0.504 OA
ATOM     19  H   UNL     1      60.921  45.953  23.735  1.00  0.00     0.293 HD
ENDBRANCH  15  18
BRANCH  17  20
ATOM     20  O   UNL     1      61.280  43.790  22.177  1.00  0.00    -0.504 OA
ATOM     21  H   UNL     1      60.412  43.539  22.635  1.00  0.00     0.293 HD
ENDBRANCH  17  20
ENDBRANCH   1  12
BRANCH   2  22
ATOM     22  O   UNL     1      63.309  47.557  17.414  1.00  0.00    -0.502 OA
ATOM     23  H   UNL     1      63.423  48.374  16.826  1.00  0.00     0.293 HD
ENDBRANCH   2  22
BRANCH   6  24
ATOM     24  O   UNL     1      64.367  45.080  12.965  1.00  0.00    -0.507 OA
ATOM     25  H   UNL     1      64.558  46.043  13.212  1.00  0.00     0.293 HD
ENDBRANCH   6  24
BRANCH   8  26
ATOM     26  O   UNL     1      62.167  40.842  13.660  1.00  0.00    -0.508 OA
ATOM     27  H   UNL     1      61.843  40.111  14.281  1.00  0.00     0.293 HD
ENDBRANCH   8  26
TORSDOF 6
ENDMDL
MODEL 3
REMARK VINA RESULT:    -6.577      1.237      1.630
REMARK INTER + INTRA:          -7.654
REMARK INTER:                  -7.865
REMARK INTRA:                   0.211
REMARK UNBOUND:                 0.269
REMARK SMILES O=c1c(O)c(-c2ccc(O)c(O)c2)oc2cc(O)cc(O)c12
REMARK SMILES IDX 5 1 3 2 2 3 1 4 22 5 20 6 19 7 17 8 16 9 15 10 14 11 6 12
REMARK SMILES IDX 7 13 8 14 9 15 13 16 11 17 10 18 12 20 4 22 21 24 18 26
REMARK H PARENT 10 19 12 21 4 23 21 25 18 27
REMARK Flexibility Score: inf
ROOT
ATOM      1  C   UNL     1      61.554  45.092  17.564  1.00  0.00     0.180 A 
ATOM      2  C   UNL     1      61.332  43.714  17.743  1.00  0.00     0.208 A 
ATOM      3  C   UNL     1      61.622  42.836  16.685  1.00  0.00     0.238 A 
ATOM      4  O   UNL     1      61.417  41.601  16.829  1.00  0.00    -0.285 OA
ATOM      5  C   UNL     1      62.148  43.348  15.481  1.00  0.00     0.111 A 
ATOM      6  C   UNL     1      62.471  42.532  14.370  1.00  0.00     0.134 A 
ATOM      7  C   UNL     1      62.998  43.115  13.208  1.00  0.00     0.093 A 
ATOM      8  C   UNL     1      63.210  44.494  13.136  1.00  0.00     0.123 A 
ATOM      9  C   UNL     1      62.892  45.305  14.231  1.00  0.00     0.094 A 
ATOM     10  C   UNL     1      62.363  44.743  15.396  1.00  0.00     0.146 A 
ATOM     11  O   UNL     1      62.066  45.536  16.420  1.00  0.00    -0.452 OA
ENDROOT
BRANCH   1  12
ATOM     12  C   UNL     1      61.256  46.081  18.625  1.00  0.00     0.025 A 
ATOM     13  C   UNL     1      60.750  47.356  18.315  1.00  0.00     0.016 A 
ATOM     14  C   UNL     1      60.500  48.282  19.331  1.00  0.00     0.051 A 
ATOM     15  C   UNL     1      60.760  47.957  20.665  1.00  0.00     0.157 A 
ATOM     16  C   UNL     1      61.537  45.765  19.964  1.00  0.00     0.062 A 
ATOM     17  C   UNL     1      61.285  46.693  20.985  1.00  0.00     0.158 A 
BRANCH  15  18
ATOM     18  O   UNL     1      60.498  48.901  21.658  1.00  0.00    -0.504 OA
ATOM     19  H   UNL     1      60.365  49.882  21.445  1.00  0.00     0.293 HD
ENDBRANCH  15  18
BRANCH  17  20
ATOM     20  O   UNL     1      61.555  46.364  22.312  1.00  0.00    -0.504 OA
ATOM     21  H   UNL     1      62.232  45.651  22.556  1.00  0.00     0.293 HD
ENDBRANCH  17  20
ENDBRANCH   1  12
BRANCH   2  22
ATOM     22  O   UNL     1      60.857  43.228  18.963  1.00  0.00    -0.502 OA
ATOM     23  H   UNL     1      60.459  43.833  19.671  1.00  0.00     0.293 HD
ENDBRANCH   2  22
BRANCH   6  24
ATOM     24  O   UNL     1      62.273  41.151  14.410  1.00  0.00    -0.507 OA
ATOM     25  H   UNL     1      62.153  40.655  15.285  1.00  0.00     0.293 HD
ENDBRANCH   6  24
BRANCH   8  26
ATOM     26  O   UNL     1      63.736  45.049  11.972  1.00  0.00    -0.508 OA
ATOM     27  H   UNL     1      63.327  45.870  11.544  1.00  0.00     0.293 HD
ENDBRANCH   8  26
TORSDOF 6
ENDMDL
MODEL 4
REMARK VINA RESULT:    -6.435      1.574      7.220
REMARK INTER + INTRA:          -7.483
REMARK INTER:                  -7.460
REMARK INTRA:                  -0.023
REMARK UNBOUND:                 0.269
REMARK SMILES O=c1c(O)c(-c2ccc(O)c(O)c2)oc2cc(O)cc(O)c12
REMARK SMILES IDX 5 1 3 2 2 3 1 4 22 5 20 6 19 7 17 8 16 9 15 10 14 11 6 12
REMARK SMILES IDX 7 13 8 14 9 15 13 16 11 17 10 18 12 20 4 22 21 24 18 26
REMARK H PARENT 10 19 12 21 4 23 21 25 18 27
REMARK Flexibility Score: inf
ROOT
ATOM      1  C   UNL     1      62.192  45.352  16.806  1.00  0.00     0.180 A 
ATOM      2  C   UNL     1      62.316  46.751  16.904  1.00  0.00     0.208 A 
ATOM      3  C   UNL     1      62.055  47.371  18.136  1.00  0.00     0.238 A 
ATOM      4  O   UNL     1      62.151  48.624  18.234  1.00  0.00    -0.285 OA
ATOM      5  C   UNL     1      61.698  46.583  19.250  1.00  0.00     0.111 A 
ATOM      6  C   UNL     1      61.423  47.129  20.527  1.00  0.00     0.134 A 
ATOM      7  C   UNL     1      61.082  46.277  21.589  1.00  0.00     0.093 A 
ATOM      8  C   UNL     1      61.012  44.895  21.399  1.00  0.00     0.123 A 
ATOM      9  C   UNL     1      61.282  44.350  20.139  1.00  0.00     0.094 A 
ATOM     10  C   UNL     1      61.621  45.183  19.069  1.00  0.00     0.146 A 
ATOM     11  O   UNL     1      61.868  44.640  17.882  1.00  0.00    -0.452 OA
ENDROOT
BRANCH   1  12
ATOM     12  C   UNL     1      62.432  44.628  15.537  1.00  0.00     0.025 A 
ATOM     13  C   UNL     1      63.621  44.801  14.809  1.00  0.00     0.016 A 
ATOM     14  C   UNL     1      63.816  44.126  13.601  1.00  0.00     0.051 A 
ATOM     15  C   UNL     1      62.824  43.281  13.096  1.00  0.00     0.157 A 
ATOM     16  C   UNL     1      61.428  43.794  15.015  1.00  0.00     0.062 A 
ATOM     17  C   UNL     1      61.622  43.116  13.804  1.00  0.00     0.158 A 
BRANCH  15  18
ATOM     18  O   UNL     1      63.048  42.619  11.888  1.00  0.00    -0.504 OA
ATOM     19  H   UNL     1      63.926  42.693  11.389  1.00  0.00     0.293 HD
ENDBRANCH  15  18
BRANCH  17  20
ATOM     20  O   UNL     1      60.625  42.280  13.302  1.00  0.00    -0.504 OA
ATOM     21  H   UNL     1      60.160  41.597  13.888  1.00  0.00     0.293 HD
ENDBRANCH  17  20
ENDBRANCH   1  12
BRANCH   2  22
ATOM     22  O   UNL     1      62.719  47.503  15.798  1.00  0.00    -0.502 OA
ATOM     23  H   UNL     1      62.106  47.686  15.013  1.00  0.00     0.293 HD
ENDBRANCH   2  22
BRANCH   6  24
ATOM     24  O   UNL     1      61.486  48.505  20.750  1.00  0.00    -0.507 OA
ATOM     25  H   UNL     1      60.738  49.004  21.217  1.00  0.00     0.293 HD
ENDBRANCH   6  24
BRANCH   8  26
ATOM     26  O   UNL     1      60.672  44.071  22.470  1.00  0.00    -0.508 OA
ATOM     27  H   UNL     1      60.525  43.077  22.348  1.00  0.00     0.293 HD
ENDBRANCH   8  26
TORSDOF 6
ENDMDL
MODEL 5
REMARK VINA RESULT:    -6.324      2.516      7.017
REMARK INTER + INTRA:          -7.349
REMARK INTER:                  -7.140
REMARK INTRA:                  -0.209
REMARK UNBOUND:                 0.269
REMARK SMILES O=c1c(O)c(-c2ccc(O)c(O)c2)oc2cc(O)cc(O)c12
REMARK SMILES IDX 5 1 3 2 2 3 1 4 22 5 20 6 19 7 17 8 16 9 15 10 14 11 6 12
REMARK SMILES IDX 7 13 8 14 9 15 13 16 11 17 10 18 12 20 4 22 21 24 18 26
REMARK H PARENT 10 19 12 21 4 23 21 25 18 27
REMARK Flexibility Score: inf
ROOT
ATOM      1  C   UNL     1      61.022  45.845  16.417  1.00  0.00     0.180 A 
ATOM      2  C   UNL     1      60.297  46.922  15.872  1.00  0.00     0.208 A 
ATOM      3  C   UNL     1      59.934  47.989  16.710  1.00  0.00     0.238 A 
ATOM      4  O   UNL     1      59.275  48.954  16.236  1.00  0.00    -0.285 OA
ATOM      5  C   UNL     1      60.319  47.972  18.066  1.00  0.00     0.111 A 
ATOM      6  C   UNL     1      59.997  49.009  18.975  1.00  0.00     0.134 A 
ATOM      7  C   UNL     1      60.424  48.922  20.309  1.00  0.00     0.093 A 
ATOM      8  C   UNL     1      61.165  47.823  20.750  1.00  0.00     0.123 A 
ATOM      9  C   UNL     1      61.486  46.795  19.856  1.00  0.00     0.094 A 
ATOM     10  C   UNL     1      61.067  46.863  18.524  1.00  0.00     0.146 A 
ATOM     11  O   UNL     1      61.381  45.871  17.698  1.00  0.00    -0.452 OA
ENDROOT
BRANCH   1  12
ATOM     12  C   UNL     1      61.425  44.676  15.603  1.00  0.00     0.025 A 
ATOM     13  C   UNL     1      60.472  43.790  15.073  1.00  0.00     0.016 A 
ATOM     14  C   UNL     1      60.877  42.679  14.329  1.00  0.00     0.051 A 
ATOM     15  C   UNL     1      62.234  42.428  14.114  1.00  0.00     0.157 A 
ATOM     16  C   UNL     1      62.790  44.409  15.404  1.00  0.00     0.062 A 
ATOM     17  C   UNL     1      63.198  43.296  14.656  1.00  0.00     0.158 A 
BRANCH  15  18
ATOM     18  O   UNL     1      62.608  41.313  13.364  1.00  0.00    -0.504 OA
ATOM     19  H   UNL     1      62.928  40.455  13.799  1.00  0.00     0.293 HD
ENDBRANCH  15  18
BRANCH  17  20
ATOM     20  O   UNL     1      64.554  43.048  14.452  1.00  0.00    -0.504 OA
ATOM     21  H   UNL     1      64.964  43.062  13.525  1.00  0.00     0.293 HD
ENDBRANCH  17  20
ENDBRANCH   1  12
BRANCH   2  22
ATOM     22  O   UNL     1      59.972  46.938  14.514  1.00  0.00    -0.502 OA
ATOM     23  H   UNL     1      59.678  47.782  14.036  1.00  0.00     0.293 HD
ENDBRANCH   2  22
BRANCH   6  24
ATOM     24  O   UNL     1      59.260  50.121  18.566  1.00  0.00    -0.507 OA
ATOM     25  H   UNL     1      58.352  50.332  18.960  1.00  0.00     0.293 HD
ENDBRANCH   6  24
BRANCH   8  26
ATOM     26  O   UNL     1      61.578  47.762  22.079  1.00  0.00    -0.508 OA
ATOM     27  H   UNL     1      62.423  47.273  22.349  1.00  0.00     0.293 HD
ENDBRANCH   8  26
TORSDOF 6
ENDMDL
MODEL 6
REMARK VINA RESULT:    -6.205      1.958      2.345
REMARK INTER + INTRA:          -7.206
REMARK INTER:                  -6.935
REMARK INTRA:                  -0.272
REMARK UNBOUND:                 0.269
REMARK SMILES O=c1c(O)c(-c2ccc(O)c(O)c2)oc2cc(O)cc(O)c12
REMARK SMILES IDX 5 1 3 2 2 3 1 4 22 5 20 6 19 7 17 8 16 9 15 10 14 11 6 12
REMARK SMILES IDX 7 13 8 14 9 15 13 16 11 17 10 18 12 20 4 22 21 24 18 26
REMARK H PARENT 10 19 12 21 4 23 21 25 18 27
REMARK Flexibility Score: inf
ROOT
ATOM      1  C   UNL     1      61.218  45.935  16.847  1.00  0.00     0.180 A 
ATOM      2  C   UNL     1      60.197  45.184  16.234  1.00  0.00     0.208 A 
ATOM      3  C   UNL     1      60.533  44.304  15.193  1.00  0.00     0.238 A 
ATOM      4  O   UNL     1      59.625  43.634  14.629  1.00  0.00    -0.285 OA
ATOM      5  C   UNL     1      61.880  44.175  14.798  1.00  0.00     0.111 A 
ATOM      6  C   UNL     1      62.303  43.309  13.761  1.00  0.00     0.134 A 
ATOM      7  C   UNL     1      63.665  43.230  13.432  1.00  0.00     0.093 A 
ATOM      8  C   UNL     1      64.609  43.997  14.118  1.00  0.00     0.123 A 
ATOM      9  C   UNL     1      64.197  44.855  15.143  1.00  0.00     0.094 A 
ATOM     10  C   UNL     1      62.844  44.949  15.484  1.00  0.00     0.146 A 
ATOM     11  O   UNL     1      62.479  45.775  16.458  1.00  0.00    -0.452 OA
ENDROOT
BRANCH   1  12
ATOM     12  C   UNL     1      60.940  46.896  17.938  1.00  0.00     0.025 A 
ATOM     13  C   UNL     1      60.337  48.140  17.683  1.00  0.00     0.016 A 
ATOM     14  C   UNL     1      60.108  49.041  18.725  1.00  0.00     0.051 A 
ATOM     15  C   UNL     1      60.487  48.723  20.032  1.00  0.00     0.157 A 
ATOM     16  C   UNL     1      61.340  46.588  19.249  1.00  0.00     0.062 A 
ATOM     17  C   UNL     1      61.110  47.491  20.297  1.00  0.00     0.158 A 
BRANCH  15  18
ATOM     18  O   UNL     1      60.243  49.643  21.052  1.00  0.00    -0.504 OA
ATOM     19  H   UNL     1      59.777  49.380  21.912  1.00  0.00     0.293 HD
ENDBRANCH  15  18
BRANCH  17  20
ATOM     20  O   UNL     1      61.498  47.170  21.597  1.00  0.00    -0.504 OA
ATOM     21  H   UNL     1      61.067  46.409  22.107  1.00  0.00     0.293 HD
ENDBRANCH  17  20
ENDBRANCH   1  12
BRANCH   2  22
ATOM     22  O   UNL     1      58.876  45.293  16.678  1.00  0.00    -0.502 OA
ATOM     23  H   UNL     1      58.544  44.827  17.513  1.00  0.00     0.293 HD
ENDBRANCH   2  22
BRANCH   6  24
ATOM     24  O   UNL     1      61.385  42.528  13.057  1.00  0.00    -0.507 OA
ATOM     25  H   UNL     1      61.391  41.517  13.114  1.00  0.00     0.293 HD
ENDBRANCH   6  24
BRANCH   8  26
ATOM     26  O   UNL     1      65.955  43.899  13.773  1.00  0.00    -0.508 OA
ATOM     27  H   UNL     1      66.683  44.278  14.367  1.00  0.00     0.293 HD
ENDBRANCH   8  26
TORSDOF 6
ENDMDL
MODEL 7
REMARK VINA RESULT:    -6.127      1.896      2.068
REMARK INTER + INTRA:          -7.111
REMARK INTER:                  -6.820
REMARK INTRA:                  -0.292
REMARK UNBOUND:                 0.269
REMARK SMILES O=c1c(O)c(-c2ccc(O)c(O)c2)oc2cc(O)cc(O)c12
REMARK SMILES IDX 5 1 3 2 2 3 1 4 22 5 20 6 19 7 17 8 16 9 15 10 14 11 6 12
REMARK SMILES IDX 7 13 8 14 9 15 13 16 11 17 10 18 12 20 4 22 21 24 18 26
REMARK H PARENT 10 19 12 21 4 23 21 25 18 27
REMARK Flexibility Score: inf
ROOT
ATOM      1  C   UNL     1      62.245  46.002  17.054  1.00  0.00     0.180 A 
ATOM      2  C   UNL     1      61.384  45.537  16.042  1.00  0.00     0.208 A 
ATOM      3  C   UNL     1      61.823  45.566  14.709  1.00  0.00     0.238 A 
ATOM      4  O   UNL     1      61.056  45.163  13.794  1.00  0.00    -0.285 OA
ATOM      5  C   UNL     1      63.119  46.037  14.414  1.00  0.00     0.111 A 
ATOM      6  C   UNL     1      63.640  46.094  13.099  1.00  0.00     0.134 A 
ATOM      7  C   UNL     1      64.944  46.568  12.886  1.00  0.00     0.093 A 
ATOM      8  C   UNL     1      65.735  46.982  13.960  1.00  0.00     0.123 A 
ATOM      9  C   UNL     1      65.225  46.928  15.262  1.00  0.00     0.094 A 
ATOM     10  C   UNL     1      63.928  46.461  15.493  1.00  0.00     0.146 A 
ATOM     11  O   UNL     1      63.467  46.424  16.739  1.00  0.00    -0.452 OA
ENDROOT
BRANCH   1  12
ATOM     12  C   UNL     1      61.847  46.021  18.480  1.00  0.00     0.025 A 
ATOM     13  C   UNL     1      61.456  47.212  19.115  1.00  0.00     0.016 A 
ATOM     14  C   UNL     1      61.108  47.210  20.468  1.00  0.00     0.051 A 
ATOM     15  C   UNL     1      61.158  46.027  21.209  1.00  0.00     0.157 A 
ATOM     16  C   UNL     1      61.917  44.837  19.233  1.00  0.00     0.062 A 
ATOM     17  C   UNL     1      61.568  44.833  20.591  1.00  0.00     0.158 A 
BRANCH  15  18
ATOM     18  O   UNL     1      60.803  46.055  22.558  1.00  0.00    -0.504 OA
ATOM     19  H   UNL     1      61.402  45.674  23.280  1.00  0.00     0.293 HD
ENDBRANCH  15  18
BRANCH  17  20
ATOM     20  O   UNL     1      61.628  43.650  21.326  1.00  0.00    -0.504 OA
ATOM     21  H   UNL     1      60.825  43.300  21.835  1.00  0.00     0.293 HD
ENDBRANCH  17  20
ENDBRANCH   1  12
BRANCH   2  22
ATOM     22  O   UNL     1      60.123  45.030  16.367  1.00  0.00    -0.502 OA
ATOM     23  H   UNL     1      59.624  45.310  17.203  1.00  0.00     0.293 HD
ENDBRANCH   2  22
BRANCH   6  24
ATOM     24  O   UNL     1      62.876  45.686  12.004  1.00  0.00    -0.507 OA
ATOM     25  H   UNL     1      63.100  44.849  11.480  1.00  0.00     0.293 HD
ENDBRANCH   6  24
BRANCH   8  26
ATOM     26  O   UNL     1      67.027  47.447  13.723  1.00  0.00    -0.508 OA
ATOM     27  H   UNL     1      67.786  46.813  13.508  1.00  0.00     0.293 HD
ENDBRANCH   8  26
TORSDOF 6
ENDMDL
MODEL 8
REMARK VINA RESULT:    -5.990      3.286      6.358
REMARK INTER + INTRA:          -6.947
REMARK INTER:                  -6.626
REMARK INTRA:                  -0.321
REMARK UNBOUND:                 0.269
REMARK SMILES O=c1c(O)c(-c2ccc(O)c(O)c2)oc2cc(O)cc(O)c12
REMARK SMILES IDX 5 1 3 2 2 3 1 4 22 5 20 6 19 7 17 8 16 9 15 10 14 11 6 12
REMARK SMILES IDX 7 13 8 14 9 15 13 16 11 17 10 18 12 20 4 22 21 24 18 26
REMARK H PARENT 10 19 12 21 4 23 21 25 18 27
REMARK Flexibility Score: inf
ROOT
ATOM      1  C   UNL     1      64.136  45.696  13.886  1.00  0.00     0.180 A 
ATOM      2  C   UNL     1      64.026  44.584  13.029  1.00  0.00     0.208 A 
ATOM      3  C   UNL     1      62.875  43.784  13.100  1.00  0.00     0.238 A 
ATOM      4  O   UNL     1      62.770  42.779  12.346  1.00  0.00    -0.285 OA
ATOM      5  C   UNL     1      61.847  44.120  14.006  1.00  0.00     0.111 A 
ATOM      6  C   UNL     1      60.655  43.369  14.136  1.00  0.00     0.134 A 
ATOM      7  C   UNL     1      59.675  43.773  15.056  1.00  0.00     0.093 A 
ATOM      8  C   UNL     1      59.864  44.910  15.844  1.00  0.00     0.123 A 
ATOM      9  C   UNL     1      61.041  45.656  15.720  1.00  0.00     0.094 A 
ATOM     10  C   UNL     1      62.030  45.268  14.811  1.00  0.00     0.146 A 
ATOM     11  O   UNL     1      63.140  45.991  14.717  1.00  0.00    -0.452 OA
ENDROOT
BRANCH   1  12
ATOM     12  C   UNL     1      65.327  46.576  13.884  1.00  0.00     0.025 A 
ATOM     13  C   UNL     1      65.439  47.654  12.989  1.00  0.00     0.016 A 
ATOM     14  C   UNL     1      66.583  48.456  12.989  1.00  0.00     0.051 A 
ATOM     15  C   UNL     1      67.635  48.188  13.869  1.00  0.00     0.157 A 
ATOM     16  C   UNL     1      66.395  46.296  14.753  1.00  0.00     0.062 A 
ATOM     17  C   UNL     1      67.544  47.100  14.754  1.00  0.00     0.158 A 
BRANCH  15  18
ATOM     18  O   UNL     1      68.764  49.008  13.847  1.00  0.00    -0.504 OA
ATOM     19  H   UNL     1      68.886  49.771  14.501  1.00  0.00     0.293 HD
ENDBRANCH  15  18
BRANCH  17  20
ATOM     20  O   UNL     1      68.592  46.823  15.630  1.00  0.00    -0.504 OA
ATOM     21  H   UNL     1      68.924  45.877  15.778  1.00  0.00     0.293 HD
ENDBRANCH  17  20
ENDBRANCH   1  12
BRANCH   2  22
ATOM     22  O   UNL     1      65.036  44.302  12.106  1.00  0.00    -0.502 OA
ATOM     23  H   UNL     1      65.840  44.905  11.980  1.00  0.00     0.293 HD
ENDBRANCH   2  22
BRANCH   6  24
ATOM     24  O   UNL     1      60.434  42.229  13.362  1.00  0.00    -0.507 OA
ATOM     25  H   UNL     1      61.177  41.571  13.159  1.00  0.00     0.293 HD
ENDBRANCH   6  24
BRANCH   8  26
ATOM     26  O   UNL     1      58.875  45.291  16.749  1.00  0.00    -0.508 OA
ATOM     27  H   UNL     1      58.812  46.241  17.096  1.00  0.00     0.293 HD
ENDBRANCH   8  26
TORSDOF 6
ENDMDL
MODEL 9
REMARK VINA RESULT:    -5.898      4.087      6.918
REMARK INTER + INTRA:          -6.836
REMARK INTER:                  -6.518
REMARK INTRA:                  -0.318
REMARK UNBOUND:                 0.269
REMARK SMILES O=c1c(O)c(-c2ccc(O)c(O)c2)oc2cc(O)cc(O)c12
REMARK SMILES IDX 5 1 3 2 2 3 1 4 22 5 20 6 19 7 17 8 16 9 15 10 14 11 6 12
REMARK SMILES IDX 7 13 8 14 9 15 13 16 11 17 10 18 12 20 4 22 21 24 18 26
REMARK H PARENT 10 19 12 21 4 23 21 25 18 27
REMARK Flexibility Score: inf
ROOT
ATOM      1  C   UNL     1      64.801  46.027  13.561  1.00  0.00     0.180 A 
ATOM      2  C   UNL     1      64.695  47.184  12.767  1.00  0.00     0.208 A 
ATOM      3  C   UNL     1      65.691  48.169  12.866  1.00  0.00     0.238 A 
ATOM      4  O   UNL     1      65.602  49.215  12.168  1.00  0.00    -0.285 OA
ATOM      5  C   UNL     1      66.783  47.970  13.737  1.00  0.00     0.111 A 
ATOM      6  C   UNL     1      67.829  48.910  13.891  1.00  0.00     0.134 A 
ATOM      7  C   UNL     1      68.886  48.636  14.773  1.00  0.00     0.093 A 
ATOM      8  C   UNL     1      68.917  47.443  15.499  1.00  0.00     0.123 A 
ATOM      9  C   UNL     1      67.885  46.510  15.350  1.00  0.00     0.094 A 
ATOM     10  C   UNL     1      66.822  46.767  14.478  1.00  0.00     0.146 A 
ATOM     11  O   UNL     1      65.852  45.867  14.359  1.00  0.00    -0.452 OA
ENDROOT
BRANCH   1  12
ATOM     12  C   UNL     1      63.782  44.953  13.527  1.00  0.00     0.025 A 
ATOM     13  C   UNL     1      63.917  43.843  12.676  1.00  0.00     0.016 A 
ATOM     14  C   UNL     1      62.930  42.854  12.642  1.00  0.00     0.051 A 
ATOM     15  C   UNL     1      61.791  42.964  13.444  1.00  0.00     0.157 A 
ATOM     16  C   UNL     1      62.625  45.072  14.315  1.00  0.00     0.062 A 
ATOM     17  C   UNL     1      61.634  44.080  14.283  1.00  0.00     0.158 A 
BRANCH  15  18
ATOM     18  O   UNL     1      60.824  41.960  13.390  1.00  0.00    -0.504 OA
ATOM     19  H   UNL     1      60.943  41.128  12.824  1.00  0.00     0.293 HD
ENDBRANCH  15  18
BRANCH  17  20
ATOM     20  O   UNL     1      60.497  44.201  15.080  1.00  0.00    -0.504 OA
ATOM     21  H   UNL     1      60.434  43.753  15.987  1.00  0.00     0.293 HD
ENDBRANCH  17  20
ENDBRANCH   1  12
BRANCH   2  22
ATOM     22  O   UNL     1      63.630  47.334  11.875  1.00  0.00    -0.502 OA
ATOM     23  H   UNL     1      62.704  47.613  12.178  1.00  0.00     0.293 HD
ENDBRANCH   2  22
BRANCH   6  24
ATOM     24  O   UNL     1      67.829  50.111  13.180  1.00  0.00    -0.507 OA
ATOM     25  H   UNL     1      66.975  50.625  13.002  1.00  0.00     0.293 HD
ENDBRANCH   6  24
BRANCH   8  26
ATOM     26  O   UNL     1      69.978  47.194  16.366  1.00  0.00    -0.508 OA
ATOM     27  H   UNL     1      70.806  46.697  16.061  1.00  0.00     0.293 HD
ENDBRANCH   8  26
TORSDOF 6
ENDMDL
