MODEL 1
REMARK VINA RESULT:    -4.207      0.000      0.000
REMARK INTER + INTRA:         -10.205
REMARK INTER:                  -7.897
REMARK INTRA:                  -2.308
REMARK UNBOUND:                -2.308
REMARK SMILES CCCCCCCCC=CCCCCCCCC(=O)[O-]
REMARK SMILES IDX 10 1 9 2 11 3 12 4 13 5 14 6 15 7 16 8 17 9 18 10 19 11
REMARK SMILES IDX 20 12 8 13 7 14 6 15 5 16 4 17 3 18 2 19 1 20
REMARK H PARENT
REMARK Flexibility Score: inf
ROOT
ATOM      1  C   UNL     1      23.531  46.496  38.192  1.00  0.00    -0.031 C 
ATOM      2  C   UNL     1      23.731  45.936  36.983  1.00  0.00    -0.031 C 
ENDROOT
BRANCH   1   3
ATOM      3  C   UNL     1      23.299  47.968  38.449  1.00  0.00     0.027 C 
BRANCH   3   4
ATOM      4  C   UNL     1      21.823  48.362  38.262  1.00  0.00     0.004 C 
BRANCH   4   5
ATOM      5  C   UNL     1      21.573  49.447  37.199  1.00  0.00     0.000 C 
BRANCH   5   6
ATOM      6  C   UNL     1      22.847  50.212  36.811  1.00  0.00     0.000 C 
BRANCH   6   7
ATOM      7  C   UNL     1      22.785  51.667  37.297  1.00  0.00     0.000 C 
BRANCH   7   8
ATOM      8  C   UNL     1      23.506  51.872  38.638  1.00  0.00     0.006 C 
BRANCH   8   9
ATOM      9  C   UNL     1      22.562  51.744  39.841  1.00  0.00     0.053 C 
BRANCH   9  10
ATOM     10  C   UNL     1      23.106  50.760  40.829  1.00  0.00     0.041 C 
ATOM     11  O   UNL     1      22.323  50.097  41.558  1.00  0.00    -0.550 OA
ATOM     12  O   UNL     1      24.474  50.538  40.909  1.00  0.00    -0.550 OA
ENDBRANCH   9  10
ENDBRANCH   8   9
ENDBRANCH   7   8
ENDBRANCH   6   7
ENDBRANCH   5   6
ENDBRANCH   4   5
ENDBRANCH   3   4
ENDBRANCH   1   3
BRANCH   2  13
ATOM     13  C   UNL     1      23.737  46.680  35.670  1.00  0.00     0.027 C 
BRANCH  13  14
ATOM     14  C   UNL     1      22.351  46.675  35.014  1.00  0.00     0.004 C 
BRANCH  14  15
ATOM     15  C   UNL     1      22.456  46.372  33.512  1.00  0.00     0.000 C 
BRANCH  15  16
ATOM     16  C   UNL     1      21.729  47.412  32.643  1.00  0.00     0.000 C 
BRANCH  16  17
ATOM     17  C   UNL     1      22.702  48.331  31.882  1.00  0.00    -0.000 C 
BRANCH  17  18
ATOM     18  C   UNL     1      23.157  49.540  32.717  1.00  0.00    -0.000 C 
BRANCH  18  19
ATOM     19  C   UNL     1      24.665  49.590  33.023  1.00  0.00    -0.003 C 
ATOM     20  C   UNL     1      25.384  48.279  32.708  1.00  0.00     0.004 C 
ENDBRANCH  18  19
ENDBRANCH  17  18
ENDBRANCH  16  17
ENDBRANCH  15  16
ENDBRANCH  14  15
ENDBRANCH  13  14
ENDBRANCH   2  13
TORSDOF 15
ENDMDL
MODEL 2
REMARK VINA RESULT:    -4.179      3.153      6.349
REMARK INTER + INTRA:         -10.151
REMARK INTER:                  -7.769
REMARK INTRA:                  -2.382
REMARK UNBOUND:                -2.308
REMARK SMILES CCCCCCCCC=CCCCCCCCC(=O)[O-]
REMARK SMILES IDX 10 1 9 2 11 3 12 4 13 5 14 6 15 7 16 8 17 9 18 10 19 11
REMARK SMILES IDX 20 12 8 13 7 14 6 15 5 16 4 17 3 18 2 19 1 20
REMARK H PARENT
REMARK Flexibility Score: inf
ROOT
ATOM      1  C   UNL     1      23.878  46.314  35.520  1.00  0.00    -0.031 C 
ATOM      2  C   UNL     1      23.306  47.024  36.512  1.00  0.00    -0.031 C 
ENDROOT
BRANCH   1   3
ATOM      3  C   UNL     1      24.384  46.884  34.214  1.00  0.00     0.027 C 
BRANCH   3   4
ATOM      4  C   UNL     1      23.568  46.381  33.009  1.00  0.00     0.004 C 
BRANCH   4   5
ATOM      5  C   UNL     1      22.052  46.268  33.257  1.00  0.00     0.000 C 
BRANCH   5   6
ATOM      6  C   UNL     1      21.248  47.384  32.573  1.00  0.00     0.000 C 
BRANCH   6   7
ATOM      7  C   UNL     1      21.365  48.703  33.351  1.00  0.00     0.000 C 
BRANCH   7   8
ATOM      8  C   UNL     1      22.127  49.783  32.567  1.00  0.00     0.006 C 
BRANCH   8   9
ATOM      9  C   UNL     1      23.187  50.493  33.419  1.00  0.00     0.053 C 
BRANCH   9  10
ATOM     10  C   UNL     1      24.507  50.498  32.715  1.00  0.00     0.041 C 
ATOM     11  O   UNL     1      24.846  49.520  31.998  1.00  0.00    -0.550 OA
ATOM     12  O   UNL     1      25.342  51.604  32.809  1.00  0.00    -0.550 OA
ENDBRANCH   9  10
ENDBRANCH   8   9
ENDBRANCH   7   8
ENDBRANCH   6   7
ENDBRANCH   5   6
ENDBRANCH   4   5
ENDBRANCH   3   4
ENDBRANCH   1   3
BRANCH   2  13
ATOM     13  C   UNL     1      23.090  48.517  36.500  1.00  0.00     0.027 C 
BRANCH  13  14
ATOM     14  C   UNL     1      21.661  48.883  36.920  1.00  0.00     0.004 C 
BRANCH  14  15
ATOM     15  C   UNL     1      21.579  50.349  37.368  1.00  0.00     0.000 C 
BRANCH  15  16
ATOM     16  C   UNL     1      20.878  50.517  38.727  1.00  0.00     0.000 C 
BRANCH  16  17
ATOM     17  C   UNL     1      20.932  49.239  39.582  1.00  0.00    -0.000 C 
BRANCH  17  18
ATOM     18  C   UNL     1      21.999  49.304  40.688  1.00  0.00    -0.000 C 
BRANCH  18  19
ATOM     19  C   UNL     1      23.455  49.237  40.194  1.00  0.00    -0.003 C 
ATOM     20  C   UNL     1      24.285  50.452  40.607  1.00  0.00     0.004 C 
ENDBRANCH  18  19
ENDBRANCH  17  18
ENDBRANCH  16  17
ENDBRANCH  15  16
ENDBRANCH  14  15
ENDBRANCH  13  14
ENDBRANCH   2  13
TORSDOF 15
ENDMDL
MODEL 3
REMARK VINA RESULT:    -4.126      2.199      5.448
REMARK INTER + INTRA:         -10.052
REMARK INTER:                  -7.450
REMARK INTRA:                  -2.602
REMARK UNBOUND:                -2.308
REMARK SMILES CCCCCCCCC=CCCCCCCCC(=O)[O-]
REMARK SMILES IDX 10 1 9 2 11 3 12 4 13 5 14 6 15 7 16 8 17 9 18 10 19 11
REMARK SMILES IDX 20 12 8 13 7 14 6 15 5 16 4 17 3 18 2 19 1 20
REMARK H PARENT
REMARK Flexibility Score: inf
ROOT
ATOM      1  C   UNL     1      25.247  47.875  32.952  1.00  0.00    -0.031 C 
ATOM      2  C   UNL     1      25.126  49.210  33.084  1.00  0.00    -0.031 C 
ENDROOT
BRANCH   1   3
ATOM      3  C   UNL     1      24.595  47.038  31.875  1.00  0.00     0.027 C 
BRANCH   3   4
ATOM      4  C   UNL     1      23.441  46.182  32.426  1.00  0.00     0.004 C 
BRANCH   4   5
ATOM      5  C   UNL     1      23.099  46.435  33.906  1.00  0.00     0.000 C 
BRANCH   5   6
ATOM      6  C   UNL     1      21.873  47.342  34.092  1.00  0.00     0.000 C 
BRANCH   6   7
ATOM      7  C   UNL     1      21.967  48.132  35.406  1.00  0.00     0.000 C 
BRANCH   7   8
ATOM      8  C   UNL     1      23.313  47.932  36.119  1.00  0.00     0.006 C 
BRANCH   8   9
ATOM      9  C   UNL     1      23.157  47.745  37.633  1.00  0.00     0.053 C 
BRANCH   9  10
ATOM     10  C   UNL     1      23.545  46.356  38.032  1.00  0.00     0.041 C 
ATOM     11  O   UNL     1      23.902  45.523  37.158  1.00  0.00    -0.550 OA
ATOM     12  O   UNL     1      23.563  45.997  39.374  1.00  0.00    -0.550 OA
ENDBRANCH   9  10
ENDBRANCH   8   9
ENDBRANCH   7   8
ENDBRANCH   6   7
ENDBRANCH   5   6
ENDBRANCH   4   5
ENDBRANCH   3   4
ENDBRANCH   1   3
BRANCH   2  13
ATOM     13  C   UNL     1      24.335  50.107  32.165  1.00  0.00     0.027 C 
BRANCH  13  14
ATOM     14  C   UNL     1      23.120  50.714  32.878  1.00  0.00     0.004 C 
BRANCH  14  15
ATOM     15  C   UNL     1      23.513  51.273  34.252  1.00  0.00     0.000 C 
BRANCH  15  16
ATOM     16  C   UNL     1      22.737  52.550  34.619  1.00  0.00     0.000 C 
BRANCH  16  17
ATOM     17  C   UNL     1      22.402  52.628  36.119  1.00  0.00    -0.000 C 
BRANCH  17  18
ATOM     18  C   UNL     1      22.977  51.448  36.922  1.00  0.00    -0.000 C 
BRANCH  18  19
ATOM     19  C   UNL     1      22.411  51.291  38.345  1.00  0.00    -0.003 C 
ATOM     20  C   UNL     1      23.498  51.139  39.408  1.00  0.00     0.004 C 
ENDBRANCH  18  19
ENDBRANCH  17  18
ENDBRANCH  16  17
ENDBRANCH  15  16
ENDBRANCH  14  15
ENDBRANCH  13  14
ENDBRANCH   2  13
TORSDOF 15
ENDMDL
MODEL 4
REMARK VINA RESULT:    -4.111      1.092      1.887
REMARK INTER + INTRA:         -10.024
REMARK INTER:                  -7.658
REMARK INTRA:                  -2.365
REMARK UNBOUND:                -2.308
REMARK SMILES CCCCCCCCC=CCCCCCCCC(=O)[O-]
REMARK SMILES IDX 10 1 9 2 11 3 12 4 13 5 14 6 15 7 16 8 17 9 18 10 19 11
REMARK SMILES IDX 20 12 8 13 7 14 6 15 5 16 4 17 3 18 2 19 1 20
REMARK H PARENT
REMARK Flexibility Score: inf
ROOT
ATOM      1  C   UNL     1      22.844  47.739  37.830  1.00  0.00    -0.031 C 
ATOM      2  C   UNL     1      23.510  46.992  36.927  1.00  0.00    -0.031 C 
ENDROOT
BRANCH   1   3
ATOM      3  C   UNL     1      21.489  48.374  37.612  1.00  0.00     0.027 C 
BRANCH   3   4
ATOM      4  C   UNL     1      21.604  49.843  37.166  1.00  0.00     0.004 C 
BRANCH   4   5
ATOM      5  C   UNL     1      23.019  50.442  37.271  1.00  0.00     0.000 C 
BRANCH   5   6
ATOM      6  C   UNL     1      23.023  51.978  37.258  1.00  0.00     0.000 C 
BRANCH   6   7
ATOM      7  C   UNL     1      22.133  52.539  38.377  1.00  0.00     0.000 C 
BRANCH   7   8
ATOM      8  C   UNL     1      22.777  52.406  39.766  1.00  0.00     0.006 C 
BRANCH   8   9
ATOM      9  C   UNL     1      21.973  51.498  40.705  1.00  0.00     0.053 C 
BRANCH   9  10
ATOM     10  C   UNL     1      22.673  50.189  40.894  1.00  0.00     0.041 C 
ATOM     11  O   UNL     1      23.926  50.121  40.798  1.00  0.00    -0.550 OA
ATOM     12  O   UNL     1      21.946  49.053  41.228  1.00  0.00    -0.550 OA
ENDBRANCH   9  10
ENDBRANCH   8   9
ENDBRANCH   7   8
ENDBRANCH   6   7
ENDBRANCH   5   6
ENDBRANCH   4   5
ENDBRANCH   3   4
ENDBRANCH   1   3
BRANCH   2  13
ATOM     13  C   UNL     1      23.009  46.643  35.548  1.00  0.00     0.027 C 
BRANCH  13  14
ATOM     14  C   UNL     1      24.167  46.415  34.569  1.00  0.00     0.004 C 
BRANCH  14  15
ATOM     15  C   UNL     1      23.644  46.196  33.142  1.00  0.00     0.000 C 
BRANCH  15  16
ATOM     16  C   UNL     1      24.348  47.089  32.106  1.00  0.00     0.000 C 
BRANCH  16  17
ATOM     17  C   UNL     1      25.269  48.136  32.757  1.00  0.00    -0.000 C 
BRANCH  17  18
ATOM     18  C   UNL     1      24.782  49.579  32.540  1.00  0.00    -0.000 C 
BRANCH  18  19
ATOM     19  C   UNL     1      23.937  50.161  33.688  1.00  0.00    -0.003 C 
ATOM     20  C   UNL     1      22.460  49.777  33.599  1.00  0.00     0.004 C 
ENDBRANCH  18  19
ENDBRANCH  17  18
ENDBRANCH  16  17
ENDBRANCH  15  16
ENDBRANCH  14  15
ENDBRANCH  13  14
ENDBRANCH   2  13
TORSDOF 15
ENDMDL
MODEL 5
REMARK VINA RESULT:    -4.104      1.233      3.755
REMARK INTER + INTRA:         -10.011
REMARK INTER:                  -7.845
REMARK INTRA:                  -2.166
REMARK UNBOUND:                -2.308
REMARK SMILES CCCCCCCCC=CCCCCCCCC(=O)[O-]
REMARK SMILES IDX 10 1 9 2 11 3 12 4 13 5 14 6 15 7 16 8 17 9 18 10 19 11
REMARK SMILES IDX 20 12 8 13 7 14 6 15 5 16 4 17 3 18 2 19 1 20
REMARK H PARENT
REMARK Flexibility Score: inf
ROOT
ATOM      1  C   UNL     1      24.818  49.666  32.101  1.00  0.00    -0.031 C 
ATOM      2  C   UNL     1      25.384  48.456  32.267  1.00  0.00    -0.031 C 
ENDROOT
BRANCH   1   3
ATOM      3  C   UNL     1      23.494  50.102  32.687  1.00  0.00     0.027 C 
BRANCH   3   4
ATOM      4  C   UNL     1      23.629  50.545  34.155  1.00  0.00     0.004 C 
BRANCH   4   5
ATOM      5  C   UNL     1      22.540  51.520  34.639  1.00  0.00     0.000 C 
BRANCH   5   6
ATOM      6  C   UNL     1      22.009  51.179  36.039  1.00  0.00     0.000 C 
BRANCH   6   7
ATOM      7  C   UNL     1      23.150  50.745  36.970  1.00  0.00     0.000 C 
BRANCH   7   8
ATOM      8  C   UNL     1      22.643  50.249  38.333  1.00  0.00     0.006 C 
BRANCH   8   9
ATOM      9  C   UNL     1      23.745  49.582  39.166  1.00  0.00     0.053 C 
BRANCH   9  10
ATOM     10  C   UNL     1      23.828  50.208  40.523  1.00  0.00     0.041 C 
ATOM     11  O   UNL     1      24.910  50.713  40.922  1.00  0.00    -0.550 OA
ATOM     12  O   UNL     1      22.697  50.280  41.325  1.00  0.00    -0.550 OA
ENDBRANCH   9  10
ENDBRANCH   8   9
ENDBRANCH   7   8
ENDBRANCH   6   7
ENDBRANCH   5   6
ENDBRANCH   4   5
ENDBRANCH   3   4
ENDBRANCH   1   3
BRANCH   2  13
ATOM     13  C   UNL     1      24.805  47.329  33.086  1.00  0.00     0.027 C 
BRANCH  13  14
ATOM     14  C   UNL     1      23.833  46.476  32.263  1.00  0.00     0.004 C 
BRANCH  14  15
ATOM     15  C   UNL     1      22.564  46.159  33.068  1.00  0.00     0.000 C 
BRANCH  15  16
ATOM     16  C   UNL     1      21.729  47.413  33.380  1.00  0.00     0.000 C 
BRANCH  16  17
ATOM     17  C   UNL     1      21.695  47.742  34.883  1.00  0.00    -0.000 C 
BRANCH  17  18
ATOM     18  C   UNL     1      22.281  46.618  35.754  1.00  0.00    -0.000 C 
BRANCH  18  19
ATOM     19  C   UNL     1      23.507  47.017  36.595  1.00  0.00    -0.003 C 
ATOM     20  C   UNL     1      23.684  46.153  37.843  1.00  0.00     0.004 C 
ENDBRANCH  18  19
ENDBRANCH  17  18
ENDBRANCH  16  17
ENDBRANCH  15  16
ENDBRANCH  14  15
ENDBRANCH  13  14
ENDBRANCH   2  13
TORSDOF 15
ENDMDL
MODEL 6
REMARK VINA RESULT:    -4.085      1.317      3.663
REMARK INTER + INTRA:          -9.976
REMARK INTER:                  -7.572
REMARK INTRA:                  -2.404
REMARK UNBOUND:                -2.308
REMARK SMILES CCCCCCCCC=CCCCCCCCC(=O)[O-]
REMARK SMILES IDX 10 1 9 2 11 3 12 4 13 5 14 6 15 7 16 8 17 9 18 10 19 11
REMARK SMILES IDX 20 12 8 13 7 14 6 15 5 16 4 17 3 18 2 19 1 20
REMARK H PARENT
REMARK Flexibility Score: inf
ROOT
ATOM      1  C   UNL     1      22.721  50.413  33.750  1.00  0.00    -0.031 C 
ATOM      2  C   UNL     1      23.523  49.936  32.779  1.00  0.00    -0.031 C 
ENDROOT
BRANCH   1   3
ATOM      3  C   UNL     1      23.129  50.648  35.187  1.00  0.00     0.027 C 
BRANCH   3   4
ATOM      4  C   UNL     1      22.704  52.040  35.689  1.00  0.00     0.004 C 
BRANCH   4   5
ATOM      5  C   UNL     1      21.537  52.036  36.693  1.00  0.00     0.000 C 
BRANCH   5   6
ATOM      6  C   UNL     1      20.912  50.646  36.882  1.00  0.00     0.000 C 
BRANCH   6   7
ATOM      7  C   UNL     1      21.131  50.134  38.313  1.00  0.00     0.000 C 
BRANCH   7   8
ATOM      8  C   UNL     1      21.622  48.678  38.350  1.00  0.00     0.006 C 
BRANCH   8   9
ATOM      9  C   UNL     1      22.948  48.520  39.105  1.00  0.00     0.053 C 
BRANCH   9  10
ATOM     10  C   UNL     1      22.914  49.291  40.387  1.00  0.00     0.041 C 
ATOM     11  O   UNL     1      23.781  50.175  40.618  1.00  0.00    -0.550 OA
ATOM     12  O   UNL     1      21.896  49.070  41.305  1.00  0.00    -0.550 OA
ENDBRANCH   9  10
ENDBRANCH   8   9
ENDBRANCH   7   8
ENDBRANCH   6   7
ENDBRANCH   5   6
ENDBRANCH   4   5
ENDBRANCH   3   4
ENDBRANCH   1   3
BRANCH   2  13
ATOM     13  C   UNL     1      24.976  49.572  32.951  1.00  0.00     0.027 C 
BRANCH  13  14
ATOM     14  C   UNL     1      25.279  48.178  32.386  1.00  0.00     0.004 C 
BRANCH  14  15
ATOM     15  C   UNL     1      23.987  47.465  31.962  1.00  0.00     0.000 C 
BRANCH  15  16
ATOM     16  C   UNL     1      23.690  46.218  32.812  1.00  0.00     0.000 C 
BRANCH  16  17
ATOM     17  C   UNL     1      22.312  46.280  33.492  1.00  0.00    -0.000 C 
BRANCH  17  18
ATOM     18  C   UNL     1      22.351  46.990  34.857  1.00  0.00    -0.000 C 
BRANCH  18  19
ATOM     19  C   UNL     1      23.706  46.926  35.585  1.00  0.00    -0.003 C 
ATOM     20  C   UNL     1      23.747  45.863  36.682  1.00  0.00     0.004 C 
ENDBRANCH  18  19
ENDBRANCH  17  18
ENDBRANCH  16  17
ENDBRANCH  15  16
ENDBRANCH  14  15
ENDBRANCH  13  14
ENDBRANCH   2  13
TORSDOF 15
ENDMDL
MODEL 7
REMARK VINA RESULT:    -4.008      1.472      2.212
REMARK INTER + INTRA:          -9.831
REMARK INTER:                  -7.605
REMARK INTRA:                  -2.226
REMARK UNBOUND:                -2.308
REMARK SMILES CCCCCCCCC=CCCCCCCCC(=O)[O-]
REMARK SMILES IDX 10 1 9 2 11 3 12 4 13 5 14 6 15 7 16 8 17 9 18 10 19 11
REMARK SMILES IDX 20 12 8 13 7 14 6 15 5 16 4 17 3 18 2 19 1 20
REMARK H PARENT
REMARK Flexibility Score: inf
ROOT
ATOM      1  C   UNL     1      23.868  46.343  35.931  1.00  0.00    -0.031 C 
ATOM      2  C   UNL     1      24.485  46.159  34.747  1.00  0.00    -0.031 C 
ENDROOT
BRANCH   1   3
ATOM      3  C   UNL     1      22.716  47.289  36.182  1.00  0.00     0.027 C 
BRANCH   3   4
ATOM      4  C   UNL     1      23.141  48.510  37.016  1.00  0.00     0.004 C 
BRANCH   4   5
ATOM      5  C   UNL     1      22.013  49.517  37.310  1.00  0.00     0.000 C 
BRANCH   5   6
ATOM      6  C   UNL     1      21.393  49.333  38.703  1.00  0.00     0.000 C 
BRANCH   6   7
ATOM      7  C   UNL     1      22.426  48.781  39.697  1.00  0.00     0.000 C 
BRANCH   7   8
ATOM      8  C   UNL     1      22.429  49.547  41.030  1.00  0.00     0.006 C 
BRANCH   8   9
ATOM      9  C   UNL     1      22.571  51.062  40.840  1.00  0.00     0.053 C 
BRANCH   9  10
ATOM     10  C   UNL     1      23.990  51.420  40.526  1.00  0.00     0.041 C 
ATOM     11  O   UNL     1      24.247  52.422  39.810  1.00  0.00    -0.550 OA
ATOM     12  O   UNL     1      25.031  50.676  41.067  1.00  0.00    -0.550 OA
ENDBRANCH   9  10
ENDBRANCH   8   9
ENDBRANCH   7   8
ENDBRANCH   6   7
ENDBRANCH   5   6
ENDBRANCH   4   5
ENDBRANCH   3   4
ENDBRANCH   1   3
BRANCH   2  13
ATOM     13  C   UNL     1      24.117  46.851  33.459  1.00  0.00     0.027 C 
BRANCH  13  14
ATOM     14  C   UNL     1      23.010  46.098  32.710  1.00  0.00     0.004 C 
BRANCH  14  15
ATOM     15  C   UNL     1      21.666  46.831  32.836  1.00  0.00     0.000 C 
BRANCH  15  16
ATOM     16  C   UNL     1      21.742  48.295  32.371  1.00  0.00     0.000 C 
BRANCH  16  17
ATOM     17  C   UNL     1      21.377  49.289  33.488  1.00  0.00    -0.000 C 
BRANCH  17  18
ATOM     18  C   UNL     1      22.208  50.583  33.430  1.00  0.00    -0.000 C 
BRANCH  18  19
ATOM     19  C   UNL     1      23.626  50.473  34.019  1.00  0.00    -0.003 C 
ATOM     20  C   UNL     1      24.721  50.495  32.953  1.00  0.00     0.004 C 
ENDBRANCH  18  19
ENDBRANCH  17  18
ENDBRANCH  16  17
ENDBRANCH  15  16
ENDBRANCH  14  15
ENDBRANCH  13  14
ENDBRANCH   2  13
TORSDOF 15
ENDMDL
MODEL 8
REMARK VINA RESULT:    -3.959      2.734      6.100
REMARK INTER + INTRA:          -9.739
REMARK INTER:                  -7.546
REMARK INTRA:                  -2.193
REMARK UNBOUND:                -2.308
REMARK SMILES CCCCCCCCC=CCCCCCCCC(=O)[O-]
REMARK SMILES IDX 10 1 9 2 11 3 12 4 13 5 14 6 15 7 16 8 17 9 18 10 19 11
REMARK SMILES IDX 20 12 8 13 7 14 6 15 5 16 4 17 3 18 2 19 1 20
REMARK H PARENT
REMARK Flexibility Score: inf
ROOT
ATOM      1  C   UNL     1      23.479  47.195  38.457  1.00  0.00    -0.031 C 
ATOM      2  C   UNL     1      22.557  48.168  38.586  1.00  0.00    -0.031 C 
ENDROOT
BRANCH   1   3
ATOM      3  C   UNL     1      23.398  46.033  37.493  1.00  0.00     0.027 C 
BRANCH   3   4
ATOM      4  C   UNL     1      23.920  46.405  36.094  1.00  0.00     0.004 C 
BRANCH   4   5
ATOM      5  C   UNL     1      22.846  46.443  34.991  1.00  0.00     0.000 C 
BRANCH   5   6
ATOM      6  C   UNL     1      23.404  46.865  33.624  1.00  0.00     0.000 C 
BRANCH   6   7
ATOM      7  C   UNL     1      24.906  47.172  33.713  1.00  0.00     0.000 C 
BRANCH   7   8
ATOM      8  C   UNL     1      25.355  48.222  32.685  1.00  0.00     0.006 C 
BRANCH   8   9
ATOM      9  C   UNL     1      24.184  49.039  32.125  1.00  0.00     0.053 C 
BRANCH   9  10
ATOM     10  C   UNL     1      24.076  50.353  32.832  1.00  0.00     0.041 C 
ATOM     11  O   UNL     1      25.109  51.037  33.057  1.00  0.00    -0.550 OA
ATOM     12  O   UNL     1      22.831  50.847  33.196  1.00  0.00    -0.550 OA
ENDBRANCH   9  10
ENDBRANCH   8   9
ENDBRANCH   7   8
ENDBRANCH   6   7
ENDBRANCH   5   6
ENDBRANCH   4   5
ENDBRANCH   3   4
ENDBRANCH   1   3
BRANCH   2  13
ATOM     13  C   UNL     1      21.291  48.280  37.775  1.00  0.00     0.027 C 
BRANCH  13  14
ATOM     14  C   UNL     1      21.383  49.405  36.737  1.00  0.00     0.004 C 
BRANCH  14  15
ATOM     15  C   UNL     1      22.820  49.938  36.633  1.00  0.00     0.000 C 
BRANCH  15  16
ATOM     16  C   UNL     1      22.903  51.463  36.816  1.00  0.00     0.000 C 
BRANCH  16  17
ATOM     17  C   UNL     1      22.384  51.922  38.190  1.00  0.00    -0.000 C 
BRANCH  17  18
ATOM     18  C   UNL     1      23.517  52.298  39.162  1.00  0.00    -0.000 C 
BRANCH  18  19
ATOM     19  C   UNL     1      23.523  51.517  40.488  1.00  0.00    -0.003 C 
ATOM     20  C   UNL     1      24.666  50.507  40.584  1.00  0.00     0.004 C 
ENDBRANCH  18  19
ENDBRANCH  17  18
ENDBRANCH  16  17
ENDBRANCH  15  16
ENDBRANCH  14  15
ENDBRANCH  13  14
ENDBRANCH   2  13
TORSDOF 15
ENDMDL
