MODEL 1
REMARK VINA RESULT:    -3.400      0.000      0.000
REMARK INTER + INTRA:          -4.049
REMARK INTER:                  -3.897
REMARK INTRA:                  -0.153
REMARK UNBOUND:                -0.153
REMARK SMILES O=C([O-])C=Cc1ccc(O)cc1
REMARK SMILES IDX 6 1 7 2 12 3 8 4 11 5 9 6 5 7 4 8 2 9 1 10 3 11 10 12
REMARK H PARENT 10 13
REMARK Flexibility Score: inf
ROOT
ATOM      1  C   UNL     1     -25.978  54.601  44.587  1.00  0.00    -0.025 A 
ATOM      2  C   UNL     1     -26.725  53.414  44.493  1.00  0.00     0.012 A 
ATOM      3  C   UNL     1     -25.192  54.998  43.486  1.00  0.00     0.012 A 
ATOM      4  C   UNL     1     -26.709  52.654  43.319  1.00  0.00     0.047 A 
ATOM      5  C   UNL     1     -25.178  54.234  42.314  1.00  0.00     0.047 A 
ATOM      6  C   UNL     1     -25.936  53.063  42.226  1.00  0.00     0.115 A 
ENDROOT
BRANCH   1   7
ATOM      7  C   UNL     1     -26.022  55.367  45.857  1.00  0.00     0.010 C 
ATOM      8  C   UNL     1     -26.380  54.838  47.034  1.00  0.00     0.025 C 
BRANCH   8   9
ATOM      9  C   UNL     1     -26.398  55.634  48.271  1.00  0.00     0.064 C 
ATOM     10  O   UNL     1     -25.745  56.709  48.329  1.00  0.00    -0.545 OA
ATOM     11  O   UNL     1     -27.123  55.217  49.383  1.00  0.00    -0.545 OA
ENDBRANCH   8   9
ENDBRANCH   1   7
BRANCH   6  12
ATOM     12  O   UNL     1     -25.912  52.314  41.052  1.00  0.00    -0.508 OA
ATOM     13  H   UNL     1     -25.068  51.850  40.736  1.00  0.00     0.293 HD
ENDBRANCH   6  12
TORSDOF 3
ENDMDL
MODEL 2
REMARK VINA RESULT:    -3.380      1.877      6.249
REMARK INTER + INTRA:          -4.027
REMARK INTER:                  -3.874
REMARK INTRA:                  -0.153
REMARK UNBOUND:                -0.153
REMARK SMILES O=C([O-])C=Cc1ccc(O)cc1
REMARK SMILES IDX 6 1 7 2 12 3 8 4 11 5 9 6 5 7 4 8 2 9 1 10 3 11 10 12
REMARK H PARENT 10 13
REMARK Flexibility Score: inf
ROOT
ATOM      1  C   UNL     1     -25.705  53.371  42.825  1.00  0.00    -0.025 A 
ATOM      2  C   UNL     1     -26.649  52.741  43.655  1.00  0.00     0.012 A 
ATOM      3  C   UNL     1     -25.233  54.651  43.182  1.00  0.00     0.012 A 
ATOM      4  C   UNL     1     -27.092  53.362  44.827  1.00  0.00     0.047 A 
ATOM      5  C   UNL     1     -25.680  55.268  44.355  1.00  0.00     0.047 A 
ATOM      6  C   UNL     1     -26.607  54.627  45.181  1.00  0.00     0.115 A 
ENDROOT
BRANCH   1   7
ATOM      7  C   UNL     1     -25.273  52.676  41.587  1.00  0.00     0.010 C 
ATOM      8  C   UNL     1     -25.504  51.379  41.342  1.00  0.00     0.025 C 
BRANCH   8   9
ATOM      9  C   UNL     1     -25.066  50.733  40.095  1.00  0.00     0.064 C 
ATOM     10  O   UNL     1     -24.161  51.266  39.403  1.00  0.00    -0.545 OA
ATOM     11  O   UNL     1     -25.640  49.540  39.665  1.00  0.00    -0.545 OA
ENDBRANCH   8   9
ENDBRANCH   1   7
BRANCH   6  12
ATOM     12  O   UNL     1     -27.041  55.254  46.346  1.00  0.00    -0.508 OA
ATOM     13  H   UNL     1     -27.691  56.031  46.319  1.00  0.00     0.293 HD
ENDBRANCH   6  12
TORSDOF 3
ENDMDL
MODEL 3
REMARK VINA RESULT:    -3.338      2.018      6.241
REMARK INTER + INTRA:          -3.979
REMARK INTER:                  -3.828
REMARK INTRA:                  -0.151
REMARK UNBOUND:                -0.153
REMARK SMILES O=C([O-])C=Cc1ccc(O)cc1
REMARK SMILES IDX 6 1 7 2 12 3 8 4 11 5 9 6 5 7 4 8 2 9 1 10 3 11 10 12
REMARK H PARENT 10 13
REMARK Flexibility Score: inf
ROOT
ATOM      1  C   UNL     1     -26.202  53.009  43.409  1.00  0.00    -0.025 A 
ATOM      2  C   UNL     1     -25.334  54.043  43.016  1.00  0.00     0.012 A 
ATOM      3  C   UNL     1     -26.946  53.161  44.598  1.00  0.00     0.012 A 
ATOM      4  C   UNL     1     -25.229  55.212  43.777  1.00  0.00     0.047 A 
ATOM      5  C   UNL     1     -26.836  54.332  45.356  1.00  0.00     0.047 A 
ATOM      6  C   UNL     1     -25.982  55.360  44.949  1.00  0.00     0.115 A 
ENDROOT
BRANCH   1   7
ATOM      7  C   UNL     1     -26.271  51.785  42.574  1.00  0.00     0.010 C 
ATOM      8  C   UNL     1     -25.779  51.703  41.331  1.00  0.00     0.025 C 
BRANCH   8   9
ATOM      9  C   UNL     1     -25.861  50.464  40.541  1.00  0.00     0.064 C 
ATOM     10  O   UNL     1     -24.888  50.121  39.819  1.00  0.00    -0.545 OA
ATOM     11  O   UNL     1     -26.999  49.664  40.577  1.00  0.00    -0.545 OA
ENDBRANCH   8   9
ENDBRANCH   1   7
BRANCH   6  12
ATOM     12  O   UNL     1     -25.886  56.519  45.714  1.00  0.00    -0.508 OA
ATOM     13  H   UNL     1     -25.050  56.736  46.243  1.00  0.00     0.293 HD
ENDBRANCH   6  12
TORSDOF 3
ENDMDL
MODEL 4
REMARK VINA RESULT:    -3.286      2.258      5.809
REMARK INTER + INTRA:          -3.919
REMARK INTER:                  -3.778
REMARK INTRA:                  -0.140
REMARK UNBOUND:                -0.153
REMARK SMILES O=C([O-])C=Cc1ccc(O)cc1
REMARK SMILES IDX 6 1 7 2 12 3 8 4 11 5 9 6 5 7 4 8 2 9 1 10 3 11 10 12
REMARK H PARENT 10 13
REMARK Flexibility Score: inf
ROOT
ATOM      1  C   UNL     1     -26.147  52.962  43.444  1.00  0.00    -0.025 A 
ATOM      2  C   UNL     1     -26.866  53.141  44.638  1.00  0.00     0.012 A 
ATOM      3  C   UNL     1     -25.337  54.017  42.973  1.00  0.00     0.012 A 
ATOM      4  C   UNL     1     -26.760  54.334  45.361  1.00  0.00     0.047 A 
ATOM      5  C   UNL     1     -25.235  55.208  43.700  1.00  0.00     0.047 A 
ATOM      6  C   UNL     1     -25.942  55.370  44.893  1.00  0.00     0.115 A 
ENDROOT
BRANCH   1   7
ATOM      7  C   UNL     1     -26.300  51.682  42.709  1.00  0.00     0.010 C 
ATOM      8  C   UNL     1     -26.053  50.481  43.247  1.00  0.00     0.025 C 
BRANCH   8   9
ATOM      9  C   UNL     1     -26.229  49.236  42.483  1.00  0.00     0.064 C 
ATOM     10  O   UNL     1     -26.703  48.218  43.052  1.00  0.00    -0.545 OA
ATOM     11  O   UNL     1     -25.875  49.162  41.139  1.00  0.00    -0.545 OA
ENDBRANCH   8   9
ENDBRANCH   1   7
BRANCH   6  12
ATOM     12  O   UNL     1     -25.829  56.562  45.605  1.00  0.00    -0.508 OA
ATOM     13  H   UNL     1     -24.942  56.870  45.985  1.00  0.00     0.293 HD
ENDBRANCH   6  12
TORSDOF 3
ENDMDL
MODEL 5
REMARK VINA RESULT:    -3.222      8.379     10.247
REMARK INTER + INTRA:          -3.846
REMARK INTER:                  -3.707
REMARK INTRA:                  -0.139
REMARK UNBOUND:                -0.153
REMARK SMILES O=C([O-])C=Cc1ccc(O)cc1
REMARK SMILES IDX 6 1 7 2 12 3 8 4 11 5 9 6 5 7 4 8 2 9 1 10 3 11 10 12
REMARK H PARENT 10 13
REMARK Flexibility Score: inf
ROOT
ATOM      1  C   UNL     1     -27.368  56.065  34.673  1.00  0.00    -0.025 A 
ATOM      2  C   UNL     1     -28.077  56.295  33.482  1.00  0.00     0.012 A 
ATOM      3  C   UNL     1     -26.744  54.814  34.862  1.00  0.00     0.012 A 
ATOM      4  C   UNL     1     -28.141  55.311  32.490  1.00  0.00     0.047 A 
ATOM      5  C   UNL     1     -26.812  53.833  33.868  1.00  0.00     0.047 A 
ATOM      6  C   UNL     1     -27.507  54.077  32.680  1.00  0.00     0.115 A 
ENDROOT
BRANCH   1   7
ATOM      7  C   UNL     1     -27.337  57.137  35.699  1.00  0.00     0.010 C 
ATOM      8  C   UNL     1     -27.356  56.906  37.018  1.00  0.00     0.025 C 
BRANCH   8   9
ATOM      9  C   UNL     1     -27.313  58.001  38.000  1.00  0.00     0.064 C 
ATOM     10  O   UNL     1     -28.364  58.639  38.268  1.00  0.00    -0.545 OA
ATOM     11  O   UNL     1     -26.125  58.346  38.638  1.00  0.00    -0.545 OA
ENDBRANCH   8   9
ENDBRANCH   1   7
BRANCH   6  12
ATOM     12  O   UNL     1     -27.564  53.090  31.700  1.00  0.00    -0.508 OA
ATOM     13  H   UNL     1     -28.268  52.362  31.721  1.00  0.00     0.293 HD
ENDBRANCH   6  12
TORSDOF 3
ENDMDL
MODEL 6
REMARK VINA RESULT:    -3.036      1.676      2.332
REMARK INTER + INTRA:          -3.633
REMARK INTER:                  -3.488
REMARK INTRA:                  -0.145
REMARK UNBOUND:                -0.153
REMARK SMILES O=C([O-])C=Cc1ccc(O)cc1
REMARK SMILES IDX 6 1 7 2 12 3 8 4 11 5 9 6 5 7 4 8 2 9 1 10 3 11 10 12
REMARK H PARENT 10 13
REMARK Flexibility Score: inf
ROOT
ATOM      1  C   UNL     1     -25.968  54.692  44.592  1.00  0.00    -0.025 A 
ATOM      2  C   UNL     1     -26.798  53.631  44.992  1.00  0.00     0.012 A 
ATOM      3  C   UNL     1     -25.336  54.624  43.333  1.00  0.00     0.012 A 
ATOM      4  C   UNL     1     -27.014  52.538  44.146  1.00  0.00     0.047 A 
ATOM      5  C   UNL     1     -25.555  53.528  42.491  1.00  0.00     0.047 A 
ATOM      6  C   UNL     1     -26.393  52.485  42.892  1.00  0.00     0.115 A 
ENDROOT
BRANCH   1   7
ATOM      7  C   UNL     1     -25.763  55.825  45.529  1.00  0.00     0.010 C 
ATOM      8  C   UNL     1     -24.865  56.799  45.334  1.00  0.00     0.025 C 
BRANCH   8   9
ATOM      9  C   UNL     1     -24.704  57.910  46.285  1.00  0.00     0.064 C 
ATOM     10  O   UNL     1     -25.454  57.980  47.293  1.00  0.00    -0.545 OA
ATOM     11  O   UNL     1     -23.735  58.889  46.087  1.00  0.00    -0.545 OA
ENDBRANCH   8   9
ENDBRANCH   1   7
BRANCH   6  12
ATOM     12  O   UNL     1     -26.602  51.403  42.041  1.00  0.00    -0.508 OA
ATOM     13  H   UNL     1     -25.829  50.848  41.691  1.00  0.00     0.293 HD
ENDBRANCH   6  12
TORSDOF 3
ENDMDL
MODEL 7
REMARK VINA RESULT:    -2.959     11.087     12.324
REMARK INTER + INTRA:          -3.544
REMARK INTER:                  -3.397
REMARK INTRA:                  -0.146
REMARK UNBOUND:                -0.153
REMARK SMILES O=C([O-])C=Cc1ccc(O)cc1
REMARK SMILES IDX 6 1 7 2 12 3 8 4 11 5 9 6 5 7 4 8 2 9 1 10 3 11 10 12
REMARK H PARENT 10 13
REMARK Flexibility Score: inf
ROOT
ATOM      1  C   UNL     1     -27.398  54.332  33.868  1.00  0.00    -0.025 A 
ATOM      2  C   UNL     1     -27.882  54.696  32.599  1.00  0.00     0.012 A 
ATOM      3  C   UNL     1     -27.145  55.346  34.815  1.00  0.00     0.012 A 
ATOM      4  C   UNL     1     -28.132  56.037  32.291  1.00  0.00     0.047 A 
ATOM      5  C   UNL     1     -27.396  56.686  34.501  1.00  0.00     0.047 A 
ATOM      6  C   UNL     1     -27.891  57.036  33.243  1.00  0.00     0.115 A 
ENDROOT
BRANCH   1   7
ATOM      7  C   UNL     1     -27.141  52.897  34.144  1.00  0.00     0.010 C 
ATOM      8  C   UNL     1     -27.984  51.912  33.809  1.00  0.00     0.025 C 
BRANCH   8   9
ATOM      9  C   UNL     1     -27.682  50.500  34.093  1.00  0.00     0.064 C 
ATOM     10  O   UNL     1     -26.494  50.151  34.319  1.00  0.00    -0.545 OA
ATOM     11  O   UNL     1     -28.690  49.541  34.113  1.00  0.00    -0.545 OA
ENDBRANCH   8   9
ENDBRANCH   1   7
BRANCH   6  12
ATOM     12  O   UNL     1     -28.136  58.374  32.946  1.00  0.00    -0.508 OA
ATOM     13  H   UNL     1     -27.509  58.910  32.357  1.00  0.00     0.293 HD
ENDBRANCH   6  12
TORSDOF 3
ENDMDL
MODEL 8
REMARK VINA RESULT:    -2.874      2.280      3.025
REMARK INTER + INTRA:          -3.447
REMARK INTER:                  -3.292
REMARK INTRA:                  -0.155
REMARK UNBOUND:                -0.153
REMARK SMILES O=C([O-])C=Cc1ccc(O)cc1
REMARK SMILES IDX 6 1 7 2 12 3 8 4 11 5 9 6 5 7 4 8 2 9 1 10 3 11 10 12
REMARK H PARENT 10 13
REMARK Flexibility Score: inf
ROOT
ATOM      1  C   UNL     1     -25.996  52.308  42.847  1.00  0.00    -0.025 A 
ATOM      2  C   UNL     1     -26.194  51.087  43.515  1.00  0.00     0.012 A 
ATOM      3  C   UNL     1     -25.702  52.289  41.468  1.00  0.00     0.012 A 
ATOM      4  C   UNL     1     -26.124  49.876  42.819  1.00  0.00     0.047 A 
ATOM      5  C   UNL     1     -25.634  51.075  40.777  1.00  0.00     0.047 A 
ATOM      6  C   UNL     1     -25.846  49.867  41.447  1.00  0.00     0.115 A 
ENDROOT
BRANCH   1   7
ATOM      7  C   UNL     1     -26.071  53.566  43.631  1.00  0.00     0.010 C 
ATOM      8  C   UNL     1     -26.273  53.607  44.955  1.00  0.00     0.025 C 
BRANCH   8   9
ATOM      9  C   UNL     1     -26.329  54.878  45.694  1.00  0.00     0.064 C 
ATOM     10  O   UNL     1     -26.039  55.953  45.107  1.00  0.00    -0.545 OA
ATOM     11  O   UNL     1     -26.696  54.913  47.036  1.00  0.00    -0.545 OA
ENDBRANCH   8   9
ENDBRANCH   1   7
BRANCH   6  12
ATOM     12  O   UNL     1     -25.775  48.667  40.744  1.00  0.00    -0.508 OA
ATOM     13  H   UNL     1     -25.077  48.515  40.025  1.00  0.00     0.293 HD
ENDBRANCH   6  12
TORSDOF 3
ENDMDL
MODEL 9
REMARK VINA RESULT:    -2.752     11.803     12.993
REMARK INTER + INTRA:          -3.306
REMARK INTER:                  -3.157
REMARK INTRA:                  -0.149
REMARK UNBOUND:                -0.153
REMARK SMILES O=C([O-])C=Cc1ccc(O)cc1
REMARK SMILES IDX 6 1 7 2 12 3 8 4 11 5 9 6 5 7 4 8 2 9 1 10 3 11 10 12
REMARK H PARENT 10 13
REMARK Flexibility Score: inf
ROOT
ATOM      1  C   UNL     1     -27.861  55.921  32.695  1.00  0.00    -0.025 A 
ATOM      2  C   UNL     1     -27.872  56.562  33.946  1.00  0.00     0.012 A 
ATOM      3  C   UNL     1     -27.869  56.711  31.527  1.00  0.00     0.012 A 
ATOM      4  C   UNL     1     -27.865  57.957  34.031  1.00  0.00     0.047 A 
ATOM      5  C   UNL     1     -27.862  58.107  31.617  1.00  0.00     0.047 A 
ATOM      6  C   UNL     1     -27.858  58.734  32.866  1.00  0.00     0.115 A 
ENDROOT
BRANCH   1   7
ATOM      7  C   UNL     1     -27.879  54.438  32.657  1.00  0.00     0.010 C 
ATOM      8  C   UNL     1     -27.518  53.663  33.688  1.00  0.00     0.025 C 
BRANCH   8   9
ATOM      9  C   UNL     1     -27.561  52.194  33.609  1.00  0.00     0.064 C 
ATOM     10  O   UNL     1     -26.565  51.565  33.166  1.00  0.00    -0.545 OA
ATOM     11  O   UNL     1     -28.688  51.486  34.015  1.00  0.00    -0.545 OA
ENDBRANCH   8   9
ENDBRANCH   1   7
BRANCH   6  12
ATOM     12  O   UNL     1     -27.851  60.125  32.939  1.00  0.00    -0.508 OA
ATOM     13  H   UNL     1     -28.225  60.697  32.190  1.00  0.00     0.293 HD
ENDBRANCH   6  12
TORSDOF 3
ENDMDL
