MODEL 1
REMARK VINA RESULT:    -3.723      0.000      0.000
REMARK INTER + INTRA:         -14.822
REMARK INTER:                  -9.382
REMARK INTRA:                  -5.440
REMARK UNBOUND:                -5.440
REMARK SMILES CCCCCCCCCCCCCCCCCCCCCCCCCCCC(=O)[O-]
REMARK SMILES IDX 15 1 16 2 17 3 18 4 19 5 20 6 21 7 22 8 23 9 24 10 25 11
REMARK SMILES IDX 26 12 27 13 28 14 29 15 30 16 14 17 13 18 12 19 11 20 10 21
REMARK SMILES IDX 9 22 8 23 7 24 6 25 5 26 4 27 3 28 2 29 1 30
REMARK H PARENT
REMARK Flexibility Score: inf
ROOT
ATOM      1  C   UNL     1      31.744  -7.005  17.813  1.00  0.00     0.000 C 
ENDROOT
BRANCH   1   2
ATOM      2  C   UNL     1      32.623  -7.990  17.024  1.00  0.00     0.000 C 
BRANCH   2   3
ATOM      3  C   UNL     1      32.116  -9.441  17.105  1.00  0.00     0.000 C 
BRANCH   3   4
ATOM      4  C   UNL     1      32.424 -10.099  18.460  1.00  0.00     0.000 C 
BRANCH   4   5
ATOM      5  C   UNL     1      33.894  -9.930  18.886  1.00  0.00     0.000 C 
BRANCH   5   6
ATOM      6  C   UNL     1      34.085 -10.201  20.387  1.00  0.00     0.000 C 
BRANCH   6   7
ATOM      7  C   UNL     1      34.577  -8.955  21.155  1.00  0.00     0.000 C 
BRANCH   7   8
ATOM      8  C   UNL     1      34.219  -8.995  22.649  1.00  0.00     0.000 C 
BRANCH   8   9
ATOM      9  C   UNL     1      34.005  -7.583  23.233  1.00  0.00     0.000 C 
BRANCH   9  10
ATOM     10  C   UNL     1      33.501  -7.626  24.690  1.00  0.00     0.000 C 
BRANCH  10  11
ATOM     11  C   UNL     1      32.702  -8.898  25.024  1.00  0.00     0.000 C 
BRANCH  11  12
ATOM     12  C   UNL     1      31.687  -8.686  26.157  1.00  0.00     0.006 C 
BRANCH  12  13
ATOM     13  C   UNL     1      31.115 -10.011  26.676  1.00  0.00     0.053 C 
BRANCH  13  14
ATOM     14  C   UNL     1      29.786  -9.824  27.342  1.00  0.00     0.041 C 
ATOM     15  O   UNL     1      29.053  -8.847  27.035  1.00  0.00    -0.550 OA
ATOM     16  O   UNL     1      29.339 -10.747  28.280  1.00  0.00    -0.550 OA
ENDBRANCH  13  14
ENDBRANCH  12  13
ENDBRANCH  11  12
ENDBRANCH  10  11
ENDBRANCH   9  10
ENDBRANCH   8   9
ENDBRANCH   7   8
ENDBRANCH   6   7
ENDBRANCH   5   6
ENDBRANCH   4   5
ENDBRANCH   3   4
ENDBRANCH   2   3
ENDBRANCH   1   2
BRANCH   1  17
ATOM     17  C   UNL     1      32.567  -6.036  18.678  1.00  0.00     0.000 C 
BRANCH  17  18
ATOM     18  C   UNL     1      32.364  -6.273  20.184  1.00  0.00     0.000 C 
BRANCH  18  19
ATOM     19  C   UNL     1      31.276  -7.323  20.502  1.00  0.00     0.000 C 
BRANCH  19  20
ATOM     20  C   UNL     1      30.584  -7.052  21.849  1.00  0.00     0.000 C 
BRANCH  20  21
ATOM     21  C   UNL     1      30.212  -8.346  22.590  1.00  0.00     0.000 C 
BRANCH  21  22
ATOM     22  C   UNL     1      30.708  -9.606  21.863  1.00  0.00    -0.000 C 
BRANCH  22  23
ATOM     23  C   UNL     1      30.467 -10.863  22.713  1.00  0.00    -0.000 C 
BRANCH  23  24
ATOM     24  C   UNL     1      31.695 -11.785  22.763  1.00  0.00    -0.000 C 
BRANCH  24  25
ATOM     25  C   UNL     1      31.455 -13.132  22.059  1.00  0.00    -0.000 C 
BRANCH  25  26
ATOM     26  C   UNL     1      31.199 -12.960  20.547  1.00  0.00    -0.000 C 
BRANCH  26  27
ATOM     27  C   UNL     1      29.771 -13.332  20.115  1.00  0.00    -0.000 C 
BRANCH  27  28
ATOM     28  C   UNL     1      29.151 -14.433  20.988  1.00  0.00    -0.000 C 
BRANCH  28  29
ATOM     29  C   UNL     1      27.832 -13.961  21.613  1.00  0.00    -0.003 C 
ATOM     30  C   UNL     1      27.894 -14.019  23.135  1.00  0.00     0.004 C 
ENDBRANCH  28  29
ENDBRANCH  27  28
ENDBRANCH  26  27
ENDBRANCH  25  26
ENDBRANCH  24  25
ENDBRANCH  23  24
ENDBRANCH  22  23
ENDBRANCH  21  22
ENDBRANCH  20  21
ENDBRANCH  19  20
ENDBRANCH  18  19
ENDBRANCH  17  18
ENDBRANCH   1  17
TORSDOF 26
ENDMDL
MODEL 2
REMARK VINA RESULT:    -3.644      2.691      5.615
REMARK INTER + INTRA:         -14.624
REMARK INTER:                  -9.303
REMARK INTRA:                  -5.321
REMARK UNBOUND:                -5.440
REMARK SMILES CCCCCCCCCCCCCCCCCCCCCCCCCCCC(=O)[O-]
REMARK SMILES IDX 15 1 16 2 17 3 18 4 19 5 20 6 21 7 22 8 23 9 24 10 25 11
REMARK SMILES IDX 26 12 27 13 28 14 29 15 30 16 14 17 13 18 12 19 11 20 10 21
REMARK SMILES IDX 9 22 8 23 7 24 6 25 5 26 4 27 3 28 2 29 1 30
REMARK H PARENT
REMARK Flexibility Score: inf
ROOT
ATOM      1  C   UNL     1      32.838  -6.029  20.617  1.00  0.00     0.000 C 
ENDROOT
BRANCH   1   2
ATOM      2  C   UNL     1      32.155  -6.752  19.444  1.00  0.00     0.000 C 
BRANCH   2   3
ATOM      3  C   UNL     1      32.969  -7.950  18.924  1.00  0.00     0.000 C 
BRANCH   3   4
ATOM      4  C   UNL     1      32.102  -8.970  18.170  1.00  0.00     0.000 C 
BRANCH   4   5
ATOM      5  C   UNL     1      32.193  -8.818  16.640  1.00  0.00     0.000 C 
BRANCH   5   6
ATOM      6  C   UNL     1      32.485 -10.162  15.953  1.00  0.00     0.000 C 
BRANCH   6   7
ATOM      7  C   UNL     1      33.249 -11.141  16.871  1.00  0.00     0.000 C 
BRANCH   7   8
ATOM      8  C   UNL     1      32.720 -12.582  16.779  1.00  0.00     0.000 C 
BRANCH   8   9
ATOM      9  C   UNL     1      32.654 -13.266  18.160  1.00  0.00     0.000 C 
BRANCH   9  10
ATOM     10  C   UNL     1      31.678 -12.551  19.118  1.00  0.00     0.000 C 
BRANCH  10  11
ATOM     11  C   UNL     1      30.626 -13.492  19.731  1.00  0.00     0.000 C 
BRANCH  11  12
ATOM     12  C   UNL     1      30.509 -13.343  21.256  1.00  0.00     0.006 C 
BRANCH  12  13
ATOM     13  C   UNL     1      29.854 -14.568  21.907  1.00  0.00     0.053 C 
BRANCH  13  14
ATOM     14  C   UNL     1      28.483 -14.827  21.360  1.00  0.00     0.041 C 
ATOM     15  O   UNL     1      27.564 -13.982  21.524  1.00  0.00    -0.550 OA
ATOM     16  O   UNL     1      28.228 -15.988  20.640  1.00  0.00    -0.550 OA
ENDBRANCH  13  14
ENDBRANCH  12  13
ENDBRANCH  11  12
ENDBRANCH  10  11
ENDBRANCH   9  10
ENDBRANCH   8   9
ENDBRANCH   7   8
ENDBRANCH   6   7
ENDBRANCH   5   6
ENDBRANCH   4   5
ENDBRANCH   3   4
ENDBRANCH   2   3
ENDBRANCH   1   2
BRANCH   1  17
ATOM     17  C   UNL     1      34.039  -6.810  21.178  1.00  0.00     0.000 C 
BRANCH  17  18
ATOM     18  C   UNL     1      34.022  -6.892  22.713  1.00  0.00     0.000 C 
BRANCH  18  19
ATOM     19  C   UNL     1      32.885  -6.074  23.363  1.00  0.00     0.000 C 
BRANCH  19  20
ATOM     20  C   UNL     1      32.372  -6.720  24.661  1.00  0.00     0.000 C 
BRANCH  20  21
ATOM     21  C   UNL     1      30.977  -7.344  24.497  1.00  0.00     0.000 C 
BRANCH  21  22
ATOM     22  C   UNL     1      30.169  -6.693  23.364  1.00  0.00    -0.000 C 
BRANCH  22  23
ATOM     23  C   UNL     1      29.909  -7.693  22.228  1.00  0.00    -0.000 C 
BRANCH  23  24
ATOM     24  C   UNL     1      30.244  -9.139  22.626  1.00  0.00    -0.000 C 
BRANCH  24  25
ATOM     25  C   UNL     1      31.238  -9.806  21.659  1.00  0.00    -0.000 C 
BRANCH  25  26
ATOM     26  C   UNL     1      32.538 -10.238  22.369  1.00  0.00    -0.000 C 
BRANCH  26  27
ATOM     27  C   UNL     1      33.649 -10.686  21.405  1.00  0.00    -0.000 C 
BRANCH  27  28
ATOM     28  C   UNL     1      35.059 -10.417  21.952  1.00  0.00    -0.000 C 
BRANCH  28  29
ATOM     29  C   UNL     1      36.061 -10.209  20.809  1.00  0.00    -0.003 C 
ATOM     30  C   UNL     1      35.510 -10.744  19.492  1.00  0.00     0.004 C 
ENDBRANCH  28  29
ENDBRANCH  27  28
ENDBRANCH  26  27
ENDBRANCH  25  26
ENDBRANCH  24  25
ENDBRANCH  23  24
ENDBRANCH  22  23
ENDBRANCH  21  22
ENDBRANCH  20  21
ENDBRANCH  19  20
ENDBRANCH  18  19
ENDBRANCH  17  18
ENDBRANCH   1  17
TORSDOF 26
ENDMDL
MODEL 3
REMARK VINA RESULT:    -3.595      2.342      5.196
REMARK INTER + INTRA:         -14.499
REMARK INTER:                  -9.513
REMARK INTRA:                  -4.986
REMARK UNBOUND:                -5.440
REMARK SMILES CCCCCCCCCCCCCCCCCCCCCCCCCCCC(=O)[O-]
REMARK SMILES IDX 15 1 16 2 17 3 18 4 19 5 20 6 21 7 22 8 23 9 24 10 25 11
REMARK SMILES IDX 26 12 27 13 28 14 29 15 30 16 14 17 13 18 12 19 11 20 10 21
REMARK SMILES IDX 9 22 8 23 7 24 6 25 5 26 4 27 3 28 2 29 1 30
REMARK H PARENT
REMARK Flexibility Score: inf
ROOT
ATOM      1  C   UNL     1      33.401  -6.724  20.039  1.00  0.00     0.000 C 
ENDROOT
BRANCH   1   2
ATOM      2  C   UNL     1      31.943  -6.502  19.602  1.00  0.00     0.000 C 
BRANCH   2   3
ATOM      3  C   UNL     1      31.629  -7.123  18.229  1.00  0.00     0.000 C 
BRANCH   3   4
ATOM      4  C   UNL     1      32.387  -8.439  17.990  1.00  0.00     0.000 C 
BRANCH   4   5
ATOM      5  C   UNL     1      32.210  -8.979  16.559  1.00  0.00     0.000 C 
BRANCH   5   6
ATOM      6  C   UNL     1      32.536 -10.479  16.475  1.00  0.00     0.000 C 
BRANCH   6   7
ATOM      7  C   UNL     1      32.879 -11.087  17.852  1.00  0.00     0.000 C 
BRANCH   7   8
ATOM      8  C   UNL     1      33.455 -12.509  17.750  1.00  0.00     0.000 C 
BRANCH   8   9
ATOM      9  C   UNL     1      33.065 -13.382  18.961  1.00  0.00     0.000 C 
BRANCH   9  10
ATOM     10  C   UNL     1      32.016 -12.695  19.860  1.00  0.00     0.000 C 
BRANCH  10  11
ATOM     11  C   UNL     1      30.644 -13.393  19.841  1.00  0.00     0.000 C 
BRANCH  11  12
ATOM     12  C   UNL     1      29.768 -13.020  21.047  1.00  0.00     0.006 C 
BRANCH  12  13
ATOM     13  C   UNL     1      28.321 -13.502  20.880  1.00  0.00     0.053 C 
BRANCH  13  14
ATOM     14  C   UNL     1      27.910 -14.429  21.983  1.00  0.00     0.041 C 
ATOM     15  O   UNL     1      27.464 -13.968  23.067  1.00  0.00    -0.550 OA
ATOM     16  O   UNL     1      27.988 -15.805  21.803  1.00  0.00    -0.550 OA
ENDBRANCH  13  14
ENDBRANCH  12  13
ENDBRANCH  11  12
ENDBRANCH  10  11
ENDBRANCH   9  10
ENDBRANCH   8   9
ENDBRANCH   7   8
ENDBRANCH   6   7
ENDBRANCH   5   6
ENDBRANCH   4   5
ENDBRANCH   3   4
ENDBRANCH   2   3
ENDBRANCH   1   2
BRANCH   1  17
ATOM     17  C   UNL     1      33.604  -6.530  21.551  1.00  0.00     0.000 C 
BRANCH  17  18
ATOM     18  C   UNL     1      34.009  -7.832  22.263  1.00  0.00     0.000 C 
BRANCH  18  19
ATOM     19  C   UNL     1      33.725  -9.103  21.432  1.00  0.00     0.000 C 
BRANCH  19  20
ATOM     20  C   UNL     1      32.549  -9.917  21.997  1.00  0.00     0.000 C 
BRANCH  20  21
ATOM     21  C   UNL     1      31.206  -9.538  21.354  1.00  0.00     0.000 C 
BRANCH  21  22
ATOM     22  C   UNL     1      30.171  -9.065  22.386  1.00  0.00    -0.000 C 
BRANCH  22  23
ATOM     23  C   UNL     1      30.237  -7.541  22.573  1.00  0.00    -0.000 C 
BRANCH  23  24
ATOM     24  C   UNL     1      30.455  -7.135  24.039  1.00  0.00    -0.000 C 
BRANCH  24  25
ATOM     25  C   UNL     1      30.378  -8.332  25.004  1.00  0.00    -0.000 C 
BRANCH  25  26
ATOM     26  C   UNL     1      31.774  -8.891  25.349  1.00  0.00    -0.000 C 
BRANCH  26  27
ATOM     27  C   UNL     1      31.741 -10.304  25.955  1.00  0.00    -0.000 C 
BRANCH  27  28
ATOM     28  C   UNL     1      30.409 -11.028  25.710  1.00  0.00    -0.000 C 
BRANCH  28  29
ATOM     29  C   UNL     1      30.499 -11.944  24.484  1.00  0.00    -0.003 C 
ATOM     30  C   UNL     1      31.863 -12.622  24.403  1.00  0.00     0.004 C 
ENDBRANCH  28  29
ENDBRANCH  27  28
ENDBRANCH  26  27
ENDBRANCH  25  26
ENDBRANCH  24  25
ENDBRANCH  23  24
ENDBRANCH  22  23
ENDBRANCH  21  22
ENDBRANCH  20  21
ENDBRANCH  19  20
ENDBRANCH  18  19
ENDBRANCH  17  18
ENDBRANCH   1  17
TORSDOF 26
ENDMDL
MODEL 4
REMARK VINA RESULT:    -3.569      2.099      5.084
REMARK INTER + INTRA:         -14.434
REMARK INTER:                 -10.273
REMARK INTRA:                  -4.161
REMARK UNBOUND:                -5.440
REMARK SMILES CCCCCCCCCCCCCCCCCCCCCCCCCCCC(=O)[O-]
REMARK SMILES IDX 15 1 16 2 17 3 18 4 19 5 20 6 21 7 22 8 23 9 24 10 25 11
REMARK SMILES IDX 26 12 27 13 28 14 29 15 30 16 14 17 13 18 12 19 11 20 10 21
REMARK SMILES IDX 9 22 8 23 7 24 6 25 5 26 4 27 3 28 2 29 1 30
REMARK H PARENT
REMARK Flexibility Score: inf
ROOT
ATOM      1  C   UNL     1      32.599  -9.345  17.315  1.00  0.00     0.000 C 
ENDROOT
BRANCH   1   2
ATOM      2  C   UNL     1      32.499 -10.590  16.418  1.00  0.00     0.000 C 
BRANCH   2   3
ATOM      3  C   UNL     1      33.833 -11.349  16.298  1.00  0.00     0.000 C 
BRANCH   3   4
ATOM      4  C   UNL     1      33.706 -12.830  16.688  1.00  0.00     0.000 C 
BRANCH   4   5
ATOM      5  C   UNL     1      32.691 -13.065  17.822  1.00  0.00     0.000 C 
BRANCH   5   6
ATOM      6  C   UNL     1      33.392 -13.383  19.153  1.00  0.00     0.000 C 
BRANCH   6   7
ATOM      7  C   UNL     1      32.774 -12.617  20.343  1.00  0.00     0.000 C 
BRANCH   7   8
ATOM      8  C   UNL     1      31.710 -11.596  19.908  1.00  0.00     0.000 C 
BRANCH   8   9
ATOM      9  C   UNL     1      30.654 -11.355  21.006  1.00  0.00     0.000 C 
BRANCH   9  10
ATOM     10  C   UNL     1      30.159 -12.673  21.637  1.00  0.00     0.000 C 
BRANCH  10  11
ATOM     11  C   UNL     1      29.166 -13.442  20.747  1.00  0.00     0.000 C 
BRANCH  11  12
ATOM     12  C   UNL     1      28.289 -14.423  21.541  1.00  0.00     0.006 C 
BRANCH  12  13
ATOM     13  C   UNL     1      27.792 -13.816  22.859  1.00  0.00     0.053 C 
BRANCH  13  14
ATOM     14  C   UNL     1      28.375 -14.513  24.050  1.00  0.00     0.041 C 
ATOM     15  O   UNL     1      29.173 -13.907  24.813  1.00  0.00    -0.550 OA
ATOM     16  O   UNL     1      28.013 -15.824  24.338  1.00  0.00    -0.550 OA
ENDBRANCH  13  14
ENDBRANCH  12  13
ENDBRANCH  11  12
ENDBRANCH  10  11
ENDBRANCH   9  10
ENDBRANCH   8   9
ENDBRANCH   7   8
ENDBRANCH   6   7
ENDBRANCH   5   6
ENDBRANCH   4   5
ENDBRANCH   3   4
ENDBRANCH   2   3
ENDBRANCH   1   2
BRANCH   1  17
ATOM     17  C   UNL     1      32.281  -8.042  16.561  1.00  0.00     0.000 C 
BRANCH  17  18
ATOM     18  C   UNL     1      31.693  -6.958  17.479  1.00  0.00     0.000 C 
BRANCH  18  19
ATOM     19  C   UNL     1      31.484  -7.430  18.935  1.00  0.00     0.000 C 
BRANCH  19  20
ATOM     20  C   UNL     1      32.242  -6.551  19.945  1.00  0.00     0.000 C 
BRANCH  20  21
ATOM     21  C   UNL     1      31.761  -6.765  21.389  1.00  0.00     0.000 C 
BRANCH  21  22
ATOM     22  C   UNL     1      30.585  -7.750  21.479  1.00  0.00    -0.000 C 
BRANCH  22  23
ATOM     23  C   UNL     1      29.876  -7.636  22.837  1.00  0.00    -0.000 C 
BRANCH  23  24
ATOM     24  C   UNL     1      29.864  -8.965  23.610  1.00  0.00    -0.000 C 
BRANCH  24  25
ATOM     25  C   UNL     1      30.384  -8.818  25.051  1.00  0.00    -0.000 C 
BRANCH  25  26
ATOM     26  C   UNL     1      31.642  -9.676  25.305  1.00  0.00    -0.000 C 
BRANCH  26  27
ATOM     27  C   UNL     1      32.385 -10.076  24.020  1.00  0.00    -0.000 C 
BRANCH  27  28
ATOM     28  C   UNL     1      33.626  -9.212  23.753  1.00  0.00    -0.000 C 
BRANCH  28  29
ATOM     29  C   UNL     1      34.548  -9.876  22.723  1.00  0.00    -0.003 C 
ATOM     30  C   UNL     1      34.291  -9.329  21.323  1.00  0.00     0.004 C 
ENDBRANCH  28  29
ENDBRANCH  27  28
ENDBRANCH  26  27
ENDBRANCH  25  26
ENDBRANCH  24  25
ENDBRANCH  23  24
ENDBRANCH  22  23
ENDBRANCH  21  22
ENDBRANCH  20  21
ENDBRANCH  19  20
ENDBRANCH  18  19
ENDBRANCH  17  18
ENDBRANCH   1  17
TORSDOF 26
ENDMDL
MODEL 5
REMARK VINA RESULT:    -3.536      1.936      5.462
REMARK INTER + INTRA:         -14.351
REMARK INTER:                  -9.045
REMARK INTRA:                  -5.306
REMARK UNBOUND:                -5.440
REMARK SMILES CCCCCCCCCCCCCCCCCCCCCCCCCCCC(=O)[O-]
REMARK SMILES IDX 15 1 16 2 17 3 18 4 19 5 20 6 21 7 22 8 23 9 24 10 25 11
REMARK SMILES IDX 26 12 27 13 28 14 29 15 30 16 14 17 13 18 12 19 11 20 10 21
REMARK SMILES IDX 9 22 8 23 7 24 6 25 5 26 4 27 3 28 2 29 1 30
REMARK H PARENT
REMARK Flexibility Score: inf
ROOT
ATOM      1  C   UNL     1      32.090  -7.899  17.431  1.00  0.00     0.000 C 
ENDROOT
BRANCH   1   2
ATOM      2  C   UNL     1      32.489  -9.380  17.316  1.00  0.00     0.000 C 
BRANCH   2   3
ATOM      3  C   UNL     1      32.131 -10.195  18.573  1.00  0.00     0.000 C 
BRANCH   3   4
ATOM      4  C   UNL     1      33.258 -11.150  18.997  1.00  0.00     0.000 C 
BRANCH   4   5
ATOM      5  C   UNL     1      34.105 -10.597  20.158  1.00  0.00     0.000 C 
BRANCH   5   6
ATOM      6  C   UNL     1      33.347 -10.660  21.493  1.00  0.00     0.000 C 
BRANCH   6   7
ATOM      7  C   UNL     1      32.688 -12.036  21.735  1.00  0.00     0.000 C 
BRANCH   7   8
ATOM      8  C   UNL     1      31.244 -11.924  22.249  1.00  0.00     0.000 C 
BRANCH   8   9
ATOM      9  C   UNL     1      30.217 -11.912  21.098  1.00  0.00     0.000 C 
BRANCH   9  10
ATOM     10  C   UNL     1      30.101 -13.286  20.407  1.00  0.00     0.000 C 
BRANCH  10  11
ATOM     11  C   UNL     1      29.586 -14.397  21.340  1.00  0.00     0.000 C 
BRANCH  11  12
ATOM     12  C   UNL     1      28.057 -14.387  21.493  1.00  0.00     0.006 C 
BRANCH  12  13
ATOM     13  C   UNL     1      27.616 -13.800  22.841  1.00  0.00     0.053 C 
BRANCH  13  14
ATOM     14  C   UNL     1      28.337 -14.435  23.990  1.00  0.00     0.041 C 
ATOM     15  O   UNL     1      28.032 -15.597  24.368  1.00  0.00    -0.550 OA
ATOM     16  O   UNL     1      29.369 -13.755  24.627  1.00  0.00    -0.550 OA
ENDBRANCH  13  14
ENDBRANCH  12  13
ENDBRANCH  11  12
ENDBRANCH  10  11
ENDBRANCH   9  10
ENDBRANCH   8   9
ENDBRANCH   7   8
ENDBRANCH   6   7
ENDBRANCH   5   6
ENDBRANCH   4   5
ENDBRANCH   3   4
ENDBRANCH   2   3
ENDBRANCH   1   2
BRANCH   1  17
ATOM     17  C   UNL     1      33.282  -6.947  17.235  1.00  0.00     0.000 C 
BRANCH  17  18
ATOM     18  C   UNL     1      34.633  -7.630  17.506  1.00  0.00     0.000 C 
BRANCH  18  19
ATOM     19  C   UNL     1      35.235  -7.281  18.885  1.00  0.00     0.000 C 
BRANCH  19  20
ATOM     20  C   UNL     1      34.778  -5.901  19.387  1.00  0.00     0.000 C 
BRANCH  20  21
ATOM     21  C   UNL     1      34.353  -5.922  20.863  1.00  0.00     0.000 C 
BRANCH  21  22
ATOM     22  C   UNL     1      33.397  -7.080  21.185  1.00  0.00    -0.000 C 
BRANCH  22  23
ATOM     23  C   UNL     1      31.932  -6.620  21.116  1.00  0.00    -0.000 C 
BRANCH  23  24
ATOM     24  C   UNL     1      30.954  -7.791  20.930  1.00  0.00    -0.000 C 
BRANCH  24  25
ATOM     25  C   UNL     1      30.118  -8.072  22.192  1.00  0.00    -0.000 C 
BRANCH  25  26
ATOM     26  C   UNL     1      30.339  -7.006  23.285  1.00  0.00    -0.000 C 
BRANCH  26  27
ATOM     27  C   UNL     1      30.940  -7.568  24.584  1.00  0.00    -0.000 C 
BRANCH  27  28
ATOM     28  C   UNL     1      31.938  -8.709  24.336  1.00  0.00    -0.000 C 
BRANCH  28  29
ATOM     29  C   UNL     1      33.309  -8.380  24.938  1.00  0.00    -0.003 C 
ATOM     30  C   UNL     1      33.617  -6.891  24.822  1.00  0.00     0.004 C 
ENDBRANCH  28  29
ENDBRANCH  27  28
ENDBRANCH  26  27
ENDBRANCH  25  26
ENDBRANCH  24  25
ENDBRANCH  23  24
ENDBRANCH  22  23
ENDBRANCH  21  22
ENDBRANCH  20  21
ENDBRANCH  19  20
ENDBRANCH  18  19
ENDBRANCH  17  18
ENDBRANCH   1  17
TORSDOF 26
ENDMDL
MODEL 6
REMARK VINA RESULT:    -3.532      2.107      4.342
REMARK INTER + INTRA:         -14.341
REMARK INTER:                  -9.871
REMARK INTRA:                  -4.470
REMARK UNBOUND:                -5.440
REMARK SMILES CCCCCCCCCCCCCCCCCCCCCCCCCCCC(=O)[O-]
REMARK SMILES IDX 15 1 16 2 17 3 18 4 19 5 20 6 21 7 22 8 23 9 24 10 25 11
REMARK SMILES IDX 26 12 27 13 28 14 29 15 30 16 14 17 13 18 12 19 11 20 10 21
REMARK SMILES IDX 9 22 8 23 7 24 6 25 5 26 4 27 3 28 2 29 1 30
REMARK H PARENT
REMARK Flexibility Score: inf
ROOT
ATOM      1  C   UNL     1      32.285  -9.577  17.290  1.00  0.00     0.000 C 
ENDROOT
BRANCH   1   2
ATOM      2  C   UNL     1      32.119  -8.076  16.997  1.00  0.00     0.000 C 
BRANCH   2   3
ATOM      3  C   UNL     1      31.394  -7.323  18.126  1.00  0.00     0.000 C 
BRANCH   3   4
ATOM      4  C   UNL     1      32.344  -6.442  18.953  1.00  0.00     0.000 C 
BRANCH   4   5
ATOM      5  C   UNL     1      32.395  -6.846  20.438  1.00  0.00     0.000 C 
BRANCH   5   6
ATOM      6  C   UNL     1      31.020  -7.305  20.948  1.00  0.00     0.000 C 
BRANCH   6   7
ATOM      7  C   UNL     1      30.699  -6.755  22.356  1.00  0.00     0.000 C 
BRANCH   7   8
ATOM      8  C   UNL     1      29.888  -7.742  23.211  1.00  0.00     0.000 C 
BRANCH   8   9
ATOM      9  C   UNL     1      30.266  -9.209  22.921  1.00  0.00     0.000 C 
BRANCH   9  10
ATOM     10  C   UNL     1      30.910  -9.897  24.142  1.00  0.00     0.000 C 
BRANCH  10  11
ATOM     11  C   UNL     1      32.314 -10.460  23.857  1.00  0.00     0.000 C 
BRANCH  11  12
ATOM     12  C   UNL     1      33.174  -9.515  23.005  1.00  0.00     0.006 C 
BRANCH  12  13
ATOM     13  C   UNL     1      34.218  -8.769  23.846  1.00  0.00     0.053 C 
BRANCH  13  14
ATOM     14  C   UNL     1      33.745  -7.404  24.243  1.00  0.00     0.041 C 
ATOM     15  O   UNL     1      34.065  -6.396  23.560  1.00  0.00    -0.550 OA
ATOM     16  O   UNL     1      32.922  -7.247  25.353  1.00  0.00    -0.550 OA
ENDBRANCH  13  14
ENDBRANCH  12  13
ENDBRANCH  11  12
ENDBRANCH  10  11
ENDBRANCH   9  10
ENDBRANCH   8   9
ENDBRANCH   7   8
ENDBRANCH   6   7
ENDBRANCH   5   6
ENDBRANCH   4   5
ENDBRANCH   3   4
ENDBRANCH   2   3
ENDBRANCH   1   2
BRANCH   1  17
ATOM     17  C   UNL     1      33.656  -9.914  17.901  1.00  0.00     0.000 C 
BRANCH  17  18
ATOM     18  C   UNL     1      33.540 -10.499  19.319  1.00  0.00     0.000 C 
BRANCH  18  19
ATOM     19  C   UNL     1      32.087 -10.581  19.836  1.00  0.00     0.000 C 
BRANCH  19  20
ATOM     20  C   UNL     1      31.769 -11.950  20.462  1.00  0.00     0.000 C 
BRANCH  20  21
ATOM     21  C   UNL     1      30.276 -12.117  20.787  1.00  0.00     0.000 C 
BRANCH  21  22
ATOM     22  C   UNL     1      29.997 -13.350  21.660  1.00  0.00    -0.000 C 
BRANCH  22  23
ATOM     23  C   UNL     1      29.201 -14.408  20.881  1.00  0.00    -0.000 C 
BRANCH  23  24
ATOM     24  C   UNL     1      27.837 -14.710  21.521  1.00  0.00    -0.000 C 
BRANCH  24  25
ATOM     25  C   UNL     1      27.808 -14.402  23.029  1.00  0.00    -0.000 C 
BRANCH  25  26
ATOM     26  C   UNL     1      28.424 -15.542  23.867  1.00  0.00    -0.000 C 
BRANCH  26  27
ATOM     27  C   UNL     1      28.117 -15.439  25.370  1.00  0.00    -0.000 C 
BRANCH  27  28
ATOM     28  C   UNL     1      29.381 -15.290  26.229  1.00  0.00    -0.000 C 
BRANCH  28  29
ATOM     29  C   UNL     1      30.457 -14.485  25.489  1.00  0.00    -0.003 C 
ATOM     30  C   UNL     1      30.361 -13.002  25.826  1.00  0.00     0.004 C 
ENDBRANCH  28  29
ENDBRANCH  27  28
ENDBRANCH  26  27
ENDBRANCH  25  26
ENDBRANCH  24  25
ENDBRANCH  23  24
ENDBRANCH  22  23
ENDBRANCH  21  22
ENDBRANCH  20  21
ENDBRANCH  19  20
ENDBRANCH  18  19
ENDBRANCH  17  18
ENDBRANCH   1  17
TORSDOF 26
ENDMDL
MODEL 7
REMARK VINA RESULT:    -3.531      2.330      4.920
REMARK INTER + INTRA:         -14.338
REMARK INTER:                  -9.136
REMARK INTRA:                  -5.202
REMARK UNBOUND:                -5.440
REMARK SMILES CCCCCCCCCCCCCCCCCCCCCCCCCCCC(=O)[O-]
REMARK SMILES IDX 15 1 16 2 17 3 18 4 19 5 20 6 21 7 22 8 23 9 24 10 25 11
REMARK SMILES IDX 26 12 27 13 28 14 29 15 30 16 14 17 13 18 12 19 11 20 10 21
REMARK SMILES IDX 9 22 8 23 7 24 6 25 5 26 4 27 3 28 2 29 1 30
REMARK H PARENT
REMARK Flexibility Score: inf
ROOT
ATOM      1  C   UNL     1      31.764  -6.921  20.257  1.00  0.00     0.000 C 
ENDROOT
BRANCH   1   2
ATOM      2  C   UNL     1      31.301  -7.361  18.858  1.00  0.00     0.000 C 
BRANCH   2   3
ATOM      3  C   UNL     1      32.064  -6.650  17.725  1.00  0.00     0.000 C 
BRANCH   3   4
ATOM      4  C   UNL     1      32.055  -7.453  16.414  1.00  0.00     0.000 C 
BRANCH   4   5
ATOM      5  C   UNL     1      32.089  -8.975  16.644  1.00  0.00     0.000 C 
BRANCH   5   6
ATOM      6  C   UNL     1      33.523  -9.525  16.593  1.00  0.00     0.000 C 
BRANCH   6   7
ATOM      7  C   UNL     1      33.821 -10.509  17.746  1.00  0.00     0.000 C 
BRANCH   7   8
ATOM      8  C   UNL     1      34.062  -9.800  19.088  1.00  0.00     0.000 C 
BRANCH   8   9
ATOM      9  C   UNL     1      33.132 -10.329  20.200  1.00  0.00     0.000 C 
BRANCH   9  10
ATOM     10  C   UNL     1      31.974 -11.177  19.635  1.00  0.00     0.000 C 
BRANCH  10  11
ATOM     11  C   UNL     1      31.938 -12.611  20.193  1.00  0.00     0.000 C 
BRANCH  11  12
ATOM     12  C   UNL     1      30.693 -13.394  19.750  1.00  0.00     0.006 C 
BRANCH  12  13
ATOM     13  C   UNL     1      29.460 -13.044  20.594  1.00  0.00     0.053 C 
BRANCH  13  14
ATOM     14  C   UNL     1      29.094 -14.151  21.535  1.00  0.00     0.041 C 
ATOM     15  O   UNL     1      29.413 -14.082  22.752  1.00  0.00    -0.550 OA
ATOM     16  O   UNL     1      28.373 -15.247  21.076  1.00  0.00    -0.550 OA
ENDBRANCH  13  14
ENDBRANCH  12  13
ENDBRANCH  11  12
ENDBRANCH  10  11
ENDBRANCH   9  10
ENDBRANCH   8   9
ENDBRANCH   7   8
ENDBRANCH   6   7
ENDBRANCH   5   6
ENDBRANCH   4   5
ENDBRANCH   3   4
ENDBRANCH   2   3
ENDBRANCH   1   2
BRANCH   1  17
ATOM     17  C   UNL     1      33.076  -6.119  20.225  1.00  0.00     0.000 C 
BRANCH  17  18
ATOM     18  C   UNL     1      34.161  -6.730  21.127  1.00  0.00     0.000 C 
BRANCH  18  19
ATOM     19  C   UNL     1      33.889  -6.538  22.635  1.00  0.00     0.000 C 
BRANCH  19  20
ATOM     20  C   UNL     1      34.077  -7.842  23.430  1.00  0.00     0.000 C 
BRANCH  20  21
ATOM     21  C   UNL     1      33.110  -7.950  24.620  1.00  0.00     0.000 C 
BRANCH  21  22
ATOM     22  C   UNL     1      32.446  -6.608  24.965  1.00  0.00    -0.000 C 
BRANCH  22  23
ATOM     23  C   UNL     1      30.915  -6.724  24.917  1.00  0.00    -0.000 C 
BRANCH  23  24
ATOM     24  C   UNL     1      30.375  -6.822  23.482  1.00  0.00    -0.000 C 
BRANCH  24  25
ATOM     25  C   UNL     1      29.590  -8.122  23.231  1.00  0.00    -0.000 C 
BRANCH  25  26
ATOM     26  C   UNL     1      30.475  -9.225  22.613  1.00  0.00    -0.000 C 
BRANCH  26  27
ATOM     27  C   UNL     1      30.345 -10.587  23.314  1.00  0.00    -0.000 C 
BRANCH  27  28
ATOM     28  C   UNL     1      31.704 -11.246  23.595  1.00  0.00    -0.000 C 
BRANCH  28  29
ATOM     29  C   UNL     1      31.919 -11.440  25.101  1.00  0.00    -0.003 C 
ATOM     30  C   UNL     1      31.240 -12.713  25.594  1.00  0.00     0.004 C 
ENDBRANCH  28  29
ENDBRANCH  27  28
ENDBRANCH  26  27
ENDBRANCH  25  26
ENDBRANCH  24  25
ENDBRANCH  23  24
ENDBRANCH  22  23
ENDBRANCH  21  22
ENDBRANCH  20  21
ENDBRANCH  19  20
ENDBRANCH  18  19
ENDBRANCH  17  18
ENDBRANCH   1  17
TORSDOF 26
ENDMDL
MODEL 8
REMARK VINA RESULT:    -3.480      2.434      5.305
REMARK INTER + INTRA:         -14.210
REMARK INTER:                  -9.356
REMARK INTRA:                  -4.854
REMARK UNBOUND:                -5.440
REMARK SMILES CCCCCCCCCCCCCCCCCCCCCCCCCCCC(=O)[O-]
REMARK SMILES IDX 15 1 16 2 17 3 18 4 19 5 20 6 21 7 22 8 23 9 24 10 25 11
REMARK SMILES IDX 26 12 27 13 28 14 29 15 30 16 14 17 13 18 12 19 11 20 10 21
REMARK SMILES IDX 9 22 8 23 7 24 6 25 5 26 4 27 3 28 2 29 1 30
REMARK H PARENT
REMARK Flexibility Score: inf
ROOT
ATOM      1  C   UNL     1      32.938  -6.891  19.409  1.00  0.00     0.000 C 
ENDROOT
BRANCH   1   2
ATOM      2  C   UNL     1      32.577  -5.941  20.564  1.00  0.00     0.000 C 
BRANCH   2   3
ATOM      3  C   UNL     1      32.931  -6.519  21.946  1.00  0.00     0.000 C 
BRANCH   3   4
ATOM      4  C   UNL     1      31.705  -6.647  22.864  1.00  0.00     0.000 C 
BRANCH   4   5
ATOM      5  C   UNL     1      30.567  -7.470  22.231  1.00  0.00     0.000 C 
BRANCH   5   6
ATOM      6  C   UNL     1      30.174  -8.666  23.113  1.00  0.00     0.000 C 
BRANCH   6   7
ATOM      7  C   UNL     1      31.059  -8.787  24.373  1.00  0.00     0.000 C 
BRANCH   7   8
ATOM      8  C   UNL     1      31.865 -10.095  24.413  1.00  0.00     0.000 C 
BRANCH   8   9
ATOM      9  C   UNL     1      31.547 -10.934  25.668  1.00  0.00     0.000 C 
BRANCH   9  10
ATOM     10  C   UNL     1      30.214 -11.699  25.535  1.00  0.00     0.000 C 
BRANCH  10  11
ATOM     11  C   UNL     1      30.001 -12.319  24.142  1.00  0.00     0.000 C 
BRANCH  11  12
ATOM     12  C   UNL     1      29.627 -13.808  24.203  1.00  0.00     0.006 C 
BRANCH  12  13
ATOM     13  C   UNL     1      29.477 -14.424  22.806  1.00  0.00     0.053 C 
BRANCH  13  14
ATOM     14  C   UNL     1      28.049 -14.445  22.354  1.00  0.00     0.041 C 
ATOM     15  O   UNL     1      27.659 -15.303  21.519  1.00  0.00    -0.550 OA
ATOM     16  O   UNL     1      27.138 -13.535  22.878  1.00  0.00    -0.550 OA
ENDBRANCH  13  14
ENDBRANCH  12  13
ENDBRANCH  11  12
ENDBRANCH  10  11
ENDBRANCH   9  10
ENDBRANCH   8   9
ENDBRANCH   7   8
ENDBRANCH   6   7
ENDBRANCH   5   6
ENDBRANCH   4   5
ENDBRANCH   3   4
ENDBRANCH   2   3
ENDBRANCH   1   2
BRANCH   1  17
ATOM     17  C   UNL     1      31.699  -7.426  18.671  1.00  0.00     0.000 C 
BRANCH  17  18
ATOM     18  C   UNL     1      31.768  -7.186  17.154  1.00  0.00     0.000 C 
BRANCH  18  19
ATOM     19  C   UNL     1      32.121  -8.452  16.343  1.00  0.00     0.000 C 
BRANCH  19  20
ATOM     20  C   UNL     1      32.233  -9.701  17.235  1.00  0.00     0.000 C 
BRANCH  20  21
ATOM     21  C   UNL     1      32.937 -10.869  16.527  1.00  0.00     0.000 C 
BRANCH  21  22
ATOM     22  C   UNL     1      33.469 -11.921  17.513  1.00  0.00    -0.000 C 
BRANCH  22  23
ATOM     23  C   UNL     1      32.479 -13.086  17.662  1.00  0.00    -0.000 C 
BRANCH  23  24
ATOM     24  C   UNL     1      32.218 -13.454  19.132  1.00  0.00    -0.000 C 
BRANCH  24  25
ATOM     25  C   UNL     1      30.823 -13.016  19.614  1.00  0.00    -0.000 C 
BRANCH  25  26
ATOM     26  C   UNL     1      30.896 -11.838  20.608  1.00  0.00    -0.000 C 
BRANCH  26  27
ATOM     27  C   UNL     1      32.310 -11.575  21.152  1.00  0.00    -0.000 C 
BRANCH  27  28
ATOM     28  C   UNL     1      32.800 -10.145  20.879  1.00  0.00    -0.000 C 
BRANCH  28  29
ATOM     29  C   UNL     1      34.301 -10.129  20.565  1.00  0.00    -0.003 C 
ATOM     30  C   UNL     1      34.946 -11.470  20.898  1.00  0.00     0.004 C 
ENDBRANCH  28  29
ENDBRANCH  27  28
ENDBRANCH  26  27
ENDBRANCH  25  26
ENDBRANCH  24  25
ENDBRANCH  23  24
ENDBRANCH  22  23
ENDBRANCH  21  22
ENDBRANCH  20  21
ENDBRANCH  19  20
ENDBRANCH  18  19
ENDBRANCH  17  18
ENDBRANCH   1  17
TORSDOF 26
ENDMDL
MODEL 9
REMARK VINA RESULT:    -3.472      1.943      4.740
REMARK INTER + INTRA:         -14.189
REMARK INTER:                  -9.384
REMARK INTRA:                  -4.805
REMARK UNBOUND:                -5.440
REMARK SMILES CCCCCCCCCCCCCCCCCCCCCCCCCCCC(=O)[O-]
REMARK SMILES IDX 15 1 16 2 17 3 18 4 19 5 20 6 21 7 22 8 23 9 24 10 25 11
REMARK SMILES IDX 26 12 27 13 28 14 29 15 30 16 14 17 13 18 12 19 11 20 10 21
REMARK SMILES IDX 9 22 8 23 7 24 6 25 5 26 4 27 3 28 2 29 1 30
REMARK H PARENT
REMARK Flexibility Score: inf
ROOT
ATOM      1  C   UNL     1      31.367  -7.016  18.685  1.00  0.00     0.000 C 
ENDROOT
BRANCH   1   2
ATOM      2  C   UNL     1      31.820  -7.626  17.348  1.00  0.00     0.000 C 
BRANCH   2   3
ATOM      3  C   UNL     1      33.171  -8.355  17.450  1.00  0.00     0.000 C 
BRANCH   3   4
ATOM      4  C   UNL     1      33.011  -9.875  17.616  1.00  0.00     0.000 C 
BRANCH   4   5
ATOM      5  C   UNL     1      34.036 -10.481  18.592  1.00  0.00     0.000 C 
BRANCH   5   6
ATOM      6  C   UNL     1      33.378 -10.909  19.913  1.00  0.00     0.000 C 
BRANCH   6   7
ATOM      7  C   UNL     1      31.842 -10.742  19.889  1.00  0.00     0.000 C 
BRANCH   7   8
ATOM      8  C   UNL     1      31.107 -11.879  20.616  1.00  0.00     0.000 C 
BRANCH   8   9
ATOM      9  C   UNL     1      31.099 -13.184  19.794  1.00  0.00     0.000 C 
BRANCH   9  10
ATOM     10  C   UNL     1      29.884 -14.075  20.126  1.00  0.00     0.000 C 
BRANCH  10  11
ATOM     11  C   UNL     1      28.749 -13.318  20.839  1.00  0.00     0.000 C 
BRANCH  11  12
ATOM     12  C   UNL     1      27.795 -14.252  21.599  1.00  0.00     0.006 C 
BRANCH  12  13
ATOM     13  C   UNL     1      27.597 -13.815  23.056  1.00  0.00     0.053 C 
BRANCH  13  14
ATOM     14  C   UNL     1      28.524 -14.536  23.987  1.00  0.00     0.041 C 
ATOM     15  O   UNL     1      28.160 -14.810  25.161  1.00  0.00    -0.550 OA
ATOM     16  O   UNL     1      29.782 -14.933  23.549  1.00  0.00    -0.550 OA
ENDBRANCH  13  14
ENDBRANCH  12  13
ENDBRANCH  11  12
ENDBRANCH  10  11
ENDBRANCH   9  10
ENDBRANCH   8   9
ENDBRANCH   7   8
ENDBRANCH   6   7
ENDBRANCH   5   6
ENDBRANCH   4   5
ENDBRANCH   3   4
ENDBRANCH   2   3
ENDBRANCH   1   2
BRANCH   1  17
ATOM     17  C   UNL     1      32.478  -7.028  19.749  1.00  0.00     0.000 C 
BRANCH  17  18
ATOM     18  C   UNL     1      31.920  -7.063  21.182  1.00  0.00     0.000 C 
BRANCH  18  19
ATOM     19  C   UNL     1      30.549  -7.765  21.293  1.00  0.00     0.000 C 
BRANCH  19  20
ATOM     20  C   UNL     1      30.001  -7.746  22.731  1.00  0.00     0.000 C 
BRANCH  20  21
ATOM     21  C   UNL     1      30.488  -6.528  23.531  1.00  0.00     0.000 C 
BRANCH  21  22
ATOM     22  C   UNL     1      31.108  -6.919  24.881  1.00  0.00    -0.000 C 
BRANCH  22  23
ATOM     23  C   UNL     1      32.643  -6.931  24.798  1.00  0.00    -0.000 C 
BRANCH  23  24
ATOM     24  C   UNL     1      33.256  -8.206  25.400  1.00  0.00    -0.000 C 
BRANCH  24  25
ATOM     25  C   UNL     1      33.909  -9.108  24.337  1.00  0.00    -0.000 C 
BRANCH  25  26
ATOM     26  C   UNL     1      32.862  -9.814  23.451  1.00  0.00    -0.000 C 
BRANCH  26  27
ATOM     27  C   UNL     1      32.326 -11.124  24.052  1.00  0.00    -0.000 C 
BRANCH  27  28
ATOM     28  C   UNL     1      30.791 -11.184  24.081  1.00  0.00    -0.000 C 
BRANCH  28  29
ATOM     29  C   UNL     1      30.281 -11.495  25.493  1.00  0.00    -0.003 C 
ATOM     30  C   UNL     1      30.457 -10.295  26.417  1.00  0.00     0.004 C 
ENDBRANCH  28  29
ENDBRANCH  27  28
ENDBRANCH  26  27
ENDBRANCH  25  26
ENDBRANCH  24  25
ENDBRANCH  23  24
ENDBRANCH  22  23
ENDBRANCH  21  22
ENDBRANCH  20  21
ENDBRANCH  19  20
ENDBRANCH  18  19
ENDBRANCH  17  18
ENDBRANCH   1  17
TORSDOF 26
ENDMDL
