MODEL 1
REMARK VINA RESULT:    -6.092      0.000      0.000
REMARK INTER + INTRA:         -14.900
REMARK INTER:                 -13.216
REMARK INTRA:                  -1.684
REMARK UNBOUND:                -1.684
REMARK SMILES CCCCCCCCCCCCCCCCCCCCCC(=O)[O-]
REMARK SMILES IDX 12 1 11 2 10 3 9 4 8 5 7 6 6 7 5 8 4 9 3 10 2 11 1 12 13 13
REMARK SMILES IDX 14 14 15 15 16 16 17 17 18 18 19 19 20 20 21 21 22 22 23 23
REMARK SMILES IDX 24 24
REMARK H PARENT
REMARK Flexibility Score: inf
ROOT
ATOM      1  C   UNL     1      88.515 325.912 201.661  1.00  0.00     0.000 C 
ENDROOT
BRANCH   1   2
ATOM      2  C   UNL     1      89.417 326.226 200.454  1.00  0.00     0.000 C 
BRANCH   2   3
ATOM      3  C   UNL     1      88.906 325.589 199.151  1.00  0.00     0.000 C 
BRANCH   3   4
ATOM      4  C   UNL     1      88.746 326.616 198.016  1.00  0.00    -0.000 C 
BRANCH   4   5
ATOM      5  C   UNL     1      87.987 326.044 196.807  1.00  0.00    -0.000 C 
BRANCH   5   6
ATOM      6  C   UNL     1      88.859 325.961 195.543  1.00  0.00    -0.000 C 
BRANCH   6   7
ATOM      7  C   UNL     1      88.212 326.729 194.381  1.00  0.00    -0.000 C 
BRANCH   7   8
ATOM      8  C   UNL     1      86.794 326.229 194.045  1.00  0.00    -0.000 C 
BRANCH   8   9
ATOM      9  C   UNL     1      86.739 324.888 193.291  1.00  0.00    -0.000 C 
BRANCH   9  10
ATOM     10  C   UNL     1      87.953 324.665 192.375  1.00  0.00    -0.000 C 
BRANCH  10  11
ATOM     11  C   UNL     1      87.570 323.822 191.153  1.00  0.00    -0.003 C 
ATOM     12  C   UNL     1      86.212 323.155 191.348  1.00  0.00     0.004 C 
ENDBRANCH  10  11
ENDBRANCH   9  10
ENDBRANCH   8   9
ENDBRANCH   7   8
ENDBRANCH   6   7
ENDBRANCH   5   6
ENDBRANCH   4   5
ENDBRANCH   3   4
ENDBRANCH   2   3
ENDBRANCH   1   2
BRANCH   1  13
ATOM     13  C   UNL     1      88.801 324.527 202.264  1.00  0.00     0.000 C 
BRANCH  13  14
ATOM     14  C   UNL     1      87.643 323.536 202.050  1.00  0.00     0.000 C 
BRANCH  14  15
ATOM     15  C   UNL     1      86.571 323.630 203.150  1.00  0.00     0.000 C 
BRANCH  15  16
ATOM     16  C   UNL     1      87.104 323.470 204.588  1.00  0.00     0.000 C 
BRANCH  16  17
ATOM     17  C   UNL     1      86.361 324.298 205.658  1.00  0.00     0.000 C 
BRANCH  17  18
ATOM     18  C   UNL     1      87.223 325.346 206.383  1.00  0.00     0.000 C 
BRANCH  18  19
ATOM     19  C   UNL     1      88.630 325.481 205.781  1.00  0.00     0.000 C 
BRANCH  19  20
ATOM     20  C   UNL     1      88.988 326.953 205.544  1.00  0.00     0.006 C 
BRANCH  20  21
ATOM     21  C   UNL     1      90.494 327.183 205.697  1.00  0.00     0.053 C 
BRANCH  21  22
ATOM     22  C   UNL     1      91.209 326.830 204.431  1.00  0.00     0.041 C 
ATOM     23  O   UNL     1      91.076 327.550 203.406  1.00  0.00    -0.550 OA
ATOM     24  O   UNL     1      91.984 325.680 204.368  1.00  0.00    -0.550 OA
ENDBRANCH  21  22
ENDBRANCH  20  21
ENDBRANCH  19  20
ENDBRANCH  18  19
ENDBRANCH  17  18
ENDBRANCH  16  17
ENDBRANCH  15  16
ENDBRANCH  14  15
ENDBRANCH  13  14
ENDBRANCH   1  13
TORSDOF 20
ENDMDL
MODEL 2
REMARK VINA RESULT:    -6.002      4.597     11.529
REMARK INTER + INTRA:         -14.705
REMARK INTER:                 -13.301
REMARK INTRA:                  -1.404
REMARK UNBOUND:                -1.684
REMARK SMILES CCCCCCCCCCCCCCCCCCCCCC(=O)[O-]
REMARK SMILES IDX 12 1 11 2 10 3 9 4 8 5 7 6 6 7 5 8 4 9 3 10 2 11 1 12 13 13
REMARK SMILES IDX 14 14 15 15 16 16 17 17 18 18 19 19 20 20 21 21 22 22 23 23
REMARK SMILES IDX 24 24
REMARK H PARENT
REMARK Flexibility Score: inf
ROOT
ATOM      1  C   UNL     1      88.949 325.716 199.396  1.00  0.00     0.000 C 
ENDROOT
BRANCH   1   2
ATOM      2  C   UNL     1      89.652 326.316 200.626  1.00  0.00     0.000 C 
BRANCH   2   3
ATOM      3  C   UNL     1      88.808 326.197 201.906  1.00  0.00     0.000 C 
BRANCH   3   4
ATOM      4  C   UNL     1      89.519 326.786 203.138  1.00  0.00    -0.000 C 
BRANCH   4   5
ATOM      5  C   UNL     1      90.284 325.721 203.942  1.00  0.00    -0.000 C 
BRANCH   5   6
ATOM      6  C   UNL     1      90.396 326.070 205.435  1.00  0.00    -0.000 C 
BRANCH   6   7
ATOM      7  C   UNL     1      89.222 326.955 205.879  1.00  0.00    -0.000 C 
BRANCH   7   8
ATOM      8  C   UNL     1      88.495 326.409 207.122  1.00  0.00    -0.000 C 
BRANCH   8   9
ATOM      9  C   UNL     1      87.122 325.768 206.843  1.00  0.00    -0.000 C 
BRANCH   9  10
ATOM     10  C   UNL     1      87.216 324.272 206.507  1.00  0.00    -0.000 C 
BRANCH  10  11
ATOM     11  C   UNL     1      86.252 323.903 205.374  1.00  0.00    -0.003 C 
ATOM     12  C   UNL     1      86.995 323.731 204.052  1.00  0.00     0.004 C 
ENDBRANCH  10  11
ENDBRANCH   9  10
ENDBRANCH   8   9
ENDBRANCH   7   8
ENDBRANCH   6   7
ENDBRANCH   5   6
ENDBRANCH   4   5
ENDBRANCH   3   4
ENDBRANCH   2   3
ENDBRANCH   1   2
BRANCH   1  13
ATOM     13  C   UNL     1      88.806 326.727 198.248  1.00  0.00     0.000 C 
BRANCH  13  14
ATOM     14  C   UNL     1      87.985 326.175 197.069  1.00  0.00     0.000 C 
BRANCH  14  15
ATOM     15  C   UNL     1      88.829 325.982 195.797  1.00  0.00     0.000 C 
BRANCH  15  16
ATOM     16  C   UNL     1      88.250 326.645 194.530  1.00  0.00     0.000 C 
BRANCH  16  17
ATOM     17  C   UNL     1      86.801 326.245 194.184  1.00  0.00     0.000 C 
BRANCH  17  18
ATOM     18  C   UNL     1      86.668 325.043 193.233  1.00  0.00     0.000 C 
BRANCH  18  19
ATOM     19  C   UNL     1      87.941 324.788 192.413  1.00  0.00     0.000 C 
BRANCH  19  20
ATOM     20  C   UNL     1      87.886 323.420 191.723  1.00  0.00     0.006 C 
BRANCH  20  21
ATOM     21  C   UNL     1      87.990 323.568 190.202  1.00  0.00     0.053 C 
BRANCH  21  22
ATOM     22  C   UNL     1      88.164 322.230 189.557  1.00  0.00     0.041 C 
ATOM     23  O   UNL     1      87.158 321.521 189.286  1.00  0.00    -0.550 OA
ATOM     24  O   UNL     1      89.439 321.744 189.296  1.00  0.00    -0.550 OA
ENDBRANCH  21  22
ENDBRANCH  20  21
ENDBRANCH  19  20
ENDBRANCH  18  19
ENDBRANCH  17  18
ENDBRANCH  16  17
ENDBRANCH  15  16
ENDBRANCH  14  15
ENDBRANCH  13  14
ENDBRANCH   1  13
TORSDOF 20
ENDMDL
MODEL 3
REMARK VINA RESULT:    -5.995      2.016      3.574
REMARK INTER + INTRA:         -14.688
REMARK INTER:                 -13.375
REMARK INTRA:                  -1.312
REMARK UNBOUND:                -1.684
REMARK SMILES CCCCCCCCCCCCCCCCCCCCCC(=O)[O-]
REMARK SMILES IDX 12 1 11 2 10 3 9 4 8 5 7 6 6 7 5 8 4 9 3 10 2 11 1 12 13 13
REMARK SMILES IDX 14 14 15 15 16 16 17 17 18 18 19 19 20 20 21 21 22 22 23 23
REMARK SMILES IDX 24 24
REMARK H PARENT
REMARK Flexibility Score: inf
ROOT
ATOM      1  C   UNL     1      88.837 324.629 198.799  1.00  0.00     0.000 C 
ENDROOT
BRANCH   1   2
ATOM      2  C   UNL     1      88.437 324.615 197.313  1.00  0.00     0.000 C 
BRANCH   2   3
ATOM      3  C   UNL     1      88.086 326.014 196.781  1.00  0.00     0.000 C 
BRANCH   3   4
ATOM      4  C   UNL     1      89.003 326.453 195.625  1.00  0.00    -0.000 C 
BRANCH   4   5
ATOM      5  C   UNL     1      88.231 326.677 194.313  1.00  0.00    -0.000 C 
BRANCH   5   6
ATOM      6  C   UNL     1      86.759 326.245 194.409  1.00  0.00    -0.000 C 
BRANCH   6   7
ATOM      7  C   UNL     1      86.436 325.168 193.362  1.00  0.00    -0.000 C 
BRANCH   7   8
ATOM      8  C   UNL     1      87.658 324.311 192.983  1.00  0.00    -0.000 C 
BRANCH   8   9
ATOM      9  C   UNL     1      87.943 324.216 191.473  1.00  0.00    -0.000 C 
BRANCH   9  10
ATOM     10  C   UNL     1      87.148 323.097 190.783  1.00  0.00    -0.000 C 
BRANCH  10  11
ATOM     11  C   UNL     1      87.701 322.817 189.380  1.00  0.00    -0.003 C 
ATOM     12  C   UNL     1      89.013 323.560 189.147  1.00  0.00     0.004 C 
ENDBRANCH  10  11
ENDBRANCH   9  10
ENDBRANCH   8   9
ENDBRANCH   7   8
ENDBRANCH   6   7
ENDBRANCH   5   6
ENDBRANCH   4   5
ENDBRANCH   3   4
ENDBRANCH   2   3
ENDBRANCH   1   2
BRANCH   1  13
ATOM     13  C   UNL     1      89.095 326.050 199.325  1.00  0.00     0.000 C 
BRANCH  13  14
ATOM     14  C   UNL     1      89.294 326.091 200.851  1.00  0.00     0.000 C 
BRANCH  14  15
ATOM     15  C   UNL     1      90.656 326.680 201.256  1.00  0.00     0.000 C 
BRANCH  15  16
ATOM     16  C   UNL     1      91.061 326.426 202.723  1.00  0.00     0.000 C 
BRANCH  16  17
ATOM     17  C   UNL     1      89.903 326.030 203.663  1.00  0.00     0.000 C 
BRANCH  17  18
ATOM     18  C   UNL     1      90.132 326.357 205.149  1.00  0.00     0.000 C 
BRANCH  18  19
ATOM     19  C   UNL     1      88.900 326.984 205.818  1.00  0.00     0.000 C 
BRANCH  19  20
ATOM     20  C   UNL     1      88.485 326.189 207.062  1.00  0.00     0.006 C 
BRANCH  20  21
ATOM     21  C   UNL     1      87.073 325.618 206.902  1.00  0.00     0.053 C 
BRANCH  21  22
ATOM     22  C   UNL     1      87.099 324.386 206.055  1.00  0.00     0.041 C 
ATOM     23  O   UNL     1      86.179 324.171 205.222  1.00  0.00    -0.550 OA
ATOM     24  O   UNL     1      88.112 323.450 206.218  1.00  0.00    -0.550 OA
ENDBRANCH  21  22
ENDBRANCH  20  21
ENDBRANCH  19  20
ENDBRANCH  18  19
ENDBRANCH  17  18
ENDBRANCH  16  17
ENDBRANCH  15  16
ENDBRANCH  14  15
ENDBRANCH  13  14
ENDBRANCH   1  13
TORSDOF 20
ENDMDL
MODEL 4
REMARK VINA RESULT:    -5.965      4.425     11.033
REMARK INTER + INTRA:         -14.624
REMARK INTER:                 -12.862
REMARK INTRA:                  -1.762
REMARK UNBOUND:                -1.684
REMARK SMILES CCCCCCCCCCCCCCCCCCCCCC(=O)[O-]
REMARK SMILES IDX 12 1 11 2 10 3 9 4 8 5 7 6 6 7 5 8 4 9 3 10 2 11 1 12 13 13
REMARK SMILES IDX 14 14 15 15 16 16 17 17 18 18 19 19 20 20 21 21 22 22 23 23
REMARK SMILES IDX 24 24
REMARK H PARENT
REMARK Flexibility Score: inf
ROOT
ATOM      1  C   UNL     1      89.258 324.177 198.387  1.00  0.00     0.000 C 
ENDROOT
BRANCH   1   2
ATOM      2  C   UNL     1      89.080 325.434 199.257  1.00  0.00     0.000 C 
BRANCH   2   3
ATOM      3  C   UNL     1      88.540 325.112 200.660  1.00  0.00     0.000 C 
BRANCH   3   4
ATOM      4  C   UNL     1      88.808 326.242 201.670  1.00  0.00    -0.000 C 
BRANCH   4   5
ATOM      5  C   UNL     1      90.304 326.574 201.800  1.00  0.00    -0.000 C 
BRANCH   5   6
ATOM      6  C   UNL     1      90.706 326.955 203.234  1.00  0.00    -0.000 C 
BRANCH   6   7
ATOM      7  C   UNL     1      89.823 326.229 204.260  1.00  0.00    -0.000 C 
BRANCH   7   8
ATOM      8  C   UNL     1      89.161 327.187 205.268  1.00  0.00    -0.000 C 
BRANCH   8   9
ATOM      9  C   UNL     1      88.779 326.549 206.617  1.00  0.00    -0.000 C 
BRANCH   9  10
ATOM     10  C   UNL     1      88.327 325.087 206.482  1.00  0.00    -0.000 C 
BRANCH  10  11
ATOM     11  C   UNL     1      86.798 324.987 206.448  1.00  0.00    -0.003 C 
ATOM     12  C   UNL     1      86.329 324.088 205.307  1.00  0.00     0.004 C 
ENDBRANCH  10  11
ENDBRANCH   9  10
ENDBRANCH   8   9
ENDBRANCH   7   8
ENDBRANCH   6   7
ENDBRANCH   5   6
ENDBRANCH   4   5
ENDBRANCH   3   4
ENDBRANCH   2   3
ENDBRANCH   1   2
BRANCH   1  13
ATOM     13  C   UNL     1      88.755 324.380 196.949  1.00  0.00     0.000 C 
BRANCH  13  14
ATOM     14  C   UNL     1      88.260 325.814 196.690  1.00  0.00     0.000 C 
BRANCH  14  15
ATOM     15  C   UNL     1      88.929 326.461 195.465  1.00  0.00     0.000 C 
BRANCH  15  16
ATOM     16  C   UNL     1      87.968 326.807 194.310  1.00  0.00     0.000 C 
BRANCH  16  17
ATOM     17  C   UNL     1      86.529 326.273 194.472  1.00  0.00     0.000 C 
BRANCH  17  18
ATOM     18  C   UNL     1      86.129 325.171 193.475  1.00  0.00     0.000 C 
BRANCH  18  19
ATOM     19  C   UNL     1      86.757 323.810 193.807  1.00  0.00     0.000 C 
BRANCH  19  20
ATOM     20  C   UNL     1      88.015 323.564 192.966  1.00  0.00     0.006 C 
BRANCH  20  21
ATOM     21  C   UNL     1      87.911 324.262 191.607  1.00  0.00     0.053 C 
BRANCH  21  22
ATOM     22  C   UNL     1      87.824 323.255 190.505  1.00  0.00     0.041 C 
ATOM     23  O   UNL     1      86.720 322.715 190.225  1.00  0.00    -0.550 OA
ATOM     24  O   UNL     1      88.969 322.874 189.818  1.00  0.00    -0.550 OA
ENDBRANCH  21  22
ENDBRANCH  20  21
ENDBRANCH  19  20
ENDBRANCH  18  19
ENDBRANCH  17  18
ENDBRANCH  16  17
ENDBRANCH  15  16
ENDBRANCH  14  15
ENDBRANCH  13  14
ENDBRANCH   1  13
TORSDOF 20
ENDMDL
MODEL 5
REMARK VINA RESULT:    -5.897      1.700      2.964
REMARK INTER + INTRA:         -14.477
REMARK INTER:                 -12.840
REMARK INTRA:                  -1.637
REMARK UNBOUND:                -1.684
REMARK SMILES CCCCCCCCCCCCCCCCCCCCCC(=O)[O-]
REMARK SMILES IDX 12 1 11 2 10 3 9 4 8 5 7 6 6 7 5 8 4 9 3 10 2 11 1 12 13 13
REMARK SMILES IDX 14 14 15 15 16 16 17 17 18 18 19 19 20 20 21 21 22 22 23 23
REMARK SMILES IDX 24 24
REMARK H PARENT
REMARK Flexibility Score: inf
ROOT
ATOM      1  C   UNL     1      89.944 326.491 200.783  1.00  0.00     0.000 C 
ENDROOT
BRANCH   1   2
ATOM      2  C   UNL     1      89.989 325.154 200.021  1.00  0.00     0.000 C 
BRANCH   2   3
ATOM      3  C   UNL     1      88.869 325.031 198.976  1.00  0.00     0.000 C 
BRANCH   3   4
ATOM      4  C   UNL     1      88.695 326.314 198.143  1.00  0.00    -0.000 C 
BRANCH   4   5
ATOM      5  C   UNL     1      87.957 326.061 196.818  1.00  0.00    -0.000 C 
BRANCH   5   6
ATOM      6  C   UNL     1      88.821 326.375 195.586  1.00  0.00    -0.000 C 
BRANCH   6   7
ATOM      7  C   UNL     1      87.946 326.792 194.395  1.00  0.00    -0.000 C 
BRANCH   7   8
ATOM      8  C   UNL     1      86.485 326.324 194.529  1.00  0.00    -0.000 C 
BRANCH   8   9
ATOM      9  C   UNL     1      86.047 325.258 193.507  1.00  0.00    -0.000 C 
BRANCH   9  10
ATOM     10  C   UNL     1      86.713 323.894 193.740  1.00  0.00    -0.000 C 
BRANCH  10  11
ATOM     11  C   UNL     1      88.040 323.795 192.978  1.00  0.00    -0.003 C 
ATOM     12  C   UNL     1      87.849 324.107 191.496  1.00  0.00     0.004 C 
ENDBRANCH  10  11
ENDBRANCH   9  10
ENDBRANCH   8   9
ENDBRANCH   7   8
ENDBRANCH   6   7
ENDBRANCH   5   6
ENDBRANCH   4   5
ENDBRANCH   3   4
ENDBRANCH   2   3
ENDBRANCH   1   2
BRANCH   1  13
ATOM     13  C   UNL     1      88.971 326.458 201.972  1.00  0.00     0.000 C 
BRANCH  13  14
ATOM     14  C   UNL     1      89.681 326.206 203.314  1.00  0.00     0.000 C 
BRANCH  14  15
ATOM     15  C   UNL     1      89.232 327.182 204.415  1.00  0.00     0.000 C 
BRANCH  15  16
ATOM     16  C   UNL     1      89.772 326.863 205.823  1.00  0.00     0.000 C 
BRANCH  16  17
ATOM     17  C   UNL     1      88.694 326.580 206.891  1.00  0.00     0.000 C 
BRANCH  17  18
ATOM     18  C   UNL     1      88.137 325.146 206.887  1.00  0.00     0.000 C 
BRANCH  18  19
ATOM     19  C   UNL     1      86.671 325.076 206.433  1.00  0.00     0.000 C 
BRANCH  19  20
ATOM     20  C   UNL     1      86.501 324.088 205.274  1.00  0.00     0.006 C 
BRANCH  20  21
ATOM     21  C   UNL     1      87.643 323.068 205.250  1.00  0.00     0.053 C 
BRANCH  21  22
ATOM     22  C   UNL     1      88.145 322.874 203.855  1.00  0.00     0.041 C 
ATOM     23  O   UNL     1      87.335 322.841 202.889  1.00  0.00    -0.550 OA
ATOM     24  O   UNL     1      89.500 322.683 203.622  1.00  0.00    -0.550 OA
ENDBRANCH  21  22
ENDBRANCH  20  21
ENDBRANCH  19  20
ENDBRANCH  18  19
ENDBRANCH  17  18
ENDBRANCH  16  17
ENDBRANCH  15  16
ENDBRANCH  14  15
ENDBRANCH  13  14
ENDBRANCH   1  13
TORSDOF 20
ENDMDL
MODEL 6
REMARK VINA RESULT:    -5.862      2.171      5.383
REMARK INTER + INTRA:         -14.401
REMARK INTER:                 -11.723
REMARK INTRA:                  -2.678
REMARK UNBOUND:                -1.684
REMARK SMILES CCCCCCCCCCCCCCCCCCCCCC(=O)[O-]
REMARK SMILES IDX 12 1 11 2 10 3 9 4 8 5 7 6 6 7 5 8 4 9 3 10 2 11 1 12 13 13
REMARK SMILES IDX 14 14 15 15 16 16 17 17 18 18 19 19 20 20 21 21 22 22 23 23
REMARK SMILES IDX 24 24
REMARK H PARENT
REMARK Flexibility Score: inf
ROOT
ATOM      1  C   UNL     1      88.114 326.740 194.195  1.00  0.00     0.000 C 
ENDROOT
BRANCH   1   2
ATOM      2  C   UNL     1      86.685 326.171 194.245  1.00  0.00     0.000 C 
BRANCH   2   3
ATOM      3  C   UNL     1      86.428 325.119 193.154  1.00  0.00     0.000 C 
BRANCH   3   4
ATOM      4  C   UNL     1      87.692 324.796 192.336  1.00  0.00    -0.000 C 
BRANCH   4   5
ATOM      5  C   UNL     1      87.588 323.452 191.597  1.00  0.00    -0.000 C 
BRANCH   5   6
ATOM      6  C   UNL     1      86.151 322.908 191.550  1.00  0.00    -0.000 C 
BRANCH   6   7
ATOM      7  C   UNL     1      86.064 321.534 192.230  1.00  0.00    -0.000 C 
BRANCH   7   8
ATOM      8  C   UNL     1      87.256 321.247 193.163  1.00  0.00    -0.000 C 
BRANCH   8   9
ATOM      9  C   UNL     1      86.922 321.257 194.666  1.00  0.00    -0.000 C 
BRANCH   9  10
ATOM     10  C   UNL     1      87.427 322.517 195.385  1.00  0.00    -0.000 C 
BRANCH  10  11
ATOM     11  C   UNL     1      88.910 322.761 195.085  1.00  0.00    -0.003 C 
ATOM     12  C   UNL     1      89.780 322.422 196.292  1.00  0.00     0.004 C 
ENDBRANCH  10  11
ENDBRANCH   9  10
ENDBRANCH   8   9
ENDBRANCH   7   8
ENDBRANCH   6   7
ENDBRANCH   5   6
ENDBRANCH   4   5
ENDBRANCH   3   4
ENDBRANCH   2   3
ENDBRANCH   1   2
BRANCH   1  13
ATOM     13  C   UNL     1      88.894 326.489 195.495  1.00  0.00     0.000 C 
BRANCH  13  14
ATOM     14  C   UNL     1      87.996 325.978 196.636  1.00  0.00     0.000 C 
BRANCH  14  15
ATOM     15  C   UNL     1      88.557 326.316 198.029  1.00  0.00     0.000 C 
BRANCH  15  16
ATOM     16  C   UNL     1      88.911 325.092 198.898  1.00  0.00     0.000 C 
BRANCH  16  17
ATOM     17  C   UNL     1      88.936 325.354 200.419  1.00  0.00     0.000 C 
BRANCH  17  18
ATOM     18  C   UNL     1      89.743 326.590 200.852  1.00  0.00     0.000 C 
BRANCH  18  19
ATOM     19  C   UNL     1      91.116 326.229 201.440  1.00  0.00     0.000 C 
BRANCH  19  20
ATOM     20  C   UNL     1      91.403 327.044 202.706  1.00  0.00     0.006 C 
BRANCH  20  21
ATOM     21  C   UNL     1      90.995 326.268 203.962  1.00  0.00     0.053 C 
BRANCH  21  22
ATOM     22  C   UNL     1      90.127 327.112 204.841  1.00  0.00     0.041 C 
ATOM     23  O   UNL     1      90.423 327.275 206.055  1.00  0.00    -0.550 OA
ATOM     24  O   UNL     1      88.966 327.679 204.333  1.00  0.00    -0.550 OA
ENDBRANCH  21  22
ENDBRANCH  20  21
ENDBRANCH  19  20
ENDBRANCH  18  19
ENDBRANCH  17  18
ENDBRANCH  16  17
ENDBRANCH  15  16
ENDBRANCH  14  15
ENDBRANCH  13  14
ENDBRANCH   1  13
TORSDOF 20
ENDMDL
MODEL 7
REMARK VINA RESULT:    -5.857      3.965      9.869
REMARK INTER + INTRA:         -14.389
REMARK INTER:                 -12.638
REMARK INTRA:                  -1.751
REMARK UNBOUND:                -1.684
REMARK SMILES CCCCCCCCCCCCCCCCCCCCCC(=O)[O-]
REMARK SMILES IDX 12 1 11 2 10 3 9 4 8 5 7 6 6 7 5 8 4 9 3 10 2 11 1 12 13 13
REMARK SMILES IDX 14 14 15 15 16 16 17 17 18 18 19 19 20 20 21 21 22 22 23 23
REMARK SMILES IDX 24 24
REMARK H PARENT
REMARK Flexibility Score: inf
ROOT
ATOM      1  C   UNL     1      90.790 326.858 202.041  1.00  0.00     0.000 C 
ENDROOT
BRANCH   1   2
ATOM      2  C   UNL     1      90.727 327.072 203.564  1.00  0.00     0.000 C 
BRANCH   2   3
ATOM      3  C   UNL     1      89.286 327.162 204.090  1.00  0.00     0.000 C 
BRANCH   3   4
ATOM      4  C   UNL     1      89.223 327.243 205.626  1.00  0.00    -0.000 C 
BRANCH   4   5
ATOM      5  C   UNL     1      89.043 325.863 206.282  1.00  0.00    -0.000 C 
BRANCH   5   6
ATOM      6  C   UNL     1      87.644 325.671 206.888  1.00  0.00    -0.000 C 
BRANCH   6   7
ATOM      7  C   UNL     1      86.762 324.815 205.967  1.00  0.00    -0.000 C 
BRANCH   7   8
ATOM      8  C   UNL     1      87.569 323.802 205.134  1.00  0.00    -0.000 C 
BRANCH   8   9
ATOM      9  C   UNL     1      87.511 324.021 203.610  1.00  0.00    -0.000 C 
BRANCH   9  10
ATOM     10  C   UNL     1      86.148 323.657 203.003  1.00  0.00    -0.000 C 
BRANCH  10  11
ATOM     11  C   UNL     1      86.312 322.681 201.833  1.00  0.00    -0.003 C 
ATOM     12  C   UNL     1      87.785 322.392 201.558  1.00  0.00     0.004 C 
ENDBRANCH  10  11
ENDBRANCH   9  10
ENDBRANCH   8   9
ENDBRANCH   7   8
ENDBRANCH   6   7
ENDBRANCH   5   6
ENDBRANCH   4   5
ENDBRANCH   3   4
ENDBRANCH   2   3
ENDBRANCH   1   2
BRANCH   1  13
ATOM     13  C   UNL     1      89.962 325.647 201.582  1.00  0.00     0.000 C 
BRANCH  13  14
ATOM     14  C   UNL     1      88.820 326.037 200.626  1.00  0.00     0.000 C 
BRANCH  14  15
ATOM     15  C   UNL     1      89.085 325.595 199.176  1.00  0.00     0.000 C 
BRANCH  15  16
ATOM     16  C   UNL     1      88.792 326.670 198.109  1.00  0.00     0.000 C 
BRANCH  16  17
ATOM     17  C   UNL     1      88.023 326.170 196.869  1.00  0.00     0.000 C 
BRANCH  17  18
ATOM     18  C   UNL     1      88.861 326.066 195.582  1.00  0.00     0.000 C 
BRANCH  18  19
ATOM     19  C   UNL     1      88.207 326.774 194.386  1.00  0.00     0.000 C 
BRANCH  19  20
ATOM     20  C   UNL     1      87.346 325.799 193.574  1.00  0.00     0.006 C 
BRANCH  20  21
ATOM     21  C   UNL     1      88.163 324.580 193.135  1.00  0.00     0.053 C 
BRANCH  21  22
ATOM     22  C   UNL     1      87.553 323.948 191.925  1.00  0.00     0.041 C 
ATOM     23  O   UNL     1      88.090 324.094 190.795  1.00  0.00    -0.550 OA
ATOM     24  O   UNL     1      86.365 323.237 192.035  1.00  0.00    -0.550 OA
ENDBRANCH  21  22
ENDBRANCH  20  21
ENDBRANCH  19  20
ENDBRANCH  18  19
ENDBRANCH  17  18
ENDBRANCH  16  17
ENDBRANCH  15  16
ENDBRANCH  14  15
ENDBRANCH  13  14
ENDBRANCH   1  13
TORSDOF 20
ENDMDL
MODEL 8
REMARK VINA RESULT:    -5.842      3.385     10.550
REMARK INTER + INTRA:         -14.357
REMARK INTER:                 -12.626
REMARK INTRA:                  -1.731
REMARK UNBOUND:                -1.684
REMARK SMILES CCCCCCCCCCCCCCCCCCCCCC(=O)[O-]
REMARK SMILES IDX 12 1 11 2 10 3 9 4 8 5 7 6 6 7 5 8 4 9 3 10 2 11 1 12 13 13
REMARK SMILES IDX 14 14 15 15 16 16 17 17 18 18 19 19 20 20 21 21 22 22 23 23
REMARK SMILES IDX 24 24
REMARK H PARENT
REMARK Flexibility Score: inf
ROOT
ATOM      1  C   UNL     1      89.188 326.076 201.076  1.00  0.00     0.000 C 
ENDROOT
BRANCH   1   2
ATOM      2  C   UNL     1      88.357 324.784 201.162  1.00  0.00     0.000 C 
BRANCH   2   3
ATOM      3  C   UNL     1      88.191 324.282 202.606  1.00  0.00     0.000 C 
BRANCH   3   4
ATOM      4  C   UNL     1      86.797 323.683 202.866  1.00  0.00    -0.000 C 
BRANCH   4   5
ATOM      5  C   UNL     1      86.739 322.868 204.169  1.00  0.00    -0.000 C 
BRANCH   5   6
ATOM      6  C   UNL     1      87.511 323.533 205.320  1.00  0.00    -0.000 C 
BRANCH   6   7
ATOM      7  C   UNL     1      86.604 324.493 206.104  1.00  0.00    -0.000 C 
BRANCH   7   8
ATOM      8  C   UNL     1      87.377 325.660 206.747  1.00  0.00    -0.000 C 
BRANCH   8   9
ATOM      9  C   UNL     1      88.831 325.821 206.266  1.00  0.00    -0.000 C 
BRANCH   9  10
ATOM     10  C   UNL     1      89.166 327.259 205.842  1.00  0.00    -0.000 C 
BRANCH  10  11
ATOM     11  C   UNL     1      89.451 327.335 204.337  1.00  0.00    -0.003 C 
ATOM     12  C   UNL     1      90.945 327.485 204.066  1.00  0.00     0.004 C 
ENDBRANCH  10  11
ENDBRANCH   9  10
ENDBRANCH   8   9
ENDBRANCH   7   8
ENDBRANCH   6   7
ENDBRANCH   5   6
ENDBRANCH   4   5
ENDBRANCH   3   4
ENDBRANCH   2   3
ENDBRANCH   1   2
BRANCH   1  13
ATOM     13  C   UNL     1      89.250 326.642 199.649  1.00  0.00     0.000 C 
BRANCH  13  14
ATOM     14  C   UNL     1      88.845 325.609 198.582  1.00  0.00     0.000 C 
BRANCH  14  15
ATOM     15  C   UNL     1      88.260 326.261 197.317  1.00  0.00     0.000 C 
BRANCH  15  16
ATOM     16  C   UNL     1      88.844 325.737 195.990  1.00  0.00     0.000 C 
BRANCH  16  17
ATOM     17  C   UNL     1      88.405 326.511 194.729  1.00  0.00     0.000 C 
BRANCH  17  18
ATOM     18  C   UNL     1      86.913 326.385 194.375  1.00  0.00     0.000 C 
BRANCH  18  19
ATOM     19  C   UNL     1      86.640 325.304 193.320  1.00  0.00     0.000 C 
BRANCH  19  20
ATOM     20  C   UNL     1      87.905 324.992 192.512  1.00  0.00     0.006 C 
BRANCH  20  21
ATOM     21  C   UNL     1      87.982 323.502 192.165  1.00  0.00     0.053 C 
BRANCH  21  22
ATOM     22  C   UNL     1      87.927 322.672 193.407  1.00  0.00     0.041 C 
ATOM     23  O   UNL     1      88.881 322.698 194.230  1.00  0.00    -0.550 OA
ATOM     24  O   UNL     1      86.845 321.831 193.636  1.00  0.00    -0.550 OA
ENDBRANCH  21  22
ENDBRANCH  20  21
ENDBRANCH  19  20
ENDBRANCH  18  19
ENDBRANCH  17  18
ENDBRANCH  16  17
ENDBRANCH  15  16
ENDBRANCH  14  15
ENDBRANCH  13  14
ENDBRANCH   1  13
TORSDOF 20
ENDMDL
MODEL 9
REMARK VINA RESULT:    -5.823      3.852     10.412
REMARK INTER + INTRA:         -14.316
REMARK INTER:                 -12.460
REMARK INTRA:                  -1.856
REMARK UNBOUND:                -1.684
REMARK SMILES CCCCCCCCCCCCCCCCCCCCCC(=O)[O-]
REMARK SMILES IDX 12 1 11 2 10 3 9 4 8 5 7 6 6 7 5 8 4 9 3 10 2 11 1 12 13 13
REMARK SMILES IDX 14 14 15 15 16 16 17 17 18 18 19 19 20 20 21 21 22 22 23 23
REMARK SMILES IDX 24 24
REMARK H PARENT
REMARK Flexibility Score: inf
ROOT
ATOM      1  C   UNL     1      89.496 325.634 201.145  1.00  0.00     0.000 C 
ENDROOT
BRANCH   1   2
ATOM      2  C   UNL     1      88.883 326.396 202.334  1.00  0.00     0.000 C 
BRANCH   2   3
ATOM      3  C   UNL     1      89.910 326.697 203.437  1.00  0.00     0.000 C 
BRANCH   3   4
ATOM      4  C   UNL     1      89.258 327.263 204.712  1.00  0.00    -0.000 C 
BRANCH   4   5
ATOM      5  C   UNL     1      89.594 326.434 205.963  1.00  0.00    -0.000 C 
BRANCH   5   6
ATOM      6  C   UNL     1      88.455 326.429 206.996  1.00  0.00    -0.000 C 
BRANCH   6   7
ATOM      7  C   UNL     1      87.789 325.047 207.069  1.00  0.00    -0.000 C 
BRANCH   7   8
ATOM      8  C   UNL     1      86.633 324.883 206.064  1.00  0.00    -0.000 C 
BRANCH   8   9
ATOM      9  C   UNL     1      86.631 323.553 205.286  1.00  0.00    -0.000 C 
BRANCH   9  10
ATOM     10  C   UNL     1      87.917 323.332 204.475  1.00  0.00    -0.000 C 
BRANCH  10  11
ATOM     11  C   UNL     1      87.593 323.031 203.007  1.00  0.00    -0.003 C 
ATOM     12  C   UNL     1      86.230 323.594 202.616  1.00  0.00     0.004 C 
ENDBRANCH  10  11
ENDBRANCH   9  10
ENDBRANCH   8   9
ENDBRANCH   7   8
ENDBRANCH   6   7
ENDBRANCH   5   6
ENDBRANCH   4   5
ENDBRANCH   3   4
ENDBRANCH   2   3
ENDBRANCH   1   2
BRANCH   1  13
ATOM     13  C   UNL     1      89.280 326.358 199.807  1.00  0.00     0.000 C 
BRANCH  13  14
ATOM     14  C   UNL     1      88.840 325.406 198.681  1.00  0.00     0.000 C 
BRANCH  14  15
ATOM     15  C   UNL     1      88.207 326.147 197.491  1.00  0.00     0.000 C 
BRANCH  15  16
ATOM     16  C   UNL     1      88.543 325.556 196.107  1.00  0.00     0.000 C 
BRANCH  16  17
ATOM     17  C   UNL     1      88.685 326.588 194.969  1.00  0.00     0.000 C 
BRANCH  17  18
ATOM     18  C   UNL     1      87.454 326.720 194.054  1.00  0.00     0.000 C 
BRANCH  18  19
ATOM     19  C   UNL     1      86.420 325.607 194.282  1.00  0.00     0.000 C 
BRANCH  19  20
ATOM     20  C   UNL     1      86.098 324.880 192.972  1.00  0.00     0.006 C 
BRANCH  20  21
ATOM     21  C   UNL     1      87.374 324.362 192.303  1.00  0.00     0.053 C 
BRANCH  21  22
ATOM     22  C   UNL     1      87.473 322.876 192.441  1.00  0.00     0.041 C 
ATOM     23  O   UNL     1      88.550 322.284 192.162  1.00  0.00    -0.550 OA
ATOM     24  O   UNL     1      86.364 322.138 192.832  1.00  0.00    -0.550 OA
ENDBRANCH  21  22
ENDBRANCH  20  21
ENDBRANCH  19  20
ENDBRANCH  18  19
ENDBRANCH  17  18
ENDBRANCH  16  17
ENDBRANCH  15  16
ENDBRANCH  14  15
ENDBRANCH  13  14
ENDBRANCH   1  13
TORSDOF 20
ENDMDL
