MODEL 1
REMARK VINA RESULT:    -7.124      0.000      0.000
REMARK INTER + INTRA:          -7.919
REMARK INTER:                  -7.749
REMARK INTRA:                  -0.170
REMARK UNBOUND:                -0.170
REMARK SMILES C[C@@H]1[C@H]2C3=CC[C@@H]4[C@@]5(C)CC[C@H](O)C(C)(C)[C@@H]5CC[C@]4(C)[C@@]3(C)CC[C@@]2(C(=O)[O-])CC[C@@H]1C
REMARK SMILES IDX 26 1 30 2 25 3 3 4 31 5 24 6 4 7 2 8 32 9 22 10 5 11 1 12
REMARK SMILES IDX 33 13 23 14 20 15 6 16 7 17 19 18 21 19 8 20 18 21 17 22
REMARK SMILES IDX 10 23 9 24 14 25 11 26 12 27 15 28 16 29 27 30 28 31 29 32
REMARK SMILES IDX 13 33
REMARK H PARENT 13 34
REMARK Flexibility Score: inf
ROOT
ATOM      1  C   UNL     1      23.294 -14.166  46.175  1.00  0.00     0.017 C 
ATOM      2  C   UNL     1      23.585 -15.475  46.989  1.00  0.00     0.014 C 
ATOM      3  C   UNL     1      21.956 -13.595  46.690  1.00  0.00     0.014 C 
ATOM      4  C   UNL     1      23.157 -14.458  44.633  1.00  0.00     0.030 C 
ATOM      5  C   UNL     1      24.361 -16.500  46.168  1.00  0.00     0.004 C 
ATOM      6  C   UNL     1      21.638 -12.231  46.090  1.00  0.00     0.013 C 
ATOM      7  C   UNL     1      22.453 -13.318  43.864  1.00  0.00    -0.063 C 
ATOM      8  C   UNL     1      22.538 -15.894  44.430  1.00  0.00    -0.003 C 
ATOM      9  C   UNL     1      23.538 -16.989  44.950  1.00  0.00    -0.011 C 
ATOM     10  C   UNL     1      21.671 -12.144  44.514  1.00  0.00    -0.006 C 
ATOM     11  C   UNL     1      22.556 -13.324  42.521  1.00  0.00    -0.027 C 
ATOM     12  C   UNL     1      21.996 -16.238  43.026  1.00  0.00     0.008 C 
ATOM     13  C   UNL     1      24.510 -17.513  43.875  1.00  0.00     0.008 C 
ATOM     14  C   UNL     1      22.460 -10.823  44.212  1.00  0.00     0.017 C 
ATOM     15  C   UNL     1      20.201 -12.114  43.850  1.00  0.00    -0.020 C 
ATOM     16  C   UNL     1      21.708 -12.448  41.655  1.00  0.00     0.032 C 
ATOM     17  C   UNL     1      20.276 -12.262  42.241  1.00  0.00     0.006 C 
ATOM     18  C   UNL     1      19.413 -10.827  44.281  1.00  0.00     0.008 C 
ATOM     19  C   UNL     1      19.390 -13.328  44.414  1.00  0.00     0.012 C 
ATOM     20  C   UNL     1      19.377 -11.261  41.385  1.00  0.00    -0.025 C 
ATOM     21  C   UNL     1      18.118 -10.499  43.501  1.00  0.00     0.005 C 
ATOM     22  C   UNL     1      17.985 -11.166  42.108  1.00  0.00     0.003 C 
ATOM     23  C   UNL     1      19.187 -11.861  39.953  1.00  0.00     0.010 C 
ATOM     24  C   UNL     1      20.072  -9.874  41.226  1.00  0.00     0.012 C 
ATOM     25  C   UNL     1      16.721 -10.681  41.268  1.00  0.00    -0.006 C 
ATOM     26  C   UNL     1      18.069 -11.196  39.152  1.00  0.00     0.033 C 
ATOM     27  C   UNL     1      16.728 -11.371  39.870  1.00  0.00     0.120 C 
ATOM     28  C   UNL     1      16.596  -9.137  41.112  1.00  0.00     0.014 C 
ATOM     29  C   UNL     1      15.427 -11.145  41.996  1.00  0.00     0.014 C 
ENDROOT
BRANCH   1  30
ATOM     30  C   UNL     1      24.432 -13.184  46.448  1.00  0.00     0.048 C 
ATOM     31  O   UNL     1      25.125 -12.746  45.491  1.00  0.00    -0.550 OA
ATOM     32  O   UNL     1      24.716 -12.742  47.734  1.00  0.00    -0.550 OA
ENDBRANCH   1  30
BRANCH  27  33
ATOM     33  O   UNL     1      15.687 -10.877  39.064  1.00  0.00    -0.393 OA
ATOM     34  H   UNL     1      14.834 -11.196  39.456  1.00  0.00     0.210 HD
ENDBRANCH  27  33
TORSDOF 2
ENDMDL
MODEL 2
REMARK VINA RESULT:    -7.011      1.225      1.406
REMARK INTER + INTRA:          -7.796
REMARK INTER:                  -7.600
REMARK INTRA:                  -0.196
REMARK UNBOUND:                -0.170
REMARK SMILES C[C@@H]1[C@H]2C3=CC[C@@H]4[C@@]5(C)CC[C@H](O)C(C)(C)[C@@H]5CC[C@]4(C)[C@@]3(C)CC[C@@]2(C(=O)[O-])CC[C@@H]1C
REMARK SMILES IDX 26 1 30 2 25 3 3 4 31 5 24 6 4 7 2 8 32 9 22 10 5 11 1 12
REMARK SMILES IDX 33 13 23 14 20 15 6 16 7 17 19 18 21 19 8 20 18 21 17 22
REMARK SMILES IDX 10 23 9 24 14 25 11 26 12 27 15 28 16 29 27 30 28 31 29 32
REMARK SMILES IDX 13 33
REMARK H PARENT 13 34
REMARK Flexibility Score: inf
ROOT
ATOM      1  C   UNL     1      23.275 -12.532  46.104  1.00  0.00     0.017 C 
ATOM      2  C   UNL     1      23.747 -13.397  47.324  1.00  0.00     0.014 C 
ATOM      3  C   UNL     1      21.961 -11.835  46.520  1.00  0.00     0.014 C 
ATOM      4  C   UNL     1      22.994 -13.418  44.833  1.00  0.00     0.030 C 
ATOM      5  C   UNL     1      24.504 -14.646  46.880  1.00  0.00     0.004 C 
ATOM      6  C   UNL     1      21.480 -10.834  45.477  1.00  0.00     0.013 C 
ATOM      7  C   UNL     1      22.129 -12.700  43.775  1.00  0.00    -0.063 C 
ATOM      8  C   UNL     1      22.466 -14.831  45.293  1.00  0.00    -0.003 C 
ATOM      9  C   UNL     1      23.594 -15.601  46.069  1.00  0.00    -0.011 C 
ATOM     10  C   UNL     1      21.337 -11.384  44.004  1.00  0.00    -0.006 C 
ATOM     11  C   UNL     1      22.088 -13.239  42.541  1.00  0.00    -0.027 C 
ATOM     12  C   UNL     1      21.803 -15.721  44.220  1.00  0.00     0.008 C 
ATOM     13  C   UNL     1      24.481 -16.487  45.173  1.00  0.00     0.008 C 
ATOM     14  C   UNL     1      21.989 -10.274  43.108  1.00  0.00     0.017 C 
ATOM     15  C   UNL     1      19.806 -11.658  43.575  1.00  0.00    -0.020 C 
ATOM     16  C   UNL     1      21.090 -12.804  41.517  1.00  0.00     0.032 C 
ATOM     17  C   UNL     1      19.719 -12.435  42.160  1.00  0.00     0.006 C 
ATOM     18  C   UNL     1      18.976 -10.326  43.562  1.00  0.00     0.008 C 
ATOM     19  C   UNL     1      19.153 -12.566  44.671  1.00  0.00     0.012 C 
ATOM     20  C   UNL     1      18.662 -11.883  41.102  1.00  0.00    -0.025 C 
ATOM     21  C   UNL     1      17.584 -10.371  42.889  1.00  0.00     0.005 C 
ATOM     22  C   UNL     1      17.352 -11.542  41.901  1.00  0.00     0.003 C 
ATOM     23  C   UNL     1      18.364 -13.010  40.059  1.00  0.00     0.010 C 
ATOM     24  C   UNL     1      19.231 -10.658  40.322  1.00  0.00     0.012 C 
ATOM     25  C   UNL     1      15.972 -11.465  41.107  1.00  0.00    -0.006 C 
ATOM     26  C   UNL     1      17.120 -12.749  39.210  1.00  0.00     0.033 C 
ATOM     27  C   UNL     1      15.881 -12.656  40.105  1.00  0.00     0.120 C 
ATOM     28  C   UNL     1      15.718 -10.116  40.372  1.00  0.00     0.014 C 
ATOM     29  C   UNL     1      14.802 -11.631  42.118  1.00  0.00     0.014 C 
ENDROOT
BRANCH   1  30
ATOM     30  C   UNL     1      24.359 -11.494  45.821  1.00  0.00     0.048 C 
ATOM     31  O   UNL     1      25.045 -11.575  44.766  1.00  0.00    -0.550 OA
ATOM     32  O   UNL     1      24.602 -10.440  46.693  1.00  0.00    -0.550 OA
ENDBRANCH   1  30
BRANCH  27  33
ATOM     33  O   UNL     1      14.725 -12.552  39.310  1.00  0.00    -0.393 OA
ATOM     34  H   UNL     1      13.943 -12.634  39.914  1.00  0.00     0.210 HD
ENDBRANCH  27  33
TORSDOF 2
ENDMDL
MODEL 3
REMARK VINA RESULT:    -6.758      1.829      2.873
REMARK INTER + INTRA:          -7.521
REMARK INTER:                  -7.370
REMARK INTRA:                  -0.152
REMARK UNBOUND:                -0.170
REMARK SMILES C[C@@H]1[C@H]2C3=CC[C@@H]4[C@@]5(C)CC[C@H](O)C(C)(C)[C@@H]5CC[C@]4(C)[C@@]3(C)CC[C@@]2(C(=O)[O-])CC[C@@H]1C
REMARK SMILES IDX 26 1 30 2 25 3 3 4 31 5 24 6 4 7 2 8 32 9 22 10 5 11 1 12
REMARK SMILES IDX 33 13 23 14 20 15 6 16 7 17 19 18 21 19 8 20 18 21 17 22
REMARK SMILES IDX 10 23 9 24 14 25 11 26 12 27 15 28 16 29 27 30 28 31 29 32
REMARK SMILES IDX 13 33
REMARK H PARENT 13 34
REMARK Flexibility Score: inf
ROOT
ATOM      1  C   UNL     1      23.470 -11.663  44.960  1.00  0.00     0.017 C 
ATOM      2  C   UNL     1      24.083 -11.628  46.403  1.00  0.00     0.014 C 
ATOM      3  C   UNL     1      22.477 -10.485  44.856  1.00  0.00     0.014 C 
ATOM      4  C   UNL     1      22.691 -13.004  44.689  1.00  0.00     0.030 C 
ATOM      5  C   UNL     1      24.438 -13.023  46.908  1.00  0.00     0.004 C 
ATOM      6  C   UNL     1      21.931 -10.310  43.445  1.00  0.00     0.013 C 
ATOM      7  C   UNL     1      21.724 -12.909  43.489  1.00  0.00    -0.063 C 
ATOM      8  C   UNL     1      22.048 -13.511  46.037  1.00  0.00    -0.003 C 
ATOM      9  C   UNL     1      23.177 -13.910  47.055  1.00  0.00    -0.011 C 
ATOM     10  C   UNL     1      21.289 -11.594  42.787  1.00  0.00    -0.006 C 
ATOM     11  C   UNL     1      21.246 -14.064  42.988  1.00  0.00    -0.027 C 
ATOM     12  C   UNL     1      20.961 -14.603  45.936  1.00  0.00     0.008 C 
ATOM     13  C   UNL     1      23.601 -15.390  46.975  1.00  0.00     0.008 C 
ATOM     14  C   UNL     1      21.872 -11.618  41.330  1.00  0.00     0.017 C 
ATOM     15  C   UNL     1      19.676 -11.561  42.772  1.00  0.00    -0.020 C 
ATOM     16  C   UNL     1      20.108 -14.099  42.018  1.00  0.00     0.032 C 
ATOM     17  C   UNL     1      19.061 -12.983  42.309  1.00  0.00     0.006 C 
ATOM     18  C   UNL     1      19.144 -10.379  41.888  1.00  0.00     0.008 C 
ATOM     19  C   UNL     1      19.186 -11.268  44.230  1.00  0.00     0.012 C 
ATOM     20  C   UNL     1      17.880 -12.940  41.239  1.00  0.00    -0.025 C 
ATOM     21  C   UNL     1      17.639 -10.390  41.529  1.00  0.00     0.005 C 
ATOM     22  C   UNL     1      16.927 -11.762  41.656  1.00  0.00     0.003 C 
ATOM     23  C   UNL     1      17.101 -14.295  41.300  1.00  0.00     0.010 C 
ATOM     24  C   UNL     1      18.438 -12.783  39.790  1.00  0.00     0.012 C 
ATOM     25  C   UNL     1      15.425 -11.771  41.126  1.00  0.00    -0.006 C 
ATOM     26  C   UNL     1      15.746 -14.256  40.593  1.00  0.00     0.033 C 
ATOM     27  C   UNL     1      14.839 -13.211  41.248  1.00  0.00     0.120 C 
ATOM     28  C   UNL     1      15.242 -11.231  39.677  1.00  0.00     0.014 C 
ATOM     29  C   UNL     1      14.565 -10.852  42.040  1.00  0.00     0.014 C 
ENDROOT
BRANCH   1  30
ATOM     30  C   UNL     1      24.613 -11.482  43.963  1.00  0.00     0.048 C 
ATOM     31  O   UNL     1      25.125 -10.342  43.796  1.00  0.00    -0.550 OA
ATOM     32  O   UNL     1      25.123 -12.552  43.239  1.00  0.00    -0.550 OA
ENDBRANCH   1  30
BRANCH  27  33
ATOM     33  O   UNL     1      13.552 -13.276  40.683  1.00  0.00    -0.393 OA
ATOM     34  H   UNL     1      13.025 -12.527  41.064  1.00  0.00     0.210 HD
ENDBRANCH  27  33
TORSDOF 2
ENDMDL
MODEL 4
REMARK VINA RESULT:    -6.569      1.870      3.891
REMARK INTER + INTRA:          -7.315
REMARK INTER:                  -7.119
REMARK INTRA:                  -0.196
REMARK UNBOUND:                -0.170
REMARK SMILES C[C@@H]1[C@H]2C3=CC[C@@H]4[C@@]5(C)CC[C@H](O)C(C)(C)[C@@H]5CC[C@]4(C)[C@@]3(C)CC[C@@]2(C(=O)[O-])CC[C@@H]1C
REMARK SMILES IDX 26 1 30 2 25 3 3 4 31 5 24 6 4 7 2 8 32 9 22 10 5 11 1 12
REMARK SMILES IDX 33 13 23 14 20 15 6 16 7 17 19 18 21 19 8 20 18 21 17 22
REMARK SMILES IDX 10 23 9 24 14 25 11 26 12 27 15 28 16 29 27 30 28 31 29 32
REMARK SMILES IDX 13 33
REMARK H PARENT 13 34
REMARK Flexibility Score: inf
ROOT
ATOM      1  C   UNL     1      23.354 -13.960  44.124  1.00  0.00     0.017 C 
ATOM      2  C   UNL     1      24.881 -13.885  44.476  1.00  0.00     0.014 C 
ATOM      3  C   UNL     1      23.235 -13.884  42.586  1.00  0.00     0.014 C 
ATOM      4  C   UNL     1      22.551 -12.759  44.751  1.00  0.00     0.030 C 
ATOM      5  C   UNL     1      25.125 -13.210  45.823  1.00  0.00     0.004 C 
ATOM      6  C   UNL     1      21.808 -14.110  42.103  1.00  0.00     0.013 C 
ATOM      7  C   UNL     1      21.172 -12.544  44.090  1.00  0.00    -0.063 C 
ATOM      8  C   UNL     1      23.481 -11.486  44.806  1.00  0.00    -0.003 C 
ATOM      9  C   UNL     1      24.668 -11.730  45.805  1.00  0.00    -0.011 C 
ATOM     10  C   UNL     1      20.703 -13.192  42.759  1.00  0.00    -0.006 C 
ATOM     11  C   UNL     1      20.292 -11.758  44.739  1.00  0.00    -0.027 C 
ATOM     12  C   UNL     1      22.799 -10.123  45.053  1.00  0.00     0.008 C 
ATOM     13  C   UNL     1      24.374 -11.286  47.251  1.00  0.00     0.008 C 
ATOM     14  C   UNL     1      19.529 -14.177  43.098  1.00  0.00     0.017 C 
ATOM     15  C   UNL     1      20.207 -12.003  41.787  1.00  0.00    -0.020 C 
ATOM     16  C   UNL     1      19.043 -11.257  44.087  1.00  0.00     0.032 C 
ATOM     17  C   UNL     1      19.258 -10.956  42.572  1.00  0.00     0.006 C 
ATOM     18  C   UNL     1      19.508 -12.576  40.505  1.00  0.00     0.008 C 
ATOM     19  C   UNL     1      21.473 -11.231  41.285  1.00  0.00     0.012 C 
ATOM     20  C   UNL     1      17.921 -10.503  41.831  1.00  0.00    -0.025 C 
ATOM     21  C   UNL     1      18.719 -11.576  39.627  1.00  0.00     0.005 C 
ATOM     22  C   UNL     1      18.296 -10.258  40.324  1.00  0.00     0.003 C 
ATOM     23  C   UNL     1      17.421  -9.168  42.473  1.00  0.00     0.010 C 
ATOM     24  C   UNL     1      16.791 -11.563  42.008  1.00  0.00     0.012 C 
ATOM     25  C   UNL     1      17.348  -9.327  39.444  1.00  0.00    -0.006 C 
ATOM     26  C   UNL     1      16.367  -8.441  41.638  1.00  0.00     0.033 C 
ATOM     27  C   UNL     1      16.943  -8.068  40.270  1.00  0.00     0.120 C 
ATOM     28  C   UNL     1      16.083 -10.036  38.877  1.00  0.00     0.014 C 
ATOM     29  C   UNL     1      18.148  -8.822  38.210  1.00  0.00     0.014 C 
ENDROOT
BRANCH   1  30
ATOM     30  C   UNL     1      22.823 -15.299  44.632  1.00  0.00     0.048 C 
ATOM     31  O   UNL     1      22.014 -15.327  45.598  1.00  0.00    -0.550 OA
ATOM     32  O   UNL     1      23.198 -16.500  44.042  1.00  0.00    -0.550 OA
ENDBRANCH   1  30
BRANCH  27  33
ATOM     33  O   UNL     1      16.015  -7.283  39.560  1.00  0.00    -0.393 OA
ATOM     34  H   UNL     1      16.500  -6.485  39.226  1.00  0.00     0.210 HD
ENDBRANCH  27  33
TORSDOF 2
ENDMDL
MODEL 5
REMARK VINA RESULT:    -6.212      1.835      8.069
REMARK INTER + INTRA:          -6.927
REMARK INTER:                  -6.721
REMARK INTRA:                  -0.206
REMARK UNBOUND:                -0.170
REMARK SMILES C[C@@H]1[C@H]2C3=CC[C@@H]4[C@@]5(C)CC[C@H](O)C(C)(C)[C@@H]5CC[C@]4(C)[C@@]3(C)CC[C@@]2(C(=O)[O-])CC[C@@H]1C
REMARK SMILES IDX 26 1 30 2 25 3 3 4 31 5 24 6 4 7 2 8 32 9 22 10 5 11 1 12
REMARK SMILES IDX 33 13 23 14 20 15 6 16 7 17 19 18 21 19 8 20 18 21 17 22
REMARK SMILES IDX 10 23 9 24 14 25 11 26 12 27 15 28 16 29 27 30 28 31 29 32
REMARK SMILES IDX 13 33
REMARK H PARENT 13 34
REMARK Flexibility Score: inf
ROOT
ATOM      1  C   UNL     1      16.909 -12.502  40.355  1.00  0.00     0.017 C 
ATOM      2  C   UNL     1      15.342 -12.459  40.391  1.00  0.00     0.014 C 
ATOM      3  C   UNL     1      17.357 -13.667  41.264  1.00  0.00     0.014 C 
ATOM      4  C   UNL     1      17.541 -11.167  40.901  1.00  0.00     0.030 C 
ATOM      5  C   UNL     1      14.803 -11.042  40.220  1.00  0.00     0.004 C 
ATOM      6  C   UNL     1      18.857 -13.918  41.188  1.00  0.00     0.013 C 
ATOM      7  C   UNL     1      19.028 -11.318  41.292  1.00  0.00    -0.063 C 
ATOM      8  C   UNL     1      16.605 -10.569  42.020  1.00  0.00    -0.003 C 
ATOM      9  C   UNL     1      15.233 -10.128  41.395  1.00  0.00    -0.011 C 
ATOM     10  C   UNL     1      19.783 -12.666  41.451  1.00  0.00    -0.006 C 
ATOM     11  C   UNL     1      19.736 -10.187  41.476  1.00  0.00    -0.027 C 
ATOM     12  C   UNL     1      17.198  -9.468  42.925  1.00  0.00     0.008 C 
ATOM     13  C   UNL     1      15.202  -8.663  40.918  1.00  0.00     0.008 C 
ATOM     14  C   UNL     1      20.868 -12.739  40.320  1.00  0.00     0.017 C 
ATOM     15  C   UNL     1      20.460 -12.674  42.915  1.00  0.00    -0.020 C 
ATOM     16  C   UNL     1      21.090 -10.193  42.112  1.00  0.00     0.032 C 
ATOM     17  C   UNL     1      21.203 -11.273  43.229  1.00  0.00     0.006 C 
ATOM     18  C   UNL     1      21.427 -13.898  43.083  1.00  0.00     0.008 C 
ATOM     19  C   UNL     1      19.322 -12.870  43.973  1.00  0.00     0.012 C 
ATOM     20  C   UNL     1      22.662 -11.361  43.866  1.00  0.00    -0.025 C 
ATOM     21  C   UNL     1      22.374 -13.884  44.306  1.00  0.00     0.005 C 
ATOM     22  C   UNL     1      22.619 -12.496  44.952  1.00  0.00     0.003 C 
ATOM     23  C   UNL     1      22.994  -9.993  44.547  1.00  0.00     0.010 C 
ATOM     24  C   UNL     1      23.742 -11.614  42.769  1.00  0.00     0.012 C 
ATOM     25  C   UNL     1      23.722 -12.495  46.102  1.00  0.00    -0.006 C 
ATOM     26  C   UNL     1      24.194 -10.052  45.492  1.00  0.00     0.033 C 
ATOM     27  C   UNL     1      23.922 -11.041  46.629  1.00  0.00     0.120 C 
ATOM     28  C   UNL     1      25.089 -13.118  45.694  1.00  0.00     0.014 C 
ATOM     29  C   UNL     1      23.201 -13.343  47.297  1.00  0.00     0.014 C 
ENDROOT
BRANCH   1  30
ATOM     30  C   UNL     1      17.336 -12.761  38.911  1.00  0.00     0.048 C 
ATOM     31  O   UNL     1      16.976 -13.822  38.332  1.00  0.00    -0.550 OA
ATOM     32  O   UNL     1      18.102 -11.843  38.204  1.00  0.00    -0.550 OA
ENDBRANCH   1  30
BRANCH  27  33
ATOM     33  O   UNL     1      24.970 -10.989  47.566  1.00  0.00    -0.393 OA
ATOM     34  H   UNL     1      25.125 -10.034  47.783  1.00  0.00     0.210 HD
ENDBRANCH  27  33
TORSDOF 2
ENDMDL
MODEL 6
REMARK VINA RESULT:    -6.169      2.165      8.536
REMARK INTER + INTRA:          -6.880
REMARK INTER:                  -6.675
REMARK INTRA:                  -0.205
REMARK UNBOUND:                -0.170
REMARK SMILES C[C@@H]1[C@H]2C3=CC[C@@H]4[C@@]5(C)CC[C@H](O)C(C)(C)[C@@H]5CC[C@]4(C)[C@@]3(C)CC[C@@]2(C(=O)[O-])CC[C@@H]1C
REMARK SMILES IDX 26 1 30 2 25 3 3 4 31 5 24 6 4 7 2 8 32 9 22 10 5 11 1 12
REMARK SMILES IDX 33 13 23 14 20 15 6 16 7 17 19 18 21 19 8 20 18 21 17 22
REMARK SMILES IDX 10 23 9 24 14 25 11 26 12 27 15 28 16 29 27 30 28 31 29 32
REMARK SMILES IDX 13 33
REMARK H PARENT 13 34
REMARK Flexibility Score: inf
ROOT
ATOM      1  C   UNL     1      15.550 -10.702  40.495  1.00  0.00     0.017 C 
ATOM      2  C   UNL     1      14.208  -9.891  40.472  1.00  0.00     0.014 C 
ATOM      3  C   UNL     1      15.646 -11.389  41.875  1.00  0.00     0.014 C 
ATOM      4  C   UNL     1      16.802  -9.763  40.313  1.00  0.00     0.030 C 
ATOM      5  C   UNL     1      14.309  -8.641  39.603  1.00  0.00     0.004 C 
ATOM      6  C   UNL     1      16.831 -12.341  41.967  1.00  0.00     0.013 C 
ATOM      7  C   UNL     1      18.124 -10.425  40.759  1.00  0.00    -0.063 C 
ATOM      8  C   UNL     1      16.496  -8.359  40.962  1.00  0.00    -0.003 C 
ATOM      9  C   UNL     1      15.345  -7.640  40.171  1.00  0.00    -0.011 C 
ATOM     10  C   UNL     1      18.239 -11.734  41.587  1.00  0.00    -0.006 C 
ATOM     11  C   UNL     1      19.271  -9.839  40.367  1.00  0.00    -0.027 C 
ATOM     12  C   UNL     1      17.694  -7.417  41.207  1.00  0.00     0.008 C 
ATOM     13  C   UNL     1      15.840  -6.737  39.024  1.00  0.00     0.008 C 
ATOM     14  C   UNL     1      18.898 -12.822  40.669  1.00  0.00     0.017 C 
ATOM     15  C   UNL     1      19.160 -11.415  42.873  1.00  0.00    -0.020 C 
ATOM     16  C   UNL     1      20.596 -10.218  40.948  1.00  0.00     0.032 C 
ATOM     17  C   UNL     1      20.484 -10.585  42.459  1.00  0.00     0.006 C 
ATOM     18  C   UNL     1      19.516 -12.730  43.652  1.00  0.00     0.008 C 
ATOM     19  C   UNL     1      18.323 -10.538  43.862  1.00  0.00     0.012 C 
ATOM     20  C   UNL     1      21.865 -11.077  43.085  1.00  0.00    -0.025 C 
ATOM     21  C   UNL     1      20.628 -12.635  44.723  1.00  0.00     0.005 C 
ATOM     22  C   UNL     1      21.586 -11.424  44.592  1.00  0.00     0.003 C 
ATOM     23  C   UNL     1      22.899  -9.906  42.997  1.00  0.00     0.010 C 
ATOM     24  C   UNL     1      22.449 -12.282  42.286  1.00  0.00     0.012 C 
ATOM     25  C   UNL     1      22.811 -11.445  45.610  1.00  0.00    -0.006 C 
ATOM     26  C   UNL     1      24.137 -10.112  43.870  1.00  0.00     0.033 C 
ATOM     27  C   UNL     1      23.732 -10.216  45.342  1.00  0.00     0.120 C 
ATOM     28  C   UNL     1      23.644 -12.761  45.599  1.00  0.00     0.014 C 
ATOM     29  C   UNL     1      22.263 -11.295  47.058  1.00  0.00     0.014 C 
ENDROOT
BRANCH   1  30
ATOM     30  C   UNL     1      15.483 -11.749  39.385  1.00  0.00     0.048 C 
ATOM     31  O   UNL     1      14.623 -12.669  39.443  1.00  0.00    -0.550 OA
ATOM     32  O   UNL     1      16.339 -11.705  38.292  1.00  0.00    -0.550 OA
ENDBRANCH   1  30
BRANCH  27  33
ATOM     33  O   UNL     1      24.883 -10.269  46.150  1.00  0.00    -0.393 OA
ATOM     34  H   UNL     1      25.048  -9.351  46.488  1.00  0.00     0.210 HD
ENDBRANCH  27  33
TORSDOF 2
ENDMDL
MODEL 7
REMARK VINA RESULT:    -5.766     12.999     15.223
REMARK INTER + INTRA:          -6.442
REMARK INTER:                  -6.249
REMARK INTRA:                  -0.193
REMARK UNBOUND:                -0.170
REMARK SMILES C[C@@H]1[C@H]2C3=CC[C@@H]4[C@@]5(C)CC[C@H](O)C(C)(C)[C@@H]5CC[C@]4(C)[C@@]3(C)CC[C@@]2(C(=O)[O-])CC[C@@H]1C
REMARK SMILES IDX 26 1 30 2 25 3 3 4 31 5 24 6 4 7 2 8 32 9 22 10 5 11 1 12
REMARK SMILES IDX 33 13 23 14 20 15 6 16 7 17 19 18 21 19 8 20 18 21 17 22
REMARK SMILES IDX 10 23 9 24 14 25 11 26 12 27 15 28 16 29 27 30 28 31 29 32
REMARK SMILES IDX 13 33
REMARK H PARENT 13 34
REMARK Flexibility Score: inf
ROOT
ATOM      1  C   UNL     1      17.924  -0.639  34.224  1.00  0.00     0.017 C 
ATOM      2  C   UNL     1      18.398   0.550  35.130  1.00  0.00     0.014 C 
ATOM      3  C   UNL     1      16.546  -0.251  33.644  1.00  0.00     0.014 C 
ATOM      4  C   UNL     1      17.766  -1.972  35.047  1.00  0.00     0.030 C 
ATOM      5  C   UNL     1      19.260   0.073  36.295  1.00  0.00     0.004 C 
ATOM      6  C   UNL     1      16.047  -1.256  32.615  1.00  0.00     0.013 C 
ATOM      7  C   UNL     1      16.903  -3.030  34.324  1.00  0.00    -0.063 C 
ATOM      8  C   UNL     1      17.316  -1.624  36.518  1.00  0.00    -0.003 C 
ATOM      9  C   UNL     1      18.458  -0.837  37.257  1.00  0.00    -0.011 C 
ATOM     10  C   UNL     1      16.011  -2.765  33.081  1.00  0.00    -0.006 C 
ATOM     11  C   UNL     1      16.957  -4.293  34.788  1.00  0.00    -0.027 C 
ATOM     12  C   UNL     1      16.768  -2.779  37.383  1.00  0.00     0.008 C 
ATOM     13  C   UNL     1      19.445  -1.738  38.025  1.00  0.00     0.008 C 
ATOM     14  C   UNL     1      16.625  -3.560  31.877  1.00  0.00     0.017 C 
ATOM     15  C   UNL     1      14.524  -3.286  33.430  1.00  0.00    -0.020 C 
ATOM     16  C   UNL     1      15.980  -5.340  34.358  1.00  0.00     0.032 C 
ATOM     17  C   UNL     1      14.558  -4.747  34.122  1.00  0.00     0.006 C 
ATOM     18  C   UNL     1      13.605  -3.264  32.159  1.00  0.00     0.008 C 
ATOM     19  C   UNL     1      13.886  -2.280  34.446  1.00  0.00     0.012 C 
ATOM     20  C   UNL     1      13.515  -5.823  33.578  1.00  0.00    -0.025 C 
ATOM     21  C   UNL     1      12.252  -4.007  32.254  1.00  0.00     0.005 C 
ATOM     22  C   UNL     1      12.149  -5.073  33.375  1.00  0.00     0.003 C 
ATOM     23  C   UNL     1      13.346  -6.944  34.656  1.00  0.00     0.010 C 
ATOM     24  C   UNL     1      14.033  -6.500  32.272  1.00  0.00     0.012 C 
ATOM     25  C   UNL     1      10.806  -5.930  33.342  1.00  0.00    -0.006 C 
ATOM     26  C   UNL     1      12.128  -7.838  34.427  1.00  0.00     0.033 C 
ATOM     27  C   UNL     1      10.845  -7.003  34.472  1.00  0.00     0.120 C 
ATOM     28  C   UNL     1      10.493  -6.597  31.970  1.00  0.00     0.014 C 
ATOM     29  C   UNL     1       9.604  -4.991  33.648  1.00  0.00     0.014 C 
ENDROOT
BRANCH   1  30
ATOM     30  C   UNL     1      18.945  -0.806  33.100  1.00  0.00     0.048 C 
ATOM     31  O   UNL     1      19.616  -1.870  33.016  1.00  0.00    -0.550 OA
ATOM     32  O   UNL     1      19.145   0.185  32.148  1.00  0.00    -0.550 OA
ENDBRANCH   1  30
BRANCH  27  33
ATOM     33  O   UNL     1       9.723  -7.849  34.397  1.00  0.00    -0.393 OA
ATOM     34  H   UNL     1       9.757  -8.454  35.182  1.00  0.00     0.210 HD
ENDBRANCH  27  33
TORSDOF 2
ENDMDL
MODEL 8
REMARK VINA RESULT:    -5.752     12.941     15.750
REMARK INTER + INTRA:          -6.426
REMARK INTER:                  -6.236
REMARK INTRA:                  -0.190
REMARK UNBOUND:                -0.170
REMARK SMILES C[C@@H]1[C@H]2C3=CC[C@@H]4[C@@]5(C)CC[C@H](O)C(C)(C)[C@@H]5CC[C@]4(C)[C@@]3(C)CC[C@@]2(C(=O)[O-])CC[C@@H]1C
REMARK SMILES IDX 26 1 30 2 25 3 3 4 31 5 24 6 4 7 2 8 32 9 22 10 5 11 1 12
REMARK SMILES IDX 33 13 23 14 20 15 6 16 7 17 19 18 21 19 8 20 18 21 17 22
REMARK SMILES IDX 10 23 9 24 14 25 11 26 12 27 15 28 16 29 27 30 28 31 29 32
REMARK SMILES IDX 13 33
REMARK H PARENT 13 34
REMARK Flexibility Score: inf
ROOT
ATOM      1  C   UNL     1      11.520  -5.593  33.190  1.00  0.00     0.017 C 
ATOM      2  C   UNL     1      10.884  -6.829  32.464  1.00  0.00     0.014 C 
ATOM      3  C   UNL     1      12.081  -4.658  32.096  1.00  0.00     0.014 C 
ATOM      4  C   UNL     1      12.701  -6.019  34.141  1.00  0.00     0.030 C 
ATOM      5  C   UNL     1      10.985  -8.100  33.303  1.00  0.00     0.004 C 
ATOM      6  C   UNL     1      12.584  -3.338  32.663  1.00  0.00     0.013 C 
ATOM      7  C   UNL     1      13.622  -4.840  34.525  1.00  0.00    -0.063 C 
ATOM      8  C   UNL     1      13.431  -7.277  33.531  1.00  0.00    -0.003 C 
ATOM      9  C   UNL     1      12.461  -8.513  33.528  1.00  0.00    -0.011 C 
ATOM     10  C   UNL     1      13.628  -3.445  33.844  1.00  0.00    -0.006 C 
ATOM     11  C   UNL     1      14.465  -5.027  35.559  1.00  0.00    -0.027 C 
ATOM     12  C   UNL     1      14.815  -7.640  34.108  1.00  0.00     0.008 C 
ATOM     13  C   UNL     1      12.543  -9.378  34.801  1.00  0.00     0.008 C 
ATOM     14  C   UNL     1      13.131  -2.398  34.901  1.00  0.00     0.017 C 
ATOM     15  C   UNL     1      15.143  -3.137  33.381  1.00  0.00    -0.020 C 
ATOM     16  C   UNL     1      15.582  -4.078  35.855  1.00  0.00     0.032 C 
ATOM     17  C   UNL     1      16.201  -3.484  34.553  1.00  0.00     0.006 C 
ATOM     18  C   UNL     1      15.291  -1.657  32.882  1.00  0.00     0.008 C 
ATOM     19  C   UNL     1      15.466  -4.046  32.148  1.00  0.00     0.012 C 
ATOM     20  C   UNL     1      17.336  -2.403  34.839  1.00  0.00    -0.025 C 
ATOM     21  C   UNL     1      16.728  -1.119  32.689  1.00  0.00     0.005 C 
ATOM     22  C   UNL     1      17.842  -1.890  33.442  1.00  0.00     0.003 C 
ATOM     23  C   UNL     1      18.511  -3.101  35.601  1.00  0.00     0.010 C 
ATOM     24  C   UNL     1      16.804  -1.253  35.749  1.00  0.00     0.012 C 
ATOM     25  C   UNL     1      19.282  -1.215  33.352  1.00  0.00    -0.006 C 
ATOM     26  C   UNL     1      19.802  -2.283  35.622  1.00  0.00     0.033 C 
ATOM     27  C   UNL     1      20.299  -2.044  34.194  1.00  0.00     0.120 C 
ATOM     28  C   UNL     1      19.325   0.285  33.770  1.00  0.00     0.014 C 
ATOM     29  C   UNL     1      19.768  -1.265  31.876  1.00  0.00     0.014 C 
ENDROOT
BRANCH   1  30
ATOM     30  C   UNL     1      10.412  -4.889  33.972  1.00  0.00     0.048 C 
ATOM     31  O   UNL     1       9.375  -4.495  33.373  1.00  0.00    -0.550 OA
ATOM     32  O   UNL     1      10.508  -4.684  35.343  1.00  0.00    -0.550 OA
ENDBRANCH   1  30
BRANCH  27  33
ATOM     33  O   UNL     1      21.555  -1.410  34.227  1.00  0.00    -0.393 OA
ATOM     34  H   UNL     1      22.217  -2.083  34.530  1.00  0.00     0.210 HD
ENDBRANCH  27  33
TORSDOF 2
ENDMDL
MODEL 9
REMARK VINA RESULT:    -5.739      9.534     14.150
REMARK INTER + INTRA:          -6.413
REMARK INTER:                  -6.210
REMARK INTRA:                  -0.203
REMARK UNBOUND:                -0.170
REMARK SMILES C[C@@H]1[C@H]2C3=CC[C@@H]4[C@@]5(C)CC[C@H](O)C(C)(C)[C@@H]5CC[C@]4(C)[C@@]3(C)CC[C@@]2(C(=O)[O-])CC[C@@H]1C
REMARK SMILES IDX 26 1 30 2 25 3 3 4 31 5 24 6 4 7 2 8 32 9 22 10 5 11 1 12
REMARK SMILES IDX 33 13 23 14 20 15 6 16 7 17 19 18 21 19 8 20 18 21 17 22
REMARK SMILES IDX 10 23 9 24 14 25 11 26 12 27 15 28 16 29 27 30 28 31 29 32
REMARK SMILES IDX 13 33
REMARK H PARENT 13 34
REMARK Flexibility Score: inf
ROOT
ATOM      1  C   UNL     1       6.815 -14.444  43.022  1.00  0.00     0.017 C 
ATOM      2  C   UNL     1       6.283 -13.064  43.544  1.00  0.00     0.014 C 
ATOM      3  C   UNL     1       8.250 -14.616  43.565  1.00  0.00     0.014 C 
ATOM      4  C   UNL     1       6.863 -14.492  41.448  1.00  0.00     0.030 C 
ATOM      5  C   UNL     1       5.303 -12.421  42.568  1.00  0.00     0.004 C 
ATOM      6  C   UNL     1       8.823 -15.994  43.261  1.00  0.00     0.013 C 
ATOM      7  C   UNL     1       7.767 -15.621  40.906  1.00  0.00    -0.063 C 
ATOM      8  C   UNL     1       7.178 -13.049  40.894  1.00  0.00    -0.003 C 
ATOM      9  C   UNL     1       5.989 -12.076  41.223  1.00  0.00    -0.011 C 
ATOM     10  C   UNL     1       8.780 -16.444  41.748  1.00  0.00    -0.006 C 
ATOM     11  C   UNL     1       7.640 -15.942  39.604  1.00  0.00    -0.027 C 
ATOM     12  C   UNL     1       7.614 -12.938  39.418  1.00  0.00     0.008 C 
ATOM     13  C   UNL     1       4.912 -12.007  40.122  1.00  0.00     0.008 C 
ATOM     14  C   UNL     1       8.266 -17.925  41.795  1.00  0.00     0.017 C 
ATOM     15  C   UNL     1      10.214 -16.344  41.015  1.00  0.00    -0.020 C 
ATOM     16  C   UNL     1       8.630 -16.815  38.901  1.00  0.00     0.032 C 
ATOM     17  C   UNL     1      10.081 -16.585  39.422  1.00  0.00     0.006 C 
ATOM     18  C   UNL     1      11.251 -17.324  41.669  1.00  0.00     0.008 C 
ATOM     19  C   UNL     1      10.775 -14.901  41.245  1.00  0.00     0.012 C 
ATOM     20  C   UNL     1      11.147 -17.564  38.752  1.00  0.00    -0.025 C 
ATOM     21  C   UNL     1      12.571 -17.567  40.900  1.00  0.00     0.005 C 
ATOM     22  C   UNL     1      12.543 -17.224  39.389  1.00  0.00     0.003 C 
ATOM     23  C   UNL     1      11.186 -17.283  37.214  1.00  0.00     0.010 C 
ATOM     24  C   UNL     1      10.741 -19.058  38.947  1.00  0.00     0.012 C 
ATOM     25  C   UNL     1      13.863 -17.638  38.599  1.00  0.00    -0.006 C 
ATOM     26  C   UNL     1      12.401 -17.887  36.510  1.00  0.00     0.033 C 
ATOM     27  C   UNL     1      13.692 -17.300  37.086  1.00  0.00     0.120 C 
ATOM     28  C   UNL     1      14.291 -19.124  38.778  1.00  0.00     0.014 C 
ATOM     29  C   UNL     1      15.051 -16.781  39.123  1.00  0.00     0.014 C 
ENDROOT
BRANCH   1  30
ATOM     30  C   UNL     1       5.903 -15.537  43.576  1.00  0.00     0.048 C 
ATOM     31  O   UNL     1       5.864 -15.750  44.818  1.00  0.00    -0.550 OA
ATOM     32  O   UNL     1       5.093 -16.299  42.744  1.00  0.00    -0.550 OA
ENDBRANCH   1  30
BRANCH  27  33
ATOM     33  O   UNL     1      14.796 -17.757  36.344  1.00  0.00    -0.393 OA
ATOM     34  H   UNL     1      14.465 -18.458  35.725  1.00  0.00     0.210 HD
ENDBRANCH  27  33
TORSDOF 2
ENDMDL
