MODEL 1
REMARK VINA RESULT:    -7.805      0.000      0.000
REMARK INTER + INTRA:          -9.486
REMARK INTER:                  -9.174
REMARK INTRA:                  -0.312
REMARK UNBOUND:                -0.312
REMARK SMILES O=c1cc(-c2ccc(O)c(O)c2)oc2cc(O)cc(O)c12
REMARK SMILES IDX 4 1 3 2 2 3 1 4 21 5 19 6 18 7 16 8 15 9 14 10 13 11 5 12
REMARK SMILES IDX 6 13 7 14 8 15 12 16 10 17 9 18 11 20 20 22 17 24
REMARK H PARENT 9 19 11 21 20 23 17 25
REMARK Flexibility Score: inf
ROOT
ATOM      1  C   UNL     1       1.310  -7.999   3.478  1.00  0.00     0.138 A 
ATOM      2  C   UNL     1       0.850  -9.125   4.172  1.00  0.00     0.100 A 
ATOM      3  C   UNL     1       0.077  -8.959   5.323  1.00  0.00     0.197 A 
ATOM      4  O   UNL     1      -0.274  -9.988   5.955  1.00  0.00    -0.289 OA
ATOM      5  C   UNL     1      -0.265  -7.656   5.759  1.00  0.00     0.107 A 
ATOM      6  C   UNL     1      -1.076  -7.365   6.897  1.00  0.00     0.134 A 
ATOM      7  C   UNL     1      -1.265  -6.033   7.288  1.00  0.00     0.093 A 
ATOM      8  C   UNL     1      -0.721  -4.981   6.546  1.00  0.00     0.123 A 
ATOM      9  C   UNL     1       0.029  -5.252   5.405  1.00  0.00     0.094 A 
ATOM     10  C   UNL     1       0.264  -6.571   5.009  1.00  0.00     0.146 A 
ATOM     11  O   UNL     1       1.001  -6.786   3.924  1.00  0.00    -0.456 OA
ENDROOT
BRANCH   1  12
ATOM     12  C   UNL     1       2.131  -8.117   2.246  1.00  0.00     0.021 A 
ATOM     13  C   UNL     1       2.158  -9.302   1.484  1.00  0.00     0.016 A 
ATOM     14  C   UNL     1       2.948  -9.388   0.335  1.00  0.00     0.051 A 
ATOM     15  C   UNL     1       3.731  -8.298  -0.067  1.00  0.00     0.157 A 
ATOM     16  C   UNL     1       2.931  -7.034   1.841  1.00  0.00     0.062 A 
ATOM     17  C   UNL     1       3.723  -7.120   0.687  1.00  0.00     0.158 A 
BRANCH  15  18
ATOM     18  O   UNL     1       4.519  -8.380  -1.214  1.00  0.00    -0.504 OA
ATOM     19  H   UNL     1       5.529  -8.451  -1.159  1.00  0.00     0.293 HD
ENDBRANCH  15  18
BRANCH  17  20
ATOM     20  O   UNL     1       4.505  -6.039   0.286  1.00  0.00    -0.504 OA
ATOM     21  H   UNL     1       4.628  -5.806  -0.693  1.00  0.00     0.293 HD
ENDBRANCH  17  20
ENDBRANCH   1  12
BRANCH   6  22
ATOM     22  O   UNL     1      -1.732  -8.335   7.662  1.00  0.00    -0.507 OA
ATOM     23  H   UNL     1      -2.635  -8.219   8.094  1.00  0.00     0.293 HD
ENDBRANCH   6  22
BRANCH   8  24
ATOM     24  O   UNL     1      -0.928  -3.659   6.934  1.00  0.00    -0.508 OA
ATOM     25  H   UNL     1      -1.859  -3.260   6.983  1.00  0.00     0.293 HD
ENDBRANCH   8  24
TORSDOF 5
ENDMDL
MODEL 2
REMARK VINA RESULT:    -7.646     11.896     14.673
REMARK INTER + INTRA:          -9.299
REMARK INTER:                  -9.015
REMARK INTRA:                  -0.284
REMARK UNBOUND:                -0.312
REMARK SMILES O=c1cc(-c2ccc(O)c(O)c2)oc2cc(O)cc(O)c12
REMARK SMILES IDX 4 1 3 2 2 3 1 4 21 5 19 6 18 7 16 8 15 9 14 10 13 11 5 12
REMARK SMILES IDX 6 13 7 14 8 15 12 16 10 17 9 18 11 20 20 22 17 24
REMARK H PARENT 9 19 11 21 20 23 17 25
REMARK Flexibility Score: inf
ROOT
ATOM      1  C   UNL     1       6.295   4.387   3.675  1.00  0.00     0.138 A 
ATOM      2  C   UNL     1       7.521   4.000   3.120  1.00  0.00     0.100 A 
ATOM      3  C   UNL     1       7.946   4.570   1.919  1.00  0.00     0.197 A 
ATOM      4  O   UNL     1       9.024   4.161   1.417  1.00  0.00    -0.289 OA
ATOM      5  C   UNL     1       7.153   5.561   1.290  1.00  0.00     0.107 A 
ATOM      6  C   UNL     1       7.501   6.238   0.082  1.00  0.00     0.134 A 
ATOM      7  C   UNL     1       6.588   7.129  -0.496  1.00  0.00     0.093 A 
ATOM      8  C   UNL     1       5.368   7.413   0.120  1.00  0.00     0.123 A 
ATOM      9  C   UNL     1       5.040   6.796   1.325  1.00  0.00     0.094 A 
ATOM     10  C   UNL     1       5.913   5.876   1.910  1.00  0.00     0.146 A 
ATOM     11  O   UNL     1       5.554   5.297   3.051  1.00  0.00    -0.456 OA
ENDROOT
BRANCH   1  12
ATOM     12  C   UNL     1       5.795   3.816   4.952  1.00  0.00     0.021 A 
ATOM     13  C   UNL     1       5.009   4.571   5.844  1.00  0.00     0.016 A 
ATOM     14  C   UNL     1       4.561   4.010   7.044  1.00  0.00     0.051 A 
ATOM     15  C   UNL     1       4.898   2.692   7.375  1.00  0.00     0.157 A 
ATOM     16  C   UNL     1       6.138   2.497   5.301  1.00  0.00     0.062 A 
ATOM     17  C   UNL     1       5.688   1.935   6.503  1.00  0.00     0.158 A 
BRANCH  15  18
ATOM     18  O   UNL     1       4.451   2.129   8.570  1.00  0.00    -0.504 OA
ATOM     19  H   UNL     1       3.985   2.686   9.277  1.00  0.00     0.293 HD
ENDBRANCH  15  18
BRANCH  17  20
ATOM     20  O   UNL     1       6.023   0.624   6.838  1.00  0.00    -0.504 OA
ATOM     21  H   UNL     1       6.956   0.378   7.150  1.00  0.00     0.293 HD
ENDBRANCH  17  20
ENDBRANCH   1  12
BRANCH   6  22
ATOM     22  O   UNL     1       8.727   6.090  -0.574  1.00  0.00    -0.507 OA
ATOM     23  H   UNL     1       9.336   5.290  -0.491  1.00  0.00     0.293 HD
ENDBRANCH   6  22
BRANCH   8  24
ATOM     24  O   UNL     1       4.474   8.313  -0.455  1.00  0.00    -0.508 OA
ATOM     25  H   UNL     1       3.649   8.632   0.040  1.00  0.00     0.293 HD
ENDBRANCH   8  24
TORSDOF 5
ENDMDL
MODEL 3
REMARK VINA RESULT:    -7.586     12.097     14.046
REMARK INTER + INTRA:          -9.229
REMARK INTER:                  -8.966
REMARK INTRA:                  -0.263
REMARK UNBOUND:                -0.312
REMARK SMILES O=c1cc(-c2ccc(O)c(O)c2)oc2cc(O)cc(O)c12
REMARK SMILES IDX 4 1 3 2 2 3 1 4 21 5 19 6 18 7 16 8 15 9 14 10 13 11 5 12
REMARK SMILES IDX 6 13 7 14 8 15 12 16 10 17 9 18 11 20 20 22 17 24
REMARK H PARENT 9 19 11 21 20 23 17 25
REMARK Flexibility Score: inf
ROOT
ATOM      1  C   UNL     1       6.912   4.837   2.256  1.00  0.00     0.138 A 
ATOM      2  C   UNL     1       8.242   4.460   2.029  1.00  0.00     0.100 A 
ATOM      3  C   UNL     1       8.816   3.449   2.802  1.00  0.00     0.197 A 
ATOM      4  O   UNL     1      10.028   3.172   2.611  1.00  0.00    -0.289 OA
ATOM      5  C   UNL     1       8.040   2.788   3.785  1.00  0.00     0.107 A 
ATOM      6  C   UNL     1       8.507   1.721   4.609  1.00  0.00     0.134 A 
ATOM      7  C   UNL     1       7.676   1.211   5.616  1.00  0.00     0.093 A 
ATOM      8  C   UNL     1       6.375   1.691   5.788  1.00  0.00     0.123 A 
ATOM      9  C   UNL     1       5.892   2.698   4.955  1.00  0.00     0.094 A 
ATOM     10  C   UNL     1       6.708   3.250   3.966  1.00  0.00     0.146 A 
ATOM     11  O   UNL     1       6.214   4.223   3.206  1.00  0.00    -0.456 OA
ENDROOT
BRANCH   1  12
ATOM     12  C   UNL     1       6.251   5.903   1.461  1.00  0.00     0.021 A 
ATOM     13  C   UNL     1       5.924   7.152   2.024  1.00  0.00     0.016 A 
ATOM     14  C   UNL     1       5.293   8.133   1.255  1.00  0.00     0.051 A 
ATOM     15  C   UNL     1       4.970   7.881  -0.084  1.00  0.00     0.157 A 
ATOM     16  C   UNL     1       5.911   5.655   0.119  1.00  0.00     0.062 A 
ATOM     17  C   UNL     1       5.279   6.640  -0.652  1.00  0.00     0.158 A 
BRANCH  15  18
ATOM     18  O   UNL     1       4.342   8.858  -0.855  1.00  0.00    -0.504 OA
ATOM     19  H   UNL     1       4.296   9.824  -0.551  1.00  0.00     0.293 HD
ENDBRANCH  15  18
BRANCH  17  20
ATOM     20  O   UNL     1       4.954   6.391  -1.985  1.00  0.00    -0.504 OA
ATOM     21  H   UNL     1       5.317   6.966  -2.736  1.00  0.00     0.293 HD
ENDBRANCH  17  20
ENDBRANCH   1  12
BRANCH   6  22
ATOM     22  O   UNL     1       9.758   1.112   4.470  1.00  0.00    -0.507 OA
ATOM     23  H   UNL     1      10.465   1.070   5.188  1.00  0.00     0.293 HD
ENDBRANCH   6  22
BRANCH   8  24
ATOM     24  O   UNL     1       5.551   1.167   6.781  1.00  0.00    -0.508 OA
ATOM     25  H   UNL     1       4.626   1.543   6.955  1.00  0.00     0.293 HD
ENDBRANCH   8  24
TORSDOF 5
ENDMDL
MODEL 4
REMARK VINA RESULT:    -7.388     11.257     12.906
REMARK INTER + INTRA:          -8.996
REMARK INTER:                  -8.703
REMARK INTRA:                  -0.293
REMARK UNBOUND:                -0.312
REMARK SMILES O=c1cc(-c2ccc(O)c(O)c2)oc2cc(O)cc(O)c12
REMARK SMILES IDX 4 1 3 2 2 3 1 4 21 5 19 6 18 7 16 8 15 9 14 10 13 11 5 12
REMARK SMILES IDX 6 13 7 14 8 15 12 16 10 17 9 18 11 20 20 22 17 24
REMARK H PARENT 9 19 11 21 20 23 17 25
REMARK Flexibility Score: inf
ROOT
ATOM      1  C   UNL     1       7.122   3.611   3.459  1.00  0.00     0.138 A 
ATOM      2  C   UNL     1       8.259   2.793   3.431  1.00  0.00     0.100 A 
ATOM      3  C   UNL     1       8.464   1.860   4.449  1.00  0.00     0.197 A 
ATOM      4  O   UNL     1       9.521   1.179   4.426  1.00  0.00    -0.289 OA
ATOM      5  C   UNL     1       7.504   1.723   5.482  1.00  0.00     0.107 A 
ATOM      6  C   UNL     1       7.588   0.783   6.552  1.00  0.00     0.134 A 
ATOM      7  C   UNL     1       6.626   0.808   7.570  1.00  0.00     0.093 A 
ATOM      8  C   UNL     1       5.551   1.699   7.524  1.00  0.00     0.123 A 
ATOM      9  C   UNL     1       5.432   2.586   6.457  1.00  0.00     0.094 A 
ATOM     10  C   UNL     1       6.394   2.609   5.445  1.00  0.00     0.146 A 
ATOM     11  O   UNL     1       6.252   3.485   4.455  1.00  0.00    -0.456 OA
ENDROOT
BRANCH   1  12
ATOM     12  C   UNL     1       6.853   4.617   2.400  1.00  0.00     0.021 A 
ATOM     13  C   UNL     1       5.612   5.278   2.304  1.00  0.00     0.016 A 
ATOM     14  C   UNL     1       5.384   6.213   1.291  1.00  0.00     0.051 A 
ATOM     15  C   UNL     1       6.385   6.498   0.354  1.00  0.00     0.157 A 
ATOM     16  C   UNL     1       7.847   4.901   1.446  1.00  0.00     0.062 A 
ATOM     17  C   UNL     1       7.617   5.840   0.431  1.00  0.00     0.158 A 
BRANCH  15  18
ATOM     18  O   UNL     1       6.160   7.431  -0.657  1.00  0.00    -0.504 OA
ATOM     19  H   UNL     1       5.991   7.146  -1.614  1.00  0.00     0.293 HD
ENDBRANCH  15  18
BRANCH  17  20
ATOM     20  O   UNL     1       8.610   6.123  -0.505  1.00  0.00    -0.504 OA
ATOM     21  H   UNL     1       9.584   5.904  -0.330  1.00  0.00     0.293 HD
ENDBRANCH  17  20
ENDBRANCH   1  12
BRANCH   6  22
ATOM     22  O   UNL     1       8.575  -0.203   6.654  1.00  0.00    -0.507 OA
ATOM     23  H   UNL     1       9.505  -0.057   7.014  1.00  0.00     0.293 HD
ENDBRANCH   6  22
BRANCH   8  24
ATOM     24  O   UNL     1       4.591   1.705   8.533  1.00  0.00    -0.508 OA
ATOM     25  H   UNL     1       4.123   2.559   8.815  1.00  0.00     0.293 HD
ENDBRANCH   8  24
TORSDOF 5
ENDMDL
MODEL 5
REMARK VINA RESULT:    -7.355     13.313     15.139
REMARK INTER + INTRA:          -8.957
REMARK INTER:                  -8.691
REMARK INTRA:                  -0.265
REMARK UNBOUND:                -0.312
REMARK SMILES O=c1cc(-c2ccc(O)c(O)c2)oc2cc(O)cc(O)c12
REMARK SMILES IDX 4 1 3 2 2 3 1 4 21 5 19 6 18 7 16 8 15 9 14 10 13 11 5 12
REMARK SMILES IDX 6 13 7 14 8 15 12 16 10 17 9 18 11 20 20 22 17 24
REMARK H PARENT 9 19 11 21 20 23 17 25
REMARK Flexibility Score: inf
ROOT
ATOM      1  C   UNL     1       6.673   6.061   1.153  1.00  0.00     0.138 A 
ATOM      2  C   UNL     1       5.984   6.468   2.303  1.00  0.00     0.100 A 
ATOM      3  C   UNL     1       6.261   5.858   3.527  1.00  0.00     0.197 A 
ATOM      4  O   UNL     1       5.587   6.207   4.530  1.00  0.00    -0.289 OA
ATOM      5  C   UNL     1       7.262   4.859   3.605  1.00  0.00     0.107 A 
ATOM      6  C   UNL     1       7.655   4.191   4.804  1.00  0.00     0.134 A 
ATOM      7  C   UNL     1       8.588   3.149   4.739  1.00  0.00     0.093 A 
ATOM      8  C   UNL     1       9.185   2.791   3.528  1.00  0.00     0.123 A 
ATOM      9  C   UNL     1       8.846   3.470   2.360  1.00  0.00     0.094 A 
ATOM     10  C   UNL     1       7.893   4.490   2.387  1.00  0.00     0.146 A 
ATOM     11  O   UNL     1       7.585   5.099   1.246  1.00  0.00    -0.456 OA
ENDROOT
BRANCH   1  12
ATOM     12  C   UNL     1       6.420   6.678  -0.174  1.00  0.00     0.021 A 
ATOM     13  C   UNL     1       6.992   7.913  -0.538  1.00  0.00     0.016 A 
ATOM     14  C   UNL     1       6.729   8.475  -1.790  1.00  0.00     0.051 A 
ATOM     15  C   UNL     1       5.885   7.819  -2.695  1.00  0.00     0.157 A 
ATOM     16  C   UNL     1       5.563   6.035  -1.085  1.00  0.00     0.062 A 
ATOM     17  C   UNL     1       5.300   6.598  -2.341  1.00  0.00     0.158 A 
BRANCH  15  18
ATOM     18  O   UNL     1       5.621   8.376  -3.945  1.00  0.00    -0.504 OA
ATOM     19  H   UNL     1       5.861   7.891  -4.802  1.00  0.00     0.293 HD
ENDBRANCH  15  18
BRANCH  17  20
ATOM     20  O   UNL     1       4.458   5.950  -3.242  1.00  0.00    -0.504 OA
ATOM     21  H   UNL     1       3.465   6.152  -3.280  1.00  0.00     0.293 HD
ENDBRANCH  17  20
ENDBRANCH   1  12
BRANCH   6  22
ATOM     22  O   UNL     1       7.181   4.523   6.077  1.00  0.00    -0.507 OA
ATOM     23  H   UNL     1       7.650   4.309   6.944  1.00  0.00     0.293 HD
ENDBRANCH   6  22
BRANCH   8  24
ATOM     24  O   UNL     1      10.125   1.763   3.477  1.00  0.00    -0.508 OA
ATOM     25  H   UNL     1      11.113   1.954   3.357  1.00  0.00     0.293 HD
ENDBRANCH   8  24
TORSDOF 5
ENDMDL
MODEL 6
REMARK VINA RESULT:    -7.291     12.640     14.999
REMARK INTER + INTRA:          -8.882
REMARK INTER:                  -8.611
REMARK INTRA:                  -0.272
REMARK UNBOUND:                -0.312
REMARK SMILES O=c1cc(-c2ccc(O)c(O)c2)oc2cc(O)cc(O)c12
REMARK SMILES IDX 4 1 3 2 2 3 1 4 21 5 19 6 18 7 16 8 15 9 14 10 13 11 5 12
REMARK SMILES IDX 6 13 7 14 8 15 12 16 10 17 9 18 11 20 20 22 17 24
REMARK H PARENT 9 19 11 21 20 23 17 25
REMARK Flexibility Score: inf
ROOT
ATOM      1  C   UNL     1       5.966   5.216   2.633  1.00  0.00     0.138 A 
ATOM      2  C   UNL     1       5.847   6.518   3.134  1.00  0.00     0.100 A 
ATOM      3  C   UNL     1       5.608   7.577   2.256  1.00  0.00     0.197 A 
ATOM      4  O   UNL     1       5.561   8.741   2.730  1.00  0.00    -0.289 OA
ATOM      5  C   UNL     1       5.451   7.322   0.872  1.00  0.00     0.107 A 
ATOM      6  C   UNL     1       5.171   8.317  -0.112  1.00  0.00     0.134 A 
ATOM      7  C   UNL     1       5.135   7.957  -1.466  1.00  0.00     0.093 A 
ATOM      8  C   UNL     1       5.312   6.630  -1.864  1.00  0.00     0.123 A 
ATOM      9  C   UNL     1       5.536   5.643  -0.907  1.00  0.00     0.094 A 
ATOM     10  C   UNL     1       5.612   5.976   0.448  1.00  0.00     0.146 A 
ATOM     11  O   UNL     1       5.847   5.006   1.326  1.00  0.00    -0.456 OA
ENDROOT
BRANCH   1  12
ATOM     12  C   UNL     1       6.217   4.052   3.521  1.00  0.00     0.021 A 
ATOM     13  C   UNL     1       5.272   3.633   4.478  1.00  0.00     0.016 A 
ATOM     14  C   UNL     1       5.539   2.541   5.308  1.00  0.00     0.051 A 
ATOM     15  C   UNL     1       6.755   1.855   5.202  1.00  0.00     0.157 A 
ATOM     16  C   UNL     1       7.441   3.365   3.433  1.00  0.00     0.062 A 
ATOM     17  C   UNL     1       7.708   2.269   4.265  1.00  0.00     0.158 A 
BRANCH  15  18
ATOM     18  O   UNL     1       7.024   0.764   6.027  1.00  0.00    -0.504 OA
ATOM     19  H   UNL     1       6.371  -0.006   6.117  1.00  0.00     0.293 HD
ENDBRANCH  15  18
BRANCH  17  20
ATOM     20  O   UNL     1       8.919   1.586   4.165  1.00  0.00    -0.504 OA
ATOM     21  H   UNL     1       8.954   0.578   4.064  1.00  0.00     0.293 HD
ENDBRANCH  17  20
ENDBRANCH   1  12
BRANCH   6  22
ATOM     22  O   UNL     1       4.898   9.656   0.182  1.00  0.00    -0.507 OA
ATOM     23  H   UNL     1       5.570  10.407   0.138  1.00  0.00     0.293 HD
ENDBRANCH   6  22
BRANCH   8  24
ATOM     24  O   UNL     1       5.259   6.280  -3.211  1.00  0.00    -0.508 OA
ATOM     25  H   UNL     1       5.828   6.752  -3.904  1.00  0.00     0.293 HD
ENDBRANCH   8  24
TORSDOF 5
ENDMDL
MODEL 7
REMARK VINA RESULT:    -7.278     11.964     13.762
REMARK INTER + INTRA:          -8.867
REMARK INTER:                  -8.574
REMARK INTRA:                  -0.293
REMARK UNBOUND:                -0.312
REMARK SMILES O=c1cc(-c2ccc(O)c(O)c2)oc2cc(O)cc(O)c12
REMARK SMILES IDX 4 1 3 2 2 3 1 4 21 5 19 6 18 7 16 8 15 9 14 10 13 11 5 12
REMARK SMILES IDX 6 13 7 14 8 15 12 16 10 17 9 18 11 20 20 22 17 24
REMARK H PARENT 9 19 11 21 20 23 17 25
REMARK Flexibility Score: inf
ROOT
ATOM      1  C   UNL     1       6.425   4.626   2.481  1.00  0.00     0.138 A 
ATOM      2  C   UNL     1       5.287   4.482   3.285  1.00  0.00     0.100 A 
ATOM      3  C   UNL     1       5.296   3.564   4.337  1.00  0.00     0.197 A 
ATOM      4  O   UNL     1       4.241   3.418   5.006  1.00  0.00    -0.289 OA
ATOM      5  C   UNL     1       6.466   2.813   4.606  1.00  0.00     0.107 A 
ATOM      6  C   UNL     1       6.604   1.873   5.672  1.00  0.00     0.134 A 
ATOM      7  C   UNL     1       7.778   1.117   5.778  1.00  0.00     0.093 A 
ATOM      8  C   UNL     1       8.841   1.309   4.892  1.00  0.00     0.123 A 
ATOM      9  C   UNL     1       8.737   2.259   3.879  1.00  0.00     0.094 A 
ATOM     10  C   UNL     1       7.565   3.004   3.726  1.00  0.00     0.146 A 
ATOM     11  O   UNL     1       7.500   3.887   2.734  1.00  0.00    -0.456 OA
ENDROOT
BRANCH   1  12
ATOM     12  C   UNL     1       6.472   5.589   1.352  1.00  0.00     0.021 A 
ATOM     13  C   UNL     1       7.525   5.583   0.416  1.00  0.00     0.016 A 
ATOM     14  C   UNL     1       7.548   6.508  -0.631  1.00  0.00     0.051 A 
ATOM     15  C   UNL     1       6.527   7.458  -0.757  1.00  0.00     0.157 A 
ATOM     16  C   UNL     1       5.458   6.555   1.223  1.00  0.00     0.062 A 
ATOM     17  C   UNL     1       5.481   7.482   0.172  1.00  0.00     0.158 A 
BRANCH  15  18
ATOM     18  O   UNL     1       6.546   8.380  -1.802  1.00  0.00    -0.504 OA
ATOM     19  H   UNL     1       7.416   8.705  -2.207  1.00  0.00     0.293 HD
ENDBRANCH  15  18
BRANCH  17  20
ATOM     20  O   UNL     1       4.468   8.431   0.046  1.00  0.00    -0.504 OA
ATOM     21  H   UNL     1       4.589   9.266  -0.515  1.00  0.00     0.293 HD
ENDBRANCH  17  20
ENDBRANCH   1  12
BRANCH   6  22
ATOM     22  O   UNL     1       5.637   1.661   6.659  1.00  0.00    -0.507 OA
ATOM     23  H   UNL     1       4.922   0.950   6.627  1.00  0.00     0.293 HD
ENDBRANCH   6  22
BRANCH   8  24
ATOM     24  O   UNL     1      10.011   0.563   5.015  1.00  0.00    -0.508 OA
ATOM     25  H   UNL     1      10.042  -0.420   4.771  1.00  0.00     0.293 HD
ENDBRANCH   8  24
TORSDOF 5
ENDMDL
MODEL 8
REMARK VINA RESULT:    -7.267      1.579      2.079
REMARK INTER + INTRA:          -8.853
REMARK INTER:                  -8.581
REMARK INTRA:                  -0.273
REMARK UNBOUND:                -0.312
REMARK SMILES O=c1cc(-c2ccc(O)c(O)c2)oc2cc(O)cc(O)c12
REMARK SMILES IDX 4 1 3 2 2 3 1 4 21 5 19 6 18 7 16 8 15 9 14 10 13 11 5 12
REMARK SMILES IDX 6 13 7 14 8 15 12 16 10 17 9 18 11 20 20 22 17 24
REMARK H PARENT 9 19 11 21 20 23 17 25
REMARK Flexibility Score: inf
ROOT
ATOM      1  C   UNL     1       0.009  -7.527   4.662  1.00  0.00     0.138 A 
ATOM      2  C   UNL     1      -0.138  -8.339   5.794  1.00  0.00     0.100 A 
ATOM      3  C   UNL     1      -1.004  -7.949   6.817  1.00  0.00     0.197 A 
ATOM      4  O   UNL     1      -1.072  -8.671   7.845  1.00  0.00    -0.289 OA
ATOM      5  C   UNL     1      -1.752  -6.753   6.688  1.00  0.00     0.107 A 
ATOM      6  C   UNL     1      -2.690  -6.272   7.650  1.00  0.00     0.134 A 
ATOM      7  C   UNL     1      -3.299  -5.025   7.456  1.00  0.00     0.093 A 
ATOM      8  C   UNL     1      -3.047  -4.271   6.308  1.00  0.00     0.123 A 
ATOM      9  C   UNL     1      -2.172  -4.755   5.338  1.00  0.00     0.094 A 
ATOM     10  C   UNL     1      -1.523  -5.979   5.519  1.00  0.00     0.146 A 
ATOM     11  O   UNL     1      -0.682  -6.395   4.578  1.00  0.00    -0.456 OA
ENDROOT
BRANCH   1  12
ATOM     12  C   UNL     1       0.912  -7.897   3.543  1.00  0.00     0.021 A 
ATOM     13  C   UNL     1       0.680  -9.037   2.749  1.00  0.00     0.016 A 
ATOM     14  C   UNL     1       1.553  -9.366   1.708  1.00  0.00     0.051 A 
ATOM     15  C   UNL     1       2.674  -8.568   1.448  1.00  0.00     0.157 A 
ATOM     16  C   UNL     1       2.048  -7.110   3.281  1.00  0.00     0.062 A 
ATOM     17  C   UNL     1       2.922  -7.439   2.237  1.00  0.00     0.158 A 
BRANCH  15  18
ATOM     18  O   UNL     1       3.546  -8.892   0.410  1.00  0.00    -0.504 OA
ATOM     19  H   UNL     1       3.203  -9.195  -0.495  1.00  0.00     0.293 HD
ENDBRANCH  15  18
BRANCH  17  20
ATOM     20  O   UNL     1       4.041  -6.649   1.978  1.00  0.00    -0.504 OA
ATOM     21  H   UNL     1       4.643  -6.320   2.724  1.00  0.00     0.293 HD
ENDBRANCH  17  20
ENDBRANCH   1  12
BRANCH   6  22
ATOM     22  O   UNL     1      -3.076  -6.980   8.792  1.00  0.00    -0.507 OA
ATOM     23  H   UNL     1      -4.027  -7.191   9.050  1.00  0.00     0.293 HD
ENDBRANCH   6  22
BRANCH   8  24
ATOM     24  O   UNL     1      -3.670  -3.039   6.117  1.00  0.00    -0.508 OA
ATOM     25  H   UNL     1      -3.374  -2.212   6.621  1.00  0.00     0.293 HD
ENDBRANCH   8  24
TORSDOF 5
ENDMDL
MODEL 9
REMARK VINA RESULT:    -7.128      3.770      6.565
REMARK INTER + INTRA:          -8.691
REMARK INTER:                  -8.424
REMARK INTRA:                  -0.267
REMARK UNBOUND:                -0.312
REMARK SMILES O=c1cc(-c2ccc(O)c(O)c2)oc2cc(O)cc(O)c12
REMARK SMILES IDX 4 1 3 2 2 3 1 4 21 5 19 6 18 7 16 8 15 9 14 10 13 11 5 12
REMARK SMILES IDX 6 13 7 14 8 15 12 16 10 17 9 18 11 20 20 22 17 24
REMARK H PARENT 9 19 11 21 20 23 17 25
REMARK Flexibility Score: inf
ROOT
ATOM      1  C   UNL     1      -2.276  -4.570   6.580  1.00  0.00     0.138 A 
ATOM      2  C   UNL     1      -1.843  -3.469   7.331  1.00  0.00     0.100 A 
ATOM      3  C   UNL     1      -2.766  -2.505   7.738  1.00  0.00     0.197 A 
ATOM      4  O   UNL     1      -2.338  -1.500   8.363  1.00  0.00    -0.289 OA
ATOM      5  C   UNL     1      -4.137  -2.664   7.421  1.00  0.00     0.107 A 
ATOM      6  C   UNL     1      -5.174  -1.763   7.812  1.00  0.00     0.134 A 
ATOM      7  C   UNL     1      -6.481  -1.974   7.354  1.00  0.00     0.093 A 
ATOM      8  C   UNL     1      -6.798  -3.085   6.569  1.00  0.00     0.123 A 
ATOM      9  C   UNL     1      -5.804  -3.997   6.224  1.00  0.00     0.094 A 
ATOM     10  C   UNL     1      -4.485  -3.796   6.636  1.00  0.00     0.146 A 
ATOM     11  O   UNL     1      -3.563  -4.681   6.268  1.00  0.00    -0.456 OA
ENDROOT
BRANCH   1  12
ATOM     12  C   UNL     1      -1.339  -5.627   6.124  1.00  0.00     0.021 A 
ATOM     13  C   UNL     1      -1.523  -6.981   6.470  1.00  0.00     0.016 A 
ATOM     14  C   UNL     1      -0.619  -7.953   6.035  1.00  0.00     0.051 A 
ATOM     15  C   UNL     1       0.487  -7.591   5.256  1.00  0.00     0.157 A 
ATOM     16  C   UNL     1      -0.217  -5.273   5.353  1.00  0.00     0.062 A 
ATOM     17  C   UNL     1       0.688  -6.249   4.916  1.00  0.00     0.158 A 
BRANCH  15  18
ATOM     18  O   UNL     1       1.390  -8.559   4.819  1.00  0.00    -0.504 OA
ATOM     19  H   UNL     1       1.784  -9.242   5.456  1.00  0.00     0.293 HD
ENDBRANCH  15  18
BRANCH  17  20
ATOM     20  O   UNL     1       1.792  -5.891   4.144  1.00  0.00    -0.504 OA
ATOM     21  H   UNL     1       2.094  -6.453   3.356  1.00  0.00     0.293 HD
ENDBRANCH  17  20
ENDBRANCH   1  12
BRANCH   6  22
ATOM     22  O   UNL     1      -4.982  -0.667   8.659  1.00  0.00    -0.507 OA
ATOM     23  H   UNL     1      -5.213  -0.646   9.640  1.00  0.00     0.293 HD
ENDBRANCH   6  22
BRANCH   8  24
ATOM     24  O   UNL     1      -8.104  -3.295   6.132  1.00  0.00    -0.508 OA
ATOM     25  H   UNL     1      -8.521  -2.719   5.409  1.00  0.00     0.293 HD
ENDBRANCH   8  24
TORSDOF 5
ENDMDL
