MODEL 1
REMARK VINA RESULT:    -3.707      0.000      0.000
REMARK INTER + INTRA:          -9.658
REMARK INTER:                  -7.174
REMARK INTRA:                  -2.484
REMARK UNBOUND:                -2.484
REMARK SMILES CCCCCCCCCCCCCCCCCC(=O)[O-]
REMARK SMILES IDX 10 1 11 2 12 3 13 4 14 5 15 6 16 7 17 8 18 9 19 10 20 11
REMARK SMILES IDX 9 12 8 13 7 14 6 15 5 16 4 17 3 18 2 19 1 20
REMARK H PARENT
REMARK Flexibility Score: inf
ROOT
ATOM      1  C   UNL     1     131.448 144.489 120.338  1.00  0.00     0.000 C 
ENDROOT
BRANCH   1   2
ATOM      2  C   UNL     1     131.039 145.871 119.795  1.00  0.00     0.000 C 
BRANCH   2   3
ATOM      3  C   UNL     1     132.009 146.982 120.227  1.00  0.00     0.000 C 
BRANCH   3   4
ATOM      4  C   UNL     1     133.084 146.478 121.204  1.00  0.00     0.000 C 
BRANCH   4   5
ATOM      5  C   UNL     1     134.481 146.389 120.563  1.00  0.00     0.000 C 
BRANCH   5   6
ATOM      6  C   UNL     1     134.492 146.431 119.025  1.00  0.00     0.000 C 
BRANCH   6   7
ATOM      7  C   UNL     1     134.786 145.062 118.388  1.00  0.00     0.006 C 
BRANCH   7   8
ATOM      8  C   UNL     1     135.001 143.968 119.443  1.00  0.00     0.053 C 
BRANCH   8   9
ATOM      9  C   UNL     1     136.289 143.233 119.229  1.00  0.00     0.041 C 
ATOM     10  O   UNL     1     136.312 142.189 118.526  1.00  0.00    -0.550 OA
ATOM     11  O   UNL     1     137.466 143.718 119.782  1.00  0.00    -0.550 OA
ENDBRANCH   8   9
ENDBRANCH   7   8
ENDBRANCH   6   7
ENDBRANCH   5   6
ENDBRANCH   4   5
ENDBRANCH   3   4
ENDBRANCH   2   3
ENDBRANCH   1   2
BRANCH   1  12
ATOM     12  C   UNL     1     130.851 143.334 119.520  1.00  0.00     0.000 C 
BRANCH  12  13
ATOM     13  C   UNL     1     129.381 143.573 119.144  1.00  0.00    -0.000 C 
BRANCH  13  14
ATOM     14  C   UNL     1     128.440 142.990 120.208  1.00  0.00    -0.000 C 
BRANCH  14  15
ATOM     15  C   UNL     1     127.255 143.915 120.536  1.00  0.00    -0.000 C 
BRANCH  15  16
ATOM     16  C   UNL     1     127.384 145.352 119.999  1.00  0.00    -0.000 C 
BRANCH  16  17
ATOM     17  C   UNL     1     126.893 146.412 120.997  1.00  0.00    -0.000 C 
BRANCH  17  18
ATOM     18  C   UNL     1     127.249 146.014 122.438  1.00  0.00    -0.000 C 
BRANCH  18  19
ATOM     19  C   UNL     1     128.630 146.532 122.870  1.00  0.00    -0.003 C 
ATOM     20  C   UNL     1     129.584 145.407 123.269  1.00  0.00     0.004 C 
ENDBRANCH  18  19
ENDBRANCH  17  18
ENDBRANCH  16  17
ENDBRANCH  15  16
ENDBRANCH  14  15
ENDBRANCH  13  14
ENDBRANCH  12  13
ENDBRANCH   1  12
TORSDOF 16
ENDMDL
MODEL 2
REMARK VINA RESULT:    -3.666      3.295      6.979
REMARK INTER + INTRA:          -9.579
REMARK INTER:                  -7.077
REMARK INTRA:                  -2.501
REMARK UNBOUND:                -2.484
REMARK SMILES CCCCCCCCCCCCCCCCCC(=O)[O-]
REMARK SMILES IDX 10 1 11 2 12 3 13 4 14 5 15 6 16 7 17 8 18 9 19 10 20 11
REMARK SMILES IDX 9 12 8 13 7 14 6 15 5 16 4 17 3 18 2 19 1 20
REMARK H PARENT
REMARK Flexibility Score: inf
ROOT
ATOM      1  C   UNL     1     130.467 146.398 120.738  1.00  0.00     0.000 C 
ENDROOT
BRANCH   1   2
ATOM      2  C   UNL     1     129.887 145.473 119.653  1.00  0.00     0.000 C 
BRANCH   2   3
ATOM      3  C   UNL     1     128.372 145.660 119.471  1.00  0.00     0.000 C 
BRANCH   3   4
ATOM      4  C   UNL     1     127.657 144.350 119.100  1.00  0.00     0.000 C 
BRANCH   4   5
ATOM      5  C   UNL     1     128.351 143.104 119.678  1.00  0.00     0.000 C 
BRANCH   5   6
ATOM      6  C   UNL     1     127.435 142.168 120.487  1.00  0.00     0.000 C 
BRANCH   6   7
ATOM      7  C   UNL     1     127.742 142.185 121.995  1.00  0.00     0.006 C 
BRANCH   7   8
ATOM      8  C   UNL     1     128.989 143.017 122.322  1.00  0.00     0.053 C 
BRANCH   8   9
ATOM      9  C   UNL     1     128.642 144.276 123.057  1.00  0.00     0.041 C 
ATOM     10  O   UNL     1     129.504 144.851 123.771  1.00  0.00    -0.550 OA
ATOM     11  O   UNL     1     127.374 144.828 122.928  1.00  0.00    -0.550 OA
ENDBRANCH   8   9
ENDBRANCH   7   8
ENDBRANCH   6   7
ENDBRANCH   5   6
ENDBRANCH   4   5
ENDBRANCH   3   4
ENDBRANCH   2   3
ENDBRANCH   1   2
BRANCH   1  12
ATOM     12  C   UNL     1     131.806 147.027 120.322  1.00  0.00     0.000 C 
BRANCH  12  13
ATOM     13  C   UNL     1     132.927 146.756 121.336  1.00  0.00    -0.000 C 
BRANCH  13  14
ATOM     14  C   UNL     1     134.230 146.365 120.624  1.00  0.00    -0.000 C 
BRANCH  14  15
ATOM     15  C   UNL     1     134.118 146.423 119.090  1.00  0.00    -0.000 C 
BRANCH  15  16
ATOM     16  C   UNL     1     134.956 145.374 118.337  1.00  0.00    -0.000 C 
BRANCH  16  17
ATOM     17  C   UNL     1     134.894 143.981 118.982  1.00  0.00    -0.000 C 
BRANCH  17  18
ATOM     18  C   UNL     1     133.843 143.102 118.288  1.00  0.00    -0.000 C 
BRANCH  18  19
ATOM     19  C   UNL     1     132.474 143.156 118.985  1.00  0.00    -0.003 C 
ATOM     20  C   UNL     1     132.577 143.002 120.502  1.00  0.00     0.004 C 
ENDBRANCH  18  19
ENDBRANCH  17  18
ENDBRANCH  16  17
ENDBRANCH  15  16
ENDBRANCH  14  15
ENDBRANCH  13  14
ENDBRANCH  12  13
ENDBRANCH   1  12
TORSDOF 16
ENDMDL
MODEL 3
REMARK VINA RESULT:    -3.654      2.171      5.999
REMARK INTER + INTRA:          -9.557
REMARK INTER:                  -7.259
REMARK INTRA:                  -2.298
REMARK UNBOUND:                -2.484
REMARK SMILES CCCCCCCCCCCCCCCCCC(=O)[O-]
REMARK SMILES IDX 10 1 11 2 12 3 13 4 14 5 15 6 16 7 17 8 18 9 19 10 20 11
REMARK SMILES IDX 9 12 8 13 7 14 6 15 5 16 4 17 3 18 2 19 1 20
REMARK H PARENT
REMARK Flexibility Score: inf
ROOT
ATOM      1  C   UNL     1     128.227 146.671 123.573  1.00  0.00     0.000 C 
ENDROOT
BRANCH   1   2
ATOM      2  C   UNL     1     127.118 146.729 122.507  1.00  0.00     0.000 C 
BRANCH   2   3
ATOM      3  C   UNL     1     127.286 145.652 121.425  1.00  0.00     0.000 C 
BRANCH   3   4
ATOM      4  C   UNL     1     127.379 146.247 120.009  1.00  0.00     0.000 C 
BRANCH   4   5
ATOM      5  C   UNL     1     127.635 145.182 118.927  1.00  0.00     0.000 C 
BRANCH   5   6
ATOM      6  C   UNL     1     128.082 143.810 119.461  1.00  0.00     0.000 C 
BRANCH   6   7
ATOM      7  C   UNL     1     129.606 143.611 119.404  1.00  0.00     0.006 C 
BRANCH   7   8
ATOM      8  C   UNL     1     130.155 142.974 120.688  1.00  0.00     0.053 C 
BRANCH   8   9
ATOM      9  C   UNL     1     130.572 141.552 120.470  1.00  0.00     0.041 C 
ATOM     10  O   UNL     1     130.027 140.625 121.125  1.00  0.00    -0.550 OA
ATOM     11  O   UNL     1     131.542 141.249 119.524  1.00  0.00    -0.550 OA
ENDBRANCH   8   9
ENDBRANCH   7   8
ENDBRANCH   6   7
ENDBRANCH   5   6
ENDBRANCH   4   5
ENDBRANCH   3   4
ENDBRANCH   2   3
ENDBRANCH   1   2
BRANCH   1  12
ATOM     12  C   UNL     1     129.341 145.677 123.210  1.00  0.00     0.000 C 
BRANCH  12  13
ATOM     13  C   UNL     1     130.744 146.289 123.333  1.00  0.00    -0.000 C 
BRANCH  13  14
ATOM     14  C   UNL     1     131.589 145.981 122.089  1.00  0.00    -0.000 C 
BRANCH  14  15
ATOM     15  C   UNL     1     131.060 146.666 120.816  1.00  0.00    -0.000 C 
BRANCH  15  16
ATOM     16  C   UNL     1     132.064 146.739 119.652  1.00  0.00    -0.000 C 
BRANCH  16  17
ATOM     17  C   UNL     1     133.496 146.373 120.071  1.00  0.00    -0.000 C 
BRANCH  17  18
ATOM     18  C   UNL     1     134.460 146.484 118.880  1.00  0.00    -0.000 C 
BRANCH  18  19
ATOM     19  C   UNL     1     134.860 145.112 118.314  1.00  0.00    -0.003 C 
ATOM     20  C   UNL     1     134.306 143.949 119.137  1.00  0.00     0.004 C 
ENDBRANCH  18  19
ENDBRANCH  17  18
ENDBRANCH  16  17
ENDBRANCH  15  16
ENDBRANCH  14  15
ENDBRANCH  13  14
ENDBRANCH  12  13
ENDBRANCH   1  12
TORSDOF 16
ENDMDL
MODEL 4
REMARK VINA RESULT:    -3.636      3.307      7.172
REMARK INTER + INTRA:          -9.520
REMARK INTER:                  -7.187
REMARK INTRA:                  -2.333
REMARK UNBOUND:                -2.484
REMARK SMILES CCCCCCCCCCCCCCCCCC(=O)[O-]
REMARK SMILES IDX 10 1 11 2 12 3 13 4 14 5 15 6 16 7 17 8 18 9 19 10 20 11
REMARK SMILES IDX 9 12 8 13 7 14 6 15 5 16 4 17 3 18 2 19 1 20
REMARK H PARENT
REMARK Flexibility Score: inf
ROOT
ATOM      1  C   UNL     1     131.065 143.409 120.322  1.00  0.00     0.000 C 
ENDROOT
BRANCH   1   2
ATOM      2  C   UNL     1     129.841 143.272 119.398  1.00  0.00     0.000 C 
BRANCH   2   3
ATOM      3  C   UNL     1     128.644 142.615 120.103  1.00  0.00     0.000 C 
BRANCH   3   4
ATOM      4  C   UNL     1     127.336 143.397 119.896  1.00  0.00     0.000 C 
BRANCH   4   5
ATOM      5  C   UNL     1     127.521 144.655 119.028  1.00  0.00     0.000 C 
BRANCH   5   6
ATOM      6  C   UNL     1     127.363 145.990 119.778  1.00  0.00     0.000 C 
BRANCH   6   7
ATOM      7  C   UNL     1     126.957 145.806 121.251  1.00  0.00     0.006 C 
BRANCH   7   8
ATOM      8  C   UNL     1     128.056 146.270 122.216  1.00  0.00     0.053 C 
BRANCH   8   9
ATOM      9  C   UNL     1     128.194 145.348 123.389  1.00  0.00     0.041 C 
ATOM     10  O   UNL     1     127.776 144.162 123.315  1.00  0.00    -0.550 OA
ATOM     11  O   UNL     1     128.809 145.790 124.552  1.00  0.00    -0.550 OA
ENDBRANCH   8   9
ENDBRANCH   7   8
ENDBRANCH   6   7
ENDBRANCH   5   6
ENDBRANCH   4   5
ENDBRANCH   3   4
ENDBRANCH   2   3
ENDBRANCH   1   2
BRANCH   1  12
ATOM     12  C   UNL     1     131.201 144.820 120.915  1.00  0.00     0.000 C 
BRANCH  12  13
ATOM     13  C   UNL     1     130.961 145.924 119.875  1.00  0.00    -0.000 C 
BRANCH  13  14
ATOM     14  C   UNL     1     131.921 147.103 120.093  1.00  0.00    -0.000 C 
BRANCH  14  15
ATOM     15  C   UNL     1     133.378 146.659 120.321  1.00  0.00    -0.000 C 
BRANCH  15  16
ATOM     16  C   UNL     1     134.233 146.558 119.045  1.00  0.00    -0.000 C 
BRANCH  16  17
ATOM     17  C   UNL     1     135.581 145.862 119.280  1.00  0.00    -0.000 C 
BRANCH  17  18
ATOM     18  C   UNL     1     135.415 144.334 119.289  1.00  0.00    -0.000 C 
BRANCH  18  19
ATOM     19  C   UNL     1     134.402 143.844 118.243  1.00  0.00    -0.003 C 
ATOM     20  C   UNL     1     134.544 142.353 117.936  1.00  0.00     0.004 C 
ENDBRANCH  18  19
ENDBRANCH  17  18
ENDBRANCH  16  17
ENDBRANCH  15  16
ENDBRANCH  14  15
ENDBRANCH  13  14
ENDBRANCH  12  13
ENDBRANCH   1  12
TORSDOF 16
ENDMDL
MODEL 5
REMARK VINA RESULT:    -3.618      3.230      7.009
REMARK INTER + INTRA:          -9.486
REMARK INTER:                  -7.071
REMARK INTRA:                  -2.415
REMARK UNBOUND:                -2.484
REMARK SMILES CCCCCCCCCCCCCCCCCC(=O)[O-]
REMARK SMILES IDX 10 1 11 2 12 3 13 4 14 5 15 6 16 7 17 8 18 9 19 10 20 11
REMARK SMILES IDX 9 12 8 13 7 14 6 15 5 16 4 17 3 18 2 19 1 20
REMARK H PARENT
REMARK Flexibility Score: inf
ROOT
ATOM      1  C   UNL     1     128.829 145.852 119.664  1.00  0.00     0.000 C 
ENDROOT
BRANCH   1   2
ATOM      2  C   UNL     1     128.661 144.437 119.082  1.00  0.00     0.000 C 
BRANCH   2   3
ATOM      3  C   UNL     1     127.655 143.590 119.879  1.00  0.00     0.000 C 
BRANCH   3   4
ATOM      4  C   UNL     1     128.344 142.620 120.853  1.00  0.00     0.000 C 
BRANCH   4   5
ATOM      5  C   UNL     1     128.017 142.919 122.328  1.00  0.00     0.000 C 
BRANCH   5   6
ATOM      6  C   UNL     1     128.723 144.158 122.909  1.00  0.00     0.000 C 
BRANCH   6   7
ATOM      7  C   UNL     1     127.753 145.313 123.212  1.00  0.00     0.006 C 
BRANCH   7   8
ATOM      8  C   UNL     1     128.486 146.648 123.404  1.00  0.00     0.053 C 
BRANCH   8   9
ATOM      9  C   UNL     1     129.581 146.541 124.421  1.00  0.00     0.041 C 
ATOM     10  O   UNL     1     130.738 146.959 124.153  1.00  0.00    -0.550 OA
ATOM     11  O   UNL     1     129.315 146.007 125.675  1.00  0.00    -0.550 OA
ENDBRANCH   8   9
ENDBRANCH   7   8
ENDBRANCH   6   7
ENDBRANCH   5   6
ENDBRANCH   4   5
ENDBRANCH   3   4
ENDBRANCH   2   3
ENDBRANCH   1   2
BRANCH   1  12
ATOM     12  C   UNL     1     130.280 146.351 119.589  1.00  0.00     0.000 C 
BRANCH  12  13
ATOM     13  C   UNL     1     131.112 145.937 120.812  1.00  0.00    -0.000 C 
BRANCH  13  14
ATOM     14  C   UNL     1     132.510 146.570 120.766  1.00  0.00    -0.000 C 
BRANCH  14  15
ATOM     15  C   UNL     1     133.076 146.678 119.338  1.00  0.00    -0.000 C 
BRANCH  15  16
ATOM     16  C   UNL     1     134.587 146.411 119.216  1.00  0.00    -0.000 C 
BRANCH  16  17
ATOM     17  C   UNL     1     134.909 145.164 118.378  1.00  0.00    -0.000 C 
BRANCH  17  18
ATOM     18  C   UNL     1     134.547 143.881 119.142  1.00  0.00    -0.000 C 
BRANCH  18  19
ATOM     19  C   UNL     1     133.495 143.034 118.410  1.00  0.00    -0.003 C 
ATOM     20  C   UNL     1     132.138 143.041 119.114  1.00  0.00     0.004 C 
ENDBRANCH  18  19
ENDBRANCH  17  18
ENDBRANCH  16  17
ENDBRANCH  15  16
ENDBRANCH  14  15
ENDBRANCH  13  14
ENDBRANCH  12  13
ENDBRANCH   1  12
TORSDOF 16
ENDMDL
MODEL 6
REMARK VINA RESULT:    -3.585      1.594      3.390
REMARK INTER + INTRA:          -9.422
REMARK INTER:                  -6.826
REMARK INTRA:                  -2.596
REMARK UNBOUND:                -2.484
REMARK SMILES CCCCCCCCCCCCCCCCCC(=O)[O-]
REMARK SMILES IDX 10 1 11 2 12 3 13 4 14 5 15 6 16 7 17 8 18 9 19 10 20 11
REMARK SMILES IDX 9 12 8 13 7 14 6 15 5 16 4 17 3 18 2 19 1 20
REMARK H PARENT
REMARK Flexibility Score: inf
ROOT
ATOM      1  C   UNL     1     129.552 144.670 123.113  1.00  0.00     0.000 C 
ENDROOT
BRANCH   1   2
ATOM      2  C   UNL     1     130.825 145.001 122.313  1.00  0.00     0.000 C 
BRANCH   2   3
ATOM      3  C   UNL     1     130.771 146.397 121.674  1.00  0.00     0.000 C 
BRANCH   3   4
ATOM      4  C   UNL     1     131.834 146.586 120.578  1.00  0.00     0.000 C 
BRANCH   4   5
ATOM      5  C   UNL     1     132.223 145.267 119.888  1.00  0.00     0.000 C 
BRANCH   5   6
ATOM      6  C   UNL     1     133.716 145.134 119.538  1.00  0.00     0.000 C 
BRANCH   6   7
ATOM      7  C   UNL     1     134.375 146.483 119.199  1.00  0.00     0.006 C 
BRANCH   7   8
ATOM      8  C   UNL     1     135.905 146.419 119.292  1.00  0.00     0.053 C 
BRANCH   8   9
ATOM      9  C   UNL     1     136.371 146.221 120.702  1.00  0.00     0.041 C 
ATOM     10  O   UNL     1     136.192 147.125 121.561  1.00  0.00    -0.550 OA
ATOM     11  O   UNL     1     136.976 145.028 121.074  1.00  0.00    -0.550 OA
ENDBRANCH   8   9
ENDBRANCH   7   8
ENDBRANCH   6   7
ENDBRANCH   5   6
ENDBRANCH   4   5
ENDBRANCH   3   4
ENDBRANCH   2   3
ENDBRANCH   1   2
BRANCH   1  12
ATOM     12  C   UNL     1     128.611 145.877 123.248  1.00  0.00     0.000 C 
BRANCH  12  13
ATOM     13  C   UNL     1     127.216 145.608 122.664  1.00  0.00    -0.000 C 
BRANCH  13  14
ATOM     14  C   UNL     1     126.924 146.546 121.485  1.00  0.00    -0.000 C 
BRANCH  14  15
ATOM     15  C   UNL     1     126.892 145.818 120.129  1.00  0.00    -0.000 C 
BRANCH  15  16
ATOM     16  C   UNL     1     128.270 145.590 119.481  1.00  0.00    -0.000 C 
BRANCH  16  17
ATOM     17  C   UNL     1     128.574 144.106 119.225  1.00  0.00    -0.000 C 
BRANCH  17  18
ATOM     18  C   UNL     1     127.542 143.207 119.922  1.00  0.00    -0.000 C 
BRANCH  18  19
ATOM     19  C   UNL     1     128.196 142.075 120.731  1.00  0.00    -0.003 C 
ATOM     20  C   UNL     1     129.699 141.960 120.477  1.00  0.00     0.004 C 
ENDBRANCH  18  19
ENDBRANCH  17  18
ENDBRANCH  16  17
ENDBRANCH  15  16
ENDBRANCH  14  15
ENDBRANCH  13  14
ENDBRANCH  12  13
ENDBRANCH   1  12
TORSDOF 16
ENDMDL
MODEL 7
REMARK VINA RESULT:    -3.578      1.032      2.429
REMARK INTER + INTRA:          -9.409
REMARK INTER:                  -7.075
REMARK INTRA:                  -2.333
REMARK UNBOUND:                -2.484
REMARK SMILES CCCCCCCCCCCCCCCCCC(=O)[O-]
REMARK SMILES IDX 10 1 11 2 12 3 13 4 14 5 15 6 16 7 17 8 18 9 19 10 20 11
REMARK SMILES IDX 9 12 8 13 7 14 6 15 5 16 4 17 3 18 2 19 1 20
REMARK H PARENT
REMARK Flexibility Score: inf
ROOT
ATOM      1  C   UNL     1     129.401 142.690 120.216  1.00  0.00     0.000 C 
ENDROOT
BRANCH   1   2
ATOM      2  C   UNL     1     130.492 143.485 119.475  1.00  0.00     0.000 C 
BRANCH   2   3
ATOM      3  C   UNL     1     131.061 144.632 120.325  1.00  0.00     0.000 C 
BRANCH   3   4
ATOM      4  C   UNL     1     130.668 146.017 119.783  1.00  0.00     0.000 C 
BRANCH   4   5
ATOM      5  C   UNL     1     131.842 147.013 119.780  1.00  0.00     0.000 C 
BRANCH   5   6
ATOM      6  C   UNL     1     133.208 146.408 120.151  1.00  0.00     0.000 C 
BRANCH   6   7
ATOM      7  C   UNL     1     134.206 146.417 118.980  1.00  0.00     0.006 C 
BRANCH   7   8
ATOM      8  C   UNL     1     135.426 145.528 119.253  1.00  0.00     0.053 C 
BRANCH   8   9
ATOM      9  C   UNL     1     135.217 144.128 118.765  1.00  0.00     0.041 C 
ATOM     10  O   UNL     1     134.091 143.770 118.331  1.00  0.00    -0.550 OA
ATOM     11  O   UNL     1     136.273 143.227 118.763  1.00  0.00    -0.550 OA
ENDBRANCH   8   9
ENDBRANCH   7   8
ENDBRANCH   6   7
ENDBRANCH   5   6
ENDBRANCH   4   5
ENDBRANCH   3   4
ENDBRANCH   2   3
ENDBRANCH   1   2
BRANCH   1  12
ATOM     12  C   UNL     1     127.987 143.030 119.723  1.00  0.00     0.000 C 
BRANCH  12  13
ATOM     13  C   UNL     1     127.268 144.036 120.635  1.00  0.00    -0.000 C 
BRANCH  13  14
ATOM     14  C   UNL     1     127.152 145.408 119.956  1.00  0.00    -0.000 C 
BRANCH  14  15
ATOM     15  C   UNL     1     127.005 146.566 120.960  1.00  0.00    -0.000 C 
BRANCH  15  16
ATOM     16  C   UNL     1     127.252 146.186 122.431  1.00  0.00    -0.000 C 
BRANCH  16  17
ATOM     17  C   UNL     1     128.695 146.452 122.885  1.00  0.00    -0.000 C 
BRANCH  17  18
ATOM     18  C   UNL     1     129.318 145.188 123.497  1.00  0.00    -0.000 C 
BRANCH  18  19
ATOM     19  C   UNL     1     130.595 145.487 124.298  1.00  0.00    -0.003 C 
ATOM     20  C   UNL     1     131.566 146.396 123.544  1.00  0.00     0.004 C 
ENDBRANCH  18  19
ENDBRANCH  17  18
ENDBRANCH  16  17
ENDBRANCH  15  16
ENDBRANCH  14  15
ENDBRANCH  13  14
ENDBRANCH  12  13
ENDBRANCH   1  12
TORSDOF 16
ENDMDL
MODEL 8
REMARK VINA RESULT:    -3.549      2.000      3.923
REMARK INTER + INTRA:          -9.353
REMARK INTER:                  -6.571
REMARK INTRA:                  -2.782
REMARK UNBOUND:                -2.484
REMARK SMILES CCCCCCCCCCCCCCCCCC(=O)[O-]
REMARK SMILES IDX 10 1 11 2 12 3 13 4 14 5 15 6 16 7 17 8 18 9 19 10 20 11
REMARK SMILES IDX 9 12 8 13 7 14 6 15 5 16 4 17 3 18 2 19 1 20
REMARK H PARENT
REMARK Flexibility Score: inf
ROOT
ATOM      1  C   UNL     1     127.253 145.839 122.417  1.00  0.00     0.000 C 
ENDROOT
BRANCH   1   2
ATOM      2  C   UNL     1     128.374 146.687 123.046  1.00  0.00     0.000 C 
BRANCH   2   3
ATOM      3  C   UNL     1     129.297 145.858 123.953  1.00  0.00     0.000 C 
BRANCH   3   4
ATOM      4  C   UNL     1     130.779 146.237 123.791  1.00  0.00     0.000 C 
BRANCH   4   5
ATOM      5  C   UNL     1     131.226 146.290 122.319  1.00  0.00     0.000 C 
BRANCH   5   6
ATOM      6  C   UNL     1     131.661 144.939 121.724  1.00  0.00     0.000 C 
BRANCH   6   7
ATOM      7  C   UNL     1     131.930 145.008 120.211  1.00  0.00     0.006 C 
BRANCH   7   8
ATOM      8  C   UNL     1     132.488 146.373 119.784  1.00  0.00     0.053 C 
BRANCH   8   9
ATOM      9  C   UNL     1     133.985 146.390 119.793  1.00  0.00     0.041 C 
ATOM     10  O   UNL     1     134.628 146.115 118.747  1.00  0.00    -0.550 OA
ATOM     11  O   UNL     1     134.670 146.739 120.950  1.00  0.00    -0.550 OA
ENDBRANCH   8   9
ENDBRANCH   7   8
ENDBRANCH   6   7
ENDBRANCH   5   6
ENDBRANCH   4   5
ENDBRANCH   3   4
ENDBRANCH   2   3
ENDBRANCH   1   2
BRANCH   1  12
ATOM     12  C   UNL     1     127.049 146.145 120.926  1.00  0.00     0.000 C 
BRANCH  12  13
ATOM     13  C   UNL     1     128.362 146.109 120.130  1.00  0.00    -0.000 C 
BRANCH  13  14
ATOM     14  C   UNL     1     128.431 144.863 119.236  1.00  0.00    -0.000 C 
BRANCH  14  15
ATOM     15  C   UNL     1     127.290 143.865 119.507  1.00  0.00    -0.000 C 
BRANCH  15  16
ATOM     16  C   UNL     1     127.698 142.610 120.300  1.00  0.00    -0.000 C 
BRANCH  16  17
ATOM     17  C   UNL     1     129.220 142.419 120.379  1.00  0.00    -0.000 C 
BRANCH  17  18
ATOM     18  C   UNL     1     129.619 141.736 121.696  1.00  0.00    -0.000 C 
BRANCH  18  19
ATOM     19  C   UNL     1     129.182 142.536 122.933  1.00  0.00    -0.003 C 
ATOM     20  C   UNL     1     128.312 141.719 123.888  1.00  0.00     0.004 C 
ENDBRANCH  18  19
ENDBRANCH  17  18
ENDBRANCH  16  17
ENDBRANCH  15  16
ENDBRANCH  14  15
ENDBRANCH  13  14
ENDBRANCH  12  13
ENDBRANCH   1  12
TORSDOF 16
ENDMDL
MODEL 9
REMARK VINA RESULT:    -3.483      3.942      6.720
REMARK INTER + INTRA:          -9.226
REMARK INTER:                  -6.500
REMARK INTRA:                  -2.726
REMARK UNBOUND:                -2.484
REMARK SMILES CCCCCCCCCCCCCCCCCC(=O)[O-]
REMARK SMILES IDX 10 1 11 2 12 3 13 4 14 5 15 6 16 7 17 8 18 9 19 10 20 11
REMARK SMILES IDX 9 12 8 13 7 14 6 15 5 16 4 17 3 18 2 19 1 20
REMARK H PARENT
REMARK Flexibility Score: inf
ROOT
ATOM      1  C   UNL     1     127.615 143.991 119.411  1.00  0.00     0.000 C 
ENDROOT
BRANCH   1   2
ATOM      2  C   UNL     1     129.121 143.709 119.250  1.00  0.00     0.000 C 
BRANCH   2   3
ATOM      3  C   UNL     1     129.583 142.502 120.081  1.00  0.00     0.000 C 
BRANCH   3   4
ATOM      4  C   UNL     1     128.588 142.138 121.197  1.00  0.00     0.000 C 
BRANCH   4   5
ATOM      5  C   UNL     1     129.201 142.248 122.605  1.00  0.00     0.000 C 
BRANCH   5   6
ATOM      6  C   UNL     1     128.191 142.536 123.730  1.00  0.00     0.000 C 
BRANCH   6   7
ATOM      7  C   UNL     1     128.865 142.968 125.044  1.00  0.00     0.006 C 
BRANCH   7   8
ATOM      8  C   UNL     1     128.129 144.136 125.715  1.00  0.00     0.053 C 
BRANCH   8   9
ATOM      9  C   UNL     1     129.016 144.881 126.665  1.00  0.00     0.041 C 
ATOM     10  O   UNL     1     129.572 145.952 126.306  1.00  0.00    -0.550 OA
ATOM     11  O   UNL     1     129.204 144.407 127.957  1.00  0.00    -0.550 OA
ENDBRANCH   8   9
ENDBRANCH   7   8
ENDBRANCH   6   7
ENDBRANCH   5   6
ENDBRANCH   4   5
ENDBRANCH   3   4
ENDBRANCH   2   3
ENDBRANCH   1   2
BRANCH   1  12
ATOM     12  C   UNL     1     127.240 145.427 119.015  1.00  0.00     0.000 C 
BRANCH  12  13
ATOM     13  C   UNL     1     127.195 146.380 120.219  1.00  0.00    -0.000 C 
BRANCH  13  14
ATOM     14  C   UNL     1     127.296 145.603 121.539  1.00  0.00    -0.000 C 
BRANCH  14  15
ATOM     15  C   UNL     1     128.149 146.325 122.598  1.00  0.00    -0.000 C 
BRANCH  15  16
ATOM     16  C   UNL     1     129.599 145.822 122.718  1.00  0.00    -0.000 C 
BRANCH  16  17
ATOM     17  C   UNL     1     130.488 146.273 121.549  1.00  0.00    -0.000 C 
BRANCH  17  18
ATOM     18  C   UNL     1     131.701 145.343 121.392  1.00  0.00    -0.000 C 
BRANCH  18  19
ATOM     19  C   UNL     1     132.283 145.367 119.970  1.00  0.00    -0.003 C 
ATOM     20  C   UNL     1     133.588 146.160 119.880  1.00  0.00     0.004 C 
ENDBRANCH  18  19
ENDBRANCH  17  18
ENDBRANCH  16  17
ENDBRANCH  15  16
ENDBRANCH  14  15
ENDBRANCH  13  14
ENDBRANCH  12  13
ENDBRANCH   1  12
TORSDOF 16
ENDMDL
