MODEL 1
REMARK VINA RESULT:    -1.287      0.000      0.000
REMARK INTER + INTRA:          -2.542
REMARK INTER:                  -2.039
REMARK INTRA:                  -0.503
REMARK UNBOUND:                -0.503
REMARK SMILES CCCCCCCCCCCC(=O)[O-]
REMARK SMILES IDX 7 1 8 2 9 3 10 4 11 5 12 6 13 7 14 8 6 9 5 10 4 11 3 12 2 13
REMARK SMILES IDX 1 14
REMARK H PARENT
REMARK Flexibility Score: inf
ROOT
ATOM      1  C   UNL     1     -10.469  -9.420  -3.083  1.00  0.00     0.000 C 
ENDROOT
BRANCH   1   2
ATOM      2  C   UNL     1     -10.729  -8.496  -1.883  1.00  0.00     0.000 C 
BRANCH   2   3
ATOM      3  C   UNL     1      -9.791  -8.834  -0.718  1.00  0.00     0.000 C 
BRANCH   3   4
ATOM      4  C   UNL     1      -8.586  -7.881  -0.687  1.00  0.00     0.006 C 
BRANCH   4   5
ATOM      5  C   UNL     1      -7.251  -8.635  -0.624  1.00  0.00     0.053 C 
BRANCH   5   6
ATOM      6  C   UNL     1      -6.641  -8.796  -1.983  1.00  0.00     0.041 C 
ATOM      7  O   UNL     1      -7.232  -8.348  -3.002  1.00  0.00    -0.550 OA
ATOM      8  O   UNL     1      -5.405  -9.413  -2.121  1.00  0.00    -0.550 OA
ENDBRANCH   5   6
ENDBRANCH   4   5
ENDBRANCH   3   4
ENDBRANCH   2   3
ENDBRANCH   1   2
BRANCH   1   9
ATOM      9  C   UNL     1     -10.974 -10.855  -2.853  1.00  0.00     0.000 C 
BRANCH   9  10
ATOM     10  C   UNL     1     -11.089 -11.719  -4.124  1.00  0.00    -0.000 C 
BRANCH  10  11
ATOM     11  C   UNL     1     -10.707 -11.006  -5.434  1.00  0.00    -0.000 C 
BRANCH  11  12
ATOM     12  C   UNL     1     -10.612 -11.970  -6.629  1.00  0.00    -0.000 C 
BRANCH  12  13
ATOM     13  C   UNL     1     -11.125 -11.341  -7.934  1.00  0.00    -0.003 C 
ATOM     14  C   UNL     1     -10.102 -11.421  -9.068  1.00  0.00     0.004 C 
ENDBRANCH  12  13
ENDBRANCH  11  12
ENDBRANCH  10  11
ENDBRANCH   9  10
ENDBRANCH   1   9
TORSDOF 10
ENDMDL
MODEL 2
REMARK VINA RESULT:    -1.012      1.291      2.654
REMARK INTER + INTRA:          -2.106
REMARK INTER:                  -1.668
REMARK INTRA:                  -0.438
REMARK UNBOUND:                -0.503
REMARK SMILES CCCCCCCCCCCC(=O)[O-]
REMARK SMILES IDX 7 1 8 2 9 3 10 4 11 5 12 6 13 7 14 8 6 9 5 10 4 11 3 12 2 13
REMARK SMILES IDX 1 14
REMARK H PARENT
REMARK Flexibility Score: inf
ROOT
ATOM      1  C   UNL     1     -10.748 -12.120  -4.167  1.00  0.00     0.000 C 
ENDROOT
BRANCH   1   2
ATOM      2  C   UNL     1     -11.020 -11.286  -2.906  1.00  0.00     0.000 C 
BRANCH   2   3
ATOM      3  C   UNL     1     -11.125  -9.795  -3.246  1.00  0.00     0.000 C 
BRANCH   3   4
ATOM      4  C   UNL     1     -10.837  -8.928  -2.010  1.00  0.00     0.006 C 
BRANCH   4   5
ATOM      5  C   UNL     1      -9.342  -8.880  -1.670  1.00  0.00     0.053 C 
BRANCH   5   6
ATOM      6  C   UNL     1      -8.629  -7.822  -2.455  1.00  0.00     0.041 C 
ATOM      7  O   UNL     1      -9.130  -6.673  -2.573  1.00  0.00    -0.550 OA
ATOM      8  O   UNL     1      -7.394  -8.096  -3.029  1.00  0.00    -0.550 OA
ENDBRANCH   5   6
ENDBRANCH   4   5
ENDBRANCH   3   4
ENDBRANCH   2   3
ENDBRANCH   1   2
BRANCH   1   9
ATOM      9  C   UNL     1     -10.620 -11.259  -5.437  1.00  0.00     0.000 C 
BRANCH   9  10
ATOM     10  C   UNL     1     -10.559 -12.050  -6.759  1.00  0.00    -0.000 C 
BRANCH  10  11
ATOM     11  C   UNL     1     -11.115 -11.308  -7.988  1.00  0.00    -0.000 C 
BRANCH  11  12
ATOM     12  C   UNL     1     -10.868 -12.068  -9.303  1.00  0.00    -0.000 C 
BRANCH  12  13
ATOM     13  C   UNL     1     -10.211 -11.187 -10.376  1.00  0.00    -0.003 C 
ATOM     14  C   UNL     1      -9.011 -11.863 -11.040  1.00  0.00     0.004 C 
ENDBRANCH  12  13
ENDBRANCH  11  12
ENDBRANCH  10  11
ENDBRANCH   9  10
ENDBRANCH   1   9
TORSDOF 10
ENDMDL
MODEL 3
REMARK VINA RESULT:    -0.516      1.311      1.966
REMARK INTER + INTRA:          -1.320
REMARK INTER:                  -1.354
REMARK INTRA:                   0.034
REMARK UNBOUND:                -0.503
REMARK SMILES CCCCCCCCCCCC(=O)[O-]
REMARK SMILES IDX 7 1 8 2 9 3 10 4 11 5 12 6 13 7 14 8 6 9 5 10 4 11 3 12 2 13
REMARK SMILES IDX 1 14
REMARK H PARENT
REMARK Flexibility Score: inf
ROOT
ATOM      1  C   UNL     1     -10.170  -8.247  -2.042  1.00  0.00     0.000 C 
ENDROOT
BRANCH   1   2
ATOM      2  C   UNL     1      -9.541  -8.128  -0.646  1.00  0.00     0.000 C 
BRANCH   2   3
ATOM      3  C   UNL     1      -8.016  -8.271  -0.717  1.00  0.00     0.000 C 
BRANCH   3   4
ATOM      4  C   UNL     1      -7.499  -7.957  -2.129  1.00  0.00     0.006 C 
BRANCH   4   5
ATOM      5  C   UNL     1      -6.398  -8.929  -2.573  1.00  0.00     0.053 C 
BRANCH   5   6
ATOM      6  C   UNL     1      -5.484  -9.286  -1.441  1.00  0.00     0.041 C 
ATOM      7  O   UNL     1      -4.857 -10.379  -1.451  1.00  0.00    -0.550 OA
ATOM      8  O   UNL     1      -5.302  -8.398  -0.389  1.00  0.00    -0.550 OA
ENDBRANCH   5   6
ENDBRANCH   4   5
ENDBRANCH   3   4
ENDBRANCH   2   3
ENDBRANCH   1   2
BRANCH   1   9
ATOM      9  C   UNL     1     -10.974  -9.545  -2.228  1.00  0.00     0.000 C 
BRANCH   9  10
ATOM     10  C   UNL     1     -11.010 -10.093  -3.669  1.00  0.00    -0.000 C 
BRANCH  10  11
ATOM     11  C   UNL     1     -11.099 -11.625  -3.781  1.00  0.00    -0.000 C 
BRANCH  11  12
ATOM     12  C   UNL     1     -11.124 -12.114  -5.240  1.00  0.00    -0.000 C 
BRANCH  12  13
ATOM     13  C   UNL     1      -9.807 -11.830  -5.978  1.00  0.00    -0.003 C 
ATOM     14  C   UNL     1     -10.028 -11.304  -7.397  1.00  0.00     0.004 C 
ENDBRANCH  12  13
ENDBRANCH  11  12
ENDBRANCH  10  11
ENDBRANCH   9  10
ENDBRANCH   1   9
TORSDOF 10
ENDMDL
MODEL 4
REMARK VINA RESULT:     0.601      9.095     12.448
REMARK INTER + INTRA:           0.449
REMARK INTER:                   0.771
REMARK INTRA:                  -0.322
REMARK UNBOUND:                -0.503
REMARK SMILES CCCCCCCCCCCC(=O)[O-]
REMARK SMILES IDX 7 1 8 2 9 3 10 4 11 5 12 6 13 7 14 8 6 9 5 10 4 11 3 12 2 13
REMARK SMILES IDX 1 14
REMARK H PARENT
REMARK Flexibility Score: inf
ROOT
ATOM      1  C   UNL     1      -5.275  -9.096 -13.138  1.00  0.00     0.000 C 
ENDROOT
BRANCH   1   2
ATOM      2  C   UNL     1      -5.013 -10.477 -13.758  1.00  0.00     0.000 C 
BRANCH   2   3
ATOM      3  C   UNL     1      -6.230 -11.395 -13.589  1.00  0.00     0.000 C 
BRANCH   3   4
ATOM      4  C   UNL     1      -7.524 -10.576 -13.472  1.00  0.00     0.006 C 
BRANCH   4   5
ATOM      5  C   UNL     1      -8.728 -11.446 -13.086  1.00  0.00     0.053 C 
BRANCH   5   6
ATOM      6  C   UNL     1      -9.601 -10.766 -12.075  1.00  0.00     0.041 C 
ATOM      7  O   UNL     1      -9.723 -11.245 -10.917  1.00  0.00    -0.550 OA
ATOM      8  O   UNL     1     -10.255  -9.586 -12.404  1.00  0.00    -0.550 OA
ENDBRANCH   5   6
ENDBRANCH   4   5
ENDBRANCH   3   4
ENDBRANCH   2   3
ENDBRANCH   1   2
BRANCH   1   9
ATOM      9  C   UNL     1      -4.985  -7.939 -14.109  1.00  0.00     0.000 C 
BRANCH   9  10
ATOM     10  C   UNL     1      -3.531  -7.426 -14.101  1.00  0.00    -0.000 C 
BRANCH  10  11
ATOM     11  C   UNL     1      -3.376  -5.910 -13.889  1.00  0.00    -0.000 C 
BRANCH  11  12
ATOM     12  C   UNL     1      -1.975  -5.520 -13.385  1.00  0.00    -0.000 C 
BRANCH  12  13
ATOM     13  C   UNL     1      -1.522  -4.149 -13.909  1.00  0.00    -0.003 C 
ATOM     14  C   UNL     1      -0.010  -4.070 -14.121  1.00  0.00     0.004 C 
ENDBRANCH  12  13
ENDBRANCH  11  12
ENDBRANCH  10  11
ENDBRANCH   9  10
ENDBRANCH   1   9
TORSDOF 10
ENDMDL
MODEL 5
REMARK VINA RESULT:     0.699      2.656      6.463
REMARK INTER + INTRA:           0.604
REMARK INTER:                   1.031
REMARK INTRA:                  -0.427
REMARK UNBOUND:                -0.503
REMARK SMILES CCCCCCCCCCCC(=O)[O-]
REMARK SMILES IDX 7 1 8 2 9 3 10 4 11 5 12 6 13 7 14 8 6 9 5 10 4 11 3 12 2 13
REMARK SMILES IDX 1 14
REMARK H PARENT
REMARK Flexibility Score: inf
ROOT
ATOM      1  C   UNL     1     -10.352  -9.494  -2.520  1.00  0.00     0.000 C 
ENDROOT
BRANCH   1   2
ATOM      2  C   UNL     1     -10.921 -10.753  -3.192  1.00  0.00     0.000 C 
BRANCH   2   3
ATOM      3  C   UNL     1     -11.125 -10.528  -4.695  1.00  0.00     0.000 C 
BRANCH   3   4
ATOM      4  C   UNL     1     -10.591 -11.718  -5.507  1.00  0.00     0.006 C 
BRANCH   4   5
ATOM      5  C   UNL     1     -11.121 -11.724  -6.947  1.00  0.00     0.053 C 
BRANCH   5   6
ATOM      6  C   UNL     1     -10.018 -11.540  -7.944  1.00  0.00     0.041 C 
ATOM      7  O   UNL     1     -10.286 -11.284  -9.147  1.00  0.00    -0.550 OA
ATOM      8  O   UNL     1      -8.693 -11.620  -7.536  1.00  0.00    -0.550 OA
ENDBRANCH   5   6
ENDBRANCH   4   5
ENDBRANCH   3   4
ENDBRANCH   2   3
ENDBRANCH   1   2
BRANCH   1   9
ATOM      9  C   UNL     1     -10.732  -9.386  -1.033  1.00  0.00     0.000 C 
BRANCH   9  10
ATOM     10  C   UNL     1      -9.944  -8.330  -0.232  1.00  0.00    -0.000 C 
BRANCH  10  11
ATOM     11  C   UNL     1      -8.700  -7.768  -0.942  1.00  0.00    -0.000 C 
BRANCH  11  12
ATOM     12  C   UNL     1      -7.386  -8.340  -0.383  1.00  0.00    -0.000 C 
BRANCH  12  13
ATOM     13  C   UNL     1      -6.389  -8.714  -1.490  1.00  0.00    -0.003 C 
ATOM     14  C   UNL     1      -5.177  -9.478  -0.958  1.00  0.00     0.004 C 
ENDBRANCH  12  13
ENDBRANCH  11  12
ENDBRANCH  10  11
ENDBRANCH   9  10
ENDBRANCH   1   9
TORSDOF 10
ENDMDL
MODEL 6
REMARK VINA RESULT:     1.241      8.672     11.403
REMARK INTER + INTRA:           1.464
REMARK INTER:                   1.658
REMARK INTRA:                  -0.194
REMARK UNBOUND:                -0.503
REMARK SMILES CCCCCCCCCCCC(=O)[O-]
REMARK SMILES IDX 7 1 8 2 9 3 10 4 11 5 12 6 13 7 14 8 6 9 5 10 4 11 3 12 2 13
REMARK SMILES IDX 1 14
REMARK H PARENT
REMARK Flexibility Score: inf
ROOT
ATOM      1  C   UNL     1      -4.395  -9.070 -13.256  1.00  0.00     0.000 C 
ENDROOT
BRANCH   1   2
ATOM      2  C   UNL     1      -5.464  -8.153 -13.868  1.00  0.00     0.000 C 
BRANCH   2   3
ATOM      3  C   UNL     1      -4.902  -6.749 -14.125  1.00  0.00     0.000 C 
BRANCH   3   4
ATOM      4  C   UNL     1      -3.557  -6.556 -13.408  1.00  0.00     0.006 C 
BRANCH   4   5
ATOM      5  C   UNL     1      -2.783  -5.344 -13.944  1.00  0.00     0.053 C 
BRANCH   5   6
ATOM      6  C   UNL     1      -1.397  -5.278 -13.378  1.00  0.00     0.041 C 
ATOM      7  O   UNL     1      -0.427  -4.946 -14.110  1.00  0.00    -0.550 OA
ATOM      8  O   UNL     1      -1.181  -5.553 -12.034  1.00  0.00    -0.550 OA
ENDBRANCH   5   6
ENDBRANCH   4   5
ENDBRANCH   3   4
ENDBRANCH   2   3
ENDBRANCH   1   2
BRANCH   1   9
ATOM      9  C   UNL     1      -4.470 -10.513 -13.786  1.00  0.00     0.000 C 
BRANCH   9  10
ATOM     10  C   UNL     1      -5.565 -11.389 -13.145  1.00  0.00    -0.000 C 
BRANCH  10  11
ATOM     11  C   UNL     1      -7.009 -10.986 -13.494  1.00  0.00    -0.000 C 
BRANCH  11  12
ATOM     12  C   UNL     1      -8.035 -11.509 -12.473  1.00  0.00    -0.000 C 
BRANCH  12  13
ATOM     13  C   UNL     1      -9.246 -10.575 -12.327  1.00  0.00    -0.003 C 
ATOM     14  C   UNL     1     -10.072 -10.874 -11.075  1.00  0.00     0.004 C 
ENDBRANCH  12  13
ENDBRANCH  11  12
ENDBRANCH  10  11
ENDBRANCH   9  10
ENDBRANCH   1   9
TORSDOF 10
ENDMDL
MODEL 7
REMARK VINA RESULT:     1.382     16.404     18.197
REMARK INTER + INTRA:           1.686
REMARK INTER:                   1.220
REMARK INTRA:                   0.467
REMARK UNBOUND:                -0.503
REMARK SMILES CCCCCCCCCCCC(=O)[O-]
REMARK SMILES IDX 7 1 8 2 9 3 10 4 11 5 12 6 13 7 14 8 6 9 5 10 4 11 3 12 2 13
REMARK SMILES IDX 1 14
REMARK H PARENT
REMARK Flexibility Score: inf
ROOT
ATOM      1  C   UNL     1       5.089  -2.353 -11.781  1.00  0.00     0.000 C 
ENDROOT
BRANCH   1   2
ATOM      2  C   UNL     1       6.401  -3.116 -12.015  1.00  0.00     0.000 C 
BRANCH   2   3
ATOM      3  C   UNL     1       6.875  -2.963 -13.465  1.00  0.00     0.000 C 
BRANCH   3   4
ATOM      4  C   UNL     1       7.243  -4.325 -14.070  1.00  0.00     0.006 C 
BRANCH   4   5
ATOM      5  C   UNL     1       6.734  -5.496 -13.218  1.00  0.00     0.053 C 
BRANCH   5   6
ATOM      6  C   UNL     1       5.558  -6.173 -13.853  1.00  0.00     0.041 C 
ATOM      7  O   UNL     1       5.600  -7.404 -14.117  1.00  0.00    -0.550 OA
ATOM      8  O   UNL     1       4.404  -5.450 -14.124  1.00  0.00    -0.550 OA
ENDBRANCH   5   6
ENDBRANCH   4   5
ENDBRANCH   3   4
ENDBRANCH   2   3
ENDBRANCH   1   2
BRANCH   1   9
ATOM      9  C   UNL     1       4.361  -2.001 -13.090  1.00  0.00     0.000 C 
BRANCH   9  10
ATOM     10  C   UNL     1       3.569  -3.158 -13.730  1.00  0.00    -0.000 C 
BRANCH  10  11
ATOM     11  C   UNL     1       2.107  -2.830 -14.085  1.00  0.00    -0.000 C 
BRANCH  11  12
ATOM     12  C   UNL     1       1.210  -4.079 -14.122  1.00  0.00    -0.000 C 
BRANCH  12  13
ATOM     13  C   UNL     1      -0.275  -3.742 -13.915  1.00  0.00    -0.003 C 
ATOM     14  C   UNL     1      -1.181  -4.966 -14.048  1.00  0.00     0.004 C 
ENDBRANCH  12  13
ENDBRANCH  11  12
ENDBRANCH  10  11
ENDBRANCH   9  10
ENDBRANCH   1   9
TORSDOF 10
ENDMDL
