MODEL 1
REMARK VINA RESULT:    -3.727      0.000      0.000
REMARK INTER + INTRA:         -12.526
REMARK INTER:                  -8.519
REMARK INTRA:                  -4.007
REMARK UNBOUND:                -4.007
REMARK SMILES CCCCCCCCCCCCCCCCCCCCCCCC(=O)[O-]
REMARK SMILES IDX 13 1 14 2 15 3 16 4 17 5 18 6 19 7 20 8 21 9 22 10 23 11
REMARK SMILES IDX 24 12 25 13 26 14 12 15 11 16 10 17 9 18 8 19 7 20 6 21 5 22
REMARK SMILES IDX 4 23 3 24 2 25 1 26
REMARK H PARENT
REMARK Flexibility Score: inf
ROOT
ATOM      1  C   UNL     1     -24.686   5.089  24.425  1.00  0.00     0.000 C 
ENDROOT
BRANCH   1   2
ATOM      2  C   UNL     1     -24.112   4.520  25.734  1.00  0.00     0.000 C 
BRANCH   2   3
ATOM      3  C   UNL     1     -23.907   3.000  25.687  1.00  0.00     0.000 C 
BRANCH   3   4
ATOM      4  C   UNL     1     -25.100   2.304  25.020  1.00  0.00     0.000 C 
BRANCH   4   5
ATOM      5  C   UNL     1     -24.634   1.368  23.895  1.00  0.00     0.000 C 
BRANCH   5   6
ATOM      6  C   UNL     1     -24.273  -0.043  24.395  1.00  0.00     0.000 C 
BRANCH   6   7
ATOM      7  C   UNL     1     -23.040  -0.677  23.726  1.00  0.00     0.000 C 
BRANCH   7   8
ATOM      8  C   UNL     1     -22.935  -0.348  22.227  1.00  0.00     0.000 C 
BRANCH   8   9
ATOM      9  C   UNL     1     -22.299  -1.490  21.416  1.00  0.00     0.000 C 
BRANCH   9  10
ATOM     10  C   UNL     1     -21.163  -1.001  20.500  1.00  0.00     0.006 C 
BRANCH  10  11
ATOM     11  C   UNL     1     -20.050  -0.293  21.283  1.00  0.00     0.053 C 
BRANCH  11  12
ATOM     12  C   UNL     1     -19.010  -1.257  21.767  1.00  0.00     0.041 C 
ATOM     13  O   UNL     1     -17.907  -1.356  21.165  1.00  0.00    -0.550 OA
ATOM     14  O   UNL     1     -19.271  -2.072  22.861  1.00  0.00    -0.550 OA
ENDBRANCH  11  12
ENDBRANCH  10  11
ENDBRANCH   9  10
ENDBRANCH   8   9
ENDBRANCH   7   8
ENDBRANCH   6   7
ENDBRANCH   5   6
ENDBRANCH   4   5
ENDBRANCH   3   4
ENDBRANCH   2   3
ENDBRANCH   1   2
BRANCH   1  15
ATOM     15  C   UNL     1     -23.607   5.504  23.403  1.00  0.00     0.000 C 
BRANCH  15  16
ATOM     16  C   UNL     1     -24.046   6.703  22.544  1.00  0.00     0.000 C 
BRANCH  16  17
ATOM     17  C   UNL     1     -22.879   7.306  21.732  1.00  0.00     0.000 C 
BRANCH  17  18
ATOM     18  C   UNL     1     -21.491   7.021  22.338  1.00  0.00    -0.000 C 
BRANCH  18  19
ATOM     19  C   UNL     1     -20.437   6.518  21.333  1.00  0.00    -0.000 C 
BRANCH  19  20
ATOM     20  C   UNL     1     -20.892   5.340  20.448  1.00  0.00    -0.000 C 
BRANCH  20  21
ATOM     21  C   UNL     1     -20.544   3.939  20.991  1.00  0.00    -0.000 C 
BRANCH  21  22
ATOM     22  C   UNL     1     -21.688   3.224  21.731  1.00  0.00    -0.000 C 
BRANCH  22  23
ATOM     23  C   UNL     1     -21.257   2.655  23.091  1.00  0.00    -0.000 C 
BRANCH  23  24
ATOM     24  C   UNL     1     -20.073   3.445  23.666  1.00  0.00    -0.000 C 
BRANCH  24  25
ATOM     25  C   UNL     1     -20.272   3.815  25.144  1.00  0.00    -0.003 C 
ATOM     26  C   UNL     1     -20.494   5.313  25.354  1.00  0.00     0.004 C 
ENDBRANCH  24  25
ENDBRANCH  23  24
ENDBRANCH  22  23
ENDBRANCH  21  22
ENDBRANCH  20  21
ENDBRANCH  19  20
ENDBRANCH  18  19
ENDBRANCH  17  18
ENDBRANCH  16  17
ENDBRANCH  15  16
ENDBRANCH   1  15
TORSDOF 22
ENDMDL
MODEL 2
REMARK VINA RESULT:    -3.697      1.925      4.586
REMARK INTER + INTRA:         -12.459
REMARK INTER:                  -8.496
REMARK INTRA:                  -3.963
REMARK UNBOUND:                -4.007
REMARK SMILES CCCCCCCCCCCCCCCCCCCCCCCC(=O)[O-]
REMARK SMILES IDX 13 1 14 2 15 3 16 4 17 5 18 6 19 7 20 8 21 9 22 10 23 11
REMARK SMILES IDX 24 12 25 13 26 14 12 15 11 16 10 17 9 18 8 19 7 20 6 21 5 22
REMARK SMILES IDX 4 23 3 24 2 25 1 26
REMARK H PARENT
REMARK Flexibility Score: inf
ROOT
ATOM      1  C   UNL     1     -22.187   7.703  20.707  1.00  0.00     0.000 C 
ENDROOT
BRANCH   1   2
ATOM      2  C   UNL     1     -21.034   6.789  20.258  1.00  0.00     0.000 C 
BRANCH   2   3
ATOM      3  C   UNL     1     -21.516   5.427  19.742  1.00  0.00     0.000 C 
BRANCH   3   4
ATOM      4  C   UNL     1     -21.063   4.293  20.671  1.00  0.00     0.000 C 
BRANCH   4   5
ATOM      5  C   UNL     1     -20.090   4.813  21.740  1.00  0.00     0.000 C 
BRANCH   5   6
ATOM      6  C   UNL     1     -18.843   3.924  21.903  1.00  0.00     0.000 C 
BRANCH   6   7
ATOM      7  C   UNL     1     -18.377   3.213  20.620  1.00  0.00     0.000 C 
BRANCH   7   8
ATOM      8  C   UNL     1     -18.258   1.688  20.789  1.00  0.00     0.000 C 
BRANCH   8   9
ATOM      9  C   UNL     1     -19.185   1.143  21.889  1.00  0.00     0.000 C 
BRANCH   9  10
ATOM     10  C   UNL     1     -20.552   0.696  21.342  1.00  0.00     0.006 C 
BRANCH  10  11
ATOM     11  C   UNL     1     -20.548  -0.774  20.903  1.00  0.00     0.053 C 
BRANCH  11  12
ATOM     12  C   UNL     1     -21.936  -1.324  20.786  1.00  0.00     0.041 C 
ATOM     13  O   UNL     1     -22.385  -1.684  19.665  1.00  0.00    -0.550 OA
ATOM     14  O   UNL     1     -22.749  -1.406  21.910  1.00  0.00    -0.550 OA
ENDBRANCH  11  12
ENDBRANCH  10  11
ENDBRANCH   9  10
ENDBRANCH   8   9
ENDBRANCH   7   8
ENDBRANCH   6   7
ENDBRANCH   5   6
ENDBRANCH   4   5
ENDBRANCH   3   4
ENDBRANCH   2   3
ENDBRANCH   1   2
BRANCH   1  15
ATOM     15  C   UNL     1     -22.492   7.622  22.218  1.00  0.00     0.000 C 
BRANCH  15  16
ATOM     16  C   UNL     1     -23.678   6.692  22.527  1.00  0.00     0.000 C 
BRANCH  16  17
ATOM     17  C   UNL     1     -23.338   5.640  23.605  1.00  0.00     0.000 C 
BRANCH  17  18
ATOM     18  C   UNL     1     -24.528   4.739  23.986  1.00  0.00    -0.000 C 
BRANCH  18  19
ATOM     19  C   UNL     1     -24.177   3.251  24.176  1.00  0.00    -0.000 C 
BRANCH  19  20
ATOM     20  C   UNL     1     -22.913   2.780  23.428  1.00  0.00    -0.000 C 
BRANCH  20  21
ATOM     21  C   UNL     1     -21.686   2.502  24.321  1.00  0.00    -0.000 C 
BRANCH  21  22
ATOM     22  C   UNL     1     -22.012   2.036  25.750  1.00  0.00    -0.000 C 
BRANCH  22  23
ATOM     23  C   UNL     1     -21.336   2.895  26.829  1.00  0.00    -0.000 C 
BRANCH  23  24
ATOM     24  C   UNL     1     -21.094   4.324  26.320  1.00  0.00    -0.000 C 
BRANCH  24  25
ATOM     25  C   UNL     1     -21.750   5.388  27.213  1.00  0.00    -0.003 C 
ATOM     26  C   UNL     1     -23.235   5.123  27.457  1.00  0.00     0.004 C 
ENDBRANCH  24  25
ENDBRANCH  23  24
ENDBRANCH  22  23
ENDBRANCH  21  22
ENDBRANCH  20  21
ENDBRANCH  19  20
ENDBRANCH  18  19
ENDBRANCH  17  18
ENDBRANCH  16  17
ENDBRANCH  15  16
ENDBRANCH   1  15
TORSDOF 22
ENDMDL
MODEL 3
REMARK VINA RESULT:    -3.693      4.042      6.694
REMARK INTER + INTRA:         -12.449
REMARK INTER:                  -8.438
REMARK INTRA:                  -4.012
REMARK UNBOUND:                -4.007
REMARK SMILES CCCCCCCCCCCCCCCCCCCCCCCC(=O)[O-]
REMARK SMILES IDX 13 1 14 2 15 3 16 4 17 5 18 6 19 7 20 8 21 9 22 10 23 11
REMARK SMILES IDX 24 12 25 13 26 14 12 15 11 16 10 17 9 18 8 19 7 20 6 21 5 22
REMARK SMILES IDX 4 23 3 24 2 25 1 26
REMARK H PARENT
REMARK Flexibility Score: inf
ROOT
ATOM      1  C   UNL     1     -21.794   2.632  21.601  1.00  0.00     0.000 C 
ENDROOT
BRANCH   1   2
ATOM      2  C   UNL     1     -22.224   1.953  22.913  1.00  0.00     0.000 C 
BRANCH   2   3
ATOM      3  C   UNL     1     -23.559   1.208  22.793  1.00  0.00     0.000 C 
BRANCH   3   4
ATOM      4  C   UNL     1     -24.553   1.682  23.860  1.00  0.00     0.000 C 
BRANCH   4   5
ATOM      5  C   UNL     1     -23.915   2.735  24.778  1.00  0.00     0.000 C 
BRANCH   5   6
ATOM      6  C   UNL     1     -24.893   3.854  25.182  1.00  0.00     0.000 C 
BRANCH   6   7
ATOM      7  C   UNL     1     -24.407   4.764  26.325  1.00  0.00     0.000 C 
BRANCH   7   8
ATOM      8  C   UNL     1     -22.968   4.452  26.769  1.00  0.00     0.000 C 
BRANCH   8   9
ATOM      9  C   UNL     1     -22.487   5.376  27.902  1.00  0.00     0.000 C 
BRANCH   9  10
ATOM     10  C   UNL     1     -23.618   6.253  28.468  1.00  0.00     0.006 C 
BRANCH  10  11
ATOM     11  C   UNL     1     -23.258   6.851  29.834  1.00  0.00     0.053 C 
BRANCH  11  12
ATOM     12  C   UNL     1     -23.900   6.099  30.958  1.00  0.00     0.041 C 
ATOM     13  O   UNL     1     -24.836   6.622  31.620  1.00  0.00    -0.550 OA
ATOM     14  O   UNL     1     -23.443   4.832  31.299  1.00  0.00    -0.550 OA
ENDBRANCH  11  12
ENDBRANCH  10  11
ENDBRANCH   9  10
ENDBRANCH   8   9
ENDBRANCH   7   8
ENDBRANCH   6   7
ENDBRANCH   5   6
ENDBRANCH   4   5
ENDBRANCH   3   4
ENDBRANCH   2   3
ENDBRANCH   1   2
BRANCH   1  15
ATOM     15  C   UNL     1     -20.266   2.669  21.392  1.00  0.00     0.000 C 
BRANCH  15  16
ATOM     16  C   UNL     1     -19.810   3.927  20.632  1.00  0.00     0.000 C 
BRANCH  16  17
ATOM     17  C   UNL     1     -20.995   4.814  20.194  1.00  0.00     0.000 C 
BRANCH  17  18
ATOM     18  C   UNL     1     -20.606   6.282  19.935  1.00  0.00    -0.000 C 
BRANCH  18  19
ATOM     19  C   UNL     1     -21.783   7.276  19.959  1.00  0.00    -0.000 C 
BRANCH  19  20
ATOM     20  C   UNL     1     -22.212   7.743  21.366  1.00  0.00    -0.000 C 
BRANCH  20  21
ATOM     21  C   UNL     1     -23.337   6.915  22.017  1.00  0.00    -0.000 C 
BRANCH  21  22
ATOM     22  C   UNL     1     -22.868   5.868  23.042  1.00  0.00    -0.000 C 
BRANCH  22  23
ATOM     23  C   UNL     1     -21.624   6.313  23.825  1.00  0.00    -0.000 C 
BRANCH  23  24
ATOM     24  C   UNL     1     -20.707   5.119  24.124  1.00  0.00    -0.000 C 
BRANCH  24  25
ATOM     25  C   UNL     1     -19.219   5.453  23.937  1.00  0.00    -0.003 C 
ATOM     26  C   UNL     1     -18.998   6.800  23.248  1.00  0.00     0.004 C 
ENDBRANCH  24  25
ENDBRANCH  23  24
ENDBRANCH  22  23
ENDBRANCH  21  22
ENDBRANCH  20  21
ENDBRANCH  19  20
ENDBRANCH  18  19
ENDBRANCH  17  18
ENDBRANCH  16  17
ENDBRANCH  15  16
ENDBRANCH   1  15
TORSDOF 22
ENDMDL
MODEL 4
REMARK VINA RESULT:    -3.693      1.661      2.160
REMARK INTER + INTRA:         -12.449
REMARK INTER:                  -8.086
REMARK INTRA:                  -4.363
REMARK UNBOUND:                -4.007
REMARK SMILES CCCCCCCCCCCCCCCCCCCCCCCC(=O)[O-]
REMARK SMILES IDX 13 1 14 2 15 3 16 4 17 5 18 6 19 7 20 8 21 9 22 10 23 11
REMARK SMILES IDX 24 12 25 13 26 14 12 15 11 16 10 17 9 18 8 19 7 20 6 21 5 22
REMARK SMILES IDX 4 23 3 24 2 25 1 26
REMARK H PARENT
REMARK Flexibility Score: inf
ROOT
ATOM      1  C   UNL     1     -25.071   4.886  24.796  1.00  0.00     0.000 C 
ENDROOT
BRANCH   1   2
ATOM      2  C   UNL     1     -23.654   4.453  25.209  1.00  0.00     0.000 C 
BRANCH   2   3
ATOM      3  C   UNL     1     -23.459   2.931  25.174  1.00  0.00     0.000 C 
BRANCH   3   4
ATOM      4  C   UNL     1     -24.645   2.240  24.490  1.00  0.00     0.000 C 
BRANCH   4   5
ATOM      5  C   UNL     1     -24.167   1.097  23.581  1.00  0.00     0.000 C 
BRANCH   5   6
ATOM      6  C   UNL     1     -23.259   1.579  22.435  1.00  0.00     0.000 C 
BRANCH   6   7
ATOM      7  C   UNL     1     -22.505   0.465  21.687  1.00  0.00     0.000 C 
BRANCH   7   8
ATOM      8  C   UNL     1     -21.455  -0.241  22.563  1.00  0.00     0.000 C 
BRANCH   8   9
ATOM      9  C   UNL     1     -20.496   0.748  23.246  1.00  0.00     0.000 C 
BRANCH   9  10
ATOM     10  C   UNL     1     -19.023   0.486  22.886  1.00  0.00     0.006 C 
BRANCH  10  11
ATOM     11  C   UNL     1     -18.765   0.603  21.378  1.00  0.00     0.053 C 
BRANCH  11  12
ATOM     12  C   UNL     1     -17.571   1.457  21.082  1.00  0.00     0.041 C 
ATOM     13  O   UNL     1     -16.490   1.274  21.703  1.00  0.00    -0.550 OA
ATOM     14  O   UNL     1     -17.660   2.478  20.145  1.00  0.00    -0.550 OA
ENDBRANCH  11  12
ENDBRANCH  10  11
ENDBRANCH   9  10
ENDBRANCH   8   9
ENDBRANCH   7   8
ENDBRANCH   6   7
ENDBRANCH   5   6
ENDBRANCH   4   5
ENDBRANCH   3   4
ENDBRANCH   2   3
ENDBRANCH   1   2
BRANCH   1  15
ATOM     15  C   UNL     1     -25.101   5.836  23.581  1.00  0.00     0.000 C 
BRANCH  15  16
ATOM     16  C   UNL     1     -23.735   5.930  22.878  1.00  0.00     0.000 C 
BRANCH  16  17
ATOM     17  C   UNL     1     -23.485   7.323  22.259  1.00  0.00     0.000 C 
BRANCH  17  18
ATOM     18  C   UNL     1     -22.012   7.579  21.888  1.00  0.00    -0.000 C 
BRANCH  18  19
ATOM     19  C   UNL     1     -21.620   7.148  20.462  1.00  0.00    -0.000 C 
BRANCH  19  20
ATOM     20  C   UNL     1     -20.334   6.302  20.367  1.00  0.00    -0.000 C 
BRANCH  20  21
ATOM     21  C   UNL     1     -20.556   4.783  20.225  1.00  0.00    -0.000 C 
BRANCH  21  22
ATOM     22  C   UNL     1     -20.762   4.027  21.549  1.00  0.00    -0.000 C 
BRANCH  22  23
ATOM     23  C   UNL     1     -19.615   4.245  22.547  1.00  0.00    -0.000 C 
BRANCH  23  24
ATOM     24  C   UNL     1     -20.147   4.324  23.985  1.00  0.00    -0.000 C 
BRANCH  24  25
ATOM     25  C   UNL     1     -20.281   5.769  24.488  1.00  0.00    -0.003 C 
ATOM     26  C   UNL     1     -19.095   6.647  24.088  1.00  0.00     0.004 C 
ENDBRANCH  24  25
ENDBRANCH  23  24
ENDBRANCH  22  23
ENDBRANCH  21  22
ENDBRANCH  20  21
ENDBRANCH  19  20
ENDBRANCH  18  19
ENDBRANCH  17  18
ENDBRANCH  16  17
ENDBRANCH  15  16
ENDBRANCH   1  15
TORSDOF 22
ENDMDL
MODEL 5
REMARK VINA RESULT:    -3.668      1.913      5.667
REMARK INTER + INTRA:         -12.391
REMARK INTER:                  -8.148
REMARK INTRA:                  -4.243
REMARK UNBOUND:                -4.007
REMARK SMILES CCCCCCCCCCCCCCCCCCCCCCCC(=O)[O-]
REMARK SMILES IDX 13 1 14 2 15 3 16 4 17 5 18 6 19 7 20 8 21 9 22 10 23 11
REMARK SMILES IDX 24 12 25 13 26 14 12 15 11 16 10 17 9 18 8 19 7 20 6 21 5 22
REMARK SMILES IDX 4 23 3 24 2 25 1 26
REMARK H PARENT
REMARK Flexibility Score: inf
ROOT
ATOM      1  C   UNL     1     -21.907   4.597  25.068  1.00  0.00     0.000 C 
ENDROOT
BRANCH   1   2
ATOM      2  C   UNL     1     -22.108   5.369  23.752  1.00  0.00     0.000 C 
BRANCH   2   3
ATOM      3  C   UNL     1     -23.580   5.454  23.327  1.00  0.00     0.000 C 
BRANCH   3   4
ATOM      4  C   UNL     1     -23.833   6.693  22.459  1.00  0.00     0.000 C 
BRANCH   4   5
ATOM      5  C   UNL     1     -22.527   7.460  22.201  1.00  0.00     0.000 C 
BRANCH   5   6
ATOM      6  C   UNL     1     -22.273   7.733  20.707  1.00  0.00     0.000 C 
BRANCH   6   7
ATOM      7  C   UNL     1     -21.141   6.903  20.076  1.00  0.00     0.000 C 
BRANCH   7   8
ATOM      8  C   UNL     1     -21.464   5.401  20.007  1.00  0.00     0.000 C 
BRANCH   8   9
ATOM      9  C   UNL     1     -20.285   4.523  20.460  1.00  0.00     0.000 C 
BRANCH   9  10
ATOM     10  C   UNL     1     -19.253   5.303  21.294  1.00  0.00     0.006 C 
BRANCH  10  11
ATOM     11  C   UNL     1     -18.732   4.487  22.483  1.00  0.00     0.053 C 
BRANCH  11  12
ATOM     12  C   UNL     1     -17.487   3.730  22.136  1.00  0.00     0.041 C 
ATOM     13  O   UNL     1     -17.549   2.706  21.405  1.00  0.00    -0.550 OA
ATOM     14  O   UNL     1     -16.261   4.134  22.649  1.00  0.00    -0.550 OA
ENDBRANCH  11  12
ENDBRANCH  10  11
ENDBRANCH   9  10
ENDBRANCH   8   9
ENDBRANCH   7   8
ENDBRANCH   6   7
ENDBRANCH   5   6
ENDBRANCH   4   5
ENDBRANCH   3   4
ENDBRANCH   2   3
ENDBRANCH   1   2
BRANCH   1  15
ATOM     15  C   UNL     1     -22.835   5.063  26.210  1.00  0.00     0.000 C 
BRANCH  15  16
ATOM     16  C   UNL     1     -23.961   4.055  26.498  1.00  0.00     0.000 C 
BRANCH  16  17
ATOM     17  C   UNL     1     -23.603   2.624  26.040  1.00  0.00     0.000 C 
BRANCH  17  18
ATOM     18  C   UNL     1     -24.497   2.097  24.902  1.00  0.00    -0.000 C 
BRANCH  18  19
ATOM     19  C   UNL     1     -23.833   1.048  23.991  1.00  0.00    -0.000 C 
BRANCH  19  20
ATOM     20  C   UNL     1     -23.772   1.427  22.497  1.00  0.00    -0.000 C 
BRANCH  20  21
ATOM     21  C   UNL     1     -22.484   2.150  22.055  1.00  0.00    -0.000 C 
BRANCH  21  22
ATOM     22  C   UNL     1     -21.217   1.763  22.838  1.00  0.00    -0.000 C 
BRANCH  22  23
ATOM     23  C   UNL     1     -20.401   0.660  22.148  1.00  0.00    -0.000 C 
BRANCH  23  24
ATOM     24  C   UNL     1     -20.797  -0.727  22.675  1.00  0.00    -0.000 C 
BRANCH  24  25
ATOM     25  C   UNL     1     -21.020  -1.746  21.548  1.00  0.00    -0.003 C 
ATOM     26  C   UNL     1     -22.199  -1.383  20.646  1.00  0.00     0.004 C 
ENDBRANCH  24  25
ENDBRANCH  23  24
ENDBRANCH  22  23
ENDBRANCH  21  22
ENDBRANCH  20  21
ENDBRANCH  19  20
ENDBRANCH  18  19
ENDBRANCH  17  18
ENDBRANCH  16  17
ENDBRANCH  15  16
ENDBRANCH   1  15
TORSDOF 22
ENDMDL
MODEL 6
REMARK VINA RESULT:    -3.665      1.758      3.416
REMARK INTER + INTRA:         -12.385
REMARK INTER:                  -7.820
REMARK INTRA:                  -4.565
REMARK UNBOUND:                -4.007
REMARK SMILES CCCCCCCCCCCCCCCCCCCCCCCC(=O)[O-]
REMARK SMILES IDX 13 1 14 2 15 3 16 4 17 5 18 6 19 7 20 8 21 9 22 10 23 11
REMARK SMILES IDX 24 12 25 13 26 14 12 15 11 16 10 17 9 18 8 19 7 20 6 21 5 22
REMARK SMILES IDX 4 23 3 24 2 25 1 26
REMARK H PARENT
REMARK Flexibility Score: inf
ROOT
ATOM      1  C   UNL     1     -23.634   6.833  22.180  1.00  0.00     0.000 C 
ENDROOT
BRANCH   1   2
ATOM      2  C   UNL     1     -24.704   6.238  23.112  1.00  0.00     0.000 C 
BRANCH   2   3
ATOM      3  C   UNL     1     -24.211   5.004  23.879  1.00  0.00     0.000 C 
BRANCH   3   4
ATOM      4  C   UNL     1     -25.095   4.724  25.100  1.00  0.00     0.000 C 
BRANCH   4   5
ATOM      5  C   UNL     1     -24.337   5.004  26.406  1.00  0.00     0.000 C 
BRANCH   5   6
ATOM      6  C   UNL     1     -22.833   4.689  26.308  1.00  0.00     0.000 C 
BRANCH   6   7
ATOM      7  C   UNL     1     -22.387   3.403  27.027  1.00  0.00     0.000 C 
BRANCH   7   8
ATOM      8  C   UNL     1     -21.903   2.311  26.057  1.00  0.00     0.000 C 
BRANCH   8   9
ATOM      9  C   UNL     1     -22.988   1.260  25.765  1.00  0.00     0.000 C 
BRANCH   9  10
ATOM     10  C   UNL     1     -23.576   1.396  24.350  1.00  0.00     0.006 C 
BRANCH  10  11
ATOM     11  C   UNL     1     -23.469   0.091  23.550  1.00  0.00     0.053 C 
BRANCH  11  12
ATOM     12  C   UNL     1     -22.268   0.084  22.654  1.00  0.00     0.041 C 
ATOM     13  O   UNL     1     -22.408   0.153  21.404  1.00  0.00    -0.550 OA
ATOM     14  O   UNL     1     -20.995  -0.034  23.197  1.00  0.00    -0.550 OA
ENDBRANCH  11  12
ENDBRANCH  10  11
ENDBRANCH   9  10
ENDBRANCH   8   9
ENDBRANCH   7   8
ENDBRANCH   6   7
ENDBRANCH   5   6
ENDBRANCH   4   5
ENDBRANCH   3   4
ENDBRANCH   2   3
ENDBRANCH   1   2
BRANCH   1  15
ATOM     15  C   UNL     1     -22.270   7.060  22.866  1.00  0.00     0.000 C 
BRANCH  15  16
ATOM     16  C   UNL     1     -21.249   7.729  21.930  1.00  0.00     0.000 C 
BRANCH  16  17
ATOM     17  C   UNL     1     -21.768   7.850  20.481  1.00  0.00     0.000 C 
BRANCH  17  18
ATOM     18  C   UNL     1     -21.040   6.927  19.484  1.00  0.00    -0.000 C 
BRANCH  18  19
ATOM     19  C   UNL     1     -21.491   5.455  19.520  1.00  0.00    -0.000 C 
BRANCH  19  20
ATOM     20  C   UNL     1     -20.638   4.535  20.418  1.00  0.00    -0.000 C 
BRANCH  20  21
ATOM     21  C   UNL     1     -21.438   3.597  21.344  1.00  0.00    -0.000 C 
BRANCH  21  22
ATOM     22  C   UNL     1     -21.024   3.633  22.825  1.00  0.00    -0.000 C 
BRANCH  22  23
ATOM     23  C   UNL     1     -19.658   4.298  23.047  1.00  0.00    -0.000 C 
BRANCH  23  24
ATOM     24  C   UNL     1     -19.453   4.650  24.528  1.00  0.00    -0.000 C 
BRANCH  24  25
ATOM     25  C   UNL     1     -19.176   6.144  24.748  1.00  0.00    -0.003 C 
ATOM     26  C   UNL     1     -18.171   6.714  23.746  1.00  0.00     0.004 C 
ENDBRANCH  24  25
ENDBRANCH  23  24
ENDBRANCH  22  23
ENDBRANCH  21  22
ENDBRANCH  20  21
ENDBRANCH  19  20
ENDBRANCH  18  19
ENDBRANCH  17  18
ENDBRANCH  16  17
ENDBRANCH  15  16
ENDBRANCH   1  15
TORSDOF 22
ENDMDL
MODEL 7
REMARK VINA RESULT:    -3.653      1.443      3.331
REMARK INTER + INTRA:         -12.359
REMARK INTER:                  -8.203
REMARK INTRA:                  -4.156
REMARK UNBOUND:                -4.007
REMARK SMILES CCCCCCCCCCCCCCCCCCCCCCCC(=O)[O-]
REMARK SMILES IDX 13 1 14 2 15 3 16 4 17 5 18 6 19 7 20 8 21 9 22 10 23 11
REMARK SMILES IDX 24 12 25 13 26 14 12 15 11 16 10 17 9 18 8 19 7 20 6 21 5 22
REMARK SMILES IDX 4 23 3 24 2 25 1 26
REMARK H PARENT
REMARK Flexibility Score: inf
ROOT
ATOM      1  C   UNL     1     -21.743   2.217  22.360  1.00  0.00     0.000 C 
ENDROOT
BRANCH   1   2
ATOM      2  C   UNL     1     -23.247   1.913  22.245  1.00  0.00     0.000 C 
BRANCH   2   3
ATOM      3  C   UNL     1     -23.817   1.234  23.498  1.00  0.00     0.000 C 
BRANCH   3   4
ATOM      4  C   UNL     1     -22.913   0.085  23.961  1.00  0.00     0.000 C 
BRANCH   4   5
ATOM      5  C   UNL     1     -23.378  -1.255  23.370  1.00  0.00     0.000 C 
BRANCH   5   6
ATOM      6  C   UNL     1     -22.276  -1.976  22.573  1.00  0.00     0.000 C 
BRANCH   6   7
ATOM      7  C   UNL     1     -22.166  -1.566  21.093  1.00  0.00     0.000 C 
BRANCH   7   8
ATOM      8  C   UNL     1     -20.876  -0.788  20.781  1.00  0.00     0.000 C 
BRANCH   8   9
ATOM      9  C   UNL     1     -19.707  -1.192  21.696  1.00  0.00     0.000 C 
BRANCH   9  10
ATOM     10  C   UNL     1     -18.890   0.018  22.181  1.00  0.00     0.006 C 
BRANCH  10  11
ATOM     11  C   UNL     1     -18.259   0.794  21.018  1.00  0.00     0.053 C 
BRANCH  11  12
ATOM     12  C   UNL     1     -16.763   0.759  21.072  1.00  0.00     0.041 C 
ATOM     13  O   UNL     1     -16.132  -0.211  20.573  1.00  0.00    -0.550 OA
ATOM     14  O   UNL     1     -16.065   1.779  21.705  1.00  0.00    -0.550 OA
ENDBRANCH  11  12
ENDBRANCH  10  11
ENDBRANCH   9  10
ENDBRANCH   8   9
ENDBRANCH   7   8
ENDBRANCH   6   7
ENDBRANCH   5   6
ENDBRANCH   4   5
ENDBRANCH   3   4
ENDBRANCH   2   3
ENDBRANCH   1   2
BRANCH   1  15
ATOM     15  C   UNL     1     -21.244   3.270  21.348  1.00  0.00     0.000 C 
BRANCH  15  16
ATOM     16  C   UNL     1     -20.142   4.169  21.936  1.00  0.00     0.000 C 
BRANCH  16  17
ATOM     17  C   UNL     1     -20.233   5.624  21.426  1.00  0.00     0.000 C 
BRANCH  17  18
ATOM     18  C   UNL     1     -21.639   6.020  20.936  1.00  0.00    -0.000 C 
BRANCH  18  19
ATOM     19  C   UNL     1     -22.240   7.258  21.628  1.00  0.00    -0.000 C 
BRANCH  19  20
ATOM     20  C   UNL     1     -23.558   7.005  22.387  1.00  0.00    -0.000 C 
BRANCH  20  21
ATOM     21  C   UNL     1     -23.814   5.538  22.787  1.00  0.00    -0.000 C 
BRANCH  21  22
ATOM     22  C   UNL     1     -24.759   5.344  23.986  1.00  0.00    -0.000 C 
BRANCH  22  23
ATOM     23  C   UNL     1     -24.045   4.787  25.226  1.00  0.00    -0.000 C 
BRANCH  23  24
ATOM     24  C   UNL     1     -22.570   4.490  24.923  1.00  0.00    -0.000 C 
BRANCH  24  25
ATOM     25  C   UNL     1     -21.614   5.163  25.920  1.00  0.00    -0.003 C 
ATOM     26  C   UNL     1     -20.236   5.445  25.321  1.00  0.00     0.004 C 
ENDBRANCH  24  25
ENDBRANCH  23  24
ENDBRANCH  22  23
ENDBRANCH  21  22
ENDBRANCH  20  21
ENDBRANCH  19  20
ENDBRANCH  18  19
ENDBRANCH  17  18
ENDBRANCH  16  17
ENDBRANCH  15  16
ENDBRANCH   1  15
TORSDOF 22
ENDMDL
MODEL 8
REMARK VINA RESULT:    -3.638      2.080      6.407
REMARK INTER + INTRA:         -12.323
REMARK INTER:                  -8.171
REMARK INTRA:                  -4.152
REMARK UNBOUND:                -4.007
REMARK SMILES CCCCCCCCCCCCCCCCCCCCCCCC(=O)[O-]
REMARK SMILES IDX 13 1 14 2 15 3 16 4 17 5 18 6 19 7 20 8 21 9 22 10 23 11
REMARK SMILES IDX 24 12 25 13 26 14 12 15 11 16 10 17 9 18 8 19 7 20 6 21 5 22
REMARK SMILES IDX 4 23 3 24 2 25 1 26
REMARK H PARENT
REMARK Flexibility Score: inf
ROOT
ATOM      1  C   UNL     1     -20.104   4.795  20.606  1.00  0.00     0.000 C 
ENDROOT
BRANCH   1   2
ATOM      2  C   UNL     1     -21.355   5.442  19.987  1.00  0.00     0.000 C 
BRANCH   2   3
ATOM      3  C   UNL     1     -21.209   6.957  19.790  1.00  0.00     0.000 C 
BRANCH   3   4
ATOM      4  C   UNL     1     -22.326   7.717  20.515  1.00  0.00     0.000 C 
BRANCH   4   5
ATOM      5  C   UNL     1     -22.367   7.347  22.005  1.00  0.00     0.000 C 
BRANCH   5   6
ATOM      6  C   UNL     1     -23.739   6.811  22.456  1.00  0.00     0.000 C 
BRANCH   6   7
ATOM      7  C   UNL     1     -23.758   5.327  22.862  1.00  0.00     0.000 C 
BRANCH   7   8
ATOM      8  C   UNL     1     -23.571   5.117  24.375  1.00  0.00     0.000 C 
BRANCH   8   9
ATOM      9  C   UNL     1     -22.090   5.089  24.787  1.00  0.00     0.000 C 
BRANCH   9  10
ATOM     10  C   UNL     1     -21.893   4.665  26.254  1.00  0.00     0.006 C 
BRANCH  10  11
ATOM     11  C   UNL     1     -22.569   3.324  26.565  1.00  0.00     0.053 C 
BRANCH  11  12
ATOM     12  C   UNL     1     -21.573   2.209  26.667  1.00  0.00     0.041 C 
ATOM     13  O   UNL     1     -21.886   1.127  27.232  1.00  0.00    -0.550 OA
ATOM     14  O   UNL     1     -20.287   2.377  26.169  1.00  0.00    -0.550 OA
ENDBRANCH  11  12
ENDBRANCH  10  11
ENDBRANCH   9  10
ENDBRANCH   8   9
ENDBRANCH   7   8
ENDBRANCH   6   7
ENDBRANCH   5   6
ENDBRANCH   4   5
ENDBRANCH   3   4
ENDBRANCH   2   3
ENDBRANCH   1   2
BRANCH   1  15
ATOM     15  C   UNL     1     -20.407   3.891  21.819  1.00  0.00     0.000 C 
BRANCH  15  16
ATOM     16  C   UNL     1     -21.429   2.789  21.487  1.00  0.00     0.000 C 
BRANCH  16  17
ATOM     17  C   UNL     1     -21.937   2.057  22.748  1.00  0.00     0.000 C 
BRANCH  17  18
ATOM     18  C   UNL     1     -23.418   1.639  22.665  1.00  0.00    -0.000 C 
BRANCH  18  19
ATOM     19  C   UNL     1     -23.976   0.982  23.941  1.00  0.00    -0.000 C 
BRANCH  19  20
ATOM     20  C   UNL     1     -23.268  -0.321  24.366  1.00  0.00    -0.000 C 
BRANCH  20  21
ATOM     21  C   UNL     1     -23.453  -1.512  23.404  1.00  0.00    -0.000 C 
BRANCH  21  22
ATOM     22  C   UNL     1     -22.188  -1.932  22.636  1.00  0.00    -0.000 C 
BRANCH  22  23
ATOM     23  C   UNL     1     -22.271  -1.627  21.134  1.00  0.00    -0.000 C 
BRANCH  23  24
ATOM     24  C   UNL     1     -21.054  -0.814  20.670  1.00  0.00    -0.000 C 
BRANCH  24  25
ATOM     25  C   UNL     1     -19.885  -0.881  21.664  1.00  0.00    -0.003 C 
ATOM     26  C   UNL     1     -18.793   0.146  21.365  1.00  0.00     0.004 C 
ENDBRANCH  24  25
ENDBRANCH  23  24
ENDBRANCH  22  23
ENDBRANCH  21  22
ENDBRANCH  20  21
ENDBRANCH  19  20
ENDBRANCH  18  19
ENDBRANCH  17  18
ENDBRANCH  16  17
ENDBRANCH  15  16
ENDBRANCH   1  15
TORSDOF 22
ENDMDL
MODEL 9
REMARK VINA RESULT:    -3.606      1.342      3.781
REMARK INTER + INTRA:         -12.250
REMARK INTER:                  -8.230
REMARK INTRA:                  -4.020
REMARK UNBOUND:                -4.007
REMARK SMILES CCCCCCCCCCCCCCCCCCCCCCCC(=O)[O-]
REMARK SMILES IDX 13 1 14 2 15 3 16 4 17 5 18 6 19 7 20 8 21 9 22 10 23 11
REMARK SMILES IDX 24 12 25 13 26 14 12 15 11 16 10 17 9 18 8 19 7 20 6 21 5 22
REMARK SMILES IDX 4 23 3 24 2 25 1 26
REMARK H PARENT
REMARK Flexibility Score: inf
ROOT
ATOM      1  C   UNL     1     -20.091   4.238  23.323  1.00  0.00     0.000 C 
ENDROOT
BRANCH   1   2
ATOM      2  C   UNL     1     -20.316   4.213  21.801  1.00  0.00     0.000 C 
BRANCH   2   3
ATOM      3  C   UNL     1     -21.423   3.239  21.377  1.00  0.00     0.000 C 
BRANCH   3   4
ATOM      4  C   UNL     1     -22.140   2.652  22.600  1.00  0.00     0.000 C 
BRANCH   4   5
ATOM      5  C   UNL     1     -23.191   1.615  22.178  1.00  0.00     0.000 C 
BRANCH   5   6
ATOM      6  C   UNL     1     -22.810   0.176  22.572  1.00  0.00     0.000 C 
BRANCH   6   7
ATOM      7  C   UNL     1     -22.388  -0.732  21.403  1.00  0.00     0.000 C 
BRANCH   7   8
ATOM      8  C   UNL     1     -20.880  -0.666  21.107  1.00  0.00     0.000 C 
BRANCH   8   9
ATOM      9  C   UNL     1     -20.026  -0.706  22.386  1.00  0.00     0.000 C 
BRANCH   9  10
ATOM     10  C   UNL     1     -19.113   0.526  22.526  1.00  0.00     0.006 C 
BRANCH  10  11
ATOM     11  C   UNL     1     -18.488   0.939  21.187  1.00  0.00     0.053 C 
BRANCH  11  12
ATOM     12  C   UNL     1     -17.139   0.321  20.988  1.00  0.00     0.041 C 
ATOM     13  O   UNL     1     -16.137   1.046  20.746  1.00  0.00    -0.550 OA
ATOM     14  O   UNL     1     -16.992  -1.060  21.036  1.00  0.00    -0.550 OA
ENDBRANCH  11  12
ENDBRANCH  10  11
ENDBRANCH   9  10
ENDBRANCH   8   9
ENDBRANCH   7   8
ENDBRANCH   6   7
ENDBRANCH   5   6
ENDBRANCH   4   5
ENDBRANCH   3   4
ENDBRANCH   2   3
ENDBRANCH   1   2
BRANCH   1  15
ATOM     15  C   UNL     1     -20.065   5.659  23.924  1.00  0.00     0.000 C 
BRANCH  15  16
ATOM     16  C   UNL     1     -19.965   6.750  22.843  1.00  0.00     0.000 C 
BRANCH  16  17
ATOM     17  C   UNL     1     -21.197   7.681  22.827  1.00  0.00     0.000 C 
BRANCH  17  18
ATOM     18  C   UNL     1     -22.194   7.368  21.695  1.00  0.00    -0.000 C 
BRANCH  18  19
ATOM     19  C   UNL     1     -23.625   7.046  22.165  1.00  0.00    -0.000 C 
BRANCH  19  20
ATOM     20  C   UNL     1     -23.738   5.858  23.142  1.00  0.00    -0.000 C 
BRANCH  20  21
ATOM     21  C   UNL     1     -25.125   5.670  23.790  1.00  0.00    -0.000 C 
BRANCH  21  22
ATOM     22  C   UNL     1     -25.108   5.056  25.200  1.00  0.00    -0.000 C 
BRANCH  22  23
ATOM     23  C   UNL     1     -23.687   4.806  25.726  1.00  0.00    -0.000 C 
BRANCH  23  24
ATOM     24  C   UNL     1     -23.549   3.379  26.276  1.00  0.00    -0.000 C 
BRANCH  24  25
ATOM     25  C   UNL     1     -24.373   2.356  25.480  1.00  0.00    -0.003 C 
ATOM     26  C   UNL     1     -24.410   0.979  26.144  1.00  0.00     0.004 C 
ENDBRANCH  24  25
ENDBRANCH  23  24
ENDBRANCH  22  23
ENDBRANCH  21  22
ENDBRANCH  20  21
ENDBRANCH  19  20
ENDBRANCH  18  19
ENDBRANCH  17  18
ENDBRANCH  16  17
ENDBRANCH  15  16
ENDBRANCH   1  15
TORSDOF 22
ENDMDL
