MODEL 1
REMARK VINA RESULT:    -5.875      0.000      0.000
REMARK INTER + INTRA:         -12.770
REMARK INTER:                 -11.027
REMARK INTRA:                  -1.743
REMARK UNBOUND:                -1.743
REMARK SMILES CCCCCCCCC=CCCCCCCCC(=O)[O-]
REMARK SMILES IDX 10 1 9 2 11 3 12 4 13 5 14 6 15 7 16 8 17 9 18 10 19 11
REMARK SMILES IDX 20 12 8 13 7 14 6 15 5 16 4 17 3 18 2 19 1 20
REMARK H PARENT
REMARK Flexibility Score: inf
ROOT
ATOM      1  C   UNL     1      44.472  46.783  47.578  1.00  0.00    -0.031 C 
ATOM      2  C   UNL     1      44.247  46.355  46.322  1.00  0.00    -0.031 C 
ENDROOT
BRANCH   1   3
ATOM      3  C   UNL     1      45.781  47.350  48.070  1.00  0.00     0.027 C 
BRANCH   3   4
ATOM      4  C   UNL     1      46.114  46.875  49.492  1.00  0.00     0.004 C 
BRANCH   4   5
ATOM      5  C   UNL     1      45.298  45.637  49.896  1.00  0.00     0.000 C 
BRANCH   5   6
ATOM      6  C   UNL     1      46.201  44.401  50.020  1.00  0.00     0.000 C 
BRANCH   6   7
ATOM      7  C   UNL     1      47.038  44.140  48.755  1.00  0.00     0.000 C 
BRANCH   7   8
ATOM      8  C   UNL     1      46.273  43.481  47.590  1.00  0.00     0.006 C 
BRANCH   8   9
ATOM      9  C   UNL     1      47.145  43.113  46.380  1.00  0.00     0.053 C 
BRANCH   9  10
ATOM     10  C   UNL     1      46.852  41.734  45.877  1.00  0.00     0.041 C 
ATOM     11  O   UNL     1      46.124  41.569  44.863  1.00  0.00    -0.550 OA
ATOM     12  O   UNL     1      47.410  40.630  46.509  1.00  0.00    -0.550 OA
ENDBRANCH   9  10
ENDBRANCH   8   9
ENDBRANCH   7   8
ENDBRANCH   6   7
ENDBRANCH   5   6
ENDBRANCH   4   5
ENDBRANCH   3   4
ENDBRANCH   1   3
BRANCH   2  13
ATOM     13  C   UNL     1      45.294  46.286  45.240  1.00  0.00     0.027 C 
BRANCH  13  14
ATOM     14  C   UNL     1      44.927  45.222  44.199  1.00  0.00     0.004 C 
BRANCH  14  15
ATOM     15  C   UNL     1      45.372  45.652  42.793  1.00  0.00     0.000 C 
BRANCH  15  16
ATOM     16  C   UNL     1      44.377  45.230  41.701  1.00  0.00     0.000 C 
BRANCH  16  17
ATOM     17  C   UNL     1      42.913  45.482  42.102  1.00  0.00    -0.000 C 
BRANCH  17  18
ATOM     18  C   UNL     1      41.929  45.125  40.967  1.00  0.00    -0.000 C 
BRANCH  18  19
ATOM     19  C   UNL     1      42.607  44.950  39.598  1.00  0.00    -0.003 C 
ATOM     20  C   UNL     1      41.789  45.534  38.447  1.00  0.00     0.004 C 
ENDBRANCH  18  19
ENDBRANCH  17  18
ENDBRANCH  16  17
ENDBRANCH  15  16
ENDBRANCH  14  15
ENDBRANCH  13  14
ENDBRANCH   2  13
TORSDOF 15
ENDMDL
MODEL 2
REMARK VINA RESULT:    -5.722      3.175      6.945
REMARK INTER + INTRA:         -12.483
REMARK INTER:                 -10.875
REMARK INTRA:                  -1.607
REMARK UNBOUND:                -1.743
REMARK SMILES CCCCCCCCC=CCCCCCCCC(=O)[O-]
REMARK SMILES IDX 10 1 9 2 11 3 12 4 13 5 14 6 15 7 16 8 17 9 18 10 19 11
REMARK SMILES IDX 20 12 8 13 7 14 6 15 5 16 4 17 3 18 2 19 1 20
REMARK H PARENT
REMARK Flexibility Score: inf
ROOT
ATOM      1  C   UNL     1      44.947  47.287  46.748  1.00  0.00    -0.031 C 
ATOM      2  C   UNL     1      44.866  47.244  48.091  1.00  0.00    -0.031 C 
ENDROOT
BRANCH   1   3
ATOM      3  C   UNL     1      46.219  47.093  45.959  1.00  0.00     0.027 C 
BRANCH   3   4
ATOM      4  C   UNL     1      45.967  46.347  44.641  1.00  0.00     0.004 C 
BRANCH   4   5
ATOM      5  C   UNL     1      44.807  45.345  44.753  1.00  0.00     0.000 C 
BRANCH   5   6
ATOM      6  C   UNL     1      43.844  45.486  43.566  1.00  0.00     0.000 C 
BRANCH   6   7
ATOM      7  C   UNL     1      44.471  45.043  42.230  1.00  0.00     0.000 C 
BRANCH   7   8
ATOM      8  C   UNL     1      43.651  45.401  40.974  1.00  0.00     0.006 C 
BRANCH   8   9
ATOM      9  C   UNL     1      42.128  45.371  41.175  1.00  0.00     0.053 C 
BRANCH   9  10
ATOM     10  C   UNL     1      41.394  45.302  39.872  1.00  0.00     0.041 C 
ATOM     11  O   UNL     1      41.914  45.768  38.825  1.00  0.00    -0.550 OA
ATOM     12  O   UNL     1      40.147  44.693  39.808  1.00  0.00    -0.550 OA
ENDBRANCH   9  10
ENDBRANCH   8   9
ENDBRANCH   7   8
ENDBRANCH   6   7
ENDBRANCH   5   6
ENDBRANCH   4   5
ENDBRANCH   3   4
ENDBRANCH   1   3
BRANCH   2  13
ATOM     13  C   UNL     1      46.045  47.090  49.017  1.00  0.00     0.027 C 
BRANCH  13  14
ATOM     14  C   UNL     1      45.868  45.864  49.920  1.00  0.00     0.004 C 
BRANCH  14  15
ATOM     15  C   UNL     1      45.349  44.661  49.119  1.00  0.00     0.000 C 
BRANCH  15  16
ATOM     16  C   UNL     1      46.465  43.672  48.745  1.00  0.00     0.000 C 
BRANCH  16  17
ATOM     17  C   UNL     1      47.005  43.897  47.322  1.00  0.00    -0.000 C 
BRANCH  17  18
ATOM     18  C   UNL     1      47.841  42.699  46.821  1.00  0.00    -0.000 C 
BRANCH  18  19
ATOM     19  C   UNL     1      46.995  41.465  46.467  1.00  0.00    -0.003 C 
ATOM     20  C   UNL     1      46.524  41.460  45.013  1.00  0.00     0.004 C 
ENDBRANCH  18  19
ENDBRANCH  17  18
ENDBRANCH  16  17
ENDBRANCH  15  16
ENDBRANCH  14  15
ENDBRANCH  13  14
ENDBRANCH   2  13
TORSDOF 15
ENDMDL
MODEL 3
REMARK VINA RESULT:    -5.576      2.380      6.133
REMARK INTER + INTRA:         -12.208
REMARK INTER:                 -10.167
REMARK INTRA:                  -2.041
REMARK UNBOUND:                -1.743
REMARK SMILES CCCCCCCCC=CCCCCCCCC(=O)[O-]
REMARK SMILES IDX 10 1 9 2 11 3 12 4 13 5 14 6 15 7 16 8 17 9 18 10 19 11
REMARK SMILES IDX 20 12 8 13 7 14 6 15 5 16 4 17 3 18 2 19 1 20
REMARK H PARENT
REMARK Flexibility Score: inf
ROOT
ATOM      1  C   UNL     1      45.560  44.505  49.153  1.00  0.00    -0.031 C 
ATOM      2  C   UNL     1      46.238  43.614  48.407  1.00  0.00    -0.031 C 
ENDROOT
BRANCH   1   3
ATOM      3  C   UNL     1      46.163  45.745  49.767  1.00  0.00     0.027 C 
BRANCH   3   4
ATOM      4  C   UNL     1      45.995  46.974  48.861  1.00  0.00     0.004 C 
BRANCH   4   5
ATOM      5  C   UNL     1      44.620  47.006  48.177  1.00  0.00     0.000 C 
BRANCH   5   6
ATOM      6  C   UNL     1      44.754  47.364  46.690  1.00  0.00     0.000 C 
BRANCH   6   7
ATOM      7  C   UNL     1      45.890  46.596  45.989  1.00  0.00     0.000 C 
BRANCH   7   8
ATOM      8  C   UNL     1      45.429  45.465  45.049  1.00  0.00     0.006 C 
BRANCH   8   9
ATOM      9  C   UNL     1      44.112  45.746  44.309  1.00  0.00     0.053 C 
BRANCH   9  10
ATOM     10  C   UNL     1      44.136  45.224  42.906  1.00  0.00     0.041 C 
ATOM     11  O   UNL     1      45.052  44.445  42.534  1.00  0.00    -0.550 OA
ATOM     12  O   UNL     1      43.126  45.571  42.017  1.00  0.00    -0.550 OA
ENDBRANCH   9  10
ENDBRANCH   8   9
ENDBRANCH   7   8
ENDBRANCH   6   7
ENDBRANCH   5   6
ENDBRANCH   4   5
ENDBRANCH   3   4
ENDBRANCH   1   3
BRANCH   2  13
ATOM     13  C   UNL     1      47.722  43.664  48.149  1.00  0.00     0.027 C 
BRANCH  13  14
ATOM     14  C   UNL     1      48.153  42.511  47.234  1.00  0.00     0.004 C 
BRANCH  14  15
ATOM     15  C   UNL     1      47.198  42.372  46.040  1.00  0.00     0.000 C 
BRANCH  15  16
ATOM     16  C   UNL     1      46.888  40.906  45.695  1.00  0.00     0.000 C 
BRANCH  16  17
ATOM     17  C   UNL     1      47.956  39.934  46.225  1.00  0.00    -0.000 C 
BRANCH  17  18
ATOM     18  C   UNL     1      48.782  39.299  45.085  1.00  0.00    -0.000 C 
BRANCH  18  19
ATOM     19  C   UNL     1      49.797  40.264  44.451  1.00  0.00    -0.003 C 
ATOM     20  C   UNL     1      51.102  40.362  45.240  1.00  0.00     0.004 C 
ENDBRANCH  18  19
ENDBRANCH  17  18
ENDBRANCH  16  17
ENDBRANCH  15  16
ENDBRANCH  14  15
ENDBRANCH  13  14
ENDBRANCH   2  13
TORSDOF 15
ENDMDL
MODEL 4
REMARK VINA RESULT:    -5.552      1.307      2.344
REMARK INTER + INTRA:         -12.164
REMARK INTER:                 -10.276
REMARK INTRA:                  -1.888
REMARK UNBOUND:                -1.743
REMARK SMILES CCCCCCCCC=CCCCCCCCC(=O)[O-]
REMARK SMILES IDX 10 1 9 2 11 3 12 4 13 5 14 6 15 7 16 8 17 9 18 10 19 11
REMARK SMILES IDX 20 12 8 13 7 14 6 15 5 16 4 17 3 18 2 19 1 20
REMARK H PARENT
REMARK Flexibility Score: inf
ROOT
ATOM      1  C   UNL     1      45.590  46.982  48.954  1.00  0.00    -0.031 C 
ATOM      2  C   UNL     1      45.821  47.490  47.729  1.00  0.00    -0.031 C 
ENDROOT
BRANCH   1   3
ATOM      3  C   UNL     1      46.384  45.864  49.582  1.00  0.00     0.027 C 
BRANCH   3   4
ATOM      4  C   UNL     1      45.586  44.553  49.634  1.00  0.00     0.004 C 
BRANCH   4   5
ATOM      5  C   UNL     1      45.902  43.634  48.444  1.00  0.00     0.000 C 
BRANCH   5   6
ATOM      6  C   UNL     1      47.417  43.540  48.210  1.00  0.00     0.000 C 
BRANCH   6   7
ATOM      7  C   UNL     1      47.782  43.331  46.729  1.00  0.00     0.000 C 
BRANCH   7   8
ATOM      8  C   UNL     1      47.122  42.109  46.059  1.00  0.00     0.006 C 
BRANCH   8   9
ATOM      9  C   UNL     1      47.786  40.764  46.389  1.00  0.00     0.053 C 
BRANCH   9  10
ATOM     10  C   UNL     1      48.569  40.228  45.231  1.00  0.00     0.041 C 
ATOM     11  O   UNL     1      48.040  40.145  44.091  1.00  0.00    -0.550 OA
ATOM     12  O   UNL     1      49.895  39.850  45.403  1.00  0.00    -0.550 OA
ENDBRANCH   9  10
ENDBRANCH   8   9
ENDBRANCH   7   8
ENDBRANCH   6   7
ENDBRANCH   5   6
ENDBRANCH   4   5
ENDBRANCH   3   4
ENDBRANCH   1   3
BRANCH   2  13
ATOM     13  C   UNL     1      46.844  46.958  46.759  1.00  0.00     0.027 C 
BRANCH  13  14
ATOM     14  C   UNL     1      46.218  46.737  45.377  1.00  0.00     0.004 C 
BRANCH  14  15
ATOM     15  C   UNL     1      45.143  45.642  45.431  1.00  0.00     0.000 C 
BRANCH  15  16
ATOM     16  C   UNL     1      44.174  45.703  44.239  1.00  0.00     0.000 C 
BRANCH  16  17
ATOM     17  C   UNL     1      44.704  44.954  43.004  1.00  0.00    -0.000 C 
BRANCH  17  18
ATOM     18  C   UNL     1      44.033  45.436  41.700  1.00  0.00    -0.000 C 
BRANCH  18  19
ATOM     19  C   UNL     1      42.497  45.432  41.761  1.00  0.00    -0.003 C 
ATOM     20  C   UNL     1      41.844  45.502  40.381  1.00  0.00     0.004 C 
ENDBRANCH  18  19
ENDBRANCH  17  18
ENDBRANCH  16  17
ENDBRANCH  15  16
ENDBRANCH  14  15
ENDBRANCH  13  14
ENDBRANCH   2  13
TORSDOF 15
ENDMDL
MODEL 5
REMARK VINA RESULT:    -5.458      2.747      6.401
REMARK INTER + INTRA:         -11.987
REMARK INTER:                 -10.354
REMARK INTRA:                  -1.633
REMARK UNBOUND:                -1.743
REMARK SMILES CCCCCCCCC=CCCCCCCCC(=O)[O-]
REMARK SMILES IDX 10 1 9 2 11 3 12 4 13 5 14 6 15 7 16 8 17 9 18 10 19 11
REMARK SMILES IDX 20 12 8 13 7 14 6 15 5 16 4 17 3 18 2 19 1 20
REMARK H PARENT
REMARK Flexibility Score: inf
ROOT
ATOM      1  C   UNL     1      44.022  45.749  48.414  1.00  0.00    -0.031 C 
ATOM      2  C   UNL     1      44.762  44.807  49.028  1.00  0.00    -0.031 C 
ENDROOT
BRANCH   1   3
ATOM      3  C   UNL     1      44.558  47.064  47.905  1.00  0.00     0.027 C 
BRANCH   3   4
ATOM      4  C   UNL     1      45.084  46.951  46.466  1.00  0.00     0.004 C 
BRANCH   4   5
ATOM      5  C   UNL     1      43.982  47.198  45.425  1.00  0.00     0.000 C 
BRANCH   5   6
ATOM      6  C   UNL     1      43.617  45.899  44.692  1.00  0.00     0.000 C 
BRANCH   6   7
ATOM      7  C   UNL     1      44.730  45.410  43.747  1.00  0.00     0.000 C 
BRANCH   7   8
ATOM      8  C   UNL     1      44.358  45.401  42.251  1.00  0.00     0.006 C 
BRANCH   8   9
ATOM      9  C   UNL     1      42.852  45.512  41.967  1.00  0.00     0.053 C 
BRANCH   9  10
ATOM     10  C   UNL     1      42.551  45.424  40.502  1.00  0.00     0.041 C 
ATOM     11  O   UNL     1      41.380  45.616  40.083  1.00  0.00    -0.550 OA
ATOM     12  O   UNL     1      43.572  45.162  39.597  1.00  0.00    -0.550 OA
ENDBRANCH   9  10
ENDBRANCH   8   9
ENDBRANCH   7   8
ENDBRANCH   6   7
ENDBRANCH   5   6
ENDBRANCH   4   5
ENDBRANCH   3   4
ENDBRANCH   1   3
BRANCH   2  13
ATOM     13  C   UNL     1      46.218  44.960  49.387  1.00  0.00     0.027 C 
BRANCH  13  14
ATOM     14  C   UNL     1      47.094  44.090  48.477  1.00  0.00     0.004 C 
BRANCH  14  15
ATOM     15  C   UNL     1      46.232  43.167  47.604  1.00  0.00     0.000 C 
BRANCH  15  16
ATOM     16  C   UNL     1      46.525  43.327  46.104  1.00  0.00     0.000 C 
BRANCH  16  17
ATOM     17  C   UNL     1      46.351  42.013  45.322  1.00  0.00    -0.000 C 
BRANCH  17  18
ATOM     18  C   UNL     1      47.291  40.901  45.834  1.00  0.00    -0.000 C 
BRANCH  18  19
ATOM     19  C   UNL     1      48.781  41.201  45.604  1.00  0.00    -0.003 C 
ATOM     20  C   UNL     1      49.410  40.314  44.531  1.00  0.00     0.004 C 
ENDBRANCH  18  19
ENDBRANCH  17  18
ENDBRANCH  16  17
ENDBRANCH  15  16
ENDBRANCH  14  15
ENDBRANCH  13  14
ENDBRANCH   2  13
TORSDOF 15
ENDMDL
MODEL 6
REMARK VINA RESULT:    -5.364      3.248      6.484
REMARK INTER + INTRA:         -11.810
REMARK INTER:                  -9.570
REMARK INTRA:                  -2.240
REMARK UNBOUND:                -1.743
REMARK SMILES CCCCCCCCC=CCCCCCCCC(=O)[O-]
REMARK SMILES IDX 10 1 9 2 11 3 12 4 13 5 14 6 15 7 16 8 17 9 18 10 19 11
REMARK SMILES IDX 20 12 8 13 7 14 6 15 5 16 4 17 3 18 2 19 1 20
REMARK H PARENT
REMARK Flexibility Score: inf
ROOT
ATOM      1  C   UNL     1      47.259  43.639  48.619  1.00  0.00    -0.031 C 
ATOM      2  C   UNL     1      47.721  43.020  47.517  1.00  0.00    -0.031 C 
ENDROOT
BRANCH   1   3
ATOM      3  C   UNL     1      45.856  44.171  48.779  1.00  0.00     0.027 C 
BRANCH   3   4
ATOM      4  C   UNL     1      45.753  45.177  49.936  1.00  0.00     0.004 C 
BRANCH   4   5
ATOM      5  C   UNL     1      46.076  46.610  49.489  1.00  0.00     0.000 C 
BRANCH   5   6
ATOM      6  C   UNL     1      45.438  46.918  48.126  1.00  0.00     0.000 C 
BRANCH   6   7
ATOM      7  C   UNL     1      46.475  47.287  47.049  1.00  0.00     0.000 C 
BRANCH   7   8
ATOM      8  C   UNL     1      46.046  46.983  45.599  1.00  0.00     0.006 C 
BRANCH   8   9
ATOM      9  C   UNL     1      45.072  45.803  45.456  1.00  0.00     0.053 C 
BRANCH   9  10
ATOM     10  C   UNL     1      43.754  46.231  44.889  1.00  0.00     0.041 C 
ATOM     11  O   UNL     1      43.055  47.090  45.487  1.00  0.00    -0.550 OA
ATOM     12  O   UNL     1      43.313  45.705  43.681  1.00  0.00    -0.550 OA
ENDBRANCH   9  10
ENDBRANCH   8   9
ENDBRANCH   7   8
ENDBRANCH   6   7
ENDBRANCH   5   6
ENDBRANCH   4   5
ENDBRANCH   3   4
ENDBRANCH   1   3
BRANCH   2  13
ATOM     13  C   UNL     1      46.939  42.848  46.239  1.00  0.00     0.027 C 
BRANCH  13  14
ATOM     14  C   UNL     1      46.593  41.371  46.011  1.00  0.00     0.004 C 
BRANCH  14  15
ATOM     15  C   UNL     1      47.758  40.463  46.431  1.00  0.00     0.000 C 
BRANCH  15  16
ATOM     16  C   UNL     1      48.733  40.179  45.278  1.00  0.00     0.000 C 
BRANCH  16  17
ATOM     17  C   UNL     1      50.164  39.893  45.766  1.00  0.00    -0.000 C 
BRANCH  17  18
ATOM     18  C   UNL     1      50.886  41.174  46.234  1.00  0.00    -0.000 C 
BRANCH  18  19
ATOM     19  C   UNL     1      50.771  42.342  45.241  1.00  0.00    -0.003 C 
ATOM     20  C   UNL     1      50.921  43.710  45.906  1.00  0.00     0.004 C 
ENDBRANCH  18  19
ENDBRANCH  17  18
ENDBRANCH  16  17
ENDBRANCH  15  16
ENDBRANCH  14  15
ENDBRANCH  13  14
ENDBRANCH   2  13
TORSDOF 15
ENDMDL
MODEL 7
REMARK VINA RESULT:    -5.343      2.613      5.864
REMARK INTER + INTRA:         -11.770
REMARK INTER:                  -9.757
REMARK INTRA:                  -2.013
REMARK UNBOUND:                -1.743
REMARK SMILES CCCCCCCCC=CCCCCCCCC(=O)[O-]
REMARK SMILES IDX 10 1 9 2 11 3 12 4 13 5 14 6 15 7 16 8 17 9 18 10 19 11
REMARK SMILES IDX 20 12 8 13 7 14 6 15 5 16 4 17 3 18 2 19 1 20
REMARK H PARENT
REMARK Flexibility Score: inf
ROOT
ATOM      1  C   UNL     1      46.166  43.835  48.764  1.00  0.00    -0.031 C 
ATOM      2  C   UNL     1      47.016  43.311  47.863  1.00  0.00    -0.031 C 
ENDROOT
BRANCH   1   3
ATOM      3  C   UNL     1      46.581  44.661  49.956  1.00  0.00     0.027 C 
BRANCH   3   4
ATOM      4  C   UNL     1      46.226  46.145  49.778  1.00  0.00     0.004 C 
BRANCH   4   5
ATOM      5  C   UNL     1      46.024  46.520  48.302  1.00  0.00     0.000 C 
BRANCH   5   6
ATOM      6  C   UNL     1      44.585  46.990  48.047  1.00  0.00     0.000 C 
BRANCH   6   7
ATOM      7  C   UNL     1      43.967  46.370  46.781  1.00  0.00     0.000 C 
BRANCH   7   8
ATOM      8  C   UNL     1      44.681  46.730  45.462  1.00  0.00     0.006 C 
BRANCH   8   9
ATOM      9  C   UNL     1      45.290  45.532  44.718  1.00  0.00     0.053 C 
BRANCH   9  10
ATOM     10  C   UNL     1      44.532  45.205  43.469  1.00  0.00     0.041 C 
ATOM     11  O   UNL     1      43.324  45.539  43.354  1.00  0.00    -0.550 OA
ATOM     12  O   UNL     1      45.170  44.560  42.417  1.00  0.00    -0.550 OA
ENDBRANCH   9  10
ENDBRANCH   8   9
ENDBRANCH   7   8
ENDBRANCH   6   7
ENDBRANCH   5   6
ENDBRANCH   4   5
ENDBRANCH   3   4
ENDBRANCH   1   3
BRANCH   2  13
ATOM     13  C   UNL     1      48.519  43.387  47.957  1.00  0.00     0.027 C 
BRANCH  13  14
ATOM     14  C   UNL     1      49.142  43.535  46.563  1.00  0.00     0.004 C 
BRANCH  14  15
ATOM     15  C   UNL     1      50.281  42.526  46.361  1.00  0.00     0.000 C 
BRANCH  15  16
ATOM     16  C   UNL     1      50.023  41.189  47.074  1.00  0.00     0.000 C 
BRANCH  16  17
ATOM     17  C   UNL     1      49.460  40.112  46.131  1.00  0.00    -0.000 C 
BRANCH  17  18
ATOM     18  C   UNL     1      47.922  40.179  46.023  1.00  0.00    -0.000 C 
BRANCH  18  19
ATOM     19  C   UNL     1      47.424  40.792  44.703  1.00  0.00    -0.003 C 
ATOM     20  C   UNL     1      46.162  41.635  44.874  1.00  0.00     0.004 C 
ENDBRANCH  18  19
ENDBRANCH  17  18
ENDBRANCH  16  17
ENDBRANCH  15  16
ENDBRANCH  14  15
ENDBRANCH  13  14
ENDBRANCH   2  13
TORSDOF 15
ENDMDL
MODEL 8
REMARK VINA RESULT:    -5.300      3.351      7.183
REMARK INTER + INTRA:         -11.690
REMARK INTER:                 -10.240
REMARK INTRA:                  -1.450
REMARK UNBOUND:                -1.743
REMARK SMILES CCCCCCCCC=CCCCCCCCC(=O)[O-]
REMARK SMILES IDX 10 1 9 2 11 3 12 4 13 5 14 6 15 7 16 8 17 9 18 10 19 11
REMARK SMILES IDX 20 12 8 13 7 14 6 15 5 16 4 17 3 18 2 19 1 20
REMARK H PARENT
REMARK Flexibility Score: inf
ROOT
ATOM      1  C   UNL     1      47.856  43.605  47.956  1.00  0.00    -0.031 C 
ATOM      2  C   UNL     1      47.887  43.009  46.750  1.00  0.00    -0.031 C 
ENDROOT
BRANCH   1   3
ATOM      3  C   UNL     1      46.650  43.649  48.861  1.00  0.00     0.027 C 
BRANCH   3   4
ATOM      4  C   UNL     1      46.776  44.741  49.934  1.00  0.00     0.004 C 
BRANCH   4   5
ATOM      5  C   UNL     1      45.651  45.782  49.837  1.00  0.00     0.000 C 
BRANCH   5   6
ATOM      6  C   UNL     1      46.169  47.096  49.235  1.00  0.00     0.000 C 
BRANCH   6   7
ATOM      7  C   UNL     1      45.489  47.453  47.901  1.00  0.00     0.000 C 
BRANCH   7   8
ATOM      8  C   UNL     1      46.065  46.737  46.663  1.00  0.00     0.006 C 
BRANCH   8   9
ATOM      9  C   UNL     1      45.156  45.646  46.075  1.00  0.00     0.053 C 
BRANCH   9  10
ATOM     10  C   UNL     1      44.156  46.209  45.114  1.00  0.00     0.041 C 
ATOM     11  O   UNL     1      44.176  45.864  43.903  1.00  0.00    -0.550 OA
ATOM     12  O   UNL     1      43.179  47.090  45.562  1.00  0.00    -0.550 OA
ENDBRANCH   9  10
ENDBRANCH   8   9
ENDBRANCH   7   8
ENDBRANCH   6   7
ENDBRANCH   5   6
ENDBRANCH   4   5
ENDBRANCH   3   4
ENDBRANCH   1   3
BRANCH   2  13
ATOM     13  C   UNL     1      46.696  42.376  46.076  1.00  0.00     0.027 C 
BRANCH  13  14
ATOM     14  C   UNL     1      47.095  41.062  45.394  1.00  0.00     0.004 C 
BRANCH  14  15
ATOM     15  C   UNL     1      47.838  40.140  46.371  1.00  0.00     0.000 C 
BRANCH  15  16
ATOM     16  C   UNL     1      48.611  39.019  45.657  1.00  0.00     0.000 C 
BRANCH  16  17
ATOM     17  C   UNL     1      49.449  38.166  46.625  1.00  0.00    -0.000 C 
BRANCH  17  18
ATOM     18  C   UNL     1      48.690  36.909  47.100  1.00  0.00    -0.000 C 
BRANCH  18  19
ATOM     19  C   UNL     1      48.444  35.880  45.984  1.00  0.00    -0.003 C 
ATOM     20  C   UNL     1      47.870  34.563  46.501  1.00  0.00     0.004 C 
ENDBRANCH  18  19
ENDBRANCH  17  18
ENDBRANCH  16  17
ENDBRANCH  15  16
ENDBRANCH  14  15
ENDBRANCH  13  14
ENDBRANCH   2  13
TORSDOF 15
ENDMDL
MODEL 9
REMARK VINA RESULT:    -5.260      3.500      6.345
REMARK INTER + INTRA:         -11.614
REMARK INTER:                  -9.343
REMARK INTRA:                  -2.271
REMARK UNBOUND:                -1.743
REMARK SMILES CCCCCCCCC=CCCCCCCCC(=O)[O-]
REMARK SMILES IDX 10 1 9 2 11 3 12 4 13 5 14 6 15 7 16 8 17 9 18 10 19 11
REMARK SMILES IDX 20 12 8 13 7 14 6 15 5 16 4 17 3 18 2 19 1 20
REMARK H PARENT
REMARK Flexibility Score: inf
ROOT
ATOM      1  C   UNL     1      47.714  42.924  46.965  1.00  0.00    -0.031 C 
ATOM      2  C   UNL     1      47.539  43.621  48.103  1.00  0.00    -0.031 C 
ENDROOT
BRANCH   1   3
ATOM      3  C   UNL     1      46.604  42.261  46.186  1.00  0.00     0.027 C 
BRANCH   3   4
ATOM      4  C   UNL     1      47.100  41.027  45.419  1.00  0.00     0.004 C 
BRANCH   4   5
ATOM      5  C   UNL     1      47.850  40.041  46.327  1.00  0.00     0.000 C 
BRANCH   5   6
ATOM      6  C   UNL     1      48.969  39.326  45.556  1.00  0.00     0.000 C 
BRANCH   6   7
ATOM      7  C   UNL     1      49.612  40.213  44.473  1.00  0.00     0.000 C 
BRANCH   7   8
ATOM      8  C   UNL     1      51.026  40.728  44.806  1.00  0.00     0.006 C 
BRANCH   8   9
ATOM      9  C   UNL     1      51.223  42.237  44.594  1.00  0.00     0.053 C 
BRANCH   9  10
ATOM     10  C   UNL     1      51.154  42.996  45.883  1.00  0.00     0.041 C 
ATOM     11  O   UNL     1      51.456  42.433  46.968  1.00  0.00    -0.550 OA
ATOM     12  O   UNL     1      50.790  44.337  45.882  1.00  0.00    -0.550 OA
ENDBRANCH   9  10
ENDBRANCH   8   9
ENDBRANCH   7   8
ENDBRANCH   6   7
ENDBRANCH   5   6
ENDBRANCH   4   5
ENDBRANCH   3   4
ENDBRANCH   1   3
BRANCH   2  13
ATOM     13  C   UNL     1      46.224  43.766  48.826  1.00  0.00     0.027 C 
BRANCH  13  14
ATOM     14  C   UNL     1      46.391  44.625  50.086  1.00  0.00     0.004 C 
BRANCH  14  15
ATOM     15  C   UNL     1      45.528  45.892  50.004  1.00  0.00     0.000 C 
BRANCH  15  16
ATOM     16  C   UNL     1      46.248  47.056  49.305  1.00  0.00     0.000 C 
BRANCH  16  17
ATOM     17  C   UNL     1      45.595  47.440  47.966  1.00  0.00    -0.000 C 
BRANCH  17  18
ATOM     18  C   UNL     1      46.551  47.232  46.772  1.00  0.00    -0.000 C 
BRANCH  18  19
ATOM     19  C   UNL     1      46.081  46.145  45.790  1.00  0.00    -0.003 C 
ATOM     20  C   UNL     1      44.583  45.862  45.883  1.00  0.00     0.004 C 
ENDBRANCH  18  19
ENDBRANCH  17  18
ENDBRANCH  16  17
ENDBRANCH  15  16
ENDBRANCH  14  15
ENDBRANCH  13  14
ENDBRANCH   2  13
TORSDOF 15
ENDMDL
