MODEL 1
REMARK VINA RESULT:    -3.527      0.000      0.000
REMARK INTER + INTRA:         -12.889
REMARK INTER:                  -8.062
REMARK INTRA:                  -4.827
REMARK UNBOUND:                -4.827
REMARK SMILES CCCCCCCCCCCCCCCCCCCCCCCC(=O)[O-]
REMARK SMILES IDX 13 1 14 2 15 3 16 4 17 5 18 6 19 7 20 8 21 9 22 10 23 11
REMARK SMILES IDX 24 12 25 13 26 14 12 15 11 16 10 17 9 18 8 19 7 20 6 21 5 22
REMARK SMILES IDX 4 23 3 24 2 25 1 26
REMARK H PARENT
REMARK Flexibility Score: inf
ROOT
ATOM      1  C   UNL     1      -2.432   7.955  39.020  1.00  0.00     0.000 C 
ENDROOT
BRANCH   1   2
ATOM      2  C   UNL     1      -2.233   9.426  38.621  1.00  0.00     0.000 C 
BRANCH   2   3
ATOM      3  C   UNL     1      -1.925   9.585  37.120  1.00  0.00     0.000 C 
BRANCH   3   4
ATOM      4  C   UNL     1      -0.938   8.528  36.599  1.00  0.00     0.000 C 
BRANCH   4   5
ATOM      5  C   UNL     1      -1.593   7.526  35.633  1.00  0.00     0.000 C 
BRANCH   5   6
ATOM      6  C   UNL     1      -0.563   6.763  34.779  1.00  0.00     0.000 C 
BRANCH   6   7
ATOM      7  C   UNL     1       0.915   7.073  35.095  1.00  0.00     0.000 C 
BRANCH   7   8
ATOM      8  C   UNL     1       1.917   5.967  34.716  1.00  0.00     0.000 C 
BRANCH   8   9
ATOM      9  C   UNL     1       1.446   4.565  35.132  1.00  0.00     0.000 C 
BRANCH   9  10
ATOM     10  C   UNL     1       2.353   3.915  36.194  1.00  0.00     0.006 C 
BRANCH  10  11
ATOM     11  C   UNL     1       3.509   4.814  36.665  1.00  0.00     0.053 C 
BRANCH  11  12
ATOM     12  C   UNL     1       4.846   4.344  36.180  1.00  0.00     0.041 C 
ATOM     13  O   UNL     1       5.762   4.072  37.002  1.00  0.00    -0.550 OA
ATOM     14  O   UNL     1       5.072   4.175  34.819  1.00  0.00    -0.550 OA
ENDBRANCH  11  12
ENDBRANCH  10  11
ENDBRANCH   9  10
ENDBRANCH   8   9
ENDBRANCH   7   8
ENDBRANCH   6   7
ENDBRANCH   5   6
ENDBRANCH   4   5
ENDBRANCH   3   4
ENDBRANCH   2   3
ENDBRANCH   1   2
BRANCH   1  15
ATOM     15  C   UNL     1      -3.009   7.813  40.440  1.00  0.00     0.000 C 
BRANCH  15  16
ATOM     16  C   UNL     1      -2.492   6.561  41.164  1.00  0.00     0.000 C 
BRANCH  16  17
ATOM     17  C   UNL     1      -1.329   6.867  42.125  1.00  0.00     0.000 C 
BRANCH  17  18
ATOM     18  C   UNL     1      -1.274   8.354  42.536  1.00  0.00    -0.000 C 
BRANCH  18  19
ATOM     19  C   UNL     1      -0.014   9.092  42.042  1.00  0.00    -0.000 C 
BRANCH  19  20
ATOM     20  C   UNL     1       1.008   8.211  41.300  1.00  0.00    -0.000 C 
BRANCH  20  21
ATOM     21  C   UNL     1       1.124   8.473  39.784  1.00  0.00    -0.000 C 
BRANCH  21  22
ATOM     22  C   UNL     1       1.555   7.256  38.946  1.00  0.00    -0.000 C 
BRANCH  22  23
ATOM     23  C   UNL     1       1.652   5.965  39.777  1.00  0.00    -0.000 C 
BRANCH  23  24
ATOM     24  C   UNL     1       0.614   4.910  39.358  1.00  0.00    -0.000 C 
BRANCH  24  25
ATOM     25  C   UNL     1      -0.344   5.359  38.240  1.00  0.00    -0.003 C 
ATOM     26  C   UNL     1      -1.354   4.279  37.850  1.00  0.00     0.004 C 
ENDBRANCH  24  25
ENDBRANCH  23  24
ENDBRANCH  22  23
ENDBRANCH  21  22
ENDBRANCH  20  21
ENDBRANCH  19  20
ENDBRANCH  18  19
ENDBRANCH  17  18
ENDBRANCH  16  17
ENDBRANCH  15  16
ENDBRANCH   1  15
TORSDOF 22
ENDMDL
MODEL 2
REMARK VINA RESULT:    -3.375      2.384      4.667
REMARK INTER + INTRA:         -12.543
REMARK INTER:                  -8.143
REMARK INTRA:                  -4.401
REMARK UNBOUND:                -4.827
REMARK SMILES CCCCCCCCCCCCCCCCCCCCCCCC(=O)[O-]
REMARK SMILES IDX 13 1 14 2 15 3 16 4 17 5 18 6 19 7 20 8 21 9 22 10 23 11
REMARK SMILES IDX 24 12 25 13 26 14 12 15 11 16 10 17 9 18 8 19 7 20 6 21 5 22
REMARK SMILES IDX 4 23 3 24 2 25 1 26
REMARK H PARENT
REMARK Flexibility Score: inf
ROOT
ATOM      1  C   UNL     1      -0.188   6.121  42.021  1.00  0.00     0.000 C 
ENDROOT
BRANCH   1   2
ATOM      2  C   UNL     1       0.827   6.903  42.870  1.00  0.00     0.000 C 
BRANCH   2   3
ATOM      3  C   UNL     1       1.075   8.320  42.322  1.00  0.00     0.000 C 
BRANCH   3   4
ATOM      4  C   UNL     1       0.313   8.597  41.016  1.00  0.00     0.000 C 
BRANCH   4   5
ATOM      5  C   UNL     1       0.681   9.950  40.385  1.00  0.00     0.000 C 
BRANCH   5   6
ATOM      6  C   UNL     1       0.214  10.072  38.923  1.00  0.00     0.000 C 
BRANCH   6   7
ATOM      7  C   UNL     1      -1.304   9.914  38.700  1.00  0.00     0.000 C 
BRANCH   7   8
ATOM      8  C   UNL     1      -1.744   9.753  37.233  1.00  0.00     0.000 C 
BRANCH   8   9
ATOM      9  C   UNL     1      -0.604   9.282  36.316  1.00  0.00     0.000 C 
BRANCH   9  10
ATOM     10  C   UNL     1      -0.992   8.073  35.445  1.00  0.00     0.006 C 
BRANCH  10  11
ATOM     11  C   UNL     1       0.185   7.460  34.665  1.00  0.00     0.053 C 
BRANCH  11  12
ATOM     12  C   UNL     1      -0.154   6.138  34.046  1.00  0.00     0.041 C 
ATOM     13  O   UNL     1      -0.751   5.255  34.719  1.00  0.00    -0.550 OA
ATOM     14  O   UNL     1       0.162   5.891  32.716  1.00  0.00    -0.550 OA
ENDBRANCH  11  12
ENDBRANCH  10  11
ENDBRANCH   9  10
ENDBRANCH   8   9
ENDBRANCH   7   8
ENDBRANCH   6   7
ENDBRANCH   5   6
ENDBRANCH   4   5
ENDBRANCH   3   4
ENDBRANCH   2   3
ENDBRANCH   1   2
BRANCH   1  15
ATOM     15  C   UNL     1      -1.344   5.562  42.869  1.00  0.00     0.000 C 
BRANCH  15  16
ATOM     16  C   UNL     1      -2.719   5.807  42.228  1.00  0.00     0.000 C 
BRANCH  16  17
ATOM     17  C   UNL     1      -2.859   7.224  41.644  1.00  0.00     0.000 C 
BRANCH  17  18
ATOM     18  C   UNL     1      -3.275   7.215  40.157  1.00  0.00    -0.000 C 
BRANCH  18  19
ATOM     19  C   UNL     1      -3.153   5.834  39.484  1.00  0.00    -0.000 C 
BRANCH  19  20
ATOM     20  C   UNL     1      -2.179   5.773  38.293  1.00  0.00    -0.000 C 
BRANCH  20  21
ATOM     21  C   UNL     1      -0.788   6.391  38.549  1.00  0.00    -0.000 C 
BRANCH  21  22
ATOM     22  C   UNL     1       0.386   5.637  37.902  1.00  0.00    -0.000 C 
BRANCH  22  23
ATOM     23  C   UNL     1       1.658   6.495  37.790  1.00  0.00    -0.000 C 
BRANCH  23  24
ATOM     24  C   UNL     1       2.641   6.254  38.949  1.00  0.00    -0.000 C 
BRANCH  24  25
ATOM     25  C   UNL     1       2.507   4.879  39.629  1.00  0.00    -0.003 C 
ATOM     26  C   UNL     1       3.489   3.844  39.078  1.00  0.00     0.004 C 
ENDBRANCH  24  25
ENDBRANCH  23  24
ENDBRANCH  22  23
ENDBRANCH  21  22
ENDBRANCH  20  21
ENDBRANCH  19  20
ENDBRANCH  18  19
ENDBRANCH  17  18
ENDBRANCH  16  17
ENDBRANCH  15  16
ENDBRANCH   1  15
TORSDOF 22
ENDMDL
MODEL 3
REMARK VINA RESULT:    -3.361      1.466      4.030
REMARK INTER + INTRA:         -12.510
REMARK INTER:                  -7.582
REMARK INTRA:                  -4.928
REMARK UNBOUND:                -4.827
REMARK SMILES CCCCCCCCCCCCCCCCCCCCCCCC(=O)[O-]
REMARK SMILES IDX 13 1 14 2 15 3 16 4 17 5 18 6 19 7 20 8 21 9 22 10 23 11
REMARK SMILES IDX 24 12 25 13 26 14 12 15 11 16 10 17 9 18 8 19 7 20 6 21 5 22
REMARK SMILES IDX 4 23 3 24 2 25 1 26
REMARK H PARENT
REMARK Flexibility Score: inf
ROOT
ATOM      1  C   UNL     1       1.504   6.426  39.843  1.00  0.00     0.000 C 
ENDROOT
BRANCH   1   2
ATOM      2  C   UNL     1       1.365   5.006  40.414  1.00  0.00     0.000 C 
BRANCH   2   3
ATOM      3  C   UNL     1       0.339   4.163  39.635  1.00  0.00     0.000 C 
BRANCH   3   4
ATOM      4  C   UNL     1      -0.076   4.809  38.304  1.00  0.00     0.000 C 
BRANCH   4   5
ATOM      5  C   UNL     1      -0.782   3.824  37.357  1.00  0.00     0.000 C 
BRANCH   5   6
ATOM      6  C   UNL     1      -1.726   4.526  36.364  1.00  0.00     0.000 C 
BRANCH   6   7
ATOM      7  C   UNL     1      -1.030   5.339  35.253  1.00  0.00     0.000 C 
BRANCH   7   8
ATOM      8  C   UNL     1       0.387   4.866  34.878  1.00  0.00     0.000 C 
BRANCH   8   9
ATOM      9  C   UNL     1       1.426   5.997  34.927  1.00  0.00     0.000 C 
BRANCH   9  10
ATOM     10  C   UNL     1       2.619   5.680  35.848  1.00  0.00     0.006 C 
BRANCH  10  11
ATOM     11  C   UNL     1       2.873   4.176  36.048  1.00  0.00     0.053 C 
BRANCH  11  12
ATOM     12  C   UNL     1       3.350   3.845  37.430  1.00  0.00     0.041 C 
ATOM     13  O   UNL     1       3.064   2.734  37.952  1.00  0.00    -0.550 OA
ATOM     14  O   UNL     1       4.137   4.751  38.130  1.00  0.00    -0.550 OA
ENDBRANCH  11  12
ENDBRANCH  10  11
ENDBRANCH   9  10
ENDBRANCH   8   9
ENDBRANCH   7   8
ENDBRANCH   6   7
ENDBRANCH   5   6
ENDBRANCH   4   5
ENDBRANCH   3   4
ENDBRANCH   2   3
ENDBRANCH   1   2
BRANCH   1  15
ATOM     15  C   UNL     1       0.842   7.482  40.748  1.00  0.00     0.000 C 
BRANCH  15  16
ATOM     16  C   UNL     1       0.998   8.909  40.202  1.00  0.00     0.000 C 
BRANCH  16  17
ATOM     17  C   UNL     1       1.593   8.941  38.782  1.00  0.00     0.000 C 
BRANCH  17  18
ATOM     18  C   UNL     1       0.617   9.535  37.744  1.00  0.00    -0.000 C 
BRANCH  18  19
ATOM     19  C   UNL     1      -0.171   8.474  36.950  1.00  0.00    -0.000 C 
BRANCH  19  20
ATOM     20  C   UNL     1      -1.703   8.587  37.056  1.00  0.00    -0.000 C 
BRANCH  20  21
ATOM     21  C   UNL     1      -2.223   9.330  38.305  1.00  0.00    -0.000 C 
BRANCH  21  22
ATOM     22  C   UNL     1      -2.657   8.420  39.467  1.00  0.00    -0.000 C 
BRANCH  22  23
ATOM     23  C   UNL     1      -2.400   6.930  39.186  1.00  0.00    -0.000 C 
BRANCH  23  24
ATOM     24  C   UNL     1      -3.510   6.021  39.740  1.00  0.00    -0.000 C 
BRANCH  24  25
ATOM     25  C   UNL     1      -3.046   5.020  40.814  1.00  0.00    -0.003 C 
ATOM     26  C   UNL     1      -2.214   5.674  41.917  1.00  0.00     0.004 C 
ENDBRANCH  24  25
ENDBRANCH  23  24
ENDBRANCH  22  23
ENDBRANCH  21  22
ENDBRANCH  20  21
ENDBRANCH  19  20
ENDBRANCH  18  19
ENDBRANCH  17  18
ENDBRANCH  16  17
ENDBRANCH  15  16
ENDBRANCH   1  15
TORSDOF 22
ENDMDL
MODEL 4
REMARK VINA RESULT:    -3.360      2.065      3.268
REMARK INTER + INTRA:         -12.509
REMARK INTER:                  -7.971
REMARK INTRA:                  -4.538
REMARK UNBOUND:                -4.827
REMARK SMILES CCCCCCCCCCCCCCCCCCCCCCCC(=O)[O-]
REMARK SMILES IDX 13 1 14 2 15 3 16 4 17 5 18 6 19 7 20 8 21 9 22 10 23 11
REMARK SMILES IDX 24 12 25 13 26 14 12 15 11 16 10 17 9 18 8 19 7 20 6 21 5 22
REMARK SMILES IDX 4 23 3 24 2 25 1 26
REMARK H PARENT
REMARK Flexibility Score: inf
ROOT
ATOM      1  C   UNL     1      -2.954   5.943  40.010  1.00  0.00     0.000 C 
ENDROOT
BRANCH   1   2
ATOM      2  C   UNL     1      -3.087   7.459  39.796  1.00  0.00     0.000 C 
BRANCH   2   3
ATOM      3  C   UNL     1      -2.184   7.968  38.658  1.00  0.00     0.000 C 
BRANCH   3   4
ATOM      4  C   UNL     1      -2.271   9.490  38.461  1.00  0.00     0.000 C 
BRANCH   4   5
ATOM      5  C   UNL     1      -1.829   9.936  37.057  1.00  0.00     0.000 C 
BRANCH   5   6
ATOM      6  C   UNL     1      -0.314   9.776  36.831  1.00  0.00     0.000 C 
BRANCH   6   7
ATOM      7  C   UNL     1       0.116   9.573  35.363  1.00  0.00     0.000 C 
BRANCH   7   8
ATOM      8  C   UNL     1       0.771   8.215  35.048  1.00  0.00     0.000 C 
BRANCH   8   9
ATOM      9  C   UNL     1       0.596   7.190  36.179  1.00  0.00     0.000 C 
BRANCH   9  10
ATOM     10  C   UNL     1      -0.503   6.152  35.887  1.00  0.00     0.006 C 
BRANCH  10  11
ATOM     11  C   UNL     1      -0.678   5.097  36.994  1.00  0.00     0.053 C 
BRANCH  11  12
ATOM     12  C   UNL     1      -0.853   3.711  36.454  1.00  0.00     0.041 C 
ATOM     13  O   UNL     1       0.112   2.900  36.458  1.00  0.00    -0.550 OA
ATOM     14  O   UNL     1      -2.092   3.302  35.974  1.00  0.00    -0.550 OA
ENDBRANCH  11  12
ENDBRANCH  10  11
ENDBRANCH   9  10
ENDBRANCH   8   9
ENDBRANCH   7   8
ENDBRANCH   6   7
ENDBRANCH   5   6
ENDBRANCH   4   5
ENDBRANCH   3   4
ENDBRANCH   2   3
ENDBRANCH   1   2
BRANCH   1  15
ATOM     15  C   UNL     1      -2.312   5.603  41.366  1.00  0.00     0.000 C 
BRANCH  15  16
ATOM     16  C   UNL     1      -2.503   6.717  42.406  1.00  0.00     0.000 C 
BRANCH  16  17
ATOM     17  C   UNL     1      -1.171   7.235  42.976  1.00  0.00     0.000 C 
BRANCH  17  18
ATOM     18  C   UNL     1      -0.817   8.648  42.465  1.00  0.00    -0.000 C 
BRANCH  18  19
ATOM     19  C   UNL     1       0.612   8.766  41.897  1.00  0.00    -0.000 C 
BRANCH  19  20
ATOM     20  C   UNL     1       0.698   8.843  40.362  1.00  0.00    -0.000 C 
BRANCH  20  21
ATOM     21  C   UNL     1       1.438   7.670  39.685  1.00  0.00    -0.000 C 
BRANCH  21  22
ATOM     22  C   UNL     1       0.937   6.271  40.083  1.00  0.00    -0.000 C 
BRANCH  22  23
ATOM     23  C   UNL     1       1.926   5.155  39.708  1.00  0.00    -0.000 C 
BRANCH  23  24
ATOM     24  C   UNL     1       2.886   5.567  38.579  1.00  0.00    -0.000 C 
BRANCH  24  25
ATOM     25  C   UNL     1       3.037   4.528  37.453  1.00  0.00    -0.003 C 
ATOM     26  C   UNL     1       3.466   5.149  36.124  1.00  0.00     0.004 C 
ENDBRANCH  24  25
ENDBRANCH  23  24
ENDBRANCH  22  23
ENDBRANCH  21  22
ENDBRANCH  20  21
ENDBRANCH  19  20
ENDBRANCH  18  19
ENDBRANCH  17  18
ENDBRANCH  16  17
ENDBRANCH  15  16
ENDBRANCH   1  15
TORSDOF 22
ENDMDL
MODEL 5
REMARK VINA RESULT:    -3.328      1.970      3.602
REMARK INTER + INTRA:         -12.435
REMARK INTER:                  -8.102
REMARK INTRA:                  -4.332
REMARK UNBOUND:                -4.827
REMARK SMILES CCCCCCCCCCCCCCCCCCCCCCCC(=O)[O-]
REMARK SMILES IDX 13 1 14 2 15 3 16 4 17 5 18 6 19 7 20 8 21 9 22 10 23 11
REMARK SMILES IDX 24 12 25 13 26 14 12 15 11 16 10 17 9 18 8 19 7 20 6 21 5 22
REMARK SMILES IDX 4 23 3 24 2 25 1 26
REMARK H PARENT
REMARK Flexibility Score: inf
ROOT
ATOM      1  C   UNL     1      -3.001   6.725  39.664  1.00  0.00     0.000 C 
ENDROOT
BRANCH   1   2
ATOM      2  C   UNL     1      -2.438   5.295  39.712  1.00  0.00     0.000 C 
BRANCH   2   3
ATOM      3  C   UNL     1      -1.120   5.162  38.927  1.00  0.00     0.000 C 
BRANCH   3   4
ATOM      4  C   UNL     1      -1.184   4.085  37.832  1.00  0.00     0.000 C 
BRANCH   4   5
ATOM      5  C   UNL     1      -0.483   4.514  36.531  1.00  0.00     0.000 C 
BRANCH   5   6
ATOM      6  C   UNL     1      -1.216   5.660  35.811  1.00  0.00     0.000 C 
BRANCH   6   7
ATOM      7  C   UNL     1      -0.498   6.225  34.568  1.00  0.00     0.000 C 
BRANCH   7   8
ATOM      8  C   UNL     1       0.129   5.174  33.633  1.00  0.00     0.000 C 
BRANCH   8   9
ATOM      9  C   UNL     1       1.617   5.437  33.351  1.00  0.00     0.000 C 
BRANCH   9  10
ATOM     10  C   UNL     1       2.454   5.597  34.634  1.00  0.00     0.006 C 
BRANCH  10  11
ATOM     11  C   UNL     1       3.732   4.740  34.658  1.00  0.00     0.053 C 
BRANCH  11  12
ATOM     12  C   UNL     1       3.447   3.274  34.780  1.00  0.00     0.041 C 
ATOM     13  O   UNL     1       2.538   2.866  35.550  1.00  0.00    -0.550 OA
ATOM     14  O   UNL     1       4.165   2.360  34.018  1.00  0.00    -0.550 OA
ENDBRANCH  11  12
ENDBRANCH  10  11
ENDBRANCH   9  10
ENDBRANCH   8   9
ENDBRANCH   7   8
ENDBRANCH   6   7
ENDBRANCH   5   6
ENDBRANCH   4   5
ENDBRANCH   3   4
ENDBRANCH   2   3
ENDBRANCH   1   2
BRANCH   1  15
ATOM     15  C   UNL     1      -2.108   7.672  38.842  1.00  0.00     0.000 C 
BRANCH  15  16
ATOM     16  C   UNL     1      -2.520   9.145  38.987  1.00  0.00     0.000 C 
BRANCH  16  17
ATOM     17  C   UNL     1      -2.093  10.003  37.784  1.00  0.00     0.000 C 
BRANCH  17  18
ATOM     18  C   UNL     1      -1.632   9.152  36.581  1.00  0.00    -0.000 C 
BRANCH  18  19
ATOM     19  C   UNL     1      -0.518   9.811  35.742  1.00  0.00    -0.000 C 
BRANCH  19  20
ATOM     20  C   UNL     1       0.904   9.293  36.026  1.00  0.00    -0.000 C 
BRANCH  20  21
ATOM     21  C   UNL     1       1.509   9.737  37.375  1.00  0.00    -0.000 C 
BRANCH  21  22
ATOM     22  C   UNL     1       1.539   8.649  38.462  1.00  0.00    -0.000 C 
BRANCH  22  23
ATOM     23  C   UNL     1       1.804   7.245  37.893  1.00  0.00    -0.000 C 
BRANCH  23  24
ATOM     24  C   UNL     1       2.317   6.260  38.958  1.00  0.00    -0.000 C 
BRANCH  24  25
ATOM     25  C   UNL     1       2.827   4.919  38.400  1.00  0.00    -0.003 C 
ATOM     26  C   UNL     1       4.352   4.812  38.406  1.00  0.00     0.004 C 
ENDBRANCH  24  25
ENDBRANCH  23  24
ENDBRANCH  22  23
ENDBRANCH  21  22
ENDBRANCH  20  21
ENDBRANCH  19  20
ENDBRANCH  18  19
ENDBRANCH  17  18
ENDBRANCH  16  17
ENDBRANCH  15  16
ENDBRANCH   1  15
TORSDOF 22
ENDMDL
MODEL 6
REMARK VINA RESULT:    -3.264      1.716      4.070
REMARK INTER + INTRA:         -12.289
REMARK INTER:                  -7.689
REMARK INTRA:                  -4.600
REMARK UNBOUND:                -4.827
REMARK SMILES CCCCCCCCCCCCCCCCCCCCCCCC(=O)[O-]
REMARK SMILES IDX 13 1 14 2 15 3 16 4 17 5 18 6 19 7 20 8 21 9 22 10 23 11
REMARK SMILES IDX 24 12 25 13 26 14 12 15 11 16 10 17 9 18 8 19 7 20 6 21 5 22
REMARK SMILES IDX 4 23 3 24 2 25 1 26
REMARK H PARENT
REMARK Flexibility Score: inf
ROOT
ATOM      1  C   UNL     1      -3.136   6.148  39.685  1.00  0.00     0.000 C 
ENDROOT
BRANCH   1   2
ATOM      2  C   UNL     1      -3.052   5.280  40.952  1.00  0.00     0.000 C 
BRANCH   2   3
ATOM      3  C   UNL     1      -1.879   4.285  40.899  1.00  0.00     0.000 C 
BRANCH   3   4
ATOM      4  C   UNL     1      -0.868   4.493  42.039  1.00  0.00     0.000 C 
BRANCH   4   5
ATOM      5  C   UNL     1      -0.214   5.885  42.011  1.00  0.00     0.000 C 
BRANCH   5   6
ATOM      6  C   UNL     1       1.106   5.906  41.219  1.00  0.00     0.000 C 
BRANCH   6   7
ATOM      7  C   UNL     1       0.959   6.100  39.696  1.00  0.00     0.000 C 
BRANCH   7   8
ATOM      8  C   UNL     1       2.266   5.993  38.887  1.00  0.00     0.000 C 
BRANCH   8   9
ATOM      9  C   UNL     1       2.655   4.541  38.569  1.00  0.00     0.000 C 
BRANCH   9  10
ATOM     10  C   UNL     1       3.406   4.398  37.232  1.00  0.00     0.006 C 
BRANCH  10  11
ATOM     11  C   UNL     1       3.033   5.465  36.187  1.00  0.00     0.053 C 
BRANCH  11  12
ATOM     12  C   UNL     1       2.617   4.873  34.875  1.00  0.00     0.041 C 
ATOM     13  O   UNL     1       3.112   5.303  33.798  1.00  0.00    -0.550 OA
ATOM     14  O   UNL     1       1.706   3.825  34.842  1.00  0.00    -0.550 OA
ENDBRANCH  11  12
ENDBRANCH  10  11
ENDBRANCH   9  10
ENDBRANCH   8   9
ENDBRANCH   7   8
ENDBRANCH   6   7
ENDBRANCH   5   6
ENDBRANCH   4   5
ENDBRANCH   3   4
ENDBRANCH   2   3
ENDBRANCH   1   2
BRANCH   1  15
ATOM     15  C   UNL     1      -3.025   7.650  40.002  1.00  0.00     0.000 C 
BRANCH  15  16
ATOM     16  C   UNL     1      -1.859   8.324  39.264  1.00  0.00     0.000 C 
BRANCH  16  17
ATOM     17  C   UNL     1      -0.928   9.106  40.208  1.00  0.00     0.000 C 
BRANCH  17  18
ATOM     18  C   UNL     1      -0.035  10.118  39.459  1.00  0.00    -0.000 C 
BRANCH  18  19
ATOM     19  C   UNL     1       1.275   9.512  38.919  1.00  0.00    -0.000 C 
BRANCH  19  20
ATOM     20  C   UNL     1       1.544   9.769  37.424  1.00  0.00    -0.000 C 
BRANCH  20  21
ATOM     21  C   UNL     1       0.983   8.701  36.462  1.00  0.00    -0.000 C 
BRANCH  21  22
ATOM     22  C   UNL     1      -0.486   8.904  36.054  1.00  0.00    -0.000 C 
BRANCH  22  23
ATOM     23  C   UNL     1      -1.191   7.586  35.690  1.00  0.00    -0.000 C 
BRANCH  23  24
ATOM     24  C   UNL     1      -0.537   6.360  36.350  1.00  0.00    -0.000 C 
BRANCH  24  25
ATOM     25  C   UNL     1      -1.371   5.069  36.278  1.00  0.00    -0.003 C 
ATOM     26  C   UNL     1      -1.024   4.072  37.383  1.00  0.00     0.004 C 
ENDBRANCH  24  25
ENDBRANCH  23  24
ENDBRANCH  22  23
ENDBRANCH  21  22
ENDBRANCH  20  21
ENDBRANCH  19  20
ENDBRANCH  18  19
ENDBRANCH  17  18
ENDBRANCH  16  17
ENDBRANCH  15  16
ENDBRANCH   1  15
TORSDOF 22
ENDMDL
MODEL 7
REMARK VINA RESULT:    -3.261      2.460      4.683
REMARK INTER + INTRA:         -12.282
REMARK INTER:                  -7.989
REMARK INTRA:                  -4.293
REMARK UNBOUND:                -4.827
REMARK SMILES CCCCCCCCCCCCCCCCCCCCCCCC(=O)[O-]
REMARK SMILES IDX 13 1 14 2 15 3 16 4 17 5 18 6 19 7 20 8 21 9 22 10 23 11
REMARK SMILES IDX 24 12 25 13 26 14 12 15 11 16 10 17 9 18 8 19 7 20 6 21 5 22
REMARK SMILES IDX 4 23 3 24 2 25 1 26
REMARK H PARENT
REMARK Flexibility Score: inf
ROOT
ATOM      1  C   UNL     1      -1.265   7.267  35.443  1.00  0.00     0.000 C 
ENDROOT
BRANCH   1   2
ATOM      2  C   UNL     1      -1.848   6.014  36.115  1.00  0.00     0.000 C 
BRANCH   2   3
ATOM      3  C   UNL     1      -1.199   5.731  37.482  1.00  0.00     0.000 C 
BRANCH   3   4
ATOM      4  C   UNL     1      -1.129   4.231  37.811  1.00  0.00     0.000 C 
BRANCH   4   5
ATOM      5  C   UNL     1      -0.573   3.391  36.649  1.00  0.00     0.000 C 
BRANCH   5   6
ATOM      6  C   UNL     1       0.926   3.639  36.399  1.00  0.00     0.000 C 
BRANCH   6   7
ATOM      7  C   UNL     1       1.295   4.056  34.960  1.00  0.00     0.000 C 
BRANCH   7   8
ATOM      8  C   UNL     1       2.298   5.219  34.846  1.00  0.00     0.000 C 
BRANCH   8   9
ATOM      9  C   UNL     1       2.262   5.906  33.472  1.00  0.00     0.000 C 
BRANCH   9  10
ATOM     10  C   UNL     1       0.846   5.977  32.871  1.00  0.00     0.006 C 
BRANCH  10  11
ATOM     11  C   UNL     1       0.818   5.974  31.332  1.00  0.00     0.053 C 
BRANCH  11  12
ATOM     12  C   UNL     1       0.130   4.769  30.765  1.00  0.00     0.041 C 
ATOM     13  O   UNL     1      -0.043   3.743  31.476  1.00  0.00    -0.550 OA
ATOM     14  O   UNL     1      -0.351   4.791  29.461  1.00  0.00    -0.550 OA
ENDBRANCH  11  12
ENDBRANCH  10  11
ENDBRANCH   9  10
ENDBRANCH   8   9
ENDBRANCH   7   8
ENDBRANCH   6   7
ENDBRANCH   5   6
ENDBRANCH   4   5
ENDBRANCH   3   4
ENDBRANCH   2   3
ENDBRANCH   1   2
BRANCH   1  15
ATOM     15  C   UNL     1       0.037   7.735  36.118  1.00  0.00     0.000 C 
BRANCH  15  16
ATOM     16  C   UNL     1      -0.096   9.125  36.757  1.00  0.00     0.000 C 
BRANCH  16  17
ATOM     17  C   UNL     1      -1.495   9.736  36.569  1.00  0.00     0.000 C 
BRANCH  17  18
ATOM     18  C   UNL     1      -2.231   9.960  37.908  1.00  0.00    -0.000 C 
BRANCH  18  19
ATOM     19  C   UNL     1      -1.806   8.983  39.023  1.00  0.00    -0.000 C 
BRANCH  19  20
ATOM     20  C   UNL     1      -2.961   8.207  39.683  1.00  0.00    -0.000 C 
BRANCH  20  21
ATOM     21  C   UNL     1      -2.646   7.619  41.075  1.00  0.00    -0.000 C 
BRANCH  21  22
ATOM     22  C   UNL     1      -1.644   6.452  41.074  1.00  0.00    -0.000 C 
BRANCH  22  23
ATOM     23  C   UNL     1      -0.223   6.886  41.473  1.00  0.00    -0.000 C 
BRANCH  23  24
ATOM     24  C   UNL     1       0.866   6.204  40.627  1.00  0.00    -0.000 C 
BRANCH  24  25
ATOM     25  C   UNL     1       1.505   7.105  39.554  1.00  0.00    -0.003 C 
ATOM     26  C   UNL     1       2.383   6.330  38.572  1.00  0.00     0.004 C 
ENDBRANCH  24  25
ENDBRANCH  23  24
ENDBRANCH  22  23
ENDBRANCH  21  22
ENDBRANCH  20  21
ENDBRANCH  19  20
ENDBRANCH  18  19
ENDBRANCH  17  18
ENDBRANCH  16  17
ENDBRANCH  15  16
ENDBRANCH   1  15
TORSDOF 22
ENDMDL
MODEL 8
REMARK VINA RESULT:    -3.246      2.296      3.735
REMARK INTER + INTRA:         -12.248
REMARK INTER:                  -8.159
REMARK INTRA:                  -4.089
REMARK UNBOUND:                -4.827
REMARK SMILES CCCCCCCCCCCCCCCCCCCCCCCC(=O)[O-]
REMARK SMILES IDX 13 1 14 2 15 3 16 4 17 5 18 6 19 7 20 8 21 9 22 10 23 11
REMARK SMILES IDX 24 12 25 13 26 14 12 15 11 16 10 17 9 18 8 19 7 20 6 21 5 22
REMARK SMILES IDX 4 23 3 24 2 25 1 26
REMARK H PARENT
REMARK Flexibility Score: inf
ROOT
ATOM      1  C   UNL     1       0.331   9.604  40.895  1.00  0.00     0.000 C 
ENDROOT
BRANCH   1   2
ATOM      2  C   UNL     1       1.108   9.348  39.594  1.00  0.00     0.000 C 
BRANCH   2   3
ATOM      3  C   UNL     1       0.409   9.963  38.368  1.00  0.00     0.000 C 
BRANCH   3   4
ATOM      4  C   UNL     1      -1.110  10.104  38.555  1.00  0.00     0.000 C 
BRANCH   4   5
ATOM      5  C   UNL     1      -1.914   9.491  37.396  1.00  0.00     0.000 C 
BRANCH   5   6
ATOM      6  C   UNL     1      -1.068   9.294  36.124  1.00  0.00     0.000 C 
BRANCH   6   7
ATOM      7  C   UNL     1      -0.810   7.827  35.723  1.00  0.00     0.000 C 
BRANCH   7   8
ATOM      8  C   UNL     1       0.631   7.328  35.935  1.00  0.00     0.000 C 
BRANCH   8   9
ATOM      9  C   UNL     1       0.838   5.880  35.463  1.00  0.00     0.000 C 
BRANCH   9  10
ATOM     10  C   UNL     1      -0.241   5.411  34.469  1.00  0.00     0.006 C 
BRANCH  10  11
ATOM     11  C   UNL     1       0.299   5.094  33.063  1.00  0.00     0.053 C 
BRANCH  11  12
ATOM     12  C   UNL     1      -0.083   3.725  32.589  1.00  0.00     0.041 C 
ATOM     13  O   UNL     1      -0.746   2.956  33.334  1.00  0.00    -0.550 OA
ATOM     14  O   UNL     1       0.267   3.310  31.309  1.00  0.00    -0.550 OA
ENDBRANCH  11  12
ENDBRANCH  10  11
ENDBRANCH   9  10
ENDBRANCH   8   9
ENDBRANCH   7   8
ENDBRANCH   6   7
ENDBRANCH   5   6
ENDBRANCH   4   5
ENDBRANCH   3   4
ENDBRANCH   2   3
ENDBRANCH   1   2
BRANCH   1  15
ATOM     15  C   UNL     1       0.694   8.592  41.996  1.00  0.00     0.000 C 
BRANCH  15  16
ATOM     16  C   UNL     1      -0.431   7.579  42.261  1.00  0.00     0.000 C 
BRANCH  16  17
ATOM     17  C   UNL     1      -1.741   8.249  42.711  1.00  0.00     0.000 C 
BRANCH  17  18
ATOM     18  C   UNL     1      -2.985   7.628  42.040  1.00  0.00    -0.000 C 
BRANCH  18  19
ATOM     19  C   UNL     1      -2.945   7.661  40.500  1.00  0.00    -0.000 C 
BRANCH  19  20
ATOM     20  C   UNL     1      -3.292   6.329  39.810  1.00  0.00    -0.000 C 
BRANCH  20  21
ATOM     21  C   UNL     1      -2.303   5.878  38.715  1.00  0.00    -0.000 C 
BRANCH  21  22
ATOM     22  C   UNL     1      -0.842   6.301  38.947  1.00  0.00    -0.000 C 
BRANCH  22  23
ATOM     23  C   UNL     1      -0.001   5.199  39.613  1.00  0.00    -0.000 C 
BRANCH  23  24
ATOM     24  C   UNL     1       1.477   5.594  39.772  1.00  0.00    -0.000 C 
BRANCH  24  25
ATOM     25  C   UNL     1       2.479   4.591  39.171  1.00  0.00    -0.003 C 
ATOM     26  C   UNL     1       3.398   5.221  38.125  1.00  0.00     0.004 C 
ENDBRANCH  24  25
ENDBRANCH  23  24
ENDBRANCH  22  23
ENDBRANCH  21  22
ENDBRANCH  20  21
ENDBRANCH  19  20
ENDBRANCH  18  19
ENDBRANCH  17  18
ENDBRANCH  16  17
ENDBRANCH  15  16
ENDBRANCH   1  15
TORSDOF 22
ENDMDL
MODEL 9
REMARK VINA RESULT:    -3.241      2.190      3.524
REMARK INTER + INTRA:         -12.235
REMARK INTER:                  -7.579
REMARK INTRA:                  -4.656
REMARK UNBOUND:                -4.827
REMARK SMILES CCCCCCCCCCCCCCCCCCCCCCCC(=O)[O-]
REMARK SMILES IDX 13 1 14 2 15 3 16 4 17 5 18 6 19 7 20 8 21 9 22 10 23 11
REMARK SMILES IDX 24 12 25 13 26 14 12 15 11 16 10 17 9 18 8 19 7 20 6 21 5 22
REMARK SMILES IDX 4 23 3 24 2 25 1 26
REMARK H PARENT
REMARK Flexibility Score: inf
ROOT
ATOM      1  C   UNL     1      -1.340  10.124  38.354  1.00  0.00     0.000 C 
ENDROOT
BRANCH   1   2
ATOM      2  C   UNL     1      -1.547   8.766  37.664  1.00  0.00     0.000 C 
BRANCH   2   3
ATOM      3  C   UNL     1      -1.507   8.881  36.129  1.00  0.00     0.000 C 
BRANCH   3   4
ATOM      4  C   UNL     1      -0.278   8.194  35.511  1.00  0.00     0.000 C 
BRANCH   4   5
ATOM      5  C   UNL     1       0.175   6.956  36.303  1.00  0.00     0.000 C 
BRANCH   5   6
ATOM      6  C   UNL     1       1.707   6.810  36.353  1.00  0.00     0.000 C 
BRANCH   6   7
ATOM      7  C   UNL     1       2.260   6.070  37.589  1.00  0.00     0.000 C 
BRANCH   7   8
ATOM      8  C   UNL     1       3.137   4.841  37.286  1.00  0.00     0.000 C 
BRANCH   8   9
ATOM      9  C   UNL     1       2.477   3.864  36.300  1.00  0.00     0.000 C 
BRANCH   9  10
ATOM     10  C   UNL     1       1.372   3.010  36.948  1.00  0.00     0.006 C 
BRANCH  10  11
ATOM     11  C   UNL     1       0.336   2.465  35.948  1.00  0.00     0.053 C 
BRANCH  11  12
ATOM     12  C   UNL     1      -0.669   3.496  35.532  1.00  0.00     0.041 C 
ATOM     13  O   UNL     1      -1.605   3.821  36.310  1.00  0.00    -0.550 OA
ATOM     14  O   UNL     1      -0.553   4.121  34.296  1.00  0.00    -0.550 OA
ENDBRANCH  11  12
ENDBRANCH  10  11
ENDBRANCH   9  10
ENDBRANCH   8   9
ENDBRANCH   7   8
ENDBRANCH   6   7
ENDBRANCH   5   6
ENDBRANCH   4   5
ENDBRANCH   3   4
ENDBRANCH   2   3
ENDBRANCH   1   2
BRANCH   1  15
ATOM     15  C   UNL     1      -0.112  10.123  39.281  1.00  0.00     0.000 C 
BRANCH  15  16
ATOM     16  C   UNL     1       0.520   8.730  39.423  1.00  0.00     0.000 C 
BRANCH  16  17
ATOM     17  C   UNL     1       0.714   8.312  40.891  1.00  0.00     0.000 C 
BRANCH  17  18
ATOM     18  C   UNL     1      -0.452   8.762  41.796  1.00  0.00    -0.000 C 
BRANCH  18  19
ATOM     19  C   UNL     1      -1.094   7.616  42.602  1.00  0.00    -0.000 C 
BRANCH  19  20
ATOM     20  C   UNL     1      -2.542   7.272  42.205  1.00  0.00    -0.000 C 
BRANCH  20  21
ATOM     21  C   UNL     1      -2.991   7.807  40.829  1.00  0.00    -0.000 C 
BRANCH  21  22
ATOM     22  C   UNL     1      -3.352   6.722  39.799  1.00  0.00    -0.000 C 
BRANCH  22  23
ATOM     23  C   UNL     1      -2.609   5.398  40.042  1.00  0.00    -0.000 C 
BRANCH  23  24
ATOM     24  C   UNL     1      -1.194   5.392  39.438  1.00  0.00    -0.000 C 
BRANCH  24  25
ATOM     25  C   UNL     1      -0.316   4.203  39.870  1.00  0.00    -0.003 C 
ATOM     26  C   UNL     1       0.918   4.630  40.664  1.00  0.00     0.004 C 
ENDBRANCH  24  25
ENDBRANCH  23  24
ENDBRANCH  22  23
ENDBRANCH  21  22
ENDBRANCH  20  21
ENDBRANCH  19  20
ENDBRANCH  18  19
ENDBRANCH  17  18
ENDBRANCH  16  17
ENDBRANCH  15  16
ENDBRANCH   1  15
TORSDOF 22
ENDMDL
