MODEL 1
REMARK VINA RESULT:    -5.945      0.000      0.000
REMARK INTER + INTRA:          -7.251
REMARK INTER:                  -6.988
REMARK INTRA:                  -0.263
REMARK UNBOUND:                -0.263
REMARK SMILES O=c1cc(-c2ccc(O)c(O)c2)oc2cc(O)cc(O)c12
REMARK SMILES IDX 4 1 3 2 2 3 1 4 21 5 19 6 18 7 16 8 15 9 14 10 13 11 5 12
REMARK SMILES IDX 6 13 7 14 8 15 12 16 10 17 9 18 11 20 20 22 17 24
REMARK H PARENT 9 19 11 21 20 23 17 25
REMARK Flexibility Score: inf
ROOT
ATOM      1  C   UNL     1      -6.919  -9.883   1.181  1.00  0.00     0.138 A 
ATOM      2  C   UNL     1      -6.260  -9.004   2.057  1.00  0.00     0.100 A 
ATOM      3  C   UNL     1      -6.806  -7.745   2.307  1.00  0.00     0.197 A 
ATOM      4  O   UNL     1      -6.206  -6.964   3.094  1.00  0.00    -0.289 OA
ATOM      5  C   UNL     1      -8.009  -7.371   1.676  1.00  0.00     0.107 A 
ATOM      6  C   UNL     1      -8.631  -6.115   1.875  1.00  0.00     0.134 A 
ATOM      7  C   UNL     1      -9.827  -5.818   1.203  1.00  0.00     0.093 A 
ATOM      8  C   UNL     1     -10.410  -6.747   0.339  1.00  0.00     0.123 A 
ATOM      9  C   UNL     1      -9.800  -7.991   0.140  1.00  0.00     0.094 A 
ATOM     10  C   UNL     1      -8.609  -8.307   0.799  1.00  0.00     0.146 A 
ATOM     11  O   UNL     1      -8.049  -9.495   0.593  1.00  0.00    -0.456 OA
ENDROOT
BRANCH   1  12
ATOM     12  C   UNL     1      -6.384 -11.234   0.877  1.00  0.00     0.021 A 
ATOM     13  C   UNL     1      -5.587 -11.477  -0.259  1.00  0.00     0.016 A 
ATOM     14  C   UNL     1      -5.089 -12.757  -0.514  1.00  0.00     0.051 A 
ATOM     15  C   UNL     1      -5.369 -13.813   0.362  1.00  0.00     0.157 A 
ATOM     16  C   UNL     1      -6.650 -12.298   1.759  1.00  0.00     0.062 A 
ATOM     17  C   UNL     1      -6.149 -13.582   1.501  1.00  0.00     0.158 A 
BRANCH  15  18
ATOM     18  O   UNL     1      -4.875 -15.090   0.109  1.00  0.00    -0.504 OA
ATOM     19  H   UNL     1      -5.477 -15.836  -0.222  1.00  0.00     0.293 HD
ENDBRANCH  15  18
BRANCH  17  20
ATOM     20  O   UNL     1      -6.424 -14.635   2.373  1.00  0.00    -0.504 OA
ATOM     21  H   UNL     1      -5.682 -15.183   2.793  1.00  0.00     0.293 HD
ENDBRANCH  17  20
ENDBRANCH   1  12
BRANCH   6  22
ATOM     22  O   UNL     1      -8.073  -5.166   2.731  1.00  0.00    -0.507 OA
ATOM     23  H   UNL     1      -8.136  -5.253   3.738  1.00  0.00     0.293 HD
ENDBRANCH   6  22
BRANCH   8  24
ATOM     24  O   UNL     1     -11.597  -6.427  -0.315  1.00  0.00    -0.508 OA
ATOM     25  H   UNL     1     -12.145  -5.616  -0.052  1.00  0.00     0.293 HD
ENDBRANCH   8  24
TORSDOF 5
ENDMDL
MODEL 2
REMARK VINA RESULT:    -5.095      1.513      2.897
REMARK INTER + INTRA:          -6.251
REMARK INTER:                  -5.988
REMARK INTRA:                  -0.263
REMARK UNBOUND:                -0.263
REMARK SMILES O=c1cc(-c2ccc(O)c(O)c2)oc2cc(O)cc(O)c12
REMARK SMILES IDX 4 1 3 2 2 3 1 4 21 5 19 6 18 7 16 8 15 9 14 10 13 11 5 12
REMARK SMILES IDX 6 13 7 14 8 15 12 16 10 17 9 18 11 20 20 22 17 24
REMARK H PARENT 9 19 11 21 20 23 17 25
REMARK Flexibility Score: inf
ROOT
ATOM      1  C   UNL     1      -7.358  -9.007   1.116  1.00  0.00     0.138 A 
ATOM      2  C   UNL     1      -8.725  -8.745   0.922  1.00  0.00     0.100 A 
ATOM      3  C   UNL     1      -9.228  -7.475   1.206  1.00  0.00     0.197 A 
ATOM      4  O   UNL     1     -10.456  -7.250   1.030  1.00  0.00    -0.289 OA
ATOM      5  C   UNL     1      -8.360  -6.474   1.686  1.00  0.00     0.107 A 
ATOM      6  C   UNL     1      -8.787  -5.161   1.996  1.00  0.00     0.134 A 
ATOM      7  C   UNL     1      -7.859  -4.224   2.474  1.00  0.00     0.093 A 
ATOM      8  C   UNL     1      -6.518  -4.572   2.649  1.00  0.00     0.123 A 
ATOM      9  C   UNL     1      -6.090  -5.869   2.342  1.00  0.00     0.094 A 
ATOM     10  C   UNL     1      -6.998  -6.817   1.864  1.00  0.00     0.146 A 
ATOM     11  O   UNL     1      -6.567  -8.042   1.580  1.00  0.00    -0.456 OA
ENDROOT
BRANCH   1  12
ATOM     12  C   UNL     1      -6.768 -10.340   0.832  1.00  0.00     0.021 A 
ATOM     13  C   UNL     1      -6.193 -10.644  -0.417  1.00  0.00     0.016 A 
ATOM     14  C   UNL     1      -5.636 -11.904  -0.652  1.00  0.00     0.051 A 
ATOM     15  C   UNL     1      -5.637 -12.876   0.356  1.00  0.00     0.157 A 
ATOM     16  C   UNL     1      -6.752 -11.319   1.843  1.00  0.00     0.062 A 
ATOM     17  C   UNL     1      -6.194 -12.583   1.605  1.00  0.00     0.158 A 
BRANCH  15  18
ATOM     18  O   UNL     1      -5.084 -14.134   0.123  1.00  0.00    -0.504 OA
ATOM     19  H   UNL     1      -5.631 -14.888  -0.277  1.00  0.00     0.293 HD
ENDBRANCH  15  18
BRANCH  17  20
ATOM     20  O   UNL     1      -6.190 -13.552   2.607  1.00  0.00    -0.504 OA
ATOM     21  H   UNL     1      -6.654 -14.444   2.484  1.00  0.00     0.293 HD
ENDBRANCH  17  20
ENDBRANCH   1  12
BRANCH   6  22
ATOM     22  O   UNL     1     -10.119  -4.783   1.834  1.00  0.00    -0.507 OA
ATOM     23  H   UNL     1     -10.528  -4.648   0.916  1.00  0.00     0.293 HD
ENDBRANCH   6  22
BRANCH   8  24
ATOM     24  O   UNL     1      -5.618  -3.622   3.125  1.00  0.00    -0.508 OA
ATOM     25  H   UNL     1      -5.903  -2.901   3.778  1.00  0.00     0.293 HD
ENDBRANCH   8  24
TORSDOF 5
ENDMDL
MODEL 3
REMARK VINA RESULT:    -4.080      2.389      4.194
REMARK INTER + INTRA:          -5.058
REMARK INTER:                  -4.788
REMARK INTRA:                  -0.270
REMARK UNBOUND:                -0.263
REMARK SMILES O=c1cc(-c2ccc(O)c(O)c2)oc2cc(O)cc(O)c12
REMARK SMILES IDX 4 1 3 2 2 3 1 4 21 5 19 6 18 7 16 8 15 9 14 10 13 11 5 12
REMARK SMILES IDX 6 13 7 14 8 15 12 16 10 17 9 18 11 20 20 22 17 24
REMARK H PARENT 9 19 11 21 20 23 17 25
REMARK Flexibility Score: inf
ROOT
ATOM      1  C   UNL     1      -7.844  -7.303   1.932  1.00  0.00     0.138 A 
ATOM      2  C   UNL     1      -9.181  -7.019   2.259  1.00  0.00     0.100 A 
ATOM      3  C   UNL     1      -9.552  -5.706   2.551  1.00  0.00     0.197 A 
ATOM      4  O   UNL     1     -10.754  -5.462   2.845  1.00  0.00    -0.289 OA
ATOM      5  C   UNL     1      -8.582  -4.685   2.517  1.00  0.00     0.107 A 
ATOM      6  C   UNL     1      -8.874  -3.329   2.798  1.00  0.00     0.134 A 
ATOM      7  C   UNL     1      -7.848  -2.373   2.747  1.00  0.00     0.093 A 
ATOM      8  C   UNL     1      -6.541  -2.744   2.424  1.00  0.00     0.123 A 
ATOM      9  C   UNL     1      -6.248  -4.084   2.144  1.00  0.00     0.094 A 
ATOM     10  C   UNL     1      -7.255  -5.051   2.189  1.00  0.00     0.146 A 
ATOM     11  O   UNL     1      -6.950  -6.317   1.918  1.00  0.00    -0.456 OA
ENDROOT
BRANCH   1  12
ATOM     12  C   UNL     1      -7.392  -8.682   1.614  1.00  0.00     0.021 A 
ATOM     13  C   UNL     1      -7.279  -9.672   2.608  1.00  0.00     0.016 A 
ATOM     14  C   UNL     1      -6.861 -10.963   2.277  1.00  0.00     0.051 A 
ATOM     15  C   UNL     1      -6.556 -11.290   0.950  1.00  0.00     0.157 A 
ATOM     16  C   UNL     1      -7.096  -9.022   0.281  1.00  0.00     0.062 A 
ATOM     17  C   UNL     1      -6.676 -10.318  -0.050  1.00  0.00     0.158 A 
BRANCH  15  18
ATOM     18  O   UNL     1      -6.136 -12.576   0.618  1.00  0.00    -0.504 OA
ATOM     19  H   UNL     1      -5.153 -12.804   0.515  1.00  0.00     0.293 HD
ENDBRANCH  15  18
BRANCH  17  20
ATOM     20  O   UNL     1      -6.375 -10.647  -1.371  1.00  0.00    -0.504 OA
ATOM     21  H   UNL     1      -5.446 -10.945  -1.644  1.00  0.00     0.293 HD
ENDBRANCH  17  20
ENDBRANCH   1  12
BRANCH   6  22
ATOM     22  O   UNL     1     -10.169  -2.926   3.125  1.00  0.00    -0.507 OA
ATOM     23  H   UNL     1     -10.970  -3.209   2.574  1.00  0.00     0.293 HD
ENDBRANCH   6  22
BRANCH   8  24
ATOM     24  O   UNL     1      -5.543  -1.775   2.381  1.00  0.00    -0.508 OA
ATOM     25  H   UNL     1      -5.691  -0.880   1.929  1.00  0.00     0.293 HD
ENDBRANCH   8  24
TORSDOF 5
ENDMDL
MODEL 4
REMARK VINA RESULT:    -3.954     20.049     21.450
REMARK INTER + INTRA:          -4.911
REMARK INTER:                  -4.643
REMARK INTRA:                  -0.268
REMARK UNBOUND:                -0.263
REMARK SMILES O=c1cc(-c2ccc(O)c(O)c2)oc2cc(O)cc(O)c12
REMARK SMILES IDX 4 1 3 2 2 3 1 4 21 5 19 6 18 7 16 8 15 9 14 10 13 11 5 12
REMARK SMILES IDX 6 13 7 14 8 15 12 16 10 17 9 18 11 20 20 22 17 24
REMARK H PARENT 9 19 11 21 20 23 17 25
REMARK Flexibility Score: inf
ROOT
ATOM      1  C   UNL     1     -20.971  -5.790 -14.774  1.00  0.00     0.138 A 
ATOM      2  C   UNL     1     -20.680  -5.150 -15.990  1.00  0.00     0.100 A 
ATOM      3  C   UNL     1     -20.530  -3.763 -16.017  1.00  0.00     0.197 A 
ATOM      4  O   UNL     1     -20.271  -3.198 -17.114  1.00  0.00    -0.289 OA
ATOM      5  C   UNL     1     -20.674  -3.024 -14.826  1.00  0.00     0.107 A 
ATOM      6  C   UNL     1     -20.537  -1.617 -14.766  1.00  0.00     0.134 A 
ATOM      7  C   UNL     1     -20.701  -0.955 -13.539  1.00  0.00     0.093 A 
ATOM      8  C   UNL     1     -21.000  -1.670 -12.377  1.00  0.00     0.123 A 
ATOM      9  C   UNL     1     -21.137  -3.061 -12.431  1.00  0.00     0.094 A 
ATOM     10  C   UNL     1     -20.976  -3.739 -13.643  1.00  0.00     0.146 A 
ATOM     11  O   UNL     1     -21.110  -5.062 -13.668  1.00  0.00    -0.456 OA
ENDROOT
BRANCH   1  12
ATOM     12  C   UNL     1     -21.143  -7.263 -14.685  1.00  0.00     0.021 A 
ATOM     13  C   UNL     1     -20.388  -8.044 -13.789  1.00  0.00     0.016 A 
ATOM     14  C   UNL     1     -20.579  -9.426 -13.721  1.00  0.00     0.051 A 
ATOM     15  C   UNL     1     -21.530 -10.050 -14.538  1.00  0.00     0.157 A 
ATOM     16  C   UNL     1     -22.105  -7.896 -15.493  1.00  0.00     0.062 A 
ATOM     17  C   UNL     1     -22.295  -9.284 -15.424  1.00  0.00     0.158 A 
BRANCH  15  18
ATOM     18  O   UNL     1     -21.720 -11.429 -14.473  1.00  0.00    -0.504 OA
ATOM     19  H   UNL     1     -21.188 -12.009 -13.834  1.00  0.00     0.293 HD
ENDBRANCH  15  18
BRANCH  17  20
ATOM     20  O   UNL     1     -23.243  -9.907 -16.234  1.00  0.00    -0.504 OA
ATOM     21  H   UNL     1     -24.054  -9.408 -16.580  1.00  0.00     0.293 HD
ENDBRANCH  17  20
ENDBRANCH   1  12
BRANCH   6  22
ATOM     22  O   UNL     1     -20.238  -0.875 -15.908  1.00  0.00    -0.507 OA
ATOM     23  H   UNL     1     -20.499  -1.193 -16.834  1.00  0.00     0.293 HD
ENDBRANCH   6  22
BRANCH   8  24
ATOM     24  O   UNL     1     -21.158  -0.988 -11.173  1.00  0.00    -0.508 OA
ATOM     25  H   UNL     1     -21.967  -1.137 -10.581  1.00  0.00     0.293 HD
ENDBRANCH   8  24
TORSDOF 5
ENDMDL
MODEL 5
REMARK VINA RESULT:    -3.853      2.772      3.988
REMARK INTER + INTRA:          -4.791
REMARK INTER:                  -4.528
REMARK INTRA:                  -0.263
REMARK UNBOUND:                -0.263
REMARK SMILES O=c1cc(-c2ccc(O)c(O)c2)oc2cc(O)cc(O)c12
REMARK SMILES IDX 4 1 3 2 2 3 1 4 21 5 19 6 18 7 16 8 15 9 14 10 13 11 5 12
REMARK SMILES IDX 6 13 7 14 8 15 12 16 10 17 9 18 11 20 20 22 17 24
REMARK H PARENT 9 19 11 21 20 23 17 25
REMARK Flexibility Score: inf
ROOT
ATOM      1  C   UNL     1      -6.917  -6.359   1.636  1.00  0.00     0.138 A 
ATOM      2  C   UNL     1      -5.776  -5.540   1.652  1.00  0.00     0.100 A 
ATOM      3  C   UNL     1      -5.906  -4.188   1.970  1.00  0.00     0.197 A 
ATOM      4  O   UNL     1      -4.875  -3.461   1.981  1.00  0.00    -0.289 OA
ATOM      5  C   UNL     1      -7.178  -3.662   2.268  1.00  0.00     0.107 A 
ATOM      6  C   UNL     1      -7.397  -2.304   2.601  1.00  0.00     0.134 A 
ATOM      7  C   UNL     1      -8.698  -1.859   2.879  1.00  0.00     0.093 A 
ATOM      8  C   UNL     1      -9.781  -2.740   2.829  1.00  0.00     0.123 A 
ATOM      9  C   UNL     1      -9.570  -4.083   2.500  1.00  0.00     0.094 A 
ATOM     10  C   UNL     1      -8.281  -4.548   2.221  1.00  0.00     0.146 A 
ATOM     11  O   UNL     1      -8.107  -5.829   1.912  1.00  0.00    -0.456 OA
ENDROOT
BRANCH   1  12
ATOM     12  C   UNL     1      -6.840  -7.804   1.303  1.00  0.00     0.021 A 
ATOM     13  C   UNL     1      -7.465  -8.335   0.158  1.00  0.00     0.016 A 
ATOM     14  C   UNL     1      -7.366  -9.698  -0.135  1.00  0.00     0.051 A 
ATOM     15  C   UNL     1      -6.637 -10.550   0.703  1.00  0.00     0.157 A 
ATOM     16  C   UNL     1      -6.098  -8.666   2.132  1.00  0.00     0.062 A 
ATOM     17  C   UNL     1      -6.000 -10.033   1.837  1.00  0.00     0.158 A 
BRANCH  15  18
ATOM     18  O   UNL     1      -6.539 -11.910   0.413  1.00  0.00    -0.504 OA
ATOM     19  H   UNL     1      -5.811 -12.488   0.819  1.00  0.00     0.293 HD
ENDBRANCH  15  18
BRANCH  17  20
ATOM     20  O   UNL     1      -5.272 -10.884   2.667  1.00  0.00    -0.504 OA
ATOM     21  H   UNL     1      -4.259 -10.899   2.652  1.00  0.00     0.293 HD
ENDBRANCH  17  20
ENDBRANCH   1  12
BRANCH   6  22
ATOM     22  O   UNL     1      -6.338  -1.400   2.659  1.00  0.00    -0.507 OA
ATOM     23  H   UNL     1      -5.464  -1.569   2.176  1.00  0.00     0.293 HD
ENDBRANCH   6  22
BRANCH   8  24
ATOM     24  O   UNL     1     -11.062  -2.271   3.109  1.00  0.00    -0.508 OA
ATOM     25  H   UNL     1     -11.867  -2.887   3.096  1.00  0.00     0.293 HD
ENDBRANCH   8  24
TORSDOF 5
ENDMDL
MODEL 6
REMARK VINA RESULT:    -3.710     20.211     22.598
REMARK INTER + INTRA:          -4.623
REMARK INTER:                  -4.357
REMARK INTRA:                  -0.266
REMARK UNBOUND:                -0.263
REMARK SMILES O=c1cc(-c2ccc(O)c(O)c2)oc2cc(O)cc(O)c12
REMARK SMILES IDX 4 1 3 2 2 3 1 4 21 5 19 6 18 7 16 8 15 9 14 10 13 11 5 12
REMARK SMILES IDX 6 13 7 14 8 15 12 16 10 17 9 18 11 20 20 22 17 24
REMARK H PARENT 9 19 11 21 20 23 17 25
REMARK Flexibility Score: inf
ROOT
ATOM      1  C   UNL     1     -21.252  -6.483 -14.810  1.00  0.00     0.138 A 
ATOM      2  C   UNL     1     -20.426  -7.362 -14.090  1.00  0.00     0.100 A 
ATOM      3  C   UNL     1     -20.693  -8.731 -14.114  1.00  0.00     0.197 A 
ATOM      4  O   UNL     1     -19.946  -9.511 -13.463  1.00  0.00    -0.289 OA
ATOM      5  C   UNL     1     -21.787  -9.213 -14.859  1.00  0.00     0.107 A 
ATOM      6  C   UNL     1     -22.127 -10.585 -14.939  1.00  0.00     0.134 A 
ATOM      7  C   UNL     1     -23.237 -10.982 -15.699  1.00  0.00     0.093 A 
ATOM      8  C   UNL     1     -24.013 -10.039 -16.376  1.00  0.00     0.123 A 
ATOM      9  C   UNL     1     -23.682  -8.682 -16.301  1.00  0.00     0.094 A 
ATOM     10  C   UNL     1     -22.579  -8.265 -15.550  1.00  0.00     0.146 A 
ATOM     11  O   UNL     1     -22.284  -6.970 -15.496  1.00  0.00    -0.456 OA
ENDROOT
BRANCH   1  12
ATOM     12  C   UNL     1     -21.017  -5.017 -14.819  1.00  0.00     0.021 A 
ATOM     13  C   UNL     1     -21.984  -4.109 -14.346  1.00  0.00     0.016 A 
ATOM     14  C   UNL     1     -21.731  -2.735 -14.357  1.00  0.00     0.051 A 
ATOM     15  C   UNL     1     -20.508  -2.245 -14.831  1.00  0.00     0.157 A 
ATOM     16  C   UNL     1     -19.786  -4.516 -15.281  1.00  0.00     0.062 A 
ATOM     17  C   UNL     1     -19.533  -3.137 -15.292  1.00  0.00     0.158 A 
BRANCH  15  18
ATOM     18  O   UNL     1     -20.254  -0.875 -14.845  1.00  0.00    -0.504 OA
ATOM     19  H   UNL     1     -19.746  -0.422 -14.093  1.00  0.00     0.293 HD
ENDBRANCH  15  18
BRANCH  17  20
ATOM     20  O   UNL     1     -18.315  -2.647 -15.760  1.00  0.00    -0.504 OA
ATOM     21  H   UNL     1     -18.078  -2.670 -16.745  1.00  0.00     0.293 HD
ENDBRANCH  17  20
ENDBRANCH   1  12
BRANCH   6  22
ATOM     22  O   UNL     1     -21.372 -11.550 -14.273  1.00  0.00    -0.507 OA
ATOM     23  H   UNL     1     -20.366 -11.474 -14.185  1.00  0.00     0.293 HD
ENDBRANCH   6  22
BRANCH   8  24
ATOM     24  O   UNL     1     -25.110 -10.461 -17.123  1.00  0.00    -0.508 OA
ATOM     25  H   UNL     1     -25.198 -10.240 -18.108  1.00  0.00     0.293 HD
ENDBRANCH   8  24
TORSDOF 5
ENDMDL
MODEL 7
REMARK VINA RESULT:    -3.645     19.999     21.314
REMARK INTER + INTRA:          -4.547
REMARK INTER:                  -4.275
REMARK INTRA:                  -0.272
REMARK UNBOUND:                -0.263
REMARK SMILES O=c1cc(-c2ccc(O)c(O)c2)oc2cc(O)cc(O)c12
REMARK SMILES IDX 4 1 3 2 2 3 1 4 21 5 19 6 18 7 16 8 15 9 14 10 13 11 5 12
REMARK SMILES IDX 6 13 7 14 8 15 12 16 10 17 9 18 11 20 20 22 17 24
REMARK H PARENT 9 19 11 21 20 23 17 25
REMARK Flexibility Score: inf
ROOT
ATOM      1  C   UNL     1     -21.153  -5.807 -14.020  1.00  0.00     0.138 A 
ATOM      2  C   UNL     1     -21.608  -5.160 -12.859  1.00  0.00     0.100 A 
ATOM      3  C   UNL     1     -21.517  -3.771 -12.766  1.00  0.00     0.197 A 
ATOM      4  O   UNL     1     -21.927  -3.200 -11.719  1.00  0.00    -0.289 OA
ATOM      5  C   UNL     1     -20.969  -3.036 -13.836  1.00  0.00     0.107 A 
ATOM      6  C   UNL     1     -20.841  -1.627 -13.824  1.00  0.00     0.134 A 
ATOM      7  C   UNL     1     -20.279  -0.971 -14.930  1.00  0.00     0.093 A 
ATOM      8  C   UNL     1     -19.841  -1.694 -16.042  1.00  0.00     0.123 A 
ATOM      9  C   UNL     1     -19.965  -3.087 -16.059  1.00  0.00     0.094 A 
ATOM     10  C   UNL     1     -20.523  -3.760 -14.968  1.00  0.00     0.146 A 
ATOM     11  O   UNL     1     -20.631  -5.084 -15.010  1.00  0.00    -0.456 OA
ENDROOT
BRANCH   1  12
ATOM     12  C   UNL     1     -21.223  -7.282 -14.174  1.00  0.00     0.021 A 
ATOM     13  C   UNL     1     -20.463  -8.148 -13.364  1.00  0.00     0.016 A 
ATOM     14  C   UNL     1     -20.558  -9.533 -13.524  1.00  0.00     0.051 A 
ATOM     15  C   UNL     1     -21.416 -10.076 -14.488  1.00  0.00     0.157 A 
ATOM     16  C   UNL     1     -22.093  -7.838 -15.130  1.00  0.00     0.062 A 
ATOM     17  C   UNL     1     -22.186  -9.227 -15.291  1.00  0.00     0.158 A 
BRANCH  15  18
ATOM     18  O   UNL     1     -21.510 -11.457 -14.651  1.00  0.00    -0.504 OA
ATOM     19  H   UNL     1     -22.341 -11.968 -14.375  1.00  0.00     0.293 HD
ENDBRANCH  15  18
BRANCH  17  20
ATOM     20  O   UNL     1     -23.042  -9.771 -16.247  1.00  0.00    -0.504 OA
ATOM     21  H   UNL     1     -22.944 -10.729 -16.563  1.00  0.00     0.293 HD
ENDBRANCH  17  20
ENDBRANCH   1  12
BRANCH   6  22
ATOM     22  O   UNL     1     -21.269  -0.877 -12.729  1.00  0.00    -0.507 OA
ATOM     23  H   UNL     1     -20.620  -0.352 -12.155  1.00  0.00     0.293 HD
ENDBRANCH   6  22
BRANCH   8  24
ATOM     24  O   UNL     1     -19.286  -1.018 -17.125  1.00  0.00    -0.508 OA
ATOM     25  H   UNL     1     -19.865  -0.604 -17.846  1.00  0.00     0.293 HD
ENDBRANCH   8  24
TORSDOF 5
ENDMDL
MODEL 8
REMARK VINA RESULT:    -3.519     21.383     23.165
REMARK INTER + INTRA:          -4.399
REMARK INTER:                  -4.107
REMARK INTRA:                  -0.293
REMARK UNBOUND:                -0.263
REMARK SMILES O=c1cc(-c2ccc(O)c(O)c2)oc2cc(O)cc(O)c12
REMARK SMILES IDX 4 1 3 2 2 3 1 4 21 5 19 6 18 7 16 8 15 9 14 10 13 11 5 12
REMARK SMILES IDX 6 13 7 14 8 15 12 16 10 17 9 18 11 20 20 22 17 24
REMARK H PARENT 9 19 11 21 20 23 17 25
REMARK Flexibility Score: inf
ROOT
ATOM      1  C   UNL     1     -22.279  -6.906 -16.051  1.00  0.00     0.138 A 
ATOM      2  C   UNL     1     -20.963  -6.891 -15.560  1.00  0.00     0.100 A 
ATOM      3  C   UNL     1     -20.291  -5.675 -15.433  1.00  0.00     0.197 A 
ATOM      4  O   UNL     1     -19.110  -5.672 -14.992  1.00  0.00    -0.289 OA
ATOM      5  C   UNL     1     -20.940  -4.480 -15.800  1.00  0.00     0.107 A 
ATOM      6  C   UNL     1     -20.332  -3.205 -15.702  1.00  0.00     0.134 A 
ATOM      7  C   UNL     1     -21.047  -2.063 -16.095  1.00  0.00     0.093 A 
ATOM      8  C   UNL     1     -22.351  -2.170 -16.584  1.00  0.00     0.123 A 
ATOM      9  C   UNL     1     -22.956  -3.427 -16.682  1.00  0.00     0.094 A 
ATOM     10  C   UNL     1     -22.263  -4.577 -16.296  1.00  0.00     0.146 A 
ATOM     11  O   UNL     1     -22.861  -5.760 -16.399  1.00  0.00    -0.456 OA
ENDROOT
BRANCH   1  12
ATOM     12  C   UNL     1     -23.042  -8.171 -16.208  1.00  0.00     0.021 A 
ATOM     13  C   UNL     1     -24.218  -8.234 -16.980  1.00  0.00     0.016 A 
ATOM     14  C   UNL     1     -24.909  -9.441 -17.119  1.00  0.00     0.051 A 
ATOM     15  C   UNL     1     -24.435 -10.603 -16.498  1.00  0.00     0.157 A 
ATOM     16  C   UNL     1     -22.566  -9.346 -15.599  1.00  0.00     0.062 A 
ATOM     17  C   UNL     1     -23.261 -10.556 -15.739  1.00  0.00     0.158 A 
BRANCH  15  18
ATOM     18  O   UNL     1     -25.124 -11.806 -16.633  1.00  0.00    -0.504 OA
ATOM     19  H   UNL     1     -24.658 -12.654 -16.938  1.00  0.00     0.293 HD
ENDBRANCH  15  18
BRANCH  17  20
ATOM     20  O   UNL     1     -22.789 -11.716 -15.125  1.00  0.00    -0.504 OA
ATOM     21  H   UNL     1     -23.343 -12.215 -14.439  1.00  0.00     0.293 HD
ENDBRANCH  17  20
ENDBRANCH   1  12
BRANCH   6  22
ATOM     22  O   UNL     1     -19.032  -3.066 -15.218  1.00  0.00    -0.507 OA
ATOM     23  H   UNL     1     -18.327  -3.777 -15.371  1.00  0.00     0.293 HD
ENDBRANCH   6  22
BRANCH   8  24
ATOM     24  O   UNL     1     -23.036  -1.020 -16.967  1.00  0.00    -0.508 OA
ATOM     25  H   UNL     1     -24.013  -0.882 -16.734  1.00  0.00     0.293 HD
ENDBRANCH   8  24
TORSDOF 5
ENDMDL
MODEL 9
REMARK VINA RESULT:    -3.298      3.438      4.830
REMARK INTER + INTRA:          -4.140
REMARK INTER:                  -3.857
REMARK INTRA:                  -0.282
REMARK UNBOUND:                -0.263
REMARK SMILES O=c1cc(-c2ccc(O)c(O)c2)oc2cc(O)cc(O)c12
REMARK SMILES IDX 4 1 3 2 2 3 1 4 21 5 19 6 18 7 16 8 15 9 14 10 13 11 5 12
REMARK SMILES IDX 6 13 7 14 8 15 12 16 10 17 9 18 11 20 20 22 17 24
REMARK H PARENT 9 19 11 21 20 23 17 25
REMARK Flexibility Score: inf
ROOT
ATOM      1  C   UNL     1      -6.225  -7.004   1.162  1.00  0.00     0.138 A 
ATOM      2  C   UNL     1      -5.856  -6.809  -0.180  1.00  0.00     0.100 A 
ATOM      3  C   UNL     1      -5.531  -5.527  -0.623  1.00  0.00     0.197 A 
ATOM      4  O   UNL     1      -5.203  -5.362  -1.830  1.00  0.00    -0.289 OA
ATOM      5  C   UNL     1      -5.579  -4.445   0.278  1.00  0.00     0.107 A 
ATOM      6  C   UNL     1      -5.264  -3.115  -0.089  1.00  0.00     0.134 A 
ATOM      7  C   UNL     1      -5.342  -2.094   0.870  1.00  0.00     0.093 A 
ATOM      8  C   UNL     1      -5.729  -2.374   2.183  1.00  0.00     0.123 A 
ATOM      9  C   UNL     1      -6.041  -3.687   2.551  1.00  0.00     0.094 A 
ATOM     10  C   UNL     1      -5.969  -4.720   1.611  1.00  0.00     0.146 A 
ATOM     11  O   UNL     1      -6.270  -5.959   1.986  1.00  0.00    -0.456 OA
ENDROOT
BRANCH   1  12
ATOM     12  C   UNL     1      -6.582  -8.345   1.689  1.00  0.00     0.021 A 
ATOM     13  C   UNL     1      -7.594  -8.516   2.654  1.00  0.00     0.016 A 
ATOM     14  C   UNL     1      -7.916  -9.792   3.124  1.00  0.00     0.051 A 
ATOM     15  C   UNL     1      -7.240 -10.917   2.635  1.00  0.00     0.157 A 
ATOM     16  C   UNL     1      -5.918  -9.483   1.194  1.00  0.00     0.062 A 
ATOM     17  C   UNL     1      -6.241 -10.762   1.667  1.00  0.00     0.158 A 
BRANCH  15  18
ATOM     18  O   UNL     1      -7.558 -12.190   3.104  1.00  0.00    -0.504 OA
ATOM     19  H   UNL     1      -8.507 -12.439   3.361  1.00  0.00     0.293 HD
ENDBRANCH  15  18
BRANCH  17  20
ATOM     20  O   UNL     1      -5.573 -11.885   1.180  1.00  0.00    -0.504 OA
ATOM     21  H   UNL     1      -4.589 -11.853   0.939  1.00  0.00     0.293 HD
ENDBRANCH  17  20
ENDBRANCH   1  12
BRANCH   6  22
ATOM     22  O   UNL     1      -4.875  -2.803  -1.391  1.00  0.00    -0.507 OA
ATOM     23  H   UNL     1      -5.494  -2.942  -2.181  1.00  0.00     0.293 HD
ENDBRANCH   6  22
BRANCH   8  24
ATOM     24  O   UNL     1      -5.798  -1.341   3.113  1.00  0.00    -0.508 OA
ATOM     25  H   UNL     1      -5.703  -0.370   2.837  1.00  0.00     0.293 HD
ENDBRANCH   8  24
TORSDOF 5
ENDMDL
