MODEL 1
REMARK VINA RESULT:    -5.433      0.000      0.000
REMARK INTER + INTRA:         -11.477
REMARK INTER:                 -10.515
REMARK INTRA:                  -0.962
REMARK UNBOUND:                -0.962
REMARK SMILES CCCCCCCCCCCCCCCCCC(=O)[O-]
REMARK SMILES IDX 10 1 11 2 12 3 13 4 14 5 15 6 16 7 17 8 18 9 19 10 20 11
REMARK SMILES IDX 9 12 8 13 7 14 6 15 5 16 4 17 3 18 2 19 1 20
REMARK H PARENT
REMARK Flexibility Score: inf
ROOT
ATOM      1  C   UNL     1      -8.420  33.988   5.034  1.00  0.00     0.000 C 
ENDROOT
BRANCH   1   2
ATOM      2  C   UNL     1      -8.696  34.952   6.197  1.00  0.00     0.000 C 
BRANCH   2   3
ATOM      3  C   UNL     1      -9.237  36.316   5.731  1.00  0.00     0.000 C 
BRANCH   3   4
ATOM      4  C   UNL     1      -8.290  37.506   5.971  1.00  0.00     0.000 C 
BRANCH   4   5
ATOM      5  C   UNL     1      -9.036  38.841   6.132  1.00  0.00     0.000 C 
BRANCH   5   6
ATOM      6  C   UNL     1     -10.479  38.775   5.609  1.00  0.00     0.000 C 
BRANCH   6   7
ATOM      7  C   UNL     1     -11.517  39.118   6.693  1.00  0.00     0.006 C 
BRANCH   7   8
ATOM      8  C   UNL     1     -10.994  38.831   8.106  1.00  0.00     0.053 C 
BRANCH   8   9
ATOM      9  C   UNL     1     -11.329  37.440   8.549  1.00  0.00     0.041 C 
ATOM     10  O   UNL     1     -12.346  36.856   8.090  1.00  0.00    -0.550 OA
ATOM     11  O   UNL     1     -10.502  36.777   9.446  1.00  0.00    -0.550 OA
ENDBRANCH   8   9
ENDBRANCH   7   8
ENDBRANCH   6   7
ENDBRANCH   5   6
ENDBRANCH   4   5
ENDBRANCH   3   4
ENDBRANCH   2   3
ENDBRANCH   1   2
BRANCH   1  12
ATOM     12  C   UNL     1      -7.791  32.684   5.538  1.00  0.00     0.000 C 
BRANCH  12  13
ATOM     13  C   UNL     1      -6.372  32.929   6.073  1.00  0.00    -0.000 C 
BRANCH  13  14
ATOM     14  C   UNL     1      -5.881  31.796   6.989  1.00  0.00    -0.000 C 
BRANCH  14  15
ATOM     15  C   UNL     1      -4.601  31.124   6.466  1.00  0.00    -0.000 C 
BRANCH  15  16
ATOM     16  C   UNL     1      -4.804  29.639   6.122  1.00  0.00    -0.000 C 
BRANCH  16  17
ATOM     17  C   UNL     1      -3.495  28.821   6.126  1.00  0.00    -0.000 C 
BRANCH  17  18
ATOM     18  C   UNL     1      -3.447  27.807   7.280  1.00  0.00    -0.000 C 
BRANCH  18  19
ATOM     19  C   UNL     1      -2.226  28.051   8.176  1.00  0.00    -0.003 C 
ATOM     20  C   UNL     1      -2.431  27.449   9.563  1.00  0.00     0.004 C 
ENDBRANCH  18  19
ENDBRANCH  17  18
ENDBRANCH  16  17
ENDBRANCH  15  16
ENDBRANCH  14  15
ENDBRANCH  13  14
ENDBRANCH  12  13
ENDBRANCH   1  12
TORSDOF 16
ENDMDL
MODEL 2
REMARK VINA RESULT:    -5.293      3.776      9.321
REMARK INTER + INTRA:         -11.206
REMARK INTER:                  -9.506
REMARK INTRA:                  -1.700
REMARK UNBOUND:                -0.962
REMARK SMILES CCCCCCCCCCCCCCCCCC(=O)[O-]
REMARK SMILES IDX 10 1 11 2 12 3 13 4 14 5 15 6 16 7 17 8 18 9 19 10 20 11
REMARK SMILES IDX 9 12 8 13 7 14 6 15 5 16 4 17 3 18 2 19 1 20
REMARK H PARENT
REMARK Flexibility Score: inf
ROOT
ATOM      1  C   UNL     1      -8.273  37.459   6.016  1.00  0.00     0.000 C 
ENDROOT
BRANCH   1   2
ATOM      2  C   UNL     1      -9.166  36.251   5.694  1.00  0.00     0.000 C 
BRANCH   2   3
ATOM      3  C   UNL     1      -8.607  34.927   6.244  1.00  0.00     0.000 C 
BRANCH   3   4
ATOM      4  C   UNL     1      -7.857  34.063   5.214  1.00  0.00     0.000 C 
BRANCH   4   5
ATOM      5  C   UNL     1      -6.567  33.443   5.779  1.00  0.00     0.000 C 
BRANCH   5   6
ATOM      6  C   UNL     1      -6.829  32.138   6.546  1.00  0.00     0.000 C 
BRANCH   6   7
ATOM      7  C   UNL     1      -5.831  31.026   6.177  1.00  0.00     0.006 C 
BRANCH   7   8
ATOM      8  C   UNL     1      -4.501  31.168   6.927  1.00  0.00     0.053 C 
BRANCH   8   9
ATOM      9  C   UNL     1      -3.732  29.883   6.940  1.00  0.00     0.041 C 
ATOM     10  O   UNL     1      -3.047  29.564   7.947  1.00  0.00    -0.550 OA
ATOM     11  O   UNL     1      -3.796  29.023   5.850  1.00  0.00    -0.550 OA
ENDBRANCH   8   9
ENDBRANCH   7   8
ENDBRANCH   6   7
ENDBRANCH   5   6
ENDBRANCH   4   5
ENDBRANCH   3   4
ENDBRANCH   2   3
ENDBRANCH   1   2
BRANCH   1  12
ATOM     12  C   UNL     1      -9.115  38.675   6.419  1.00  0.00     0.000 C 
BRANCH  12  13
ATOM     13  C   UNL     1     -10.466  38.675   5.687  1.00  0.00    -0.000 C 
BRANCH  13  14
ATOM     14  C   UNL     1     -11.590  39.310   6.520  1.00  0.00    -0.000 C 
BRANCH  14  15
ATOM     15  C   UNL     1     -11.250  39.380   8.018  1.00  0.00    -0.000 C 
BRANCH  15  16
ATOM     16  C   UNL     1     -12.392  38.876   8.915  1.00  0.00    -0.000 C 
BRANCH  16  17
ATOM     17  C   UNL     1     -12.017  37.637   9.755  1.00  0.00    -0.000 C 
BRANCH  17  18
ATOM     18  C   UNL     1     -10.697  37.000   9.293  1.00  0.00    -0.000 C 
BRANCH  18  19
ATOM     19  C   UNL     1     -10.892  35.519   8.950  1.00  0.00    -0.003 C 
ATOM     20  C   UNL     1     -12.201  35.294   8.199  1.00  0.00     0.004 C 
ENDBRANCH  18  19
ENDBRANCH  17  18
ENDBRANCH  16  17
ENDBRANCH  15  16
ENDBRANCH  14  15
ENDBRANCH  13  14
ENDBRANCH  12  13
ENDBRANCH   1  12
TORSDOF 16
ENDMDL
MODEL 3
REMARK VINA RESULT:    -5.239      3.492      8.758
REMARK INTER + INTRA:         -11.102
REMARK INTER:                  -9.027
REMARK INTRA:                  -2.075
REMARK UNBOUND:                -0.962
REMARK SMILES CCCCCCCCCCCCCCCCCC(=O)[O-]
REMARK SMILES IDX 10 1 11 2 12 3 13 4 14 5 15 6 16 7 17 8 18 9 19 10 20 11
REMARK SMILES IDX 9 12 8 13 7 14 6 15 5 16 4 17 3 18 2 19 1 20
REMARK H PARENT
REMARK Flexibility Score: inf
ROOT
ATOM      1  C   UNL     1      -9.203  38.889   6.125  1.00  0.00     0.000 C 
ENDROOT
BRANCH   1   2
ATOM      2  C   UNL     1      -8.253  37.681   6.095  1.00  0.00     0.000 C 
BRANCH   2   3
ATOM      3  C   UNL     1      -8.878  36.442   5.429  1.00  0.00     0.000 C 
BRANCH   3   4
ATOM      4  C   UNL     1      -8.555  35.104   6.117  1.00  0.00     0.000 C 
BRANCH   4   5
ATOM      5  C   UNL     1      -7.881  34.093   5.173  1.00  0.00     0.000 C 
BRANCH   5   6
ATOM      6  C   UNL     1      -6.555  33.557   5.735  1.00  0.00     0.000 C 
BRANCH   6   7
ATOM      7  C   UNL     1      -6.725  32.215   6.469  1.00  0.00     0.006 C 
BRANCH   7   8
ATOM      8  C   UNL     1      -7.531  31.202   5.646  1.00  0.00     0.053 C 
BRANCH   8   9
ATOM      9  C   UNL     1      -8.618  30.568   6.458  1.00  0.00     0.041 C 
ATOM     10  O   UNL     1      -8.608  29.327   6.673  1.00  0.00    -0.550 OA
ATOM     11  O   UNL     1      -9.627  31.352   7.003  1.00  0.00    -0.550 OA
ENDBRANCH   8   9
ENDBRANCH   7   8
ENDBRANCH   6   7
ENDBRANCH   5   6
ENDBRANCH   4   5
ENDBRANCH   3   4
ENDBRANCH   2   3
ENDBRANCH   1   2
BRANCH   1  12
ATOM     12  C   UNL     1     -10.650  38.456   5.862  1.00  0.00     0.000 C 
BRANCH  12  13
ATOM     13  C   UNL     1     -11.612  39.647   5.996  1.00  0.00    -0.000 C 
BRANCH  13  14
ATOM     14  C   UNL     1     -12.550  39.516   7.206  1.00  0.00    -0.000 C 
BRANCH  14  15
ATOM     15  C   UNL     1     -11.923  40.053   8.503  1.00  0.00    -0.000 C 
BRANCH  15  16
ATOM     16  C   UNL     1     -12.238  39.178   9.727  1.00  0.00    -0.000 C 
BRANCH  16  17
ATOM     17  C   UNL     1     -12.238  37.665   9.420  1.00  0.00    -0.000 C 
BRANCH  17  18
ATOM     18  C   UNL     1     -10.815  37.096   9.302  1.00  0.00    -0.000 C 
BRANCH  18  19
ATOM     19  C   UNL     1     -10.846  35.623   8.876  1.00  0.00    -0.003 C 
ATOM     20  C   UNL     1     -11.846  35.397   7.746  1.00  0.00     0.004 C 
ENDBRANCH  18  19
ENDBRANCH  17  18
ENDBRANCH  16  17
ENDBRANCH  15  16
ENDBRANCH  14  15
ENDBRANCH  13  14
ENDBRANCH  12  13
ENDBRANCH   1  12
TORSDOF 16
ENDMDL
MODEL 4
REMARK VINA RESULT:    -5.207     14.449     16.914
REMARK INTER + INTRA:         -11.040
REMARK INTER:                  -8.154
REMARK INTRA:                  -2.886
REMARK UNBOUND:                -0.962
REMARK SMILES CCCCCCCCCCCCCCCCCC(=O)[O-]
REMARK SMILES IDX 10 1 11 2 12 3 13 4 14 5 15 6 16 7 17 8 18 9 19 10 20 11
REMARK SMILES IDX 9 12 8 13 7 14 6 15 5 16 4 17 3 18 2 19 1 20
REMARK H PARENT
REMARK Flexibility Score: inf
ROOT
ATOM      1  C   UNL     1      -0.443  43.111   1.425  1.00  0.00     0.000 C 
ENDROOT
BRANCH   1   2
ATOM      2  C   UNL     1       0.574  42.665   2.486  1.00  0.00     0.000 C 
BRANCH   2   3
ATOM      3  C   UNL     1       1.461  41.498   2.016  1.00  0.00     0.000 C 
BRANCH   3   4
ATOM      4  C   UNL     1       2.970  41.801   1.985  1.00  0.00     0.000 C 
BRANCH   4   5
ATOM      5  C   UNL     1       3.828  40.610   2.447  1.00  0.00     0.000 C 
BRANCH   5   6
ATOM      6  C   UNL     1       5.172  40.532   1.708  1.00  0.00     0.000 C 
BRANCH   6   7
ATOM      7  C   UNL     1       5.331  41.640   0.652  1.00  0.00     0.006 C 
BRANCH   7   8
ATOM      8  C   UNL     1       6.559  41.418  -0.240  1.00  0.00     0.053 C 
BRANCH   8   9
ATOM      9  C   UNL     1       6.391  40.223  -1.127  1.00  0.00     0.041 C 
ATOM     10  O   UNL     1       5.676  40.296  -2.161  1.00  0.00    -0.550 OA
ATOM     11  O   UNL     1       7.048  39.036  -0.827  1.00  0.00    -0.550 OA
ENDBRANCH   8   9
ENDBRANCH   7   8
ENDBRANCH   6   7
ENDBRANCH   5   6
ENDBRANCH   4   5
ENDBRANCH   3   4
ENDBRANCH   2   3
ENDBRANCH   1   2
BRANCH   1  12
ATOM     12  C   UNL     1      -0.554  42.075   0.300  1.00  0.00     0.000 C 
BRANCH  12  13
ATOM     13  C   UNL     1      -0.264  42.713  -1.067  1.00  0.00    -0.000 C 
BRANCH  13  14
ATOM     14  C   UNL     1       0.956  42.089  -1.763  1.00  0.00    -0.000 C 
BRANCH  14  15
ATOM     15  C   UNL     1       2.250  42.880  -1.513  1.00  0.00    -0.000 C 
BRANCH  15  16
ATOM     16  C   UNL     1       1.989  44.329  -1.068  1.00  0.00    -0.000 C 
BRANCH  16  17
ATOM     17  C   UNL     1       3.042  44.869  -0.077  1.00  0.00    -0.000 C 
BRANCH  17  18
ATOM     18  C   UNL     1       2.400  45.606   1.109  1.00  0.00    -0.000 C 
BRANCH  18  19
ATOM     19  C   UNL     1       3.230  45.421   2.385  1.00  0.00    -0.003 C 
ATOM     20  C   UNL     1       4.676  45.065   2.055  1.00  0.00     0.004 C 
ENDBRANCH  18  19
ENDBRANCH  17  18
ENDBRANCH  16  17
ENDBRANCH  15  16
ENDBRANCH  14  15
ENDBRANCH  13  14
ENDBRANCH  12  13
ENDBRANCH   1  12
TORSDOF 16
ENDMDL
MODEL 5
REMARK VINA RESULT:    -5.195     13.129     15.727
REMARK INTER + INTRA:         -11.016
REMARK INTER:                  -8.194
REMARK INTRA:                  -2.821
REMARK UNBOUND:                -0.962
REMARK SMILES CCCCCCCCCCCCCCCCCC(=O)[O-]
REMARK SMILES IDX 10 1 11 2 12 3 13 4 14 5 15 6 16 7 17 8 18 9 19 10 20 11
REMARK SMILES IDX 9 12 8 13 7 14 6 15 5 16 4 17 3 18 2 19 1 20
REMARK H PARENT
REMARK Flexibility Score: inf
ROOT
ATOM      1  C   UNL     1      -0.566  43.736  -1.609  1.00  0.00     0.000 C 
ENDROOT
BRANCH   1   2
ATOM      2  C   UNL     1       0.339  44.899  -2.045  1.00  0.00     0.000 C 
BRANCH   2   3
ATOM      3  C   UNL     1       0.328  46.074  -1.051  1.00  0.00     0.000 C 
BRANCH   3   4
ATOM      4  C   UNL     1       1.334  45.952   0.108  1.00  0.00     0.000 C 
BRANCH   4   5
ATOM      5  C   UNL     1       2.613  45.195  -0.290  1.00  0.00     0.000 C 
BRANCH   5   6
ATOM      6  C   UNL     1       3.207  44.390   0.876  1.00  0.00     0.000 C 
BRANCH   6   7
ATOM      7  C   UNL     1       3.495  42.927   0.497  1.00  0.00     0.006 C 
BRANCH   7   8
ATOM      8  C   UNL     1       3.577  42.015   1.728  1.00  0.00     0.053 C 
BRANCH   8   9
ATOM      9  C   UNL     1       4.824  41.185   1.719  1.00  0.00     0.041 C 
ATOM     10  O   UNL     1       5.751  41.442   0.907  1.00  0.00    -0.550 OA
ATOM     11  O   UNL     1       4.974  40.146   2.629  1.00  0.00    -0.550 OA
ENDBRANCH   8   9
ENDBRANCH   7   8
ENDBRANCH   6   7
ENDBRANCH   5   6
ENDBRANCH   4   5
ENDBRANCH   3   4
ENDBRANCH   2   3
ENDBRANCH   1   2
BRANCH   1  12
ATOM     12  C   UNL     1       0.256  42.469  -1.347  1.00  0.00     0.000 C 
BRANCH  12  13
ATOM     13  C   UNL     1      -0.099  41.856   0.016  1.00  0.00    -0.000 C 
BRANCH  13  14
ATOM     14  C   UNL     1      -0.620  42.900   1.016  1.00  0.00    -0.000 C 
BRANCH  14  15
ATOM     15  C   UNL     1       0.100  42.834   2.372  1.00  0.00    -0.000 C 
BRANCH  15  16
ATOM     16  C   UNL     1       0.208  44.205   3.059  1.00  0.00    -0.000 C 
BRANCH  16  17
ATOM     17  C   UNL     1       1.300  44.265   4.149  1.00  0.00    -0.000 C 
BRANCH  17  18
ATOM     18  C   UNL     1       0.721  44.085   5.561  1.00  0.00    -0.000 C 
BRANCH  18  19
ATOM     19  C   UNL     1      -0.806  44.228   5.552  1.00  0.00    -0.003 C 
ATOM     20  C   UNL     1      -1.484  42.923   5.959  1.00  0.00     0.004 C 
ENDBRANCH  18  19
ENDBRANCH  17  18
ENDBRANCH  16  17
ENDBRANCH  15  16
ENDBRANCH  14  15
ENDBRANCH  13  14
ENDBRANCH  12  13
ENDBRANCH   1  12
TORSDOF 16
ENDMDL
MODEL 6
REMARK VINA RESULT:    -5.160      1.601      2.470
REMARK INTER + INTRA:         -10.948
REMARK INTER:                  -9.982
REMARK INTRA:                  -0.966
REMARK UNBOUND:                -0.962
REMARK SMILES CCCCCCCCCCCCCCCCCC(=O)[O-]
REMARK SMILES IDX 10 1 11 2 12 3 13 4 14 5 15 6 16 7 17 8 18 9 19 10 20 11
REMARK SMILES IDX 9 12 8 13 7 14 6 15 5 16 4 17 3 18 2 19 1 20
REMARK H PARENT
REMARK Flexibility Score: inf
ROOT
ATOM      1  C   UNL     1      -6.720  32.429   5.878  1.00  0.00     0.000 C 
ENDROOT
BRANCH   1   2
ATOM      2  C   UNL     1      -7.191  33.888   5.780  1.00  0.00     0.000 C 
BRANCH   2   3
ATOM      3  C   UNL     1      -8.716  34.038   5.924  1.00  0.00     0.000 C 
BRANCH   3   4
ATOM      4  C   UNL     1      -9.187  35.406   6.451  1.00  0.00     0.000 C 
BRANCH   4   5
ATOM      5  C   UNL     1      -8.975  36.542   5.434  1.00  0.00     0.000 C 
BRANCH   5   6
ATOM      6  C   UNL     1      -8.169  37.711   6.019  1.00  0.00     0.000 C 
BRANCH   6   7
ATOM      7  C   UNL     1      -9.066  38.864   6.502  1.00  0.00     0.006 C 
BRANCH   7   8
ATOM      8  C   UNL     1     -10.376  38.950   5.708  1.00  0.00     0.053 C 
BRANCH   8   9
ATOM      9  C   UNL     1     -11.483  39.537   6.528  1.00  0.00     0.041 C 
ATOM     10  O   UNL     1     -12.459  40.100   5.966  1.00  0.00    -0.550 OA
ATOM     11  O   UNL     1     -11.452  39.435   7.913  1.00  0.00    -0.550 OA
ENDBRANCH   8   9
ENDBRANCH   7   8
ENDBRANCH   6   7
ENDBRANCH   5   6
ENDBRANCH   4   5
ENDBRANCH   3   4
ENDBRANCH   2   3
ENDBRANCH   1   2
BRANCH   1  12
ATOM     12  C   UNL     1      -7.778  31.471   5.319  1.00  0.00     0.000 C 
BRANCH  12  13
ATOM     13  C   UNL     1      -7.630  30.070   5.933  1.00  0.00    -0.000 C 
BRANCH  13  14
ATOM     14  C   UNL     1      -6.799  29.124   5.052  1.00  0.00    -0.000 C 
BRANCH  14  15
ATOM     15  C   UNL     1      -6.156  27.980   5.852  1.00  0.00    -0.000 C 
BRANCH  15  16
ATOM     16  C   UNL     1      -4.620  28.012   5.812  1.00  0.00    -0.000 C 
BRANCH  16  17
ATOM     17  C   UNL     1      -4.014  29.308   6.392  1.00  0.00    -0.000 C 
BRANCH  17  18
ATOM     18  C   UNL     1      -3.009  29.027   7.520  1.00  0.00    -0.000 C 
BRANCH  18  19
ATOM     19  C   UNL     1      -3.263  27.652   8.151  1.00  0.00    -0.003 C 
ATOM     20  C   UNL     1      -1.997  27.102   8.800  1.00  0.00     0.004 C 
ENDBRANCH  18  19
ENDBRANCH  17  18
ENDBRANCH  16  17
ENDBRANCH  15  16
ENDBRANCH  14  15
ENDBRANCH  13  14
ENDBRANCH  12  13
ENDBRANCH   1  12
TORSDOF 16
ENDMDL
MODEL 7
REMARK VINA RESULT:    -5.120      4.053      9.895
REMARK INTER + INTRA:         -10.871
REMARK INTER:                  -9.392
REMARK INTRA:                  -1.479
REMARK UNBOUND:                -0.962
REMARK SMILES CCCCCCCCCCCCCCCCCC(=O)[O-]
REMARK SMILES IDX 10 1 11 2 12 3 13 4 14 5 15 6 16 7 17 8 18 9 19 10 20 11
REMARK SMILES IDX 9 12 8 13 7 14 6 15 5 16 4 17 3 18 2 19 1 20
REMARK H PARENT
REMARK Flexibility Score: inf
ROOT
ATOM      1  C   UNL     1      -8.309  33.279   4.975  1.00  0.00     0.000 C 
ENDROOT
BRANCH   1   2
ATOM      2  C   UNL     1      -7.065  33.070   5.851  1.00  0.00     0.000 C 
BRANCH   2   3
ATOM      3  C   UNL     1      -6.951  31.636   6.400  1.00  0.00     0.000 C 
BRANCH   3   4
ATOM      4  C   UNL     1      -7.547  30.545   5.492  1.00  0.00     0.000 C 
BRANCH   4   5
ATOM      5  C   UNL     1      -6.878  29.174   5.687  1.00  0.00     0.000 C 
BRANCH   5   6
ATOM      6  C   UNL     1      -5.881  28.840   4.567  1.00  0.00     0.000 C 
BRANCH   6   7
ATOM      7  C   UNL     1      -4.599  28.174   5.096  1.00  0.00     0.006 C 
BRANCH   7   8
ATOM      8  C   UNL     1      -3.889  29.038   6.146  1.00  0.00     0.053 C 
BRANCH   8   9
ATOM      9  C   UNL     1      -3.251  28.200   7.212  1.00  0.00     0.041 C 
ATOM     10  O   UNL     1      -3.665  27.032   7.433  1.00  0.00    -0.550 OA
ATOM     11  O   UNL     1      -2.179  28.700   7.941  1.00  0.00    -0.550 OA
ENDBRANCH   8   9
ENDBRANCH   7   8
ENDBRANCH   6   7
ENDBRANCH   5   6
ENDBRANCH   4   5
ENDBRANCH   3   4
ENDBRANCH   2   3
ENDBRANCH   1   2
BRANCH   1  12
ATOM     12  C   UNL     1      -9.317  34.206   5.664  1.00  0.00     0.000 C 
BRANCH  12  13
ATOM     13  C   UNL     1      -8.610  35.416   6.293  1.00  0.00    -0.000 C 
BRANCH  13  14
ATOM     14  C   UNL     1      -8.634  36.654   5.383  1.00  0.00    -0.000 C 
BRANCH  14  15
ATOM     15  C   UNL     1      -7.954  37.875   6.024  1.00  0.00    -0.000 C 
BRANCH  15  16
ATOM     16  C   UNL     1      -8.920  39.051   6.242  1.00  0.00    -0.000 C 
BRANCH  16  17
ATOM     17  C   UNL     1     -10.399  38.692   5.983  1.00  0.00    -0.000 C 
BRANCH  17  18
ATOM     18  C   UNL     1     -11.256  38.809   7.252  1.00  0.00    -0.000 C 
BRANCH  18  19
ATOM     19  C   UNL     1     -11.603  37.424   7.811  1.00  0.00    -0.003 C 
ATOM     20  C   UNL     1     -10.597  36.990   8.874  1.00  0.00     0.004 C 
ENDBRANCH  18  19
ENDBRANCH  17  18
ENDBRANCH  16  17
ENDBRANCH  15  16
ENDBRANCH  14  15
ENDBRANCH  13  14
ENDBRANCH  12  13
ENDBRANCH   1  12
TORSDOF 16
ENDMDL
MODEL 8
REMARK VINA RESULT:    -5.085      1.760      2.460
REMARK INTER + INTRA:         -10.804
REMARK INTER:                  -9.480
REMARK INTRA:                  -1.324
REMARK UNBOUND:                -0.962
REMARK SMILES CCCCCCCCCCCCCCCCCC(=O)[O-]
REMARK SMILES IDX 10 1 11 2 12 3 13 4 14 5 15 6 16 7 17 8 18 9 19 10 20 11
REMARK SMILES IDX 9 12 8 13 7 14 6 15 5 16 4 17 3 18 2 19 1 20
REMARK H PARENT
REMARK Flexibility Score: inf
ROOT
ATOM      1  C   UNL     1      -7.444  33.913   5.739  1.00  0.00     0.000 C 
ENDROOT
BRANCH   1   2
ATOM      2  C   UNL     1      -8.321  35.173   5.681  1.00  0.00     0.000 C 
BRANCH   2   3
ATOM      3  C   UNL     1      -9.804  34.861   5.413  1.00  0.00     0.000 C 
BRANCH   3   4
ATOM      4  C   UNL     1     -10.766  35.263   6.546  1.00  0.00     0.000 C 
BRANCH   4   5
ATOM      5  C   UNL     1     -10.090  35.274   7.928  1.00  0.00     0.000 C 
BRANCH   5   6
ATOM      6  C   UNL     1     -10.278  36.610   8.664  1.00  0.00     0.000 C 
BRANCH   6   7
ATOM      7  C   UNL     1     -11.299  37.528   7.970  1.00  0.00     0.006 C 
BRANCH   7   8
ATOM      8  C   UNL     1     -10.679  38.864   7.540  1.00  0.00     0.053 C 
BRANCH   8   9
ATOM      9  C   UNL     1      -9.918  38.733   6.257  1.00  0.00     0.041 C 
ATOM     10  O   UNL     1      -8.660  38.796   6.257  1.00  0.00    -0.550 OA
ATOM     11  O   UNL     1     -10.596  38.512   5.065  1.00  0.00    -0.550 OA
ENDBRANCH   8   9
ENDBRANCH   7   8
ENDBRANCH   6   7
ENDBRANCH   5   6
ENDBRANCH   4   5
ENDBRANCH   3   4
ENDBRANCH   2   3
ENDBRANCH   1   2
BRANCH   1  12
ATOM     12  C   UNL     1      -8.235  32.672   5.309  1.00  0.00     0.000 C 
BRANCH  12  13
ATOM     13  C   UNL     1      -8.038  31.521   6.307  1.00  0.00    -0.000 C 
BRANCH  13  14
ATOM     14  C   UNL     1      -7.371  30.292   5.668  1.00  0.00    -0.000 C 
BRANCH  14  15
ATOM     15  C   UNL     1      -5.838  30.324   5.782  1.00  0.00    -0.000 C 
BRANCH  15  16
ATOM     16  C   UNL     1      -5.219  28.922   5.903  1.00  0.00    -0.000 C 
BRANCH  16  17
ATOM     17  C   UNL     1      -3.683  28.937   6.057  1.00  0.00    -0.000 C 
BRANCH  17  18
ATOM     18  C   UNL     1      -3.246  29.316   7.480  1.00  0.00    -0.000 C 
BRANCH  18  19
ATOM     19  C   UNL     1      -2.155  28.367   7.991  1.00  0.00    -0.003 C 
ATOM     20  C   UNL     1      -2.675  27.490   9.126  1.00  0.00     0.004 C 
ENDBRANCH  18  19
ENDBRANCH  17  18
ENDBRANCH  16  17
ENDBRANCH  15  16
ENDBRANCH  14  15
ENDBRANCH  13  14
ENDBRANCH  12  13
ENDBRANCH   1  12
TORSDOF 16
ENDMDL
MODEL 9
REMARK VINA RESULT:    -5.083      1.665      3.625
REMARK INTER + INTRA:         -10.800
REMARK INTER:                  -9.257
REMARK INTRA:                  -1.543
REMARK UNBOUND:                -0.962
REMARK SMILES CCCCCCCCCCCCCCCCCC(=O)[O-]
REMARK SMILES IDX 10 1 11 2 12 3 13 4 14 5 15 6 16 7 17 8 18 9 19 10 20 11
REMARK SMILES IDX 9 12 8 13 7 14 6 15 5 16 4 17 3 18 2 19 1 20
REMARK H PARENT
REMARK Flexibility Score: inf
ROOT
ATOM      1  C   UNL     1      -8.128  37.785   6.204  1.00  0.00     0.000 C 
ENDROOT
BRANCH   1   2
ATOM      2  C   UNL     1      -9.054  38.979   6.478  1.00  0.00     0.000 C 
BRANCH   2   3
ATOM      3  C   UNL     1     -10.376  38.907   5.692  1.00  0.00     0.000 C 
BRANCH   3   4
ATOM      4  C   UNL     1     -11.628  39.310   6.491  1.00  0.00     0.000 C 
BRANCH   4   5
ATOM      5  C   UNL     1     -11.370  39.392   8.006  1.00  0.00     0.000 C 
BRANCH   5   6
ATOM      6  C   UNL     1     -12.145  38.324   8.793  1.00  0.00     0.000 C 
BRANCH   6   7
ATOM      7  C   UNL     1     -11.220  37.416   9.624  1.00  0.00     0.006 C 
BRANCH   7   8
ATOM      8  C   UNL     1     -10.500  36.375   8.759  1.00  0.00     0.053 C 
BRANCH   8   9
ATOM      9  C   UNL     1     -11.181  35.042   8.814  1.00  0.00     0.041 C 
ATOM     10  O   UNL     1     -11.062  34.311   9.832  1.00  0.00    -0.550 OA
ATOM     11  O   UNL     1     -11.971  34.621   7.752  1.00  0.00    -0.550 OA
ENDBRANCH   8   9
ENDBRANCH   7   8
ENDBRANCH   6   7
ENDBRANCH   5   6
ENDBRANCH   4   5
ENDBRANCH   3   4
ENDBRANCH   2   3
ENDBRANCH   1   2
BRANCH   1  12
ATOM     12  C   UNL     1      -8.857  36.693   5.412  1.00  0.00     0.000 C 
BRANCH  12  13
ATOM     13  C   UNL     1      -8.097  35.360   5.486  1.00  0.00    -0.000 C 
BRANCH  13  14
ATOM     14  C   UNL     1      -9.008  34.181   5.860  1.00  0.00    -0.000 C 
BRANCH  14  15
ATOM     15  C   UNL     1      -8.354  32.817   5.587  1.00  0.00    -0.000 C 
BRANCH  15  16
ATOM     16  C   UNL     1      -6.862  32.784   5.958  1.00  0.00    -0.000 C 
BRANCH  16  17
ATOM     17  C   UNL     1      -6.326  31.363   6.233  1.00  0.00    -0.000 C 
BRANCH  17  18
ATOM     18  C   UNL     1      -4.860  31.375   6.695  1.00  0.00    -0.000 C 
BRANCH  18  19
ATOM     19  C   UNL     1      -4.231  29.983   6.560  1.00  0.00    -0.003 C 
ATOM     20  C   UNL     1      -4.981  29.135   5.537  1.00  0.00     0.004 C 
ENDBRANCH  18  19
ENDBRANCH  17  18
ENDBRANCH  16  17
ENDBRANCH  15  16
ENDBRANCH  14  15
ENDBRANCH  13  14
ENDBRANCH  12  13
ENDBRANCH   1  12
TORSDOF 16
ENDMDL
