MODEL 1
REMARK VINA RESULT:    20.643      0.000      0.000
REMARK INTER + INTRA:          25.410
REMARK INTER:                  24.867
REMARK INTRA:                   0.544
REMARK UNBOUND:                 0.544
REMARK SMILES O=c1c(O)c(-c2ccc(O)c(O)c2)oc2cc(O)cc(O)c12
REMARK SMILES IDX 5 1 3 2 2 3 1 4 22 5 20 6 19 7 17 8 16 9 15 10 14 11 6 12
REMARK SMILES IDX 7 13 8 14 9 15 13 16 11 17 10 18 12 20 4 22 21 24 18 26
REMARK H PARENT 10 19 12 21 4 23 21 25 18 27
REMARK Flexibility Score: inf
ROOT
ATOM      1  C   UNL     1     -24.126 -18.364  -1.834  1.00  0.00     0.180 A 
ATOM      2  C   UNL     1     -22.720 -18.382  -1.761  1.00  0.00     0.208 A 
ATOM      3  C   UNL     1     -22.029 -19.501  -2.253  1.00  0.00     0.238 A 
ATOM      4  O   UNL     1     -20.770 -19.524  -2.203  1.00  0.00    -0.285 OA
ATOM      5  C   UNL     1     -22.753 -20.587  -2.789  1.00  0.00     0.111 A 
ATOM      6  C   UNL     1     -22.134 -21.753  -3.302  1.00  0.00     0.134 A 
ATOM      7  C   UNL     1     -22.925 -22.793  -3.810  1.00  0.00     0.093 A 
ATOM      8  C   UNL     1     -24.317 -22.694  -3.814  1.00  0.00     0.123 A 
ATOM      9  C   UNL     1     -24.935 -21.544  -3.310  1.00  0.00     0.094 A 
ATOM     10  C   UNL     1     -24.164 -20.495  -2.801  1.00  0.00     0.146 A 
ATOM     11  O   UNL     1     -24.775 -19.412  -2.333  1.00  0.00    -0.452 OA
ENDROOT
BRANCH   1  12
ATOM     12  C   UNL     1     -24.924 -17.213  -1.354  1.00  0.00     0.025 A 
ATOM     13  C   UNL     1     -26.329 -17.251  -1.339  1.00  0.00     0.016 A 
ATOM     14  C   UNL     1     -27.061 -16.161  -0.859  1.00  0.00     0.051 A 
ATOM     15  C   UNL     1     -26.399 -15.026  -0.374  1.00  0.00     0.157 A 
ATOM     16  C   UNL     1     -24.266 -16.080  -0.848  1.00  0.00     0.062 A 
ATOM     17  C   UNL     1     -24.999 -14.986  -0.366  1.00  0.00     0.158 A 
BRANCH  15  18
ATOM     18  O   UNL     1     -27.125 -13.935   0.104  1.00  0.00    -0.504 OA
ATOM     19  H   UNL     1     -27.940 -14.060   0.693  1.00  0.00     0.293 HD
ENDBRANCH  15  18
BRANCH  17  20
ATOM     20  O   UNL     1     -24.344 -13.857   0.123  1.00  0.00    -0.504 OA
ATOM     21  H   UNL     1     -24.852 -13.015   0.370  1.00  0.00     0.293 HD
ENDBRANCH  17  20
ENDBRANCH   1  12
BRANCH   2  22
ATOM     22  O   UNL     1     -22.029 -17.316  -1.181  1.00  0.00    -0.502 OA
ATOM     23  H   UNL     1     -22.142 -17.063  -0.205  1.00  0.00     0.293 HD
ENDBRANCH   2  22
BRANCH   6  24
ATOM     24  O   UNL     1     -20.745 -21.884  -3.309  1.00  0.00    -0.507 OA
ATOM     25  H   UNL     1     -20.136 -21.119  -3.041  1.00  0.00     0.293 HD
ENDBRANCH   6  24
BRANCH   8  26
ATOM     26  O   UNL     1     -25.080 -23.742  -4.324  1.00  0.00    -0.508 OA
ATOM     27  H   UNL     1     -25.089 -23.959  -5.315  1.00  0.00     0.293 HD
ENDBRANCH   8  26
TORSDOF 6
ENDMDL
MODEL 2
REMARK VINA RESULT:    22.215      1.195      1.745
REMARK INTER + INTRA:          27.304
REMARK INTER:                  27.307
REMARK INTRA:                  -0.003
REMARK UNBOUND:                 0.544
REMARK SMILES O=c1c(O)c(-c2ccc(O)c(O)c2)oc2cc(O)cc(O)c12
REMARK SMILES IDX 5 1 3 2 2 3 1 4 22 5 20 6 19 7 17 8 16 9 15 10 14 11 6 12
REMARK SMILES IDX 7 13 8 14 9 15 13 16 11 17 10 18 12 20 4 22 21 24 18 26
REMARK H PARENT 10 19 12 21 4 23 21 25 18 27
REMARK Flexibility Score: inf
ROOT
ATOM      1  C   UNL     1     -23.894 -19.180  -2.167  1.00  0.00     0.180 A 
ATOM      2  C   UNL     1     -22.547 -19.328  -2.553  1.00  0.00     0.208 A 
ATOM      3  C   UNL     1     -22.143 -20.530  -3.156  1.00  0.00     0.238 A 
ATOM      4  O   UNL     1     -20.943 -20.671  -3.515  1.00  0.00    -0.285 OA
ATOM      5  C   UNL     1     -23.082 -21.567  -3.342  1.00  0.00     0.111 A 
ATOM      6  C   UNL     1     -22.755 -22.809  -3.938  1.00  0.00     0.134 A 
ATOM      7  C   UNL     1     -23.744 -23.793  -4.081  1.00  0.00     0.093 A 
ATOM      8  C   UNL     1     -25.049 -23.561  -3.641  1.00  0.00     0.123 A 
ATOM      9  C   UNL     1     -25.379 -22.335  -3.053  1.00  0.00     0.094 A 
ATOM     10  C   UNL     1     -24.407 -21.341  -2.903  1.00  0.00     0.146 A 
ATOM     11  O   UNL     1     -24.747 -20.184  -2.346  1.00  0.00    -0.452 OA
ENDROOT
BRANCH   1  12
ATOM     12  C   UNL     1     -24.401 -17.936  -1.543  1.00  0.00     0.025 A 
ATOM     13  C   UNL     1     -23.756 -17.357  -0.436  1.00  0.00     0.016 A 
ATOM     14  C   UNL     1     -24.239 -16.169   0.121  1.00  0.00     0.051 A 
ATOM     15  C   UNL     1     -25.362 -15.538  -0.429  1.00  0.00     0.157 A 
ATOM     16  C   UNL     1     -25.513 -17.287  -2.102  1.00  0.00     0.062 A 
ATOM     17  C   UNL     1     -25.998 -16.096  -1.545  1.00  0.00     0.158 A 
BRANCH  15  18
ATOM     18  O   UNL     1     -25.848 -14.354   0.125  1.00  0.00    -0.504 OA
ATOM     19  H   UNL     1     -26.663 -14.347   0.727  1.00  0.00     0.293 HD
ENDBRANCH  15  18
BRANCH  17  20
ATOM     20  O   UNL     1     -27.111 -15.461  -2.093  1.00  0.00    -0.504 OA
ATOM     21  H   UNL     1     -28.053 -15.788  -1.909  1.00  0.00     0.293 HD
ENDBRANCH  17  20
ENDBRANCH   1  12
BRANCH   2  22
ATOM     22  O   UNL     1     -21.627 -18.306  -2.311  1.00  0.00    -0.502 OA
ATOM     23  H   UNL     1     -21.868 -17.471  -1.790  1.00  0.00     0.293 HD
ENDBRANCH   2  22
BRANCH   6  24
ATOM     24  O   UNL     1     -21.460 -23.072  -4.386  1.00  0.00    -0.507 OA
ATOM     25  H   UNL     1     -21.205 -22.979  -5.362  1.00  0.00     0.293 HD
ENDBRANCH   6  24
BRANCH   8  26
ATOM     26  O   UNL     1     -26.013 -24.556  -3.794  1.00  0.00    -0.508 OA
ATOM     27  H   UNL     1     -26.723 -24.719  -3.089  1.00  0.00     0.293 HD
ENDBRANCH   8  26
TORSDOF 6
ENDMDL
MODEL 3
REMARK VINA RESULT:    22.920      1.206      6.737
REMARK INTER + INTRA:          28.154
REMARK INTER:                  28.061
REMARK INTRA:                   0.093
REMARK UNBOUND:                 0.544
REMARK SMILES O=c1c(O)c(-c2ccc(O)c(O)c2)oc2cc(O)cc(O)c12
REMARK SMILES IDX 5 1 3 2 2 3 1 4 22 5 20 6 19 7 17 8 16 9 15 10 14 11 6 12
REMARK SMILES IDX 7 13 8 14 9 15 13 16 11 17 10 18 12 20 4 22 21 24 18 26
REMARK H PARENT 10 19 12 21 4 23 21 25 18 27
REMARK Flexibility Score: inf
ROOT
ATOM      1  C   UNL     1     -23.780 -20.037  -2.406  1.00  0.00     0.180 A 
ATOM      2  C   UNL     1     -22.530 -19.624  -1.904  1.00  0.00     0.208 A 
ATOM      3  C   UNL     1     -22.442 -18.393  -1.234  1.00  0.00     0.238 A 
ATOM      4  O   UNL     1     -21.331 -18.018  -0.770  1.00  0.00    -0.285 OA
ATOM      5  C   UNL     1     -23.593 -17.590  -1.096  1.00  0.00     0.111 A 
ATOM      6  C   UNL     1     -23.588 -16.336  -0.439  1.00  0.00     0.134 A 
ATOM      7  C   UNL     1     -24.774 -15.593  -0.350  1.00  0.00     0.093 A 
ATOM      8  C   UNL     1     -25.961 -16.075  -0.906  1.00  0.00     0.123 A 
ATOM      9  C   UNL     1     -25.973 -17.315  -1.556  1.00  0.00     0.094 A 
ATOM     10  C   UNL     1     -24.801 -18.071  -1.652  1.00  0.00     0.146 A 
ATOM     11  O   UNL     1     -24.840 -19.247  -2.270  1.00  0.00    -0.452 OA
ENDROOT
BRANCH   1  12
ATOM     12  C   UNL     1     -23.958 -21.329  -3.107  1.00  0.00     0.025 A 
ATOM     13  C   UNL     1     -23.032 -21.774  -4.067  1.00  0.00     0.016 A 
ATOM     14  C   UNL     1     -23.208 -23.009  -4.698  1.00  0.00     0.051 A 
ATOM     15  C   UNL     1     -24.301 -23.820  -4.369  1.00  0.00     0.157 A 
ATOM     16  C   UNL     1     -25.040 -22.156  -2.767  1.00  0.00     0.062 A 
ATOM     17  C   UNL     1     -25.218 -23.394  -3.399  1.00  0.00     0.158 A 
BRANCH  15  18
ATOM     18  O   UNL     1     -24.482 -25.052  -4.998  1.00  0.00    -0.504 OA
ATOM     19  H   UNL     1     -25.244 -25.207  -5.648  1.00  0.00     0.293 HD
ENDBRANCH  15  18
BRANCH  17  20
ATOM     20  O   UNL     1     -26.300 -24.207  -3.069  1.00  0.00    -0.504 OA
ATOM     21  H   UNL     1     -26.883 -24.631  -3.784  1.00  0.00     0.293 HD
ENDBRANCH  17  20
ENDBRANCH   1  12
BRANCH   2  22
ATOM     22  O   UNL     1     -21.395 -20.415  -2.097  1.00  0.00    -0.502 OA
ATOM     23  H   UNL     1     -21.453 -21.403  -2.317  1.00  0.00     0.293 HD
ENDBRANCH   2  22
BRANCH   6  24
ATOM     24  O   UNL     1     -22.418 -15.825   0.125  1.00  0.00    -0.507 OA
ATOM     25  H   UNL     1     -22.308 -14.837   0.319  1.00  0.00     0.293 HD
ENDBRANCH   6  24
BRANCH   8  26
ATOM     26  O   UNL     1     -27.125 -15.317  -0.804  1.00  0.00    -0.508 OA
ATOM     27  H   UNL     1     -27.131 -14.324  -1.012  1.00  0.00     0.293 HD
ENDBRANCH   8  26
TORSDOF 6
ENDMDL
